MODEL        1
REMARK 921   NORMALIZED FREE ENERGY PREDICTED BY IDOCK:   -4.49 KCAL/MOL
REMARK 922        TOTAL FREE ENERGY PREDICTED BY IDOCK:   -4.79 KCAL/MOL
REMARK 923 INTER-LIGAND FREE ENERGY PREDICTED BY IDOCK:   -4.75 KCAL/MOL
REMARK 924 INTRA-LIGAND FREE ENERGY PREDICTED BY IDOCK:   -0.04 KCAL/MOL
REMARK 927      BINDING AFFINITY PREDICTED BY RF-SCORE:    0.00 PKD
ROOT
HETATM    1  O   UNL     1      -9.904  16.761  65.630  1.00  0.00    -0.544 OA 
HETATM    2  C   UNL     1     -10.835  16.148  64.867  1.00  0.00    -0.334 C  
HETATM    3  C   UNL     1     -10.895  14.664  65.106  1.00  0.00    -0.414 C  
HETATM    4  O   UNL     1     -11.540  16.755  64.076  1.00  0.00    -1.195 OA 
ENDROOT
BRANCH   3   5
HETATM    5  C   UNL     1     -11.957  14.019  64.221  1.00  0.00    -0.463 C  
HETATM    6  C   UNL     1     -12.528  12.788  64.868  1.00  0.00    -0.497 C  
HETATM    7  O   UNL     1     -13.475  12.195  64.107  1.00  0.00    -0.671 OA 
HETATM    8  O   UNL     1     -12.193  12.352  65.958  1.00  0.00    -0.636 OA 
ENDBRANCH   3   5
TORSDOF 1
ENDMDL
MODEL        2
REMARK 921   NORMALIZED FREE ENERGY PREDICTED BY IDOCK:   -4.44 KCAL/MOL
REMARK 922        TOTAL FREE ENERGY PREDICTED BY IDOCK:   -4.74 KCAL/MOL
REMARK 923 INTER-LIGAND FREE ENERGY PREDICTED BY IDOCK:   -4.70 KCAL/MOL
REMARK 924 INTRA-LIGAND FREE ENERGY PREDICTED BY IDOCK:   -0.04 KCAL/MOL
REMARK 927      BINDING AFFINITY PREDICTED BY RF-SCORE:    0.00 PKD
ROOT
HETATM    1  O   UNL     1     -13.259  12.269  64.206  1.00  0.00    -0.785 OA 
HETATM    2  C   UNL     1     -12.424  12.931  65.038  1.00  0.00    -0.492 C  
HETATM    3  C   UNL     1     -11.830  14.160  64.405  1.00  0.00    -0.447 C  
HETATM    4  O   UNL     1     -12.193  12.552  66.175  1.00  0.00    -0.609 OA 
ENDROOT
BRANCH   3   5
HETATM    5  C   UNL     1     -10.895  14.868  65.380  1.00  0.00    -0.379 C  
HETATM    6  C   UNL     1     -10.808  16.339  65.078  1.00  0.00    -0.320 C  
HETATM    7  O   UNL     1      -9.987  16.994  65.928  1.00  0.00    -0.462 OA 
HETATM    8  O   UNL     1     -11.404  16.902  64.173  1.00  0.00    -1.208 OA 
ENDBRANCH   3   5
TORSDOF 1
ENDMDL
MODEL        3
REMARK 921   NORMALIZED FREE ENERGY PREDICTED BY IDOCK:   -4.32 KCAL/MOL
REMARK 922        TOTAL FREE ENERGY PREDICTED BY IDOCK:   -4.62 KCAL/MOL
REMARK 923 INTER-LIGAND FREE ENERGY PREDICTED BY IDOCK:   -4.53 KCAL/MOL
REMARK 924 INTRA-LIGAND FREE ENERGY PREDICTED BY IDOCK:   -0.09 KCAL/MOL
REMARK 927      BINDING AFFINITY PREDICTED BY RF-SCORE:    0.00 PKD
ROOT
HETATM    1  O   UNL     1     -12.826  12.139  63.213  1.00  0.00    -0.735 OA 
HETATM    2  C   UNL     1     -11.800  12.824  63.765  1.00  0.00    -0.499 C  
HETATM    3  C   UNL     1     -12.262  13.925  64.679  1.00  0.00    -0.449 C  
HETATM    4  O   UNL     1     -10.631  12.559  63.530  1.00  0.00    -0.432 OA 
ENDROOT
BRANCH   3   5
HETATM    5  C   UNL     1     -11.070  14.669  65.272  1.00  0.00    -0.363 C  
HETATM    6  C   UNL     1     -10.978  16.069  64.730  1.00  0.00    -0.356 C  
HETATM    7  O   UNL     1      -9.931  16.753  65.240  1.00  0.00    -0.546 OA 
HETATM    8  O   UNL     1     -11.751  16.556  63.920  1.00  0.00    -1.148 OA 
ENDBRANCH   3   5
TORSDOF 1
ENDMDL
MODEL        4
REMARK 921   NORMALIZED FREE ENERGY PREDICTED BY IDOCK:   -4.15 KCAL/MOL
REMARK 922        TOTAL FREE ENERGY PREDICTED BY IDOCK:   -4.43 KCAL/MOL
REMARK 923 INTER-LIGAND FREE ENERGY PREDICTED BY IDOCK:   -4.33 KCAL/MOL
REMARK 924 INTRA-LIGAND FREE ENERGY PREDICTED BY IDOCK:   -0.10 KCAL/MOL
REMARK 927      BINDING AFFINITY PREDICTED BY RF-SCORE:    0.00 PKD
ROOT
HETATM    1  O   UNL     1     -11.374  16.842  64.203  1.00  0.00    -1.208 OA 
HETATM    2  C   UNL     1     -11.635  15.535  64.423  1.00  0.00    -0.258 C  
HETATM    3  C   UNL     1     -10.653  14.899  65.369  1.00  0.00    -0.391 C  
HETATM    4  O   UNL     1     -12.572  14.954  63.898  1.00  0.00    -0.831 OA 
ENDROOT
BRANCH   3   5
HETATM    5  C   UNL     1     -10.988  13.426  65.581  1.00  0.00    -0.292 C  
HETATM    6  C   UNL     1     -11.730  13.218  66.873  1.00  0.00    -0.388 C  
HETATM    7  O   UNL     1     -12.042  11.921  67.088  1.00  0.00    -0.590 OA 
HETATM    8  O   UNL     1     -12.028  14.105  67.657  1.00  0.00    -0.377 OA 
ENDBRANCH   3   5
TORSDOF 1
ENDMDL
MODEL        5
REMARK 921   NORMALIZED FREE ENERGY PREDICTED BY IDOCK:   -4.09 KCAL/MOL
REMARK 922        TOTAL FREE ENERGY PREDICTED BY IDOCK:   -4.37 KCAL/MOL
REMARK 923 INTER-LIGAND FREE ENERGY PREDICTED BY IDOCK:   -4.28 KCAL/MOL
REMARK 924 INTRA-LIGAND FREE ENERGY PREDICTED BY IDOCK:   -0.10 KCAL/MOL
REMARK 927      BINDING AFFINITY PREDICTED BY RF-SCORE:    0.00 PKD
ROOT
HETATM    1  O   UNL     1      -9.744  17.458  65.950  1.00  0.00    -0.507 OA 
HETATM    2  C   UNL     1     -10.511  16.606  65.233  1.00  0.00    -0.173 C  
HETATM    3  C   UNL     1     -10.264  15.165  65.589  1.00  0.00    -0.387 C  
HETATM    4  O   UNL     1     -11.309  16.989  64.392  1.00  0.00    -1.140 OA 
ENDROOT
BRANCH   3   5
HETATM    5  C   UNL     1     -11.148  14.246  64.752  1.00  0.00    -0.398 C  
HETATM    6  C   UNL     1     -12.297  13.712  65.562  1.00  0.00    -0.482 C  
HETATM    7  O   UNL     1     -13.100  12.895  64.846  1.00  0.00    -0.799 OA 
HETATM    8  O   UNL     1     -12.503  13.972  66.737  1.00  0.00    -0.391 OA 
ENDBRANCH   3   5
TORSDOF 1
ENDMDL
MODEL        6
REMARK 921   NORMALIZED FREE ENERGY PREDICTED BY IDOCK:   -3.93 KCAL/MOL
REMARK 922        TOTAL FREE ENERGY PREDICTED BY IDOCK:   -4.20 KCAL/MOL
REMARK 923 INTER-LIGAND FREE ENERGY PREDICTED BY IDOCK:   -4.15 KCAL/MOL
REMARK 924 INTRA-LIGAND FREE ENERGY PREDICTED BY IDOCK:   -0.04 KCAL/MOL
REMARK 927      BINDING AFFINITY PREDICTED BY RF-SCORE:    0.00 PKD
ROOT
HETATM    1  O   UNL     1     -11.379  17.047  64.093  1.00  0.00    -1.164 OA 
HETATM    2  C   UNL     1     -11.014  16.047  64.925  1.00  0.00    -0.384 C  
HETATM    3  C   UNL     1     -11.515  14.703  64.470  1.00  0.00    -0.340 C  
HETATM    4  O   UNL     1     -10.349  16.238  65.931  1.00  0.00    -0.332 OA 
ENDROOT
BRANCH   3   5
HETATM    5  C   UNL     1     -11.081  13.610  65.442  1.00  0.00    -0.304 C  
HETATM    6  C   UNL     1     -12.125  12.533  65.550  1.00  0.00    -0.419 C  
HETATM    7  O   UNL     1     -11.767  11.549  66.403  1.00  0.00    -0.422 OA 
HETATM    8  O   UNL     1     -13.185  12.526  64.945  1.00  0.00    -0.787 OA 
ENDBRANCH   3   5
TORSDOF 1
ENDMDL
MODEL        7
REMARK 921   NORMALIZED FREE ENERGY PREDICTED BY IDOCK:   -3.90 KCAL/MOL
REMARK 922        TOTAL FREE ENERGY PREDICTED BY IDOCK:   -4.17 KCAL/MOL
REMARK 923 INTER-LIGAND FREE ENERGY PREDICTED BY IDOCK:   -4.10 KCAL/MOL
REMARK 924 INTRA-LIGAND FREE ENERGY PREDICTED BY IDOCK:   -0.07 KCAL/MOL
REMARK 927      BINDING AFFINITY PREDICTED BY RF-SCORE:    0.00 PKD
ROOT
HETATM    1  O   UNL     1     -11.675  11.527  66.513  1.00  0.00    -0.455 OA 
HETATM    2  C   UNL     1     -11.895  12.544  65.651  1.00  0.00    -0.438 C  
HETATM    3  C   UNL     1     -10.753  13.521  65.604  1.00  0.00    -0.284 C  
HETATM    4  O   UNL     1     -12.920  12.639  64.994  1.00  0.00    -0.812 OA 
ENDROOT
BRANCH   3   5
HETATM    5  C   UNL     1     -11.050  14.650  64.623  1.00  0.00    -0.345 C  
HETATM    6  C   UNL     1     -10.961  15.993  65.295  1.00  0.00    -0.299 C  
HETATM    7  O   UNL     1     -11.218  17.014  64.449  1.00  0.00    -1.167 OA 
HETATM    8  O   UNL     1     -10.688  16.167  66.472  1.00  0.00    -0.302 OA 
ENDBRANCH   3   5
TORSDOF 1
ENDMDL
MODEL        8
REMARK 921   NORMALIZED FREE ENERGY PREDICTED BY IDOCK:   -3.80 KCAL/MOL
REMARK 922        TOTAL FREE ENERGY PREDICTED BY IDOCK:   -4.07 KCAL/MOL
REMARK 923 INTER-LIGAND FREE ENERGY PREDICTED BY IDOCK:   -4.01 KCAL/MOL
REMARK 924 INTRA-LIGAND FREE ENERGY PREDICTED BY IDOCK:   -0.06 KCAL/MOL
REMARK 927      BINDING AFFINITY PREDICTED BY RF-SCORE:    0.00 PKD
ROOT
HETATM    1  O   UNL     1     -11.801  11.479  67.589  1.00  0.00    -0.595 OA 
HETATM    2  C   UNL     1     -11.801  12.792  67.267  1.00  0.00    -0.350 C  
HETATM    3  C   UNL     1     -11.361  13.041  65.850  1.00  0.00    -0.344 C  
HETATM    4  O   UNL     1     -12.126  13.663  68.059  1.00  0.00    -0.354 OA 
ENDROOT
BRANCH   3   5
HETATM    5  C   UNL     1     -11.374  14.534  65.537  1.00  0.00    -0.335 C  
HETATM    6  C   UNL     1     -12.147  14.818  64.279  1.00  0.00    -0.394 C  
HETATM    7  O   UNL     1     -12.178  16.135  63.977  1.00  0.00    -0.855 OA 
HETATM    8  O   UNL     1     -12.695  13.972  63.590  1.00  0.00    -0.778 OA 
ENDBRANCH   3   5
TORSDOF 1
ENDMDL
MODEL        9
REMARK 921   NORMALIZED FREE ENERGY PREDICTED BY IDOCK:   -3.80 KCAL/MOL
REMARK 922        TOTAL FREE ENERGY PREDICTED BY IDOCK:   -4.06 KCAL/MOL
REMARK 923 INTER-LIGAND FREE ENERGY PREDICTED BY IDOCK:   -3.98 KCAL/MOL
REMARK 924 INTRA-LIGAND FREE ENERGY PREDICTED BY IDOCK:   -0.08 KCAL/MOL
REMARK 927      BINDING AFFINITY PREDICTED BY RF-SCORE:    0.00 PKD
ROOT
HETATM    1  O   UNL     1     -12.866  12.268  63.763  1.00  0.00    -0.735 OA 
HETATM    2  C   UNL     1     -12.611  12.950  64.902  1.00  0.00    -0.458 C  
HETATM    3  C   UNL     1     -11.607  12.256  65.781  1.00  0.00    -0.443 C  
HETATM    4  O   UNL     1     -13.152  14.013  65.166  1.00  0.00    -0.776 OA 
ENDROOT
BRANCH   3   5
HETATM    5  C   UNL     1     -11.357  13.062  67.052  1.00  0.00    -0.343 C  
HETATM    6  C   UNL     1     -11.755  12.284  68.275  1.00  0.00    -0.336 C  
HETATM    7  O   UNL     1     -11.543  12.973  69.418  1.00  0.00    -0.281 OA 
HETATM    8  O   UNL     1     -12.220  11.155  68.264  1.00  0.00    -0.613 OA 
ENDBRANCH   3   5
TORSDOF 1
ENDMDL
MODEL       10
REMARK 921   NORMALIZED FREE ENERGY PREDICTED BY IDOCK:   -3.71 KCAL/MOL
REMARK 922        TOTAL FREE ENERGY PREDICTED BY IDOCK:   -3.97 KCAL/MOL
REMARK 923 INTER-LIGAND FREE ENERGY PREDICTED BY IDOCK:   -3.87 KCAL/MOL
REMARK 924 INTRA-LIGAND FREE ENERGY PREDICTED BY IDOCK:   -0.10 KCAL/MOL
REMARK 927      BINDING AFFINITY PREDICTED BY RF-SCORE:    0.00 PKD
ROOT
HETATM    1  O   UNL     1     -12.608  14.781  63.880  1.00  0.00    -0.834 OA 
HETATM    2  C   UNL     1     -11.646  15.593  64.372  1.00  0.00    -0.249 C  
HETATM    3  C   UNL     1     -10.710  14.881  65.310  1.00  0.00    -0.409 C  
HETATM    4  O   UNL     1     -11.567  16.774  64.073  1.00  0.00    -1.195 OA 
ENDROOT
BRANCH   3   5
HETATM    5  C   UNL     1      -9.647  15.838  65.839  1.00  0.00    -0.382 C  
HETATM    6  C   UNL     1     -10.004  16.342  67.211  1.00  0.00    -0.250 C  
HETATM    7  O   UNL     1      -9.078  17.192  67.707  1.00  0.00    -0.228 OA 
HETATM    8  O   UNL     1     -11.010  16.031  67.828  1.00  0.00    -0.327 OA 
ENDBRANCH   3   5
TORSDOF 1
ENDMDL
MODEL       11
REMARK 921   NORMALIZED FREE ENERGY PREDICTED BY IDOCK:   -3.67 KCAL/MOL
REMARK 922        TOTAL FREE ENERGY PREDICTED BY IDOCK:   -3.92 KCAL/MOL
REMARK 923 INTER-LIGAND FREE ENERGY PREDICTED BY IDOCK:   -3.84 KCAL/MOL
REMARK 924 INTRA-LIGAND FREE ENERGY PREDICTED BY IDOCK:   -0.08 KCAL/MOL
REMARK 927      BINDING AFFINITY PREDICTED BY RF-SCORE:    0.00 PKD
ROOT
HETATM    1  O   UNL     1     -11.115  12.998  68.947  1.00  0.00    -0.252 OA 
HETATM    2  C   UNL     1     -11.724  12.761  67.764  1.00  0.00    -0.359 C  
HETATM    3  C   UNL     1     -12.041  14.024  67.012  1.00  0.00    -0.455 C  
HETATM    4  O   UNL     1     -11.979  11.633  67.371  1.00  0.00    -0.621 OA 
ENDROOT
BRANCH   3   5
HETATM    5  C   UNL     1     -12.729  13.703  65.688  1.00  0.00    -0.505 C  
HETATM    6  C   UNL     1     -11.875  14.111  64.520  1.00  0.00    -0.436 C  
HETATM    7  O   UNL     1     -12.458  13.837  63.332  1.00  0.00    -0.817 OA 
HETATM    8  O   UNL     1     -10.774  14.632  64.607  1.00  0.00    -0.393 OA 
ENDBRANCH   3   5
TORSDOF 1
ENDMDL
MODEL       12
REMARK 921   NORMALIZED FREE ENERGY PREDICTED BY IDOCK:   -3.65 KCAL/MOL
REMARK 922        TOTAL FREE ENERGY PREDICTED BY IDOCK:   -3.90 KCAL/MOL
REMARK 923 INTER-LIGAND FREE ENERGY PREDICTED BY IDOCK:   -3.86 KCAL/MOL
REMARK 924 INTRA-LIGAND FREE ENERGY PREDICTED BY IDOCK:   -0.04 KCAL/MOL
REMARK 927      BINDING AFFINITY PREDICTED BY RF-SCORE:    0.00 PKD
ROOT
HETATM    1  O   UNL     1     -10.587  19.825  67.958  1.00  0.00    -0.418 OA 
HETATM    2  C   UNL     1     -10.465  18.486  67.828  1.00  0.00    -0.408 C  
HETATM    3  C   UNL     1     -10.255  18.058  66.401  1.00  0.00    -0.393 C  
HETATM    4  O   UNL     1     -10.525  17.725  68.782  1.00  0.00    -0.343 OA 
ENDROOT
BRANCH   3   5
HETATM    5  C   UNL     1     -10.127  16.541  66.308  1.00  0.00    -0.347 C  
HETATM    6  C   UNL     1     -10.709  16.025  65.021  1.00  0.00    -0.378 C  
HETATM    7  O   UNL     1     -10.609  14.683  64.909  1.00  0.00    -0.416 OA 
HETATM    8  O   UNL     1     -11.221  16.721  64.158  1.00  0.00    -1.155 OA 
ENDBRANCH   3   5
TORSDOF 1
ENDMDL
MODEL       13
REMARK 921   NORMALIZED FREE ENERGY PREDICTED BY IDOCK:   -3.64 KCAL/MOL
REMARK 922        TOTAL FREE ENERGY PREDICTED BY IDOCK:   -3.90 KCAL/MOL
REMARK 923 INTER-LIGAND FREE ENERGY PREDICTED BY IDOCK:   -3.86 KCAL/MOL
REMARK 924 INTRA-LIGAND FREE ENERGY PREDICTED BY IDOCK:   -0.04 KCAL/MOL
REMARK 927      BINDING AFFINITY PREDICTED BY RF-SCORE:    0.00 PKD
ROOT
HETATM    1  O   UNL     1     -12.441  15.365  74.412  1.00  0.00    -0.615 OA 
HETATM    2  C   UNL     1     -12.801  14.996  73.163  1.00  0.00    -0.506 C  
HETATM    3  C   UNL     1     -12.180  15.863  72.102  1.00  0.00    -0.578 C  
HETATM    4  O   UNL     1     -13.551  14.058  72.945  1.00  0.00    -0.676 OA 
ENDROOT
BRANCH   3   5
HETATM    5  C   UNL     1     -12.619  15.410  70.713  1.00  0.00    -0.497 C  
HETATM    6  C   UNL     1     -11.545  15.671  69.692  1.00  0.00    -0.356 C  
HETATM    7  O   UNL     1     -11.905  15.277  68.451  1.00  0.00    -0.339 OA 
HETATM    8  O   UNL     1     -10.462  16.179  69.933  1.00  0.00    -0.289 OA 
ENDBRANCH   3   5
TORSDOF 1
ENDMDL
MODEL       14
REMARK 921   NORMALIZED FREE ENERGY PREDICTED BY IDOCK:   -3.64 KCAL/MOL
REMARK 922        TOTAL FREE ENERGY PREDICTED BY IDOCK:   -3.90 KCAL/MOL
REMARK 923 INTER-LIGAND FREE ENERGY PREDICTED BY IDOCK:   -3.84 KCAL/MOL
REMARK 924 INTRA-LIGAND FREE ENERGY PREDICTED BY IDOCK:   -0.06 KCAL/MOL
REMARK 927      BINDING AFFINITY PREDICTED BY RF-SCORE:    0.00 PKD
ROOT
HETATM    1  O   UNL     1      -9.849  17.861  65.903  1.00  0.00    -0.529 OA 
HETATM    2  C   UNL     1     -10.408  16.682  66.257  1.00  0.00    -0.317 C  
HETATM    3  C   UNL     1     -10.506  15.719  65.106  1.00  0.00    -0.394 C  
HETATM    4  O   UNL     1     -10.786  16.449  67.395  1.00  0.00    -0.322 OA 
ENDROOT
BRANCH   3   5
HETATM    5  C   UNL     1     -11.145  14.408  65.554  1.00  0.00    -0.326 C  
HETATM    6  C   UNL     1     -12.255  13.999  64.625  1.00  0.00    -0.435 C  
HETATM    7  O   UNL     1     -12.840  12.839  64.996  1.00  0.00    -0.743 OA 
HETATM    8  O   UNL     1     -12.607  14.627  63.639  1.00  0.00    -0.773 OA 
ENDBRANCH   3   5
TORSDOF 1
ENDMDL
MODEL       15
REMARK 921   NORMALIZED FREE ENERGY PREDICTED BY IDOCK:   -3.64 KCAL/MOL
REMARK 922        TOTAL FREE ENERGY PREDICTED BY IDOCK:   -3.89 KCAL/MOL
REMARK 923 INTER-LIGAND FREE ENERGY PREDICTED BY IDOCK:   -3.84 KCAL/MOL
REMARK 924 INTRA-LIGAND FREE ENERGY PREDICTED BY IDOCK:   -0.05 KCAL/MOL
REMARK 927      BINDING AFFINITY PREDICTED BY RF-SCORE:    0.00 PKD
ROOT
HETATM    1  O   UNL     1     -12.512  14.673  63.952  1.00  0.00    -0.813 OA 
HETATM    2  C   UNL     1     -12.489  13.687  64.876  1.00  0.00    -0.384 C  
HETATM    3  C   UNL     1     -11.677  14.049  66.090  1.00  0.00    -0.395 C  
HETATM    4  O   UNL     1     -13.071  12.626  64.718  1.00  0.00    -0.852 OA 
ENDROOT
BRANCH   3   5
HETATM    5  C   UNL     1     -11.679  12.905  67.099  1.00  0.00    -0.437 C  
HETATM    6  C   UNL     1     -11.754  13.424  68.508  1.00  0.00    -0.357 C  
HETATM    7  O   UNL     1     -11.760  12.432  69.425  1.00  0.00    -0.291 OA 
HETATM    8  O   UNL     1     -11.806  14.605  68.815  1.00  0.00    -0.315 OA 
ENDBRANCH   3   5
TORSDOF 1
ENDMDL
MODEL       16
REMARK 921   NORMALIZED FREE ENERGY PREDICTED BY IDOCK:   -3.64 KCAL/MOL
REMARK 922        TOTAL FREE ENERGY PREDICTED BY IDOCK:   -3.89 KCAL/MOL
REMARK 923 INTER-LIGAND FREE ENERGY PREDICTED BY IDOCK:   -3.80 KCAL/MOL
REMARK 924 INTRA-LIGAND FREE ENERGY PREDICTED BY IDOCK:   -0.09 KCAL/MOL
REMARK 927      BINDING AFFINITY PREDICTED BY RF-SCORE:    0.00 PKD
ROOT
HETATM    1  O   UNL     1     -12.870  11.952  63.346  1.00  0.00    -0.715 OA 
HETATM    2  C   UNL     1     -12.264  13.082  63.771  1.00  0.00    -0.460 C  
HETATM    3  C   UNL     1     -11.223  12.820  64.825  1.00  0.00    -0.339 C  
HETATM    4  O   UNL     1     -12.550  14.186  63.334  1.00  0.00    -0.818 OA 
ENDROOT
BRANCH   3   5
HETATM    5  C   UNL     1     -10.572  14.125  65.274  1.00  0.00    -0.387 C  
HETATM    6  C   UNL     1     -11.213  14.648  66.530  1.00  0.00    -0.346 C  
HETATM    7  O   UNL     1     -10.655  15.803  66.953  1.00  0.00    -0.312 OA 
HETATM    8  O   UNL     1     -12.135  14.107  67.120  1.00  0.00    -0.426 OA 
ENDBRANCH   3   5
TORSDOF 1
ENDMDL
MODEL       17
REMARK 921   NORMALIZED FREE ENERGY PREDICTED BY IDOCK:   -3.63 KCAL/MOL
REMARK 922        TOTAL FREE ENERGY PREDICTED BY IDOCK:   -3.89 KCAL/MOL
REMARK 923 INTER-LIGAND FREE ENERGY PREDICTED BY IDOCK:   -3.79 KCAL/MOL
REMARK 924 INTRA-LIGAND FREE ENERGY PREDICTED BY IDOCK:   -0.09 KCAL/MOL
REMARK 927      BINDING AFFINITY PREDICTED BY RF-SCORE:    0.00 PKD
ROOT
HETATM    1  O   UNL     1     -12.528  14.085  63.451  1.00  0.00    -0.826 OA 
HETATM    2  C   UNL     1     -12.195  12.781  63.567  1.00  0.00    -0.525 C  
HETATM    3  C   UNL     1     -10.749  12.583  63.934  1.00  0.00    -0.473 C  
HETATM    4  O   UNL     1     -12.998  11.878  63.388  1.00  0.00    -0.730 OA 
ENDROOT
BRANCH   3   5
HETATM    5  C   UNL     1     -10.423  11.097  64.050  1.00  0.00    -0.447 C  
HETATM    6  C   UNL     1     -10.261  10.687  65.488  1.00  0.00    -0.262 C  
HETATM    7  O   UNL     1      -9.973   9.374  65.622  1.00  0.00    -0.304 OA 
HETATM    8  O   UNL     1     -10.374  11.437  66.445  1.00  0.00    -0.226 OA 
ENDBRANCH   3   5
TORSDOF 1
ENDMDL
MODEL       18
REMARK 921   NORMALIZED FREE ENERGY PREDICTED BY IDOCK:   -3.62 KCAL/MOL
REMARK 922        TOTAL FREE ENERGY PREDICTED BY IDOCK:   -3.87 KCAL/MOL
REMARK 923 INTER-LIGAND FREE ENERGY PREDICTED BY IDOCK:   -3.83 KCAL/MOL
REMARK 924 INTRA-LIGAND FREE ENERGY PREDICTED BY IDOCK:   -0.05 KCAL/MOL
REMARK 927      BINDING AFFINITY PREDICTED BY RF-SCORE:    0.00 PKD
ROOT
HETATM    1  O   UNL     1     -11.946  13.093  69.747  1.00  0.00    -0.313 OA 
HETATM    2  C   UNL     1     -11.909  13.980  68.728  1.00  0.00    -0.361 C  
HETATM    3  C   UNL     1     -11.740  13.317  67.388  1.00  0.00    -0.419 C  
HETATM    4  O   UNL     1     -12.002  15.185  68.902  1.00  0.00    -0.308 OA 
ENDROOT
BRANCH   3   5
HETATM    5  C   UNL     1     -11.700  14.358  66.274  1.00  0.00    -0.394 C  
HETATM    6  C   UNL     1     -12.443  13.880  65.057  1.00  0.00    -0.419 C  
HETATM    7  O   UNL     1     -12.427  14.784  64.053  1.00  0.00    -0.803 OA 
HETATM    8  O   UNL     1     -13.008  12.802  64.963  1.00  0.00    -0.811 OA 
ENDBRANCH   3   5
TORSDOF 1
ENDMDL
MODEL       19
REMARK 921   NORMALIZED FREE ENERGY PREDICTED BY IDOCK:   -3.62 KCAL/MOL
REMARK 922        TOTAL FREE ENERGY PREDICTED BY IDOCK:   -3.87 KCAL/MOL
REMARK 923 INTER-LIGAND FREE ENERGY PREDICTED BY IDOCK:   -3.77 KCAL/MOL
REMARK 924 INTRA-LIGAND FREE ENERGY PREDICTED BY IDOCK:   -0.10 KCAL/MOL
REMARK 927      BINDING AFFINITY PREDICTED BY RF-SCORE:    0.00 PKD
ROOT
HETATM    1  O   UNL     1     -12.432  14.203  63.679  1.00  0.00    -0.819 OA 
HETATM    2  C   UNL     1     -12.402  13.060  64.399  1.00  0.00    -0.376 C  
HETATM    3  C   UNL     1     -11.179  12.954  65.268  1.00  0.00    -0.319 C  
HETATM    4  O   UNL     1     -13.284  12.218  64.332  1.00  0.00    -0.806 OA 
ENDROOT
BRANCH   3   5
HETATM    5  C   UNL     1     -11.190  11.647  66.056  1.00  0.00    -0.299 C  
HETATM    6  C   UNL     1     -11.659  11.868  67.467  1.00  0.00    -0.304 C  
HETATM    7  O   UNL     1     -11.681  10.726  68.190  1.00  0.00    -0.501 OA 
HETATM    8  O   UNL     1     -11.988  12.947  67.933  1.00  0.00    -0.349 OA 
ENDBRANCH   3   5
TORSDOF 1
ENDMDL
MODEL       20
REMARK 921   NORMALIZED FREE ENERGY PREDICTED BY IDOCK:   -3.62 KCAL/MOL
REMARK 922        TOTAL FREE ENERGY PREDICTED BY IDOCK:   -3.87 KCAL/MOL
REMARK 923 INTER-LIGAND FREE ENERGY PREDICTED BY IDOCK:   -3.82 KCAL/MOL
REMARK 924 INTRA-LIGAND FREE ENERGY PREDICTED BY IDOCK:   -0.05 KCAL/MOL
REMARK 927      BINDING AFFINITY PREDICTED BY RF-SCORE:    0.00 PKD
ROOT
HETATM    1  O   UNL     1     -11.548  13.158  69.136  1.00  0.00    -0.278 OA 
HETATM    2  C   UNL     1     -11.734  12.424  68.017  1.00  0.00    -0.356 C  
HETATM    3  C   UNL     1     -11.473  13.207  66.759  1.00  0.00    -0.386 C  
HETATM    4  O   UNL     1     -12.079  11.253  68.049  1.00  0.00    -0.638 OA 
ENDROOT
BRANCH   3   5
HETATM    5  C   UNL     1     -11.701  12.337  65.527  1.00  0.00    -0.433 C  
HETATM    6  C   UNL     1     -12.464  13.084  64.468  1.00  0.00    -0.363 C  
HETATM    7  O   UNL     1     -12.679  12.339  63.362  1.00  0.00    -0.727 OA 
HETATM    8  O   UNL     1     -12.857  14.236  64.572  1.00  0.00    -0.637 OA 
ENDBRANCH   3   5
TORSDOF 1
ENDMDL
MODEL       21
REMARK 921   NORMALIZED FREE ENERGY PREDICTED BY IDOCK:   -3.61 KCAL/MOL
REMARK 922        TOTAL FREE ENERGY PREDICTED BY IDOCK:   -3.86 KCAL/MOL
REMARK 923 INTER-LIGAND FREE ENERGY PREDICTED BY IDOCK:   -3.77 KCAL/MOL
REMARK 924 INTRA-LIGAND FREE ENERGY PREDICTED BY IDOCK:   -0.09 KCAL/MOL
REMARK 927      BINDING AFFINITY PREDICTED BY RF-SCORE:    0.00 PKD
ROOT
HETATM    1  O   UNL     1     -12.562  14.319  63.474  1.00  0.00    -0.814 OA 
HETATM    2  C   UNL     1     -12.238  13.264  64.255  1.00  0.00    -0.392 C  
HETATM    3  C   UNL     1     -10.751  13.099  64.418  1.00  0.00    -0.426 C  
HETATM    4  O   UNL     1     -13.079  12.537  64.760  1.00  0.00    -0.853 OA 
ENDROOT
BRANCH   3   5
HETATM    5  C   UNL     1     -10.438  11.896  65.302  1.00  0.00    -0.317 C  
HETATM    6  C   UNL     1     -10.099  10.687  64.475  1.00  0.00    -0.353 C  
HETATM    7  O   UNL     1      -9.814   9.605  65.232  1.00  0.00    -0.310 OA 
HETATM    8  O   UNL     1     -10.076  10.660  63.254  1.00  0.00    -0.305 OA 
ENDBRANCH   3   5
TORSDOF 1
ENDMDL
MODEL       22
REMARK 921   NORMALIZED FREE ENERGY PREDICTED BY IDOCK:   -3.60 KCAL/MOL
REMARK 922        TOTAL FREE ENERGY PREDICTED BY IDOCK:   -3.85 KCAL/MOL
REMARK 923 INTER-LIGAND FREE ENERGY PREDICTED BY IDOCK:   -3.76 KCAL/MOL
REMARK 924 INTRA-LIGAND FREE ENERGY PREDICTED BY IDOCK:   -0.09 KCAL/MOL
REMARK 927      BINDING AFFINITY PREDICTED BY RF-SCORE:    0.00 PKD
ROOT
HETATM    1  O   UNL     1      -9.456   9.788  64.372  1.00  0.00    -0.274 OA 
HETATM    2  C   UNL     1      -9.794  11.043  64.000  1.00  0.00    -0.313 C  
HETATM    3  C   UNL     1     -10.414  11.833  65.120  1.00  0.00    -0.330 C  
HETATM    4  O   UNL     1      -9.607  11.466  62.870  1.00  0.00    -0.367 OA 
ENDROOT
BRANCH   3   5
HETATM    5  C   UNL     1     -10.779  13.237  64.650  1.00  0.00    -0.415 C  
HETATM    6  C   UNL     1     -12.266  13.381  64.474  1.00  0.00    -0.398 C  
HETATM    7  O   UNL     1     -12.621  14.617  64.059  1.00  0.00    -0.819 OA 
HETATM    8  O   UNL     1     -13.082  12.496  64.677  1.00  0.00    -0.845 OA 
ENDBRANCH   3   5
TORSDOF 1
ENDMDL
MODEL       23
REMARK 921   NORMALIZED FREE ENERGY PREDICTED BY IDOCK:   -3.54 KCAL/MOL
REMARK 922        TOTAL FREE ENERGY PREDICTED BY IDOCK:   -3.79 KCAL/MOL
REMARK 923 INTER-LIGAND FREE ENERGY PREDICTED BY IDOCK:   -3.69 KCAL/MOL
REMARK 924 INTRA-LIGAND FREE ENERGY PREDICTED BY IDOCK:   -0.10 KCAL/MOL
REMARK 927      BINDING AFFINITY PREDICTED BY RF-SCORE:    0.00 PKD
ROOT
HETATM    1  O   UNL     1     -11.618  16.525  63.890  1.00  0.00    -1.175 OA 
HETATM    2  C   UNL     1     -10.821  15.950  64.818  1.00  0.00    -0.324 C  
HETATM    3  C   UNL     1     -10.977  14.455  64.870  1.00  0.00    -0.416 C  
HETATM    4  O   UNL     1     -10.065  16.597  65.527  1.00  0.00    -0.553 OA 
ENDROOT
BRANCH   3   5
HETATM    5  C   UNL     1     -10.062  13.855  65.932  1.00  0.00    -0.331 C  
HETATM    6  C   UNL     1     -10.823  13.538  67.190  1.00  0.00    -0.284 C  
HETATM    7  O   UNL     1     -10.038  13.002  68.150  1.00  0.00    -0.225 OA 
HETATM    8  O   UNL     1     -12.018  13.732  67.349  1.00  0.00    -0.379 OA 
ENDBRANCH   3   5
TORSDOF 1
ENDMDL
MODEL       24
REMARK 921   NORMALIZED FREE ENERGY PREDICTED BY IDOCK:   -3.52 KCAL/MOL
REMARK 922        TOTAL FREE ENERGY PREDICTED BY IDOCK:   -3.77 KCAL/MOL
REMARK 923 INTER-LIGAND FREE ENERGY PREDICTED BY IDOCK:   -3.68 KCAL/MOL
REMARK 924 INTRA-LIGAND FREE ENERGY PREDICTED BY IDOCK:   -0.09 KCAL/MOL
REMARK 927      BINDING AFFINITY PREDICTED BY RF-SCORE:    0.00 PKD
ROOT
HETATM    1  O   UNL     1     -11.046  14.608  64.583  1.00  0.00    -0.376 OA 
HETATM    2  C   UNL     1     -10.881  15.925  64.838  1.00  0.00    -0.400 C  
HETATM    3  C   UNL     1      -9.962  16.179  66.002  1.00  0.00    -0.373 C  
HETATM    4  O   UNL     1     -11.430  16.796  64.181  1.00  0.00    -1.171 OA 
ENDROOT
BRANCH   3   5
HETATM    5  C   UNL     1      -9.812  17.676  66.251  1.00  0.00    -0.297 C  
HETATM    6  C   UNL     1     -10.521  18.091  67.511  1.00  0.00    -0.396 C  
HETATM    7  O   UNL     1     -10.403  19.414  67.760  1.00  0.00    -0.385 OA 
HETATM    8  O   UNL     1     -11.140  17.336  68.245  1.00  0.00    -0.281 OA 
ENDBRANCH   3   5
TORSDOF 1
ENDMDL
MODEL       25
REMARK 921   NORMALIZED FREE ENERGY PREDICTED BY IDOCK:   -3.50 KCAL/MOL
REMARK 922        TOTAL FREE ENERGY PREDICTED BY IDOCK:   -3.75 KCAL/MOL
REMARK 923 INTER-LIGAND FREE ENERGY PREDICTED BY IDOCK:   -3.69 KCAL/MOL
REMARK 924 INTRA-LIGAND FREE ENERGY PREDICTED BY IDOCK:   -0.06 KCAL/MOL
REMARK 927      BINDING AFFINITY PREDICTED BY RF-SCORE:    0.00 PKD
ROOT
HETATM    1  O   UNL     1     -13.385  10.697  71.986  1.00  0.00    -0.440 OA 
HETATM    2  C   UNL     1     -12.940  11.885  71.520  1.00  0.00    -0.323 C  
HETATM    3  C   UNL     1     -13.511  13.054  72.275  1.00  0.00    -0.645 C  
HETATM    4  O   UNL     1     -12.159  11.974  70.586  1.00  0.00    -0.373 OA 
ENDROOT
BRANCH   3   5
HETATM    5  C   UNL     1     -12.982  14.369  71.710  1.00  0.00    -0.419 C  
HETATM    6  C   UNL     1     -12.453  15.256  72.804  1.00  0.00    -0.391 C  
HETATM    7  O   UNL     1     -11.975  16.429  72.333  1.00  0.00    -0.530 OA 
HETATM    8  O   UNL     1     -12.445  14.971  73.991  1.00  0.00    -0.566 OA 
ENDBRANCH   3   5
TORSDOF 1
ENDMDL
MODEL       26
REMARK 921   NORMALIZED FREE ENERGY PREDICTED BY IDOCK:   -3.44 KCAL/MOL
REMARK 922        TOTAL FREE ENERGY PREDICTED BY IDOCK:   -3.68 KCAL/MOL
REMARK 923 INTER-LIGAND FREE ENERGY PREDICTED BY IDOCK:   -3.60 KCAL/MOL
REMARK 924 INTRA-LIGAND FREE ENERGY PREDICTED BY IDOCK:   -0.08 KCAL/MOL
REMARK 927      BINDING AFFINITY PREDICTED BY RF-SCORE:    0.00 PKD
ROOT
HETATM    1  O   UNL     1      -8.326  19.766  66.307  1.00  0.00    -0.339 OA 
HETATM    2  C   UNL     1      -8.491  18.428  66.212  1.00  0.00    -0.196 C  
HETATM    3  C   UNL     1      -9.926  18.008  66.375  1.00  0.00    -0.362 C  
HETATM    4  O   UNL     1      -7.559  17.664  66.017  1.00  0.00    -0.414 OA 
ENDROOT
BRANCH   3   5
HETATM    5  C   UNL     1     -10.059  16.493  66.264  1.00  0.00    -0.347 C  
HETATM    6  C   UNL     1     -10.894  16.106  65.074  1.00  0.00    -0.363 C  
HETATM    7  O   UNL     1     -11.028  14.768  64.948  1.00  0.00    -0.382 OA 
HETATM    8  O   UNL     1     -11.405  16.895  64.294  1.00  0.00    -1.202 OA 
ENDBRANCH   3   5
TORSDOF 1
ENDMDL
MODEL       27
REMARK 921   NORMALIZED FREE ENERGY PREDICTED BY IDOCK:   -3.41 KCAL/MOL
REMARK 922        TOTAL FREE ENERGY PREDICTED BY IDOCK:   -3.65 KCAL/MOL
REMARK 923 INTER-LIGAND FREE ENERGY PREDICTED BY IDOCK:   -3.61 KCAL/MOL
REMARK 924 INTRA-LIGAND FREE ENERGY PREDICTED BY IDOCK:   -0.03 KCAL/MOL
REMARK 927      BINDING AFFINITY PREDICTED BY RF-SCORE:    0.00 PKD
ROOT
HETATM    1  O   UNL     1     -10.304  10.276  67.793  1.00  0.00    -0.179 OA 
HETATM    2  C   UNL     1     -11.161  11.222  67.349  1.00  0.00    -0.303 C  
HETATM    3  C   UNL     1     -10.885  11.633  65.929  1.00  0.00    -0.339 C  
HETATM    4  O   UNL     1     -12.054  11.679  68.046  1.00  0.00    -0.597 OA 
ENDROOT
BRANCH   3   5
HETATM    5  C   UNL     1     -11.875  12.703  65.477  1.00  0.00    -0.479 C  
HETATM    6  C   UNL     1     -11.786  12.933  63.993  1.00  0.00    -0.434 C  
HETATM    7  O   UNL     1     -12.654  13.875  63.562  1.00  0.00    -0.842 OA 
HETATM    8  O   UNL     1     -11.024  12.347  63.240  1.00  0.00    -0.438 OA 
ENDBRANCH   3   5
TORSDOF 1
ENDMDL
MODEL       28
REMARK 921   NORMALIZED FREE ENERGY PREDICTED BY IDOCK:   -3.38 KCAL/MOL
REMARK 922        TOTAL FREE ENERGY PREDICTED BY IDOCK:   -3.62 KCAL/MOL
REMARK 923 INTER-LIGAND FREE ENERGY PREDICTED BY IDOCK:   -3.52 KCAL/MOL
REMARK 924 INTRA-LIGAND FREE ENERGY PREDICTED BY IDOCK:   -0.09 KCAL/MOL
REMARK 927      BINDING AFFINITY PREDICTED BY RF-SCORE:    0.00 PKD
ROOT
HETATM    1  O   UNL     1      -9.801   9.755  66.193  1.00  0.00    -0.225 OA 
HETATM    2  C   UNL     1     -10.052  11.013  65.768  1.00  0.00    -0.252 C  
HETATM    3  C   UNL     1     -10.601  11.053  64.369  1.00  0.00    -0.395 C  
HETATM    4  O   UNL     1      -9.845  11.995  66.464  1.00  0.00    -0.201 OA 
ENDROOT
BRANCH   3   5
HETATM    5  C   UNL     1     -10.864  12.492  63.935  1.00  0.00    -0.472 C  
HETATM    6  C   UNL     1     -12.339  12.783  63.884  1.00  0.00    -0.426 C  
HETATM    7  O   UNL     1     -12.603  14.053  63.505  1.00  0.00    -0.842 OA 
HETATM    8  O   UNL     1     -13.219  11.980  64.152  1.00  0.00    -0.712 OA 
ENDBRANCH   3   5
TORSDOF 1
ENDMDL
MODEL       29
REMARK 921   NORMALIZED FREE ENERGY PREDICTED BY IDOCK:   -3.33 KCAL/MOL
REMARK 922        TOTAL FREE ENERGY PREDICTED BY IDOCK:   -3.57 KCAL/MOL
REMARK 923 INTER-LIGAND FREE ENERGY PREDICTED BY IDOCK:   -3.49 KCAL/MOL
REMARK 924 INTRA-LIGAND FREE ENERGY PREDICTED BY IDOCK:   -0.08 KCAL/MOL
REMARK 927      BINDING AFFINITY PREDICTED BY RF-SCORE:    0.00 PKD
ROOT
HETATM    1  O   UNL     1     -12.593  14.852  64.096  1.00  0.00    -0.785 OA 
HETATM    2  C   UNL     1     -12.570  13.821  64.969  1.00  0.00    -0.389 C  
HETATM    3  C   UNL     1     -11.865  14.163  66.253  1.00  0.00    -0.427 C  
HETATM    4  O   UNL     1     -13.074  12.736  64.720  1.00  0.00    -0.813 OA 
ENDROOT
BRANCH   3   5
HETATM    5  C   UNL     1     -11.863  12.969  67.202  1.00  0.00    -0.431 C  
HETATM    6  C   UNL     1     -10.588  12.181  67.082  1.00  0.00    -0.226 C  
HETATM    7  O   UNL     1     -10.557  11.117  67.913  1.00  0.00    -0.180 OA 
HETATM    8  O   UNL     1      -9.668  12.453  66.326  1.00  0.00    -0.238 OA 
ENDBRANCH   3   5
TORSDOF 1
ENDMDL
MODEL       30
REMARK 921   NORMALIZED FREE ENERGY PREDICTED BY IDOCK:   -3.32 KCAL/MOL
REMARK 922        TOTAL FREE ENERGY PREDICTED BY IDOCK:   -3.56 KCAL/MOL
REMARK 923 INTER-LIGAND FREE ENERGY PREDICTED BY IDOCK:   -3.46 KCAL/MOL
REMARK 924 INTRA-LIGAND FREE ENERGY PREDICTED BY IDOCK:   -0.10 KCAL/MOL
REMARK 927      BINDING AFFINITY PREDICTED BY RF-SCORE:    0.00 PKD
ROOT
HETATM    1  O   UNL     1     -13.759  16.333  73.391  1.00  0.00    -0.597 OA 
HETATM    2  C   UNL     1     -12.900  15.632  72.619  1.00  0.00    -0.445 C  
HETATM    3  C   UNL     1     -13.591  14.895  71.504  1.00  0.00    -0.511 C  
HETATM    4  O   UNL     1     -11.696  15.614  72.824  1.00  0.00    -0.445 OA 
ENDROOT
BRANCH   3   5
HETATM    5  C   UNL     1     -12.581  14.119  70.665  1.00  0.00    -0.421 C  
HETATM    6  C   UNL     1     -12.551  12.668  71.058  1.00  0.00    -0.262 C  
HETATM    7  O   UNL     1     -11.665  11.953  70.329  1.00  0.00    -0.303 OA 
HETATM    8  O   UNL     1     -13.239  12.166  71.933  1.00  0.00    -0.478 OA 
ENDBRANCH   3   5
TORSDOF 1
ENDMDL
MODEL       31
REMARK 921   NORMALIZED FREE ENERGY PREDICTED BY IDOCK:   -3.31 KCAL/MOL
REMARK 922        TOTAL FREE ENERGY PREDICTED BY IDOCK:   -3.54 KCAL/MOL
REMARK 923 INTER-LIGAND FREE ENERGY PREDICTED BY IDOCK:   -3.50 KCAL/MOL
REMARK 924 INTRA-LIGAND FREE ENERGY PREDICTED BY IDOCK:   -0.04 KCAL/MOL
REMARK 927      BINDING AFFINITY PREDICTED BY RF-SCORE:    0.00 PKD
ROOT
HETATM    1  O   UNL     1     -11.550  13.926  69.108  1.00  0.00    -0.269 OA 
HETATM    2  C   UNL     1     -11.484  14.953  69.983  1.00  0.00    -0.278 C  
HETATM    3  C   UNL     1     -12.292  14.709  71.227  1.00  0.00    -0.407 C  
HETATM    4  O   UNL     1     -10.831  15.962  69.763  1.00  0.00    -0.271 OA 
ENDROOT
BRANCH   3   5
HETATM    5  C   UNL     1     -12.187  15.896  72.179  1.00  0.00    -0.578 C  
HETATM    6  C   UNL     1     -12.549  15.500  73.584  1.00  0.00    -0.582 C  
HETATM    7  O   UNL     1     -12.464  16.533  74.451  1.00  0.00    -0.724 OA 
HETATM    8  O   UNL     1     -12.886  14.378  73.928  1.00  0.00    -0.394 OA 
ENDBRANCH   3   5
TORSDOF 1
ENDMDL
MODEL       32
REMARK 921   NORMALIZED FREE ENERGY PREDICTED BY IDOCK:   -3.29 KCAL/MOL
REMARK 922        TOTAL FREE ENERGY PREDICTED BY IDOCK:   -3.52 KCAL/MOL
REMARK 923 INTER-LIGAND FREE ENERGY PREDICTED BY IDOCK:   -3.48 KCAL/MOL
REMARK 924 INTRA-LIGAND FREE ENERGY PREDICTED BY IDOCK:   -0.04 KCAL/MOL
REMARK 927      BINDING AFFINITY PREDICTED BY RF-SCORE:    0.00 PKD
ROOT
HETATM    1  O   UNL     1      -9.624  10.459  62.957  1.00  0.00    -0.313 OA 
HETATM    2  C   UNL     1     -10.401  10.870  63.984  1.00  0.00    -0.349 C  
HETATM    3  C   UNL     1     -11.404  11.911  63.570  1.00  0.00    -0.516 C  
HETATM    4  O   UNL     1     -10.280  10.430  65.116  1.00  0.00    -0.304 OA 
ENDROOT
BRANCH   3   5
HETATM    5  C   UNL     1     -12.253  12.344  64.762  1.00  0.00    -0.493 C  
HETATM    6  C   UNL     1     -12.694  13.775  64.623  1.00  0.00    -0.145 C  
HETATM    7  O   UNL     1     -13.450  14.187  65.664  1.00  0.00    -0.576 OA 
HETATM    8  O   UNL     1     -12.415  14.504  63.684  1.00  0.00    -0.782 OA 
ENDBRANCH   3   5
TORSDOF 1
ENDMDL
MODEL       33
REMARK 921   NORMALIZED FREE ENERGY PREDICTED BY IDOCK:   -3.28 KCAL/MOL
REMARK 922        TOTAL FREE ENERGY PREDICTED BY IDOCK:   -3.51 KCAL/MOL
REMARK 923 INTER-LIGAND FREE ENERGY PREDICTED BY IDOCK:   -3.45 KCAL/MOL
REMARK 924 INTRA-LIGAND FREE ENERGY PREDICTED BY IDOCK:   -0.07 KCAL/MOL
REMARK 927      BINDING AFFINITY PREDICTED BY RF-SCORE:    0.00 PKD
ROOT
HETATM    1  O   UNL     1     -11.052  13.492  68.871  1.00  0.00    -0.252 OA 
HETATM    2  C   UNL     1     -11.025  14.605  68.104  1.00  0.00    -0.261 C  
HETATM    3  C   UNL     1     -10.611  14.322  66.686  1.00  0.00    -0.278 C  
HETATM    4  O   UNL     1     -11.309  15.710  68.540  1.00  0.00    -0.322 OA 
ENDROOT
BRANCH   3   5
HETATM    5  C   UNL     1     -10.592  15.607  65.865  1.00  0.00    -0.354 C  
HETATM    6  C   UNL     1     -11.433  15.472  64.625  1.00  0.00    -0.324 C  
HETATM    7  O   UNL     1     -11.437  16.597  63.877  1.00  0.00    -1.186 OA 
HETATM    8  O   UNL     1     -12.052  14.468  64.308  1.00  0.00    -0.471 OA 
ENDBRANCH   3   5
TORSDOF 1
ENDMDL
MODEL       34
REMARK 921   NORMALIZED FREE ENERGY PREDICTED BY IDOCK:   -3.28 KCAL/MOL
REMARK 922        TOTAL FREE ENERGY PREDICTED BY IDOCK:   -3.51 KCAL/MOL
REMARK 923 INTER-LIGAND FREE ENERGY PREDICTED BY IDOCK:   -3.42 KCAL/MOL
REMARK 924 INTRA-LIGAND FREE ENERGY PREDICTED BY IDOCK:   -0.09 KCAL/MOL
REMARK 927      BINDING AFFINITY PREDICTED BY RF-SCORE:    0.00 PKD
ROOT
HETATM    1  O   UNL     1      -9.803  15.239  67.076  1.00  0.00    -0.225 OA 
HETATM    2  C   UNL     1     -10.368  14.156  66.499  1.00  0.00    -0.284 C  
HETATM    3  C   UNL     1     -10.280  14.186  64.998  1.00  0.00    -0.399 C  
HETATM    4  O   UNL     1     -10.890  13.263  67.148  1.00  0.00    -0.255 OA 
ENDROOT
BRANCH   3   5
HETATM    5  C   UNL     1     -10.934  12.946  64.396  1.00  0.00    -0.400 C  
HETATM    6  C   UNL     1     -12.180  13.305  63.634  1.00  0.00    -0.451 C  
HETATM    7  O   UNL     1     -12.781  12.226  63.087  1.00  0.00    -0.625 OA 
HETATM    8  O   UNL     1     -12.620  14.437  63.509  1.00  0.00    -0.784 OA 
ENDBRANCH   3   5
TORSDOF 1
ENDMDL
MODEL       35
REMARK 921   NORMALIZED FREE ENERGY PREDICTED BY IDOCK:   -3.26 KCAL/MOL
REMARK 922        TOTAL FREE ENERGY PREDICTED BY IDOCK:   -3.49 KCAL/MOL
REMARK 923 INTER-LIGAND FREE ENERGY PREDICTED BY IDOCK:   -3.43 KCAL/MOL
REMARK 924 INTRA-LIGAND FREE ENERGY PREDICTED BY IDOCK:   -0.07 KCAL/MOL
REMARK 927      BINDING AFFINITY PREDICTED BY RF-SCORE:    0.00 PKD
ROOT
HETATM    1  O   UNL     1     -10.997  10.417  67.643  1.00  0.00    -0.287 OA 
HETATM    2  C   UNL     1     -10.889  11.447  66.775  1.00  0.00    -0.286 C  
HETATM    3  C   UNL     1     -11.963  12.483  66.968  1.00  0.00    -0.295 C  
HETATM    4  O   UNL     1     -10.007  11.507  65.932  1.00  0.00    -0.214 OA 
ENDROOT
BRANCH   3   5
HETATM    5  C   UNL     1     -11.800  13.620  65.964  1.00  0.00    -0.415 C  
HETATM    6  C   UNL     1     -12.633  13.383  64.735  1.00  0.00    -0.314 C  
HETATM    7  O   UNL     1     -12.511  14.376  63.827  1.00  0.00    -0.814 OA 
HETATM    8  O   UNL     1     -13.349  12.410  64.553  1.00  0.00    -0.800 OA 
ENDBRANCH   3   5
TORSDOF 1
ENDMDL
MODEL       36
REMARK 921   NORMALIZED FREE ENERGY PREDICTED BY IDOCK:   -3.24 KCAL/MOL
REMARK 922        TOTAL FREE ENERGY PREDICTED BY IDOCK:   -3.47 KCAL/MOL
REMARK 923 INTER-LIGAND FREE ENERGY PREDICTED BY IDOCK:   -3.42 KCAL/MOL
REMARK 924 INTRA-LIGAND FREE ENERGY PREDICTED BY IDOCK:   -0.05 KCAL/MOL
REMARK 927      BINDING AFFINITY PREDICTED BY RF-SCORE:    0.00 PKD
ROOT
HETATM    1  O   UNL     1     -13.195  10.552  72.164  1.00  0.00    -0.458 OA 
HETATM    2  C   UNL     1     -12.973  11.770  71.621  1.00  0.00    -0.362 C  
HETATM    3  C   UNL     1     -12.098  11.709  70.399  1.00  0.00    -0.462 C  
HETATM    4  O   UNL     1     -13.443  12.794  72.090  1.00  0.00    -0.530 OA 
ENDROOT
BRANCH   3   5
HETATM    5  C   UNL     1     -11.875  13.105  69.827  1.00  0.00    -0.386 C  
HETATM    6  C   UNL     1     -11.882  13.083  68.323  1.00  0.00    -0.343 C  
HETATM    7  O   UNL     1     -11.689  14.308  67.786  1.00  0.00    -0.336 OA 
HETATM    8  O   UNL     1     -12.043  12.083  67.640  1.00  0.00    -0.547 OA 
ENDBRANCH   3   5
TORSDOF 1
ENDMDL
MODEL       37
REMARK 921   NORMALIZED FREE ENERGY PREDICTED BY IDOCK:   -3.24 KCAL/MOL
REMARK 922        TOTAL FREE ENERGY PREDICTED BY IDOCK:   -3.47 KCAL/MOL
REMARK 923 INTER-LIGAND FREE ENERGY PREDICTED BY IDOCK:   -3.39 KCAL/MOL
REMARK 924 INTRA-LIGAND FREE ENERGY PREDICTED BY IDOCK:   -0.08 KCAL/MOL
REMARK 927      BINDING AFFINITY PREDICTED BY RF-SCORE:    0.00 PKD
ROOT
HETATM    1  O   UNL     1      -9.903  14.888  68.168  1.00  0.00    -0.212 OA 
HETATM    2  C   UNL     1     -10.116  14.069  67.114  1.00  0.00    -0.259 C  
HETATM    3  C   UNL     1     -11.449  13.376  67.178  1.00  0.00    -0.373 C  
HETATM    4  O   UNL     1      -9.297  13.923  66.220  1.00  0.00    -0.245 OA 
ENDROOT
BRANCH   3   5
HETATM    5  C   UNL     1     -11.639  12.462  65.971  1.00  0.00    -0.455 C  
HETATM    6  C   UNL     1     -12.739  12.965  65.077  1.00  0.00    -0.404 C  
HETATM    7  O   UNL     1     -12.929  12.177  63.997  1.00  0.00    -0.696 OA 
HETATM    8  O   UNL     1     -13.400  13.971  65.282  1.00  0.00    -0.741 OA 
ENDBRANCH   3   5
TORSDOF 1
ENDMDL
MODEL       38
REMARK 921   NORMALIZED FREE ENERGY PREDICTED BY IDOCK:   -3.23 KCAL/MOL
REMARK 922        TOTAL FREE ENERGY PREDICTED BY IDOCK:   -3.46 KCAL/MOL
REMARK 923 INTER-LIGAND FREE ENERGY PREDICTED BY IDOCK:   -3.42 KCAL/MOL
REMARK 924 INTRA-LIGAND FREE ENERGY PREDICTED BY IDOCK:   -0.04 KCAL/MOL
REMARK 927      BINDING AFFINITY PREDICTED BY RF-SCORE:    0.00 PKD
ROOT
HETATM    1  O   UNL     1     -12.439  14.508  71.207  1.00  0.00    -0.306 OA 
HETATM    2  C   UNL     1     -13.040  13.427  71.752  1.00  0.00    -0.388 C  
HETATM    3  C   UNL     1     -12.542  12.132  71.170  1.00  0.00    -0.360 C  
HETATM    4  O   UNL     1     -13.893  13.518  72.621  1.00  0.00    -0.724 OA 
ENDROOT
BRANCH   3   5
HETATM    5  C   UNL     1     -13.252  10.945  71.815  1.00  0.00    -0.513 C  
HETATM    6  C   UNL     1     -12.377   9.722  71.811  1.00  0.00    -0.386 C  
HETATM    7  O   UNL     1     -12.979   8.654  72.378  1.00  0.00    -0.374 OA 
HETATM    8  O   UNL     1     -11.246   9.674  71.354  1.00  0.00    -0.365 OA 
ENDBRANCH   3   5
TORSDOF 1
ENDMDL
MODEL       39
REMARK 921   NORMALIZED FREE ENERGY PREDICTED BY IDOCK:   -3.19 KCAL/MOL
REMARK 922        TOTAL FREE ENERGY PREDICTED BY IDOCK:   -3.42 KCAL/MOL
REMARK 923 INTER-LIGAND FREE ENERGY PREDICTED BY IDOCK:   -3.32 KCAL/MOL
REMARK 924 INTRA-LIGAND FREE ENERGY PREDICTED BY IDOCK:   -0.10 KCAL/MOL
REMARK 927      BINDING AFFINITY PREDICTED BY RF-SCORE:    0.00 PKD
ROOT
HETATM    1  O   UNL     1     -13.035  11.978  63.389  1.00  0.00    -0.772 OA 
HETATM    2  C   UNL     1     -11.907  11.987  64.133  1.00  0.00    -0.373 C  
HETATM    3  C   UNL     1     -12.102  12.635  65.476  1.00  0.00    -0.515 C  
HETATM    4  O   UNL     1     -10.853  11.515  63.734  1.00  0.00    -0.364 OA 
ENDROOT
BRANCH   3   5
HETATM    5  C   UNL     1     -10.802  12.624  66.273  1.00  0.00    -0.300 C  
HETATM    6  C   UNL     1     -10.843  11.591  67.366  1.00  0.00    -0.246 C  
HETATM    7  O   UNL     1      -9.703  11.557  68.089  1.00  0.00    -0.179 OA 
HETATM    8  O   UNL     1     -11.790  10.854  67.594  1.00  0.00    -0.572 OA 
ENDBRANCH   3   5
TORSDOF 1
ENDMDL
MODEL       40
REMARK 921   NORMALIZED FREE ENERGY PREDICTED BY IDOCK:   -3.17 KCAL/MOL
REMARK 922        TOTAL FREE ENERGY PREDICTED BY IDOCK:   -3.40 KCAL/MOL
REMARK 923 INTER-LIGAND FREE ENERGY PREDICTED BY IDOCK:   -3.37 KCAL/MOL
REMARK 924 INTRA-LIGAND FREE ENERGY PREDICTED BY IDOCK:   -0.03 KCAL/MOL
REMARK 927      BINDING AFFINITY PREDICTED BY RF-SCORE:    0.00 PKD
ROOT
HETATM    1  O   UNL     1     -11.639   8.981  70.374  1.00  0.00    -0.226 OA 
HETATM    2  C   UNL     1     -12.396   9.654  71.270  1.00  0.00    -0.360 C  
HETATM    3  C   UNL     1     -12.412  11.137  71.016  1.00  0.00    -0.506 C  
HETATM    4  O   UNL     1     -12.991   9.096  72.178  1.00  0.00    -0.372 OA 
ENDROOT
BRANCH   3   5
HETATM    5  C   UNL     1     -13.274  11.850  72.053  1.00  0.00    -0.461 C  
HETATM    6  C   UNL     1     -13.167  13.344  71.914  1.00  0.00    -0.431 C  
HETATM    7  O   UNL     1     -13.923  14.003  72.819  1.00  0.00    -0.669 OA 
HETATM    8  O   UNL     1     -12.481  13.920  71.084  1.00  0.00    -0.341 OA 
ENDBRANCH   3   5
TORSDOF 1
ENDMDL
MODEL       41
REMARK 921   NORMALIZED FREE ENERGY PREDICTED BY IDOCK:   -3.13 KCAL/MOL
REMARK 922        TOTAL FREE ENERGY PREDICTED BY IDOCK:   -3.35 KCAL/MOL
REMARK 923 INTER-LIGAND FREE ENERGY PREDICTED BY IDOCK:   -3.26 KCAL/MOL
REMARK 924 INTRA-LIGAND FREE ENERGY PREDICTED BY IDOCK:   -0.09 KCAL/MOL
REMARK 927      BINDING AFFINITY PREDICTED BY RF-SCORE:    0.00 PKD
ROOT
HETATM    1  O   UNL     1     -13.286  10.985  72.044  1.00  0.00    -0.499 OA 
HETATM    2  C   UNL     1     -13.363   9.636  72.061  1.00  0.00    -0.457 C  
HETATM    3  C   UNL     1     -12.198   8.980  71.371  1.00  0.00    -0.387 C  
HETATM    4  O   UNL     1     -14.290   9.037  72.584  1.00  0.00    -0.603 OA 
ENDROOT
BRANCH   3   5
HETATM    5  C   UNL     1     -12.333   7.461  71.414  1.00  0.00    -0.394 C  
HETATM    6  C   UNL     1     -11.508   6.873  72.525  1.00  0.00    -0.230 C  
HETATM    7  O   UNL     1     -11.609   5.527  72.589  1.00  0.00    -0.300 OA 
HETATM    8  O   UNL     1     -10.816   7.518  73.297  1.00  0.00    -0.386 OA 
ENDBRANCH   3   5
TORSDOF 1
ENDMDL
MODEL       42
REMARK 921   NORMALIZED FREE ENERGY PREDICTED BY IDOCK:   -3.06 KCAL/MOL
REMARK 922        TOTAL FREE ENERGY PREDICTED BY IDOCK:   -3.28 KCAL/MOL
REMARK 923 INTER-LIGAND FREE ENERGY PREDICTED BY IDOCK:   -3.24 KCAL/MOL
REMARK 924 INTRA-LIGAND FREE ENERGY PREDICTED BY IDOCK:   -0.04 KCAL/MOL
REMARK 927      BINDING AFFINITY PREDICTED BY RF-SCORE:    0.00 PKD
ROOT
HETATM    1  O   UNL     1     -11.111  12.549  68.242  1.00  0.00    -0.227 OA 
HETATM    2  C   UNL     1     -11.778  13.619  68.729  1.00  0.00    -0.348 C  
HETATM    3  C   UNL     1     -12.030  13.520  70.209  1.00  0.00    -0.386 C  
HETATM    4  O   UNL     1     -12.129  14.552  68.024  1.00  0.00    -0.297 OA 
ENDROOT
BRANCH   3   5
HETATM    5  C   UNL     1     -12.787  14.746  70.709  1.00  0.00    -0.418 C  
HETATM    6  C   UNL     1     -13.688  14.396  71.861  1.00  0.00    -0.431 C  
HETATM    7  O   UNL     1     -14.371  15.464  72.328  1.00  0.00    -0.550 OA 
HETATM    8  O   UNL     1     -13.806  13.279  72.341  1.00  0.00    -0.581 OA 
ENDBRANCH   3   5
TORSDOF 1
ENDMDL
MODEL       43
REMARK 921   NORMALIZED FREE ENERGY PREDICTED BY IDOCK:   -3.05 KCAL/MOL
REMARK 922        TOTAL FREE ENERGY PREDICTED BY IDOCK:   -3.27 KCAL/MOL
REMARK 923 INTER-LIGAND FREE ENERGY PREDICTED BY IDOCK:   -3.17 KCAL/MOL
REMARK 924 INTRA-LIGAND FREE ENERGY PREDICTED BY IDOCK:   -0.09 KCAL/MOL
REMARK 927      BINDING AFFINITY PREDICTED BY RF-SCORE:    0.00 PKD
ROOT
HETATM    1  O   UNL     1     -12.071  14.202  66.657  1.00  0.00    -0.429 OA 
HETATM    2  C   UNL     1     -11.473  13.804  65.512  1.00  0.00    -0.311 C  
HETATM    3  C   UNL     1     -12.149  12.614  64.888  1.00  0.00    -0.494 C  
HETATM    4  O   UNL     1     -10.490  14.366  65.054  1.00  0.00    -0.388 OA 
ENDROOT
BRANCH   3   5
HETATM    5  C   UNL     1     -11.437  12.203  63.603  1.00  0.00    -0.566 C  
HETATM    6  C   UNL     1     -10.488  11.062  63.850  1.00  0.00    -0.354 C  
HETATM    7  O   UNL     1      -9.843  10.674  62.729  1.00  0.00    -0.303 OA 
HETATM    8  O   UNL     1     -10.304  10.529  64.933  1.00  0.00    -0.328 OA 
ENDBRANCH   3   5
TORSDOF 1
ENDMDL
MODEL       44
REMARK 921   NORMALIZED FREE ENERGY PREDICTED BY IDOCK:   -3.02 KCAL/MOL
REMARK 922        TOTAL FREE ENERGY PREDICTED BY IDOCK:   -3.24 KCAL/MOL
REMARK 923 INTER-LIGAND FREE ENERGY PREDICTED BY IDOCK:   -3.20 KCAL/MOL
REMARK 924 INTRA-LIGAND FREE ENERGY PREDICTED BY IDOCK:   -0.04 KCAL/MOL
REMARK 927      BINDING AFFINITY PREDICTED BY RF-SCORE:    0.00 PKD
ROOT
HETATM    1  O   UNL     1      -8.352   8.715  72.542  1.00  0.00    -0.364 OA 
HETATM    2  C   UNL     1      -9.567   8.204  72.841  1.00  0.00    -0.275 C  
HETATM    3  C   UNL     1     -10.675   8.842  72.048  1.00  0.00    -0.417 C  
HETATM    4  O   UNL     1      -9.722   7.322  73.671  1.00  0.00    -0.235 OA 
ENDROOT
BRANCH   3   5
HETATM    5  C   UNL     1     -12.023   8.235  72.425  1.00  0.00    -0.447 C  
HETATM    6  C   UNL     1     -13.134   9.235  72.257  1.00  0.00    -0.441 C  
HETATM    7  O   UNL     1     -14.342   8.725  72.581  1.00  0.00    -0.585 OA 
HETATM    8  O   UNL     1     -12.987  10.384  71.872  1.00  0.00    -0.438 OA 
ENDBRANCH   3   5
TORSDOF 1
ENDMDL
MODEL       45
REMARK 921   NORMALIZED FREE ENERGY PREDICTED BY IDOCK:   -3.02 KCAL/MOL
REMARK 922        TOTAL FREE ENERGY PREDICTED BY IDOCK:   -3.24 KCAL/MOL
REMARK 923 INTER-LIGAND FREE ENERGY PREDICTED BY IDOCK:   -3.20 KCAL/MOL
REMARK 924 INTRA-LIGAND FREE ENERGY PREDICTED BY IDOCK:   -0.04 KCAL/MOL
REMARK 927      BINDING AFFINITY PREDICTED BY RF-SCORE:    0.00 PKD
ROOT
HETATM    1  O   UNL     1     -14.390   8.887  72.464  1.00  0.00    -0.579 OA 
HETATM    2  C   UNL     1     -13.157   9.354  72.163  1.00  0.00    -0.442 C  
HETATM    3  C   UNL     1     -12.083   8.317  72.351  1.00  0.00    -0.430 C  
HETATM    4  O   UNL     1     -12.963  10.498  71.784  1.00  0.00    -0.429 OA 
ENDROOT
BRANCH   3   5
HETATM    5  C   UNL     1     -10.714   8.893  72.003  1.00  0.00    -0.389 C  
HETATM    6  C   UNL     1      -9.632   8.259  72.833  1.00  0.00    -0.249 C  
HETATM    7  O   UNL     1      -8.406   8.747  72.545  1.00  0.00    -0.398 OA 
HETATM    8  O   UNL     1      -9.815   7.397  73.678  1.00  0.00    -0.280 OA 
ENDBRANCH   3   5
TORSDOF 1
ENDMDL
MODEL       46
REMARK 921   NORMALIZED FREE ENERGY PREDICTED BY IDOCK:   -3.02 KCAL/MOL
REMARK 922        TOTAL FREE ENERGY PREDICTED BY IDOCK:   -3.24 KCAL/MOL
REMARK 923 INTER-LIGAND FREE ENERGY PREDICTED BY IDOCK:   -3.14 KCAL/MOL
REMARK 924 INTRA-LIGAND FREE ENERGY PREDICTED BY IDOCK:   -0.10 KCAL/MOL
REMARK 927      BINDING AFFINITY PREDICTED BY RF-SCORE:    0.00 PKD
ROOT
HETATM    1  O   UNL     1     -11.760   5.574  72.522  1.00  0.00    -0.272 OA 
HETATM    2  C   UNL     1     -11.749   6.694  71.766  1.00  0.00    -0.318 C  
HETATM    3  C   UNL     1     -11.517   7.939  72.577  1.00  0.00    -0.455 C  
HETATM    4  O   UNL     1     -11.914   6.671  70.556  1.00  0.00    -0.400 OA 
ENDROOT
BRANCH   3   5
HETATM    5  C   UNL     1     -11.517   9.173  71.680  1.00  0.00    -0.451 C  
HETATM    6  C   UNL     1     -12.829   9.904  71.761  1.00  0.00    -0.442 C  
HETATM    7  O   UNL     1     -12.858  11.004  70.978  1.00  0.00    -0.359 OA 
HETATM    8  O   UNL     1     -13.777   9.562  72.451  1.00  0.00    -0.438 OA 
ENDBRANCH   3   5
TORSDOF 1
ENDMDL
MODEL       47
REMARK 921   NORMALIZED FREE ENERGY PREDICTED BY IDOCK:   -3.00 KCAL/MOL
REMARK 922        TOTAL FREE ENERGY PREDICTED BY IDOCK:   -3.22 KCAL/MOL
REMARK 923 INTER-LIGAND FREE ENERGY PREDICTED BY IDOCK:   -3.16 KCAL/MOL
REMARK 924 INTRA-LIGAND FREE ENERGY PREDICTED BY IDOCK:   -0.05 KCAL/MOL
REMARK 927      BINDING AFFINITY PREDICTED BY RF-SCORE:    0.00 PKD
ROOT
HETATM    1  O   UNL     1     -11.538  14.079  67.695  1.00  0.00    -0.313 OA 
HETATM    2  C   UNL     1     -11.413  15.356  68.119  1.00  0.00    -0.343 C  
HETATM    3  C   UNL     1     -10.453  16.155  67.281  1.00  0.00    -0.309 C  
HETATM    4  O   UNL     1     -12.025  15.791  69.083  1.00  0.00    -0.387 OA 
ENDROOT
BRANCH   3   5
HETATM    5  C   UNL     1     -10.345  17.585  67.801  1.00  0.00    -0.367 C  
HETATM    6  C   UNL     1     -10.399  18.579  66.674  1.00  0.00    -0.408 C  
HETATM    7  O   UNL     1     -10.308  19.856  67.105  1.00  0.00    -0.420 OA 
HETATM    8  O   UNL     1     -10.512  18.289  65.493  1.00  0.00    -0.616 OA 
ENDBRANCH   3   5
TORSDOF 1
ENDMDL
MODEL       48
REMARK 921   NORMALIZED FREE ENERGY PREDICTED BY IDOCK:   -3.00 KCAL/MOL
REMARK 922        TOTAL FREE ENERGY PREDICTED BY IDOCK:   -3.22 KCAL/MOL
REMARK 923 INTER-LIGAND FREE ENERGY PREDICTED BY IDOCK:   -3.16 KCAL/MOL
REMARK 924 INTRA-LIGAND FREE ENERGY PREDICTED BY IDOCK:   -0.06 KCAL/MOL
REMARK 927      BINDING AFFINITY PREDICTED BY RF-SCORE:    0.00 PKD
ROOT
HETATM    1  O   UNL     1     -12.135  13.054  63.203  1.00  0.00    -0.548 OA 
HETATM    2  C   UNL     1     -12.066  13.610  64.432  1.00  0.00    -0.427 C  
HETATM    3  C   UNL     1     -10.651  13.861  64.877  1.00  0.00    -0.436 C  
HETATM    4  O   UNL     1     -13.060  13.870  65.092  1.00  0.00    -0.773 OA 
ENDROOT
BRANCH   3   5
HETATM    5  C   UNL     1     -10.628  14.484  66.269  1.00  0.00    -0.304 C  
HETATM    6  C   UNL     1      -9.637  13.786  67.160  1.00  0.00    -0.244 C  
HETATM    7  O   UNL     1      -9.592  14.318  68.401  1.00  0.00    -0.211 OA 
HETATM    8  O   UNL     1      -8.939  12.843  66.823  1.00  0.00    -0.218 OA 
ENDBRANCH   3   5
TORSDOF 1
ENDMDL
MODEL       49
REMARK 921   NORMALIZED FREE ENERGY PREDICTED BY IDOCK:   -2.99 KCAL/MOL
REMARK 922        TOTAL FREE ENERGY PREDICTED BY IDOCK:   -3.21 KCAL/MOL
REMARK 923 INTER-LIGAND FREE ENERGY PREDICTED BY IDOCK:   -3.12 KCAL/MOL
REMARK 924 INTRA-LIGAND FREE ENERGY PREDICTED BY IDOCK:   -0.08 KCAL/MOL
REMARK 927      BINDING AFFINITY PREDICTED BY RF-SCORE:    0.00 PKD
ROOT
HETATM    1  O   UNL     1      -6.898  20.287  68.908  1.00  0.00    -0.266 OA 
HETATM    2  C   UNL     1      -7.390  19.912  67.707  1.00  0.00    -0.288 C  
HETATM    3  C   UNL     1      -8.841  20.272  67.536  1.00  0.00    -0.415 C  
HETATM    4  O   UNL     1      -6.711  19.342  66.867  1.00  0.00    -0.196 OA 
ENDROOT
BRANCH   3   5
HETATM    5  C   UNL     1      -9.349  19.826  66.169  1.00  0.00    -0.439 C  
HETATM    6  C   UNL     1     -10.365  18.725  66.300  1.00  0.00    -0.448 C  
HETATM    7  O   UNL     1     -10.835  18.309  65.104  1.00  0.00    -0.656 OA 
HETATM    8  O   UNL     1     -10.740  18.243  67.358  1.00  0.00    -0.412 OA 
ENDBRANCH   3   5
TORSDOF 1
ENDMDL
MODEL       50
REMARK 921   NORMALIZED FREE ENERGY PREDICTED BY IDOCK:   -2.99 KCAL/MOL
REMARK 922        TOTAL FREE ENERGY PREDICTED BY IDOCK:   -3.20 KCAL/MOL
REMARK 923 INTER-LIGAND FREE ENERGY PREDICTED BY IDOCK:   -3.16 KCAL/MOL
REMARK 924 INTRA-LIGAND FREE ENERGY PREDICTED BY IDOCK:   -0.05 KCAL/MOL
REMARK 927      BINDING AFFINITY PREDICTED BY RF-SCORE:    0.00 PKD
ROOT
HETATM    1  O   UNL     1     -11.065  16.564  70.242  1.00  0.00    -0.348 OA 
HETATM    2  C   UNL     1     -11.665  15.743  71.131  1.00  0.00    -0.428 C  
HETATM    3  C   UNL     1     -12.238  14.510  70.488  1.00  0.00    -0.399 C  
HETATM    4  O   UNL     1     -11.725  15.998  72.324  1.00  0.00    -0.456 OA 
ENDROOT
BRANCH   3   5
HETATM    5  C   UNL     1     -12.907  13.620  71.531  1.00  0.00    -0.445 C  
HETATM    6  C   UNL     1     -12.622  12.167  71.268  1.00  0.00    -0.238 C  
HETATM    7  O   UNL     1     -13.200  11.353  72.178  1.00  0.00    -0.490 OA 
HETATM    8  O   UNL     1     -11.946  11.744  70.343  1.00  0.00    -0.352 OA 
ENDBRANCH   3   5
TORSDOF 1
ENDMDL
MODEL       51
REMARK 921   NORMALIZED FREE ENERGY PREDICTED BY IDOCK:   -2.99 KCAL/MOL
REMARK 922        TOTAL FREE ENERGY PREDICTED BY IDOCK:   -3.20 KCAL/MOL
REMARK 923 INTER-LIGAND FREE ENERGY PREDICTED BY IDOCK:   -3.12 KCAL/MOL
REMARK 924 INTRA-LIGAND FREE ENERGY PREDICTED BY IDOCK:   -0.08 KCAL/MOL
REMARK 927      BINDING AFFINITY PREDICTED BY RF-SCORE:    0.00 PKD
ROOT
HETATM    1  O   UNL     1     -11.158  19.672  65.437  1.00  0.00    -0.412 OA 
HETATM    2  C   UNL     1     -10.444  19.108  66.436  1.00  0.00    -0.463 C  
HETATM    3  C   UNL     1      -9.830  20.127  67.356  1.00  0.00    -0.573 C  
HETATM    4  O   UNL     1     -10.324  17.899  66.557  1.00  0.00    -0.357 OA 
ENDROOT
BRANCH   3   5
HETATM    5  C   UNL     1      -9.033  19.443  68.462  1.00  0.00    -0.418 C  
HETATM    6  C   UNL     1      -7.567  19.761  68.352  1.00  0.00    -0.301 C  
HETATM    7  O   UNL     1      -6.835  19.169  69.321  1.00  0.00    -0.309 OA 
HETATM    8  O   UNL     1      -7.070  20.473  67.494  1.00  0.00    -0.287 OA 
ENDBRANCH   3   5
TORSDOF 1
ENDMDL
MODEL       52
REMARK 921   NORMALIZED FREE ENERGY PREDICTED BY IDOCK:   -2.96 KCAL/MOL
REMARK 922        TOTAL FREE ENERGY PREDICTED BY IDOCK:   -3.17 KCAL/MOL
REMARK 923 INTER-LIGAND FREE ENERGY PREDICTED BY IDOCK:   -3.08 KCAL/MOL
REMARK 924 INTRA-LIGAND FREE ENERGY PREDICTED BY IDOCK:   -0.09 KCAL/MOL
REMARK 927      BINDING AFFINITY PREDICTED BY RF-SCORE:    0.00 PKD
ROOT
HETATM    1  O   UNL     1     -13.340  11.748  72.172  1.00  0.00    -0.497 OA 
HETATM    2  C   UNL     1     -13.035  10.627  71.482  1.00  0.00    -0.461 C  
HETATM    3  C   UNL     1     -13.349   9.371  72.248  1.00  0.00    -0.539 C  
HETATM    4  O   UNL     1     -12.555  10.657  70.359  1.00  0.00    -0.335 OA 
ENDROOT
BRANCH   3   5
HETATM    5  C   UNL     1     -12.984   8.137  71.430  1.00  0.00    -0.261 C  
HETATM    6  C   UNL     1     -11.783   7.439  72.006  1.00  0.00    -0.289 C  
HETATM    7  O   UNL     1     -11.437   6.339  71.303  1.00  0.00    -0.298 OA 
HETATM    8  O   UNL     1     -11.172   7.805  72.998  1.00  0.00    -0.405 OA 
ENDBRANCH   3   5
TORSDOF 1
ENDMDL
MODEL       53
REMARK 921   NORMALIZED FREE ENERGY PREDICTED BY IDOCK:   -2.94 KCAL/MOL
REMARK 922        TOTAL FREE ENERGY PREDICTED BY IDOCK:   -3.15 KCAL/MOL
REMARK 923 INTER-LIGAND FREE ENERGY PREDICTED BY IDOCK:   -3.05 KCAL/MOL
REMARK 924 INTRA-LIGAND FREE ENERGY PREDICTED BY IDOCK:   -0.10 KCAL/MOL
REMARK 927      BINDING AFFINITY PREDICTED BY RF-SCORE:    0.00 PKD
ROOT
HETATM    1  O   UNL     1      -9.300  13.188  68.250  1.00  0.00    -0.212 OA 
HETATM    2  C   UNL     1     -10.058  13.880  67.372  1.00  0.00    -0.244 C  
HETATM    3  C   UNL     1     -11.295  13.131  66.957  1.00  0.00    -0.349 C  
HETATM    4  O   UNL     1      -9.751  14.992  66.971  1.00  0.00    -0.228 OA 
ENDROOT
BRANCH   3   5
HETATM    5  C   UNL     1     -12.113  13.951  65.964  1.00  0.00    -0.465 C  
HETATM    6  C   UNL     1     -11.916  13.455  64.558  1.00  0.00    -0.407 C  
HETATM    7  O   UNL     1     -12.631  14.162  63.655  1.00  0.00    -0.831 OA 
HETATM    8  O   UNL     1     -11.197  12.521  64.241  1.00  0.00    -0.313 OA 
ENDBRANCH   3   5
TORSDOF 1
ENDMDL
MODEL       54
REMARK 921   NORMALIZED FREE ENERGY PREDICTED BY IDOCK:   -2.90 KCAL/MOL
REMARK 922        TOTAL FREE ENERGY PREDICTED BY IDOCK:   -3.11 KCAL/MOL
REMARK 923 INTER-LIGAND FREE ENERGY PREDICTED BY IDOCK:   -3.05 KCAL/MOL
REMARK 924 INTRA-LIGAND FREE ENERGY PREDICTED BY IDOCK:   -0.06 KCAL/MOL
REMARK 927      BINDING AFFINITY PREDICTED BY RF-SCORE:    0.00 PKD
ROOT
HETATM    1  O   UNL     1     -10.398  16.418  66.809  1.00  0.00    -0.286 OA 
HETATM    2  C   UNL     1      -9.530  17.397  66.472  1.00  0.00    -0.273 C  
HETATM    3  C   UNL     1     -10.048  18.770  66.804  1.00  0.00    -0.409 C  
HETATM    4  O   UNL     1      -8.448  17.168  65.954  1.00  0.00    -0.529 OA 
ENDROOT
BRANCH   3   5
HETATM    5  C   UNL     1      -9.036  19.839  66.403  1.00  0.00    -0.452 C  
HETATM    6  C   UNL     1      -8.132  20.190  67.553  1.00  0.00    -0.320 C  
HETATM    7  O   UNL     1      -7.223  21.134  67.226  1.00  0.00    -0.441 OA 
HETATM    8  O   UNL     1      -8.193  19.692  68.666  1.00  0.00    -0.337 OA 
ENDBRANCH   3   5
TORSDOF 1
ENDMDL
MODEL       55
REMARK 921   NORMALIZED FREE ENERGY PREDICTED BY IDOCK:   -2.89 KCAL/MOL
REMARK 922        TOTAL FREE ENERGY PREDICTED BY IDOCK:   -3.10 KCAL/MOL
REMARK 923 INTER-LIGAND FREE ENERGY PREDICTED BY IDOCK:   -3.05 KCAL/MOL
REMARK 924 INTRA-LIGAND FREE ENERGY PREDICTED BY IDOCK:   -0.05 KCAL/MOL
REMARK 927      BINDING AFFINITY PREDICTED BY RF-SCORE:    0.00 PKD
ROOT
HETATM    1  O   UNL     1     -12.200  11.562  67.989  1.00  0.00    -0.582 OA 
HETATM    2  C   UNL     1     -11.513  10.809  68.876  1.00  0.00    -0.293 C  
HETATM    3  C   UNL     1     -12.241  10.640  70.181  1.00  0.00    -0.398 C  
HETATM    4  O   UNL     1     -10.419  10.329  68.622  1.00  0.00    -0.174 OA 
ENDROOT
BRANCH   3   5
HETATM    5  C   UNL     1     -11.424   9.788  71.147  1.00  0.00    -0.472 C  
HETATM    6  C   UNL     1     -12.306   8.845  71.918  1.00  0.00    -0.376 C  
HETATM    7  O   UNL     1     -11.609   8.074  72.781  1.00  0.00    -0.405 OA 
HETATM    8  O   UNL     1     -13.518   8.765  71.796  1.00  0.00    -0.354 OA 
ENDBRANCH   3   5
TORSDOF 1
ENDMDL
MODEL       56
REMARK 921   NORMALIZED FREE ENERGY PREDICTED BY IDOCK:   -2.87 KCAL/MOL
REMARK 922        TOTAL FREE ENERGY PREDICTED BY IDOCK:   -3.07 KCAL/MOL
REMARK 923 INTER-LIGAND FREE ENERGY PREDICTED BY IDOCK:   -2.97 KCAL/MOL
REMARK 924 INTRA-LIGAND FREE ENERGY PREDICTED BY IDOCK:   -0.10 KCAL/MOL
REMARK 927      BINDING AFFINITY PREDICTED BY RF-SCORE:    0.00 PKD
ROOT
HETATM    1  O   UNL     1     -14.349   8.966  72.679  1.00  0.00    -0.613 OA 
HETATM    2  C   UNL     1     -13.251   9.307  71.968  1.00  0.00    -0.447 C  
HETATM    3  C   UNL     1     -12.058   8.451  72.297  1.00  0.00    -0.456 C  
HETATM    4  O   UNL     1     -13.251  10.217  71.154  1.00  0.00    -0.381 OA 
ENDROOT
BRANCH   3   5
HETATM    5  C   UNL     1     -10.847   8.877  71.473  1.00  0.00    -0.396 C  
HETATM    6  C   UNL     1     -10.625   7.946  70.313  1.00  0.00    -0.231 C  
HETATM    7  O   UNL     1      -9.558   8.300  69.563  1.00  0.00    -0.168 OA 
HETATM    8  O   UNL     1     -11.317   6.974  70.055  1.00  0.00    -0.281 OA 
ENDBRANCH   3   5
TORSDOF 1
ENDMDL
MODEL       57
REMARK 921   NORMALIZED FREE ENERGY PREDICTED BY IDOCK:   -2.85 KCAL/MOL
REMARK 922        TOTAL FREE ENERGY PREDICTED BY IDOCK:   -3.06 KCAL/MOL
REMARK 923 INTER-LIGAND FREE ENERGY PREDICTED BY IDOCK:   -3.02 KCAL/MOL
REMARK 924 INTRA-LIGAND FREE ENERGY PREDICTED BY IDOCK:   -0.04 KCAL/MOL
REMARK 927      BINDING AFFINITY PREDICTED BY RF-SCORE:    0.00 PKD
ROOT
HETATM    1  O   UNL     1     -10.865   9.189  72.036  1.00  0.00    -0.352 OA 
HETATM    2  C   UNL     1     -11.596   9.964  71.205  1.00  0.00    -0.389 C  
HETATM    3  C   UNL     1     -10.873  10.283  69.924  1.00  0.00    -0.355 C  
HETATM    4  O   UNL     1     -12.719  10.351  71.486  1.00  0.00    -0.386 OA 
ENDROOT
BRANCH   3   5
HETATM    5  C   UNL     1     -11.737  11.160  69.024  1.00  0.00    -0.408 C  
HETATM    6  C   UNL     1     -11.274  11.092  67.594  1.00  0.00    -0.305 C  
HETATM    7  O   UNL     1     -12.023  11.858  66.771  1.00  0.00    -0.613 OA 
HETATM    8  O   UNL     1     -10.332  10.426  67.196  1.00  0.00    -0.213 OA 
ENDBRANCH   3   5
TORSDOF 1
ENDMDL
MODEL       58
REMARK 921   NORMALIZED FREE ENERGY PREDICTED BY IDOCK:   -2.84 KCAL/MOL
REMARK 922        TOTAL FREE ENERGY PREDICTED BY IDOCK:   -3.05 KCAL/MOL
REMARK 923 INTER-LIGAND FREE ENERGY PREDICTED BY IDOCK:   -3.02 KCAL/MOL
REMARK 924 INTRA-LIGAND FREE ENERGY PREDICTED BY IDOCK:   -0.03 KCAL/MOL
REMARK 927      BINDING AFFINITY PREDICTED BY RF-SCORE:    0.00 PKD
ROOT
HETATM    1  O   UNL     1     -10.607  16.723  65.007  1.00  0.00    -0.695 OA 
HETATM    2  C   UNL     1     -10.709  15.513  65.600  1.00  0.00    -0.366 C  
HETATM    3  C   UNL     1     -10.647  14.378  64.616  1.00  0.00    -0.331 C  
HETATM    4  O   UNL     1     -10.839  15.382  66.807  1.00  0.00    -0.310 OA 
ENDROOT
BRANCH   3   5
HETATM    5  C   UNL     1     -10.770  13.037  65.332  1.00  0.00    -0.309 C  
HETATM    6  C   UNL     1     -10.489  11.893  64.397  1.00  0.00    -0.311 C  
HETATM    7  O   UNL     1     -10.588  10.691  65.005  1.00  0.00    -0.255 OA 
HETATM    8  O   UNL     1     -10.200  12.011  63.217  1.00  0.00    -0.438 OA 
ENDBRANCH   3   5
TORSDOF 1
ENDMDL
MODEL       59
REMARK 921   NORMALIZED FREE ENERGY PREDICTED BY IDOCK:   -2.83 KCAL/MOL
REMARK 922        TOTAL FREE ENERGY PREDICTED BY IDOCK:   -3.04 KCAL/MOL
REMARK 923 INTER-LIGAND FREE ENERGY PREDICTED BY IDOCK:   -3.00 KCAL/MOL
REMARK 924 INTRA-LIGAND FREE ENERGY PREDICTED BY IDOCK:   -0.04 KCAL/MOL
REMARK 927      BINDING AFFINITY PREDICTED BY RF-SCORE:    0.00 PKD
ROOT
HETATM    1  O   UNL     1     -11.931  11.273  67.430  1.00  0.00    -0.581 OA 
HETATM    2  C   UNL     1     -11.329  12.445  67.131  1.00  0.00    -0.329 C  
HETATM    3  C   UNL     1     -12.021  13.627  67.753  1.00  0.00    -0.387 C  
HETATM    4  O   UNL     1     -10.332  12.511  66.429  1.00  0.00    -0.237 OA 
ENDROOT
BRANCH   3   5
HETATM    5  C   UNL     1     -11.307  14.924  67.384  1.00  0.00    -0.354 C  
HETATM    6  C   UNL     1     -11.418  15.939  68.488  1.00  0.00    -0.377 C  
HETATM    7  O   UNL     1     -10.793  17.098  68.190  1.00  0.00    -0.373 OA 
HETATM    8  O   UNL     1     -12.003  15.759  69.545  1.00  0.00    -0.361 OA 
ENDBRANCH   3   5
TORSDOF 1
ENDMDL
MODEL       60
REMARK 921   NORMALIZED FREE ENERGY PREDICTED BY IDOCK:   -2.79 KCAL/MOL
REMARK 922        TOTAL FREE ENERGY PREDICTED BY IDOCK:   -3.00 KCAL/MOL
REMARK 923 INTER-LIGAND FREE ENERGY PREDICTED BY IDOCK:   -2.95 KCAL/MOL
REMARK 924 INTRA-LIGAND FREE ENERGY PREDICTED BY IDOCK:   -0.05 KCAL/MOL
REMARK 927      BINDING AFFINITY PREDICTED BY RF-SCORE:    0.00 PKD
ROOT
HETATM    1  O   UNL     1      -6.289  20.576  64.783  1.00  0.00    -0.272 OA 
HETATM    2  C   UNL     1      -6.971  19.810  65.663  1.00  0.00    -0.306 C  
HETATM    3  C   UNL     1      -7.331  20.553  66.921  1.00  0.00    -0.349 C  
HETATM    4  O   UNL     1      -7.252  18.643  65.439  1.00  0.00    -0.520 OA 
ENDROOT
BRANCH   3   5
HETATM    5  C   UNL     1      -8.094  19.647  67.881  1.00  0.00    -0.339 C  
HETATM    6  C   UNL     1      -9.579  19.758  67.668  1.00  0.00    -0.355 C  
HETATM    7  O   UNL     1     -10.283  18.964  68.505  1.00  0.00    -0.381 OA 
HETATM    8  O   UNL     1     -10.113  20.477  66.839  1.00  0.00    -0.427 OA 
ENDBRANCH   3   5
TORSDOF 1
ENDMDL
MODEL       61
REMARK 921   NORMALIZED FREE ENERGY PREDICTED BY IDOCK:   -2.79 KCAL/MOL
REMARK 922        TOTAL FREE ENERGY PREDICTED BY IDOCK:   -3.00 KCAL/MOL
REMARK 923 INTER-LIGAND FREE ENERGY PREDICTED BY IDOCK:   -2.90 KCAL/MOL
REMARK 924 INTRA-LIGAND FREE ENERGY PREDICTED BY IDOCK:   -0.10 KCAL/MOL
REMARK 927      BINDING AFFINITY PREDICTED BY RF-SCORE:    0.00 PKD
ROOT
HETATM    1  O   UNL     1      -9.934   5.311  71.276  1.00  0.00    -0.177 OA 
HETATM    2  C   UNL     1     -11.102   5.749  71.795  1.00  0.00    -0.238 C  
HETATM    3  C   UNL     1     -11.843   6.666  70.861  1.00  0.00    -0.434 C  
HETATM    4  O   UNL     1     -11.492   5.421  72.905  1.00  0.00    -0.309 OA 
ENDROOT
BRANCH   3   5
HETATM    5  C   UNL     1     -13.151   7.134  71.492  1.00  0.00    -0.427 C  
HETATM    6  C   UNL     1     -13.019   8.527  72.044  1.00  0.00    -0.371 C  
HETATM    7  O   UNL     1     -14.164   8.970  72.609  1.00  0.00    -0.574 OA 
HETATM    8  O   UNL     1     -12.003   9.203  71.999  1.00  0.00    -0.367 OA 
ENDBRANCH   3   5
TORSDOF 1
ENDMDL
MODEL       62
REMARK 921   NORMALIZED FREE ENERGY PREDICTED BY IDOCK:   -2.77 KCAL/MOL
REMARK 922        TOTAL FREE ENERGY PREDICTED BY IDOCK:   -2.97 KCAL/MOL
REMARK 923 INTER-LIGAND FREE ENERGY PREDICTED BY IDOCK:   -2.93 KCAL/MOL
REMARK 924 INTRA-LIGAND FREE ENERGY PREDICTED BY IDOCK:   -0.04 KCAL/MOL
REMARK 927      BINDING AFFINITY PREDICTED BY RF-SCORE:    0.00 PKD
ROOT
HETATM    1  O   UNL     1     -11.330  16.320  70.032  1.00  0.00    -0.334 OA 
HETATM    2  C   UNL     1     -11.519  15.362  69.098  1.00  0.00    -0.333 C  
HETATM    3  C   UNL     1     -10.875  15.701  67.781  1.00  0.00    -0.307 C  
HETATM    4  O   UNL     1     -12.150  14.341  69.322  1.00  0.00    -0.325 OA 
ENDROOT
BRANCH   3   5
HETATM    5  C   UNL     1     -11.119  14.594  66.762  1.00  0.00    -0.335 C  
HETATM    6  C   UNL     1     -10.760  15.045  65.373  1.00  0.00    -0.374 C  
HETATM    7  O   UNL     1     -10.965  14.082  64.447  1.00  0.00    -0.365 OA 
HETATM    8  O   UNL     1     -10.329  16.151  65.088  1.00  0.00    -0.560 OA 
ENDBRANCH   3   5
TORSDOF 1
ENDMDL
MODEL       63
REMARK 921   NORMALIZED FREE ENERGY PREDICTED BY IDOCK:   -2.76 KCAL/MOL
REMARK 922        TOTAL FREE ENERGY PREDICTED BY IDOCK:   -2.96 KCAL/MOL
REMARK 923 INTER-LIGAND FREE ENERGY PREDICTED BY IDOCK:   -2.88 KCAL/MOL
REMARK 924 INTRA-LIGAND FREE ENERGY PREDICTED BY IDOCK:   -0.08 KCAL/MOL
REMARK 927      BINDING AFFINITY PREDICTED BY RF-SCORE:    0.00 PKD
ROOT
HETATM    1  O   UNL     1     -10.961  17.043  64.987  1.00  0.00    -0.607 OA 
HETATM    2  C   UNL     1      -9.868  17.338  65.725  1.00  0.00    -0.027 C  
HETATM    3  C   UNL     1      -9.890  18.745  66.256  1.00  0.00    -0.382 C  
HETATM    4  O   UNL     1      -8.972  16.532  65.924  1.00  0.00    -0.461 OA 
ENDROOT
BRANCH   3   5
HETATM    5  C   UNL     1      -8.637  19.029  67.078  1.00  0.00    -0.308 C  
HETATM    6  C   UNL     1      -8.980  19.292  68.519  1.00  0.00    -0.369 C  
HETATM    7  O   UNL     1      -7.888  19.545  69.273  1.00  0.00    -0.308 OA 
HETATM    8  O   UNL     1     -10.110  19.281  68.980  1.00  0.00    -0.415 OA 
ENDBRANCH   3   5
TORSDOF 1
ENDMDL
MODEL       64
REMARK 921   NORMALIZED FREE ENERGY PREDICTED BY IDOCK:   -2.75 KCAL/MOL
REMARK 922        TOTAL FREE ENERGY PREDICTED BY IDOCK:   -2.95 KCAL/MOL
REMARK 923 INTER-LIGAND FREE ENERGY PREDICTED BY IDOCK:   -2.90 KCAL/MOL
REMARK 924 INTRA-LIGAND FREE ENERGY PREDICTED BY IDOCK:   -0.05 KCAL/MOL
REMARK 927      BINDING AFFINITY PREDICTED BY RF-SCORE:    0.00 PKD
ROOT
HETATM    1  O   UNL     1     -12.712  10.550  70.420  1.00  0.00    -0.331 OA 
HETATM    2  C   UNL     1     -12.181  11.673  69.887  1.00  0.00    -0.239 C  
HETATM    3  C   UNL     1     -11.761  11.491  68.454  1.00  0.00    -0.372 C  
HETATM    4  O   UNL     1     -12.065  12.710  70.521  1.00  0.00    -0.363 OA 
ENDROOT
BRANCH   3   5
HETATM    5  C   UNL     1     -11.166  12.782  67.900  1.00  0.00    -0.315 C  
HETATM    6  C   UNL     1     -11.627  13.032  66.491  1.00  0.00    -0.356 C  
HETATM    7  O   UNL     1     -11.117  14.171  65.974  1.00  0.00    -0.307 OA 
HETATM    8  O   UNL     1     -12.378  12.302  65.862  1.00  0.00    -0.618 OA 
ENDBRANCH   3   5
TORSDOF 1
ENDMDL
MODEL       65
REMARK 921   NORMALIZED FREE ENERGY PREDICTED BY IDOCK:   -2.73 KCAL/MOL
REMARK 922        TOTAL FREE ENERGY PREDICTED BY IDOCK:   -2.93 KCAL/MOL
REMARK 923 INTER-LIGAND FREE ENERGY PREDICTED BY IDOCK:   -2.84 KCAL/MOL
REMARK 924 INTRA-LIGAND FREE ENERGY PREDICTED BY IDOCK:   -0.09 KCAL/MOL
REMARK 927      BINDING AFFINITY PREDICTED BY RF-SCORE:    0.00 PKD
ROOT
HETATM    1  O   UNL     1     -10.786   6.649  71.117  1.00  0.00    -0.228 OA 
HETATM    2  C   UNL     1     -11.207   7.721  71.825  1.00  0.00    -0.256 C  
HETATM    3  C   UNL     1     -12.582   8.178  71.422  1.00  0.00    -0.301 C  
HETATM    4  O   UNL     1     -10.525   8.244  72.693  1.00  0.00    -0.320 OA 
ENDROOT
BRANCH   3   5
HETATM    5  C   UNL     1     -13.009   9.389  72.246  1.00  0.00    -0.479 C  
HETATM    6  C   UNL     1     -13.023  10.638  71.409  1.00  0.00    -0.443 C  
HETATM    7  O   UNL     1     -13.400  11.728  72.112  1.00  0.00    -0.497 OA 
HETATM    8  O   UNL     1     -12.731  10.688  70.224  1.00  0.00    -0.319 OA 
ENDBRANCH   3   5
TORSDOF 1
ENDMDL
MODEL       66
REMARK 921   NORMALIZED FREE ENERGY PREDICTED BY IDOCK:   -2.73 KCAL/MOL
REMARK 922        TOTAL FREE ENERGY PREDICTED BY IDOCK:   -2.93 KCAL/MOL
REMARK 923 INTER-LIGAND FREE ENERGY PREDICTED BY IDOCK:   -2.89 KCAL/MOL
REMARK 924 INTRA-LIGAND FREE ENERGY PREDICTED BY IDOCK:   -0.03 KCAL/MOL
REMARK 927      BINDING AFFINITY PREDICTED BY RF-SCORE:    0.00 PKD
ROOT
HETATM    1  O   UNL     1     -10.283  18.122  68.838  1.00  0.00    -0.379 OA 
HETATM    2  C   UNL     1     -10.616  17.271  67.842  1.00  0.00    -0.384 C  
HETATM    3  C   UNL     1     -11.161  15.966  68.353  1.00  0.00    -0.368 C  
HETATM    4  O   UNL     1     -10.478  17.554  66.662  1.00  0.00    -0.323 OA 
ENDROOT
BRANCH   3   5
HETATM    5  C   UNL     1     -11.518  15.041  67.194  1.00  0.00    -0.304 C  
HETATM    6  C   UNL     1     -11.821  13.651  67.682  1.00  0.00    -0.369 C  
HETATM    7  O   UNL     1     -12.143  12.808  66.676  1.00  0.00    -0.468 OA 
HETATM    8  O   UNL     1     -11.788  13.298  68.850  1.00  0.00    -0.301 OA 
ENDBRANCH   3   5
TORSDOF 1
ENDMDL
MODEL       67
REMARK 921   NORMALIZED FREE ENERGY PREDICTED BY IDOCK:   -2.73 KCAL/MOL
REMARK 922        TOTAL FREE ENERGY PREDICTED BY IDOCK:   -2.93 KCAL/MOL
REMARK 923 INTER-LIGAND FREE ENERGY PREDICTED BY IDOCK:   -2.83 KCAL/MOL
REMARK 924 INTRA-LIGAND FREE ENERGY PREDICTED BY IDOCK:   -0.10 KCAL/MOL
REMARK 927      BINDING AFFINITY PREDICTED BY RF-SCORE:    0.00 PKD
ROOT
HETATM    1  O   UNL     1     -10.061  12.053  63.154  1.00  0.00    -0.414 OA 
HETATM    2  C   UNL     1     -10.560  12.868  64.109  1.00  0.00    -0.416 C  
HETATM    3  C   UNL     1     -11.699  12.244  64.867  1.00  0.00    -0.409 C  
HETATM    4  O   UNL     1     -10.118  13.988  64.313  1.00  0.00    -0.151 OA 
ENDROOT
BRANCH   3   5
HETATM    5  C   UNL     1     -12.229  13.203  65.928  1.00  0.00    -0.497 C  
HETATM    6  C   UNL     1     -11.767  12.802  67.302  1.00  0.00    -0.378 C  
HETATM    7  O   UNL     1     -12.220  13.636  68.264  1.00  0.00    -0.329 OA 
HETATM    8  O   UNL     1     -11.061  11.837  67.547  1.00  0.00    -0.239 OA 
ENDBRANCH   3   5
TORSDOF 1
ENDMDL
MODEL       68
REMARK 921   NORMALIZED FREE ENERGY PREDICTED BY IDOCK:   -2.71 KCAL/MOL
REMARK 922        TOTAL FREE ENERGY PREDICTED BY IDOCK:   -2.91 KCAL/MOL
REMARK 923 INTER-LIGAND FREE ENERGY PREDICTED BY IDOCK:   -2.85 KCAL/MOL
REMARK 924 INTRA-LIGAND FREE ENERGY PREDICTED BY IDOCK:   -0.06 KCAL/MOL
REMARK 927      BINDING AFFINITY PREDICTED BY RF-SCORE:    0.00 PKD
ROOT
HETATM    1  O   UNL     1     -11.034  16.126  67.726  1.00  0.00    -0.328 OA 
HETATM    2  C   UNL     1     -10.439  17.302  68.025  1.00  0.00    -0.375 C  
HETATM    3  C   UNL     1     -10.030  18.073  66.800  1.00  0.00    -0.346 C  
HETATM    4  O   UNL     1     -10.263  17.676  69.174  1.00  0.00    -0.342 OA 
ENDROOT
BRANCH   3   5
HETATM    5  C   UNL     1      -9.362  19.388  67.190  1.00  0.00    -0.390 C  
HETATM    6  C   UNL     1      -8.087  19.599  66.420  1.00  0.00    -0.326 C  
HETATM    7  O   UNL     1      -7.473  20.758  66.744  1.00  0.00    -0.251 OA 
HETATM    8  O   UNL     1      -7.636  18.825  65.590  1.00  0.00    -0.494 OA 
ENDBRANCH   3   5
TORSDOF 1
ENDMDL
MODEL       69
REMARK 921   NORMALIZED FREE ENERGY PREDICTED BY IDOCK:   -2.69 KCAL/MOL
REMARK 922        TOTAL FREE ENERGY PREDICTED BY IDOCK:   -2.89 KCAL/MOL
REMARK 923 INTER-LIGAND FREE ENERGY PREDICTED BY IDOCK:   -2.81 KCAL/MOL
REMARK 924 INTRA-LIGAND FREE ENERGY PREDICTED BY IDOCK:   -0.08 KCAL/MOL
REMARK 927      BINDING AFFINITY PREDICTED BY RF-SCORE:    0.00 PKD
ROOT
HETATM    1  O   UNL     1     -13.772   9.409  72.566  1.00  0.00    -0.448 OA 
HETATM    2  C   UNL     1     -12.718   8.805  71.974  1.00  0.00    -0.387 C  
HETATM    3  C   UNL     1     -13.060   7.446  71.429  1.00  0.00    -0.401 C  
HETATM    4  O   UNL     1     -11.616   9.327  71.903  1.00  0.00    -0.372 OA 
ENDROOT
BRANCH   3   5
HETATM    5  C   UNL     1     -11.839   6.805  70.775  1.00  0.00    -0.446 C  
HETATM    6  C   UNL     1     -11.135   5.880  71.730  1.00  0.00    -0.265 C  
HETATM    7  O   UNL     1     -10.050   5.296  71.177  1.00  0.00    -0.197 OA 
HETATM    8  O   UNL     1     -11.486   5.664  72.879  1.00  0.00    -0.291 OA 
ENDBRANCH   3   5
TORSDOF 1
ENDMDL
MODEL       70
REMARK 921   NORMALIZED FREE ENERGY PREDICTED BY IDOCK:   -2.68 KCAL/MOL
REMARK 922        TOTAL FREE ENERGY PREDICTED BY IDOCK:   -2.88 KCAL/MOL
REMARK 923 INTER-LIGAND FREE ENERGY PREDICTED BY IDOCK:   -2.79 KCAL/MOL
REMARK 924 INTRA-LIGAND FREE ENERGY PREDICTED BY IDOCK:   -0.09 KCAL/MOL
REMARK 927      BINDING AFFINITY PREDICTED BY RF-SCORE:    0.00 PKD
ROOT
HETATM    1  O   UNL     1     -11.398   6.460  68.709  1.00  0.00    -0.327 OA 
HETATM    2  C   UNL     1     -11.109   6.009  69.950  1.00  0.00    -0.399 C  
HETATM    3  C   UNL     1     -11.905   6.707  71.019  1.00  0.00    -0.427 C  
HETATM    4  O   UNL     1     -10.287   5.131  70.155  1.00  0.00    -0.273 OA 
ENDROOT
BRANCH   3   5
HETATM    5  C   UNL     1     -11.541   6.167  72.399  1.00  0.00    -0.338 C  
HETATM    6  C   UNL     1     -10.695   7.150  73.161  1.00  0.00    -0.346 C  
HETATM    7  O   UNL     1     -10.359   6.699  74.389  1.00  0.00    -0.357 OA 
HETATM    8  O   UNL     1     -10.339   8.239  72.739  1.00  0.00    -0.318 OA 
ENDBRANCH   3   5
TORSDOF 1
ENDMDL
MODEL       71
REMARK 921   NORMALIZED FREE ENERGY PREDICTED BY IDOCK:   -2.68 KCAL/MOL
REMARK 922        TOTAL FREE ENERGY PREDICTED BY IDOCK:   -2.88 KCAL/MOL
REMARK 923 INTER-LIGAND FREE ENERGY PREDICTED BY IDOCK:   -2.81 KCAL/MOL
REMARK 924 INTRA-LIGAND FREE ENERGY PREDICTED BY IDOCK:   -0.07 KCAL/MOL
REMARK 927      BINDING AFFINITY PREDICTED BY RF-SCORE:    0.00 PKD
ROOT
HETATM    1  O   UNL     1     -10.632  19.613  67.882  1.00  0.00    -0.427 OA 
HETATM    2  C   UNL     1      -9.296  19.656  67.680  1.00  0.00    -0.338 C  
HETATM    3  C   UNL     1      -8.935  19.842  66.232  1.00  0.00    -0.431 C  
HETATM    4  O   UNL     1      -8.490  19.551  68.592  1.00  0.00    -0.357 OA 
ENDROOT
BRANCH   3   5
HETATM    5  C   UNL     1      -7.420  19.880  66.056  1.00  0.00    -0.338 C  
HETATM    6  C   UNL     1      -6.878  18.520  65.714  1.00  0.00    -0.275 C  
HETATM    7  O   UNL     1      -5.537  18.523  65.550  1.00  0.00    -0.160 OA 
HETATM    8  O   UNL     1      -7.553  17.510  65.591  1.00  0.00    -0.480 OA 
ENDBRANCH   3   5
TORSDOF 1
ENDMDL
MODEL       72
REMARK 921   NORMALIZED FREE ENERGY PREDICTED BY IDOCK:   -2.67 KCAL/MOL
REMARK 922        TOTAL FREE ENERGY PREDICTED BY IDOCK:   -2.87 KCAL/MOL
REMARK 923 INTER-LIGAND FREE ENERGY PREDICTED BY IDOCK:   -2.78 KCAL/MOL
REMARK 924 INTRA-LIGAND FREE ENERGY PREDICTED BY IDOCK:   -0.09 KCAL/MOL
REMARK 927      BINDING AFFINITY PREDICTED BY RF-SCORE:    0.00 PKD
ROOT
HETATM    1  O   UNL     1     -11.576  15.862  69.216  1.00  0.00    -0.353 OA 
HETATM    2  C   UNL     1     -10.963  15.006  68.369  1.00  0.00    -0.264 C  
HETATM    3  C   UNL     1     -11.897  14.451  67.329  1.00  0.00    -0.434 C  
HETATM    4  O   UNL     1      -9.777  14.728  68.460  1.00  0.00    -0.206 OA 
ENDROOT
BRANCH   3   5
HETATM    5  C   UNL     1     -11.159  13.490  66.402  1.00  0.00    -0.311 C  
HETATM    6  C   UNL     1     -11.379  12.060  66.815  1.00  0.00    -0.339 C  
HETATM    7  O   UNL     1     -10.738  11.185  66.010  1.00  0.00    -0.259 OA 
HETATM    8  O   UNL     1     -12.056  11.705  67.767  1.00  0.00    -0.613 OA 
ENDBRANCH   3   5
TORSDOF 1
ENDMDL
MODEL       73
REMARK 921   NORMALIZED FREE ENERGY PREDICTED BY IDOCK:   -2.66 KCAL/MOL
REMARK 922        TOTAL FREE ENERGY PREDICTED BY IDOCK:   -2.86 KCAL/MOL
REMARK 923 INTER-LIGAND FREE ENERGY PREDICTED BY IDOCK:   -2.77 KCAL/MOL
REMARK 924 INTRA-LIGAND FREE ENERGY PREDICTED BY IDOCK:   -0.09 KCAL/MOL
REMARK 927      BINDING AFFINITY PREDICTED BY RF-SCORE:    0.00 PKD
ROOT
HETATM    1  O   UNL     1      -6.103  16.475  66.569  1.00  0.00    -0.297 OA 
HETATM    2  C   UNL     1      -7.060  17.237  67.144  1.00  0.00    -0.173 C  
HETATM    3  C   UNL     1      -7.617  18.274  66.207  1.00  0.00    -0.291 C  
HETATM    4  O   UNL     1      -7.417  17.081  68.302  1.00  0.00    -0.190 OA 
ENDROOT
BRANCH   3   5
HETATM    5  C   UNL     1      -8.688  19.108  66.903  1.00  0.00    -0.318 C  
HETATM    6  C   UNL     1     -10.061  18.763  66.394  1.00  0.00    -0.404 C  
HETATM    7  O   UNL     1     -11.032  19.485  66.994  1.00  0.00    -0.477 OA 
HETATM    8  O   UNL     1     -10.297  17.928  65.535  1.00  0.00    -0.616 OA 
ENDBRANCH   3   5
TORSDOF 1
ENDMDL
MODEL       74
REMARK 921   NORMALIZED FREE ENERGY PREDICTED BY IDOCK:   -2.66 KCAL/MOL
REMARK 922        TOTAL FREE ENERGY PREDICTED BY IDOCK:   -2.86 KCAL/MOL
REMARK 923 INTER-LIGAND FREE ENERGY PREDICTED BY IDOCK:   -2.79 KCAL/MOL
REMARK 924 INTRA-LIGAND FREE ENERGY PREDICTED BY IDOCK:   -0.07 KCAL/MOL
REMARK 927      BINDING AFFINITY PREDICTED BY RF-SCORE:    0.00 PKD
ROOT
HETATM    1  O   UNL     1      -5.843  20.865  69.739  1.00  0.00    -0.418 OA 
HETATM    2  C   UNL     1      -6.398  19.720  69.284  1.00  0.00    -0.326 C  
HETATM    3  C   UNL     1      -7.506  19.965  68.297  1.00  0.00    -0.319 C  
HETATM    4  O   UNL     1      -6.024  18.617  69.652  1.00  0.00    -0.243 OA 
ENDROOT
BRANCH   3   5
HETATM    5  C   UNL     1      -8.101  18.645  67.817  1.00  0.00    -0.269 C  
HETATM    6  C   UNL     1      -8.004  18.517  66.322  1.00  0.00    -0.246 C  
HETATM    7  O   UNL     1      -8.521  17.355  65.867  1.00  0.00    -0.530 OA 
HETATM    8  O   UNL     1      -7.515  19.354  65.580  1.00  0.00    -0.435 OA 
ENDBRANCH   3   5
TORSDOF 1
ENDMDL
MODEL       75
REMARK 921   NORMALIZED FREE ENERGY PREDICTED BY IDOCK:   -2.62 KCAL/MOL
REMARK 922        TOTAL FREE ENERGY PREDICTED BY IDOCK:   -2.82 KCAL/MOL
REMARK 923 INTER-LIGAND FREE ENERGY PREDICTED BY IDOCK:   -2.72 KCAL/MOL
REMARK 924 INTRA-LIGAND FREE ENERGY PREDICTED BY IDOCK:   -0.10 KCAL/MOL
REMARK 927      BINDING AFFINITY PREDICTED BY RF-SCORE:    0.00 PKD
ROOT
HETATM    1  O   UNL     1     -12.143  13.680  70.759  1.00  0.00    -0.340 OA 
HETATM    2  C   UNL     1     -12.063  14.384  69.608  1.00  0.00    -0.334 C  
HETATM    3  C   UNL     1     -11.976  13.501  68.393  1.00  0.00    -0.378 C  
HETATM    4  O   UNL     1     -12.062  15.605  69.583  1.00  0.00    -0.364 OA 
ENDROOT
BRANCH   3   5
HETATM    5  C   UNL     1     -11.885  14.341  67.123  1.00  0.00    -0.454 C  
HETATM    6  C   UNL     1     -10.485  14.345  66.574  1.00  0.00    -0.289 C  
HETATM    7  O   UNL     1     -10.373  15.080  65.446  1.00  0.00    -0.327 OA 
HETATM    8  O   UNL     1      -9.538  13.757  67.073  1.00  0.00    -0.235 OA 
ENDBRANCH   3   5
TORSDOF 1
ENDMDL
MODEL       76
REMARK 921   NORMALIZED FREE ENERGY PREDICTED BY IDOCK:   -2.62 KCAL/MOL
REMARK 922        TOTAL FREE ENERGY PREDICTED BY IDOCK:   -2.81 KCAL/MOL
REMARK 923 INTER-LIGAND FREE ENERGY PREDICTED BY IDOCK:   -2.76 KCAL/MOL
REMARK 924 INTRA-LIGAND FREE ENERGY PREDICTED BY IDOCK:   -0.06 KCAL/MOL
REMARK 927      BINDING AFFINITY PREDICTED BY RF-SCORE:    0.00 PKD
ROOT
HETATM    1  O   UNL     1      -8.784   8.624  72.725  1.00  0.00    -0.387 OA 
HETATM    2  C   UNL     1      -9.204   8.892  71.469  1.00  0.00    -0.252 C  
HETATM    3  C   UNL     1     -10.652   9.296  71.417  1.00  0.00    -0.417 C  
HETATM    4  O   UNL     1      -8.469   8.808  70.498  1.00  0.00    -0.135 OA 
ENDROOT
BRANCH   3   5
HETATM    5  C   UNL     1     -11.078   9.585  69.981  1.00  0.00    -0.268 C  
HETATM    6  C   UNL     1     -11.815  10.892  69.884  1.00  0.00    -0.349 C  
HETATM    7  O   UNL     1     -12.204  11.176  68.622  1.00  0.00    -0.582 OA 
HETATM    8  O   UNL     1     -12.048  11.633  70.827  1.00  0.00    -0.364 OA 
ENDBRANCH   3   5
TORSDOF 1
ENDMDL
MODEL       77
REMARK 921   NORMALIZED FREE ENERGY PREDICTED BY IDOCK:   -2.62 KCAL/MOL
REMARK 922        TOTAL FREE ENERGY PREDICTED BY IDOCK:   -2.81 KCAL/MOL
REMARK 923 INTER-LIGAND FREE ENERGY PREDICTED BY IDOCK:   -2.77 KCAL/MOL
REMARK 924 INTRA-LIGAND FREE ENERGY PREDICTED BY IDOCK:   -0.04 KCAL/MOL
REMARK 927      BINDING AFFINITY PREDICTED BY RF-SCORE:    0.00 PKD
ROOT
HETATM    1  O   UNL     1     -10.789  15.675  66.716  1.00  0.00    -0.317 OA 
HETATM    2  C   UNL     1     -11.085  15.023  67.863  1.00  0.00    -0.307 C  
HETATM    3  C   UNL     1     -10.902  13.535  67.748  1.00  0.00    -0.267 C  
HETATM    4  O   UNL     1     -11.461  15.603  68.870  1.00  0.00    -0.316 OA 
ENDROOT
BRANCH   3   5
HETATM    5  C   UNL     1     -11.252  12.846  69.063  1.00  0.00    -0.320 C  
HETATM    6  C   UNL     1     -11.835  11.481  68.824  1.00  0.00    -0.330 C  
HETATM    7  O   UNL     1     -12.153  10.845  69.973  1.00  0.00    -0.303 OA 
HETATM    8  O   UNL     1     -12.011  10.980  67.725  1.00  0.00    -0.609 OA 
ENDBRANCH   3   5
TORSDOF 1
ENDMDL
MODEL       78
REMARK 921   NORMALIZED FREE ENERGY PREDICTED BY IDOCK:   -2.61 KCAL/MOL
REMARK 922        TOTAL FREE ENERGY PREDICTED BY IDOCK:   -2.81 KCAL/MOL
REMARK 923 INTER-LIGAND FREE ENERGY PREDICTED BY IDOCK:   -2.71 KCAL/MOL
REMARK 924 INTRA-LIGAND FREE ENERGY PREDICTED BY IDOCK:   -0.09 KCAL/MOL
REMARK 927      BINDING AFFINITY PREDICTED BY RF-SCORE:    0.00 PKD
ROOT
HETATM    1  O   UNL     1     -11.678   5.724  72.656  1.00  0.00    -0.293 OA 
HETATM    2  C   UNL     1     -12.028   6.755  71.855  1.00  0.00    -0.333 C  
HETATM    3  C   UNL     1     -11.902   8.089  72.538  1.00  0.00    -0.419 C  
HETATM    4  O   UNL     1     -12.403   6.594  70.704  1.00  0.00    -0.340 OA 
ENDROOT
BRANCH   3   5
HETATM    5  C   UNL     1     -12.311   9.216  71.595  1.00  0.00    -0.434 C  
HETATM    6  C   UNL     1     -11.107   9.862  70.966  1.00  0.00    -0.331 C  
HETATM    7  O   UNL     1     -11.437  10.864  70.122  1.00  0.00    -0.292 OA 
HETATM    8  O   UNL     1      -9.949   9.534  71.176  1.00  0.00    -0.269 OA 
ENDBRANCH   3   5
TORSDOF 1
ENDMDL
MODEL       79
REMARK 921   NORMALIZED FREE ENERGY PREDICTED BY IDOCK:   -2.61 KCAL/MOL
REMARK 922        TOTAL FREE ENERGY PREDICTED BY IDOCK:   -2.80 KCAL/MOL
REMARK 923 INTER-LIGAND FREE ENERGY PREDICTED BY IDOCK:   -2.70 KCAL/MOL
REMARK 924 INTRA-LIGAND FREE ENERGY PREDICTED BY IDOCK:   -0.10 KCAL/MOL
REMARK 927      BINDING AFFINITY PREDICTED BY RF-SCORE:    0.00 PKD
ROOT
HETATM    1  O   UNL     1      -9.319   7.265  70.009  1.00  0.00    -0.155 OA 
HETATM    2  C   UNL     1     -10.496   7.160  70.665  1.00  0.00    -0.210 C  
HETATM    3  C   UNL     1     -10.672   8.223  71.715  1.00  0.00    -0.332 C  
HETATM    4  O   UNL     1     -11.312   6.286  70.416  1.00  0.00    -0.345 OA 
ENDROOT
BRANCH   3   5
HETATM    5  C   UNL     1     -12.010   8.060  72.428  1.00  0.00    -0.405 C  
HETATM    6  C   UNL     1     -13.022   9.048  71.916  1.00  0.00    -0.389 C  
HETATM    7  O   UNL     1     -14.220   8.925  72.529  1.00  0.00    -0.527 OA 
HETATM    8  O   UNL     1     -12.810   9.877  71.046  1.00  0.00    -0.337 OA 
ENDBRANCH   3   5
TORSDOF 1
ENDMDL
MODEL       80
REMARK 921   NORMALIZED FREE ENERGY PREDICTED BY IDOCK:   -2.61 KCAL/MOL
REMARK 922        TOTAL FREE ENERGY PREDICTED BY IDOCK:   -2.80 KCAL/MOL
REMARK 923 INTER-LIGAND FREE ENERGY PREDICTED BY IDOCK:   -2.70 KCAL/MOL
REMARK 924 INTRA-LIGAND FREE ENERGY PREDICTED BY IDOCK:   -0.10 KCAL/MOL
REMARK 927      BINDING AFFINITY PREDICTED BY RF-SCORE:    0.00 PKD
ROOT
HETATM    1  O   UNL     1     -10.284  20.074  68.540  1.00  0.00    -0.442 OA 
HETATM    2  C   UNL     1      -9.822  18.848  68.212  1.00  0.00    -0.374 C  
HETATM    3  C   UNL     1     -10.727  18.125  67.252  1.00  0.00    -0.336 C  
HETATM    4  O   UNL     1      -8.779  18.396  68.660  1.00  0.00    -0.318 OA 
ENDROOT
BRANCH   3   5
HETATM    5  C   UNL     1     -10.165  16.747  66.916  1.00  0.00    -0.290 C  
HETATM    6  C   UNL     1     -10.872  15.668  67.689  1.00  0.00    -0.307 C  
HETATM    7  O   UNL     1     -10.397  14.435  67.410  1.00  0.00    -0.250 OA 
HETATM    8  O   UNL     1     -11.779  15.860  68.484  1.00  0.00    -0.383 OA 
ENDBRANCH   3   5
TORSDOF 1
ENDMDL
MODEL       81
REMARK 921   NORMALIZED FREE ENERGY PREDICTED BY IDOCK:   -2.60 KCAL/MOL
REMARK 922        TOTAL FREE ENERGY PREDICTED BY IDOCK:   -2.79 KCAL/MOL
REMARK 923 INTER-LIGAND FREE ENERGY PREDICTED BY IDOCK:   -2.76 KCAL/MOL
REMARK 924 INTRA-LIGAND FREE ENERGY PREDICTED BY IDOCK:   -0.03 KCAL/MOL
REMARK 927      BINDING AFFINITY PREDICTED BY RF-SCORE:    0.00 PKD
ROOT
HETATM    1  O   UNL     1     -10.438   8.662  68.386  1.00  0.00    -0.213 OA 
HETATM    2  C   UNL     1     -10.679   9.965  68.652  1.00  0.00    -0.226 C  
HETATM    3  C   UNL     1     -11.246  10.703  67.470  1.00  0.00    -0.326 C  
HETATM    4  O   UNL     1     -10.452  10.467  69.742  1.00  0.00    -0.249 OA 
ENDROOT
BRANCH   3   5
HETATM    5  C   UNL     1     -11.496  12.167  67.819  1.00  0.00    -0.398 C  
HETATM    6  C   UNL     1     -12.130  12.899  66.668  1.00  0.00    -0.289 C  
HETATM    7  O   UNL     1     -12.365  14.199  66.948  1.00  0.00    -0.419 OA 
HETATM    8  O   UNL     1     -12.410  12.397  65.591  1.00  0.00    -0.639 OA 
ENDBRANCH   3   5
TORSDOF 1
ENDMDL
MODEL       82
REMARK 921   NORMALIZED FREE ENERGY PREDICTED BY IDOCK:   -2.60 KCAL/MOL
REMARK 922        TOTAL FREE ENERGY PREDICTED BY IDOCK:   -2.79 KCAL/MOL
REMARK 923 INTER-LIGAND FREE ENERGY PREDICTED BY IDOCK:   -2.73 KCAL/MOL
REMARK 924 INTRA-LIGAND FREE ENERGY PREDICTED BY IDOCK:   -0.06 KCAL/MOL
REMARK 927      BINDING AFFINITY PREDICTED BY RF-SCORE:    0.00 PKD
ROOT
HETATM    1  O   UNL     1      -9.590   9.405  68.975  1.00  0.00    -0.158 OA 
HETATM    2  C   UNL     1     -10.545   9.917  69.783  1.00  0.00    -0.264 C  
HETATM    3  C   UNL     1     -10.970   8.955  70.858  1.00  0.00    -0.325 C  
HETATM    4  O   UNL     1     -10.998  11.041  69.635  1.00  0.00    -0.251 OA 
ENDROOT
BRANCH   3   5
HETATM    5  C   UNL     1     -12.049   9.576  71.740  1.00  0.00    -0.459 C  
HETATM    6  C   UNL     1     -13.222   8.647  71.899  1.00  0.00    -0.375 C  
HETATM    7  O   UNL     1     -14.194   9.171  72.678  1.00  0.00    -0.551 OA 
HETATM    8  O   UNL     1     -13.309   7.540  71.393  1.00  0.00    -0.351 OA 
ENDBRANCH   3   5
TORSDOF 1
ENDMDL
MODEL       83
REMARK 921   NORMALIZED FREE ENERGY PREDICTED BY IDOCK:   -2.60 KCAL/MOL
REMARK 922        TOTAL FREE ENERGY PREDICTED BY IDOCK:   -2.79 KCAL/MOL
REMARK 923 INTER-LIGAND FREE ENERGY PREDICTED BY IDOCK:   -2.70 KCAL/MOL
REMARK 924 INTRA-LIGAND FREE ENERGY PREDICTED BY IDOCK:   -0.09 KCAL/MOL
REMARK 927      BINDING AFFINITY PREDICTED BY RF-SCORE:    0.00 PKD
ROOT
HETATM    1  O   UNL     1     -11.179  10.544  67.517  1.00  0.00    -0.320 OA 
HETATM    2  C   UNL     1     -10.850  11.438  66.558  1.00  0.00    -0.283 C  
HETATM    3  C   UNL     1     -11.897  12.502  66.374  1.00  0.00    -0.445 C  
HETATM    4  O   UNL     1      -9.809  11.366  65.923  1.00  0.00    -0.209 OA 
ENDROOT
BRANCH   3   5
HETATM    5  C   UNL     1     -11.481  13.481  65.280  1.00  0.00    -0.315 C  
HETATM    6  C   UNL     1     -11.148  14.830  65.857  1.00  0.00    -0.340 C  
HETATM    7  O   UNL     1     -10.773  15.719  64.912  1.00  0.00    -0.456 OA 
HETATM    8  O   UNL     1     -11.201  15.114  67.044  1.00  0.00    -0.335 OA 
ENDBRANCH   3   5
TORSDOF 1
ENDMDL
MODEL       84
REMARK 921   NORMALIZED FREE ENERGY PREDICTED BY IDOCK:   -2.59 KCAL/MOL
REMARK 922        TOTAL FREE ENERGY PREDICTED BY IDOCK:   -2.78 KCAL/MOL
REMARK 923 INTER-LIGAND FREE ENERGY PREDICTED BY IDOCK:   -2.69 KCAL/MOL
REMARK 924 INTRA-LIGAND FREE ENERGY PREDICTED BY IDOCK:   -0.09 KCAL/MOL
REMARK 927      BINDING AFFINITY PREDICTED BY RF-SCORE:    0.00 PKD
ROOT
HETATM    1  O   UNL     1      -9.089  16.165  66.190  1.00  0.00    -0.304 OA 
HETATM    2  C   UNL     1      -9.390  14.871  66.436  1.00  0.00    -0.297 C  
HETATM    3  C   UNL     1     -10.843  14.559  66.200  1.00  0.00    -0.317 C  
HETATM    4  O   UNL     1      -8.556  14.062  66.809  1.00  0.00    -0.173 OA 
ENDROOT
BRANCH   3   5
HETATM    5  C   UNL     1     -11.132  13.090  66.495  1.00  0.00    -0.315 C  
HETATM    6  C   UNL     1     -11.883  12.933  67.788  1.00  0.00    -0.339 C  
HETATM    7  O   UNL     1     -12.155  11.641  68.075  1.00  0.00    -0.597 OA 
HETATM    8  O   UNL     1     -12.220  13.854  68.516  1.00  0.00    -0.342 OA 
ENDBRANCH   3   5
TORSDOF 1
ENDMDL
MODEL       85
REMARK 921   NORMALIZED FREE ENERGY PREDICTED BY IDOCK:   -2.58 KCAL/MOL
REMARK 922        TOTAL FREE ENERGY PREDICTED BY IDOCK:   -2.77 KCAL/MOL
REMARK 923 INTER-LIGAND FREE ENERGY PREDICTED BY IDOCK:   -2.73 KCAL/MOL
REMARK 924 INTRA-LIGAND FREE ENERGY PREDICTED BY IDOCK:   -0.04 KCAL/MOL
REMARK 927      BINDING AFFINITY PREDICTED BY RF-SCORE:    0.00 PKD
ROOT
HETATM    1  O   UNL     1     -12.694  13.395  71.516  1.00  0.00    -0.340 OA 
HETATM    2  C   UNL     1     -12.371  14.659  71.162  1.00  0.00    -0.335 C  
HETATM    3  C   UNL     1     -11.669  14.728  69.834  1.00  0.00    -0.352 C  
HETATM    4  O   UNL     1     -12.632  15.625  71.864  1.00  0.00    -0.375 OA 
ENDROOT
BRANCH   3   5
HETATM    5  C   UNL     1     -11.324  16.172  69.483  1.00  0.00    -0.321 C  
HETATM    6  C   UNL     1     -10.949  16.303  68.032  1.00  0.00    -0.328 C  
HETATM    7  O   UNL     1     -10.640  17.573  67.690  1.00  0.00    -0.364 OA 
HETATM    8  O   UNL     1     -10.921  15.381  67.232  1.00  0.00    -0.316 OA 
ENDBRANCH   3   5
TORSDOF 1
ENDMDL
MODEL       86
REMARK 921   NORMALIZED FREE ENERGY PREDICTED BY IDOCK:   -2.57 KCAL/MOL
REMARK 922        TOTAL FREE ENERGY PREDICTED BY IDOCK:   -2.76 KCAL/MOL
REMARK 923 INTER-LIGAND FREE ENERGY PREDICTED BY IDOCK:   -2.66 KCAL/MOL
REMARK 924 INTRA-LIGAND FREE ENERGY PREDICTED BY IDOCK:   -0.10 KCAL/MOL
REMARK 927      BINDING AFFINITY PREDICTED BY RF-SCORE:    0.00 PKD
ROOT
HETATM    1  O   UNL     1     -11.029  19.414  67.186  1.00  0.00    -0.483 OA 
HETATM    2  C   UNL     1      -9.693  19.531  67.351  1.00  0.00    -0.341 C  
HETATM    3  C   UNL     1      -9.255  19.231  68.759  1.00  0.00    -0.421 C  
HETATM    4  O   UNL     1      -8.943  19.848  66.441  1.00  0.00    -0.352 OA 
ENDROOT
BRANCH   3   5
HETATM    5  C   UNL     1      -7.743  19.380  68.895  1.00  0.00    -0.382 C  
HETATM    6  C   UNL     1      -7.059  18.041  68.844  1.00  0.00    -0.263 C  
HETATM    7  O   UNL     1      -5.716  18.141  68.960  1.00  0.00    -0.191 OA 
HETATM    8  O   UNL     1      -7.630  16.970  68.713  1.00  0.00    -0.225 OA 
ENDBRANCH   3   5
TORSDOF 1
ENDMDL
MODEL       87
REMARK 921   NORMALIZED FREE ENERGY PREDICTED BY IDOCK:   -2.56 KCAL/MOL
REMARK 922        TOTAL FREE ENERGY PREDICTED BY IDOCK:   -2.75 KCAL/MOL
REMARK 923 INTER-LIGAND FREE ENERGY PREDICTED BY IDOCK:   -2.68 KCAL/MOL
REMARK 924 INTRA-LIGAND FREE ENERGY PREDICTED BY IDOCK:   -0.07 KCAL/MOL
REMARK 927      BINDING AFFINITY PREDICTED BY RF-SCORE:    0.00 PKD
ROOT
HETATM    1  O   UNL     1      -5.892  20.720  70.276  1.00  0.00    -0.514 OA 
HETATM    2  C   UNL     1      -6.363  19.548  69.795  1.00  0.00    -0.310 C  
HETATM    3  C   UNL     1      -7.445  19.737  68.767  1.00  0.00    -0.320 C  
HETATM    4  O   UNL     1      -5.940  18.466  70.170  1.00  0.00    -0.220 OA 
ENDROOT
BRANCH   3   5
HETATM    5  C   UNL     1      -7.944  18.388  68.258  1.00  0.00    -0.317 C  
HETATM    6  C   UNL     1      -9.432  18.258  68.435  1.00  0.00    -0.323 C  
HETATM    7  O   UNL     1      -9.904  17.072  67.991  1.00  0.00    -0.259 OA 
HETATM    8  O   UNL     1     -10.154  19.113  68.923  1.00  0.00    -0.416 OA 
ENDBRANCH   3   5
TORSDOF 1
ENDMDL
MODEL       88
REMARK 921   NORMALIZED FREE ENERGY PREDICTED BY IDOCK:   -2.54 KCAL/MOL
REMARK 922        TOTAL FREE ENERGY PREDICTED BY IDOCK:   -2.73 KCAL/MOL
REMARK 923 INTER-LIGAND FREE ENERGY PREDICTED BY IDOCK:   -2.64 KCAL/MOL
REMARK 924 INTRA-LIGAND FREE ENERGY PREDICTED BY IDOCK:   -0.08 KCAL/MOL
REMARK 927      BINDING AFFINITY PREDICTED BY RF-SCORE:    0.00 PKD
ROOT
HETATM    1  O   UNL     1     -10.960  13.633  64.340  1.00  0.00    -0.386 OA 
HETATM    2  C   UNL     1     -10.768  14.265  65.519  1.00  0.00    -0.331 C  
HETATM    3  C   UNL     1     -10.862  15.762  65.396  1.00  0.00    -0.376 C  
HETATM    4  O   UNL     1     -10.543  13.665  66.558  1.00  0.00    -0.278 OA 
ENDROOT
BRANCH   3   5
HETATM    5  C   UNL     1     -10.635  16.428  66.749  1.00  0.00    -0.238 C  
HETATM    6  C   UNL     1      -9.365  17.233  66.753  1.00  0.00    -0.259 C  
HETATM    7  O   UNL     1      -9.139  17.838  67.940  1.00  0.00    -0.250 OA 
HETATM    8  O   UNL     1      -8.607  17.344  65.802  1.00  0.00    -0.526 OA 
ENDBRANCH   3   5
TORSDOF 1
ENDMDL
MODEL       89
REMARK 921   NORMALIZED FREE ENERGY PREDICTED BY IDOCK:   -2.54 KCAL/MOL
REMARK 922        TOTAL FREE ENERGY PREDICTED BY IDOCK:   -2.73 KCAL/MOL
REMARK 923 INTER-LIGAND FREE ENERGY PREDICTED BY IDOCK:   -2.64 KCAL/MOL
REMARK 924 INTRA-LIGAND FREE ENERGY PREDICTED BY IDOCK:   -0.09 KCAL/MOL
REMARK 927      BINDING AFFINITY PREDICTED BY RF-SCORE:    0.00 PKD
ROOT
HETATM    1  O   UNL     1      -7.478  20.435  65.421  1.00  0.00    -0.196 OA 
HETATM    2  C   UNL     1      -8.115  19.293  65.764  1.00  0.00     0.047 C  
HETATM    3  C   UNL     1      -9.475  19.543  66.355  1.00  0.00    -0.457 C  
HETATM    4  O   UNL     1      -7.618  18.190  65.602  1.00  0.00    -0.538 OA 
ENDROOT
BRANCH   3   5
HETATM    5  C   UNL     1     -10.150  18.227  66.728  1.00  0.00    -0.375 C  
HETATM    6  C   UNL     1     -10.270  18.082  68.220  1.00  0.00    -0.395 C  
HETATM    7  O   UNL     1     -10.867  16.925  68.581  1.00  0.00    -0.342 OA 
HETATM    8  O   UNL     1      -9.881  18.904  69.035  1.00  0.00    -0.382 OA 
ENDBRANCH   3   5
TORSDOF 1
ENDMDL
MODEL       90
REMARK 921   NORMALIZED FREE ENERGY PREDICTED BY IDOCK:   -2.53 KCAL/MOL
REMARK 922        TOTAL FREE ENERGY PREDICTED BY IDOCK:   -2.71 KCAL/MOL
REMARK 923 INTER-LIGAND FREE ENERGY PREDICTED BY IDOCK:   -2.62 KCAL/MOL
REMARK 924 INTRA-LIGAND FREE ENERGY PREDICTED BY IDOCK:   -0.10 KCAL/MOL
REMARK 927      BINDING AFFINITY PREDICTED BY RF-SCORE:    0.00 PKD
ROOT
HETATM    1  O   UNL     1      -7.563  15.378  66.585  1.00  0.00    -0.065 OA 
HETATM    2  C   UNL     1      -8.214  16.520  66.272  1.00  0.00    -0.325 C  
HETATM    3  C   UNL     1      -9.690  16.440  66.549  1.00  0.00    -0.287 C  
HETATM    4  O   UNL     1      -7.643  17.497  65.813  1.00  0.00    -0.514 OA 
ENDROOT
BRANCH   3   5
HETATM    5  C   UNL     1     -10.379  17.749  66.177  1.00  0.00    -0.340 C  
HETATM    6  C   UNL     1     -10.629  18.597  67.394  1.00  0.00    -0.441 C  
HETATM    7  O   UNL     1     -11.236  19.766  67.094  1.00  0.00    -0.272 OA 
HETATM    8  O   UNL     1     -10.325  18.287  68.535  1.00  0.00    -0.372 OA 
ENDBRANCH   3   5
TORSDOF 1
ENDMDL
MODEL       91
REMARK 921   NORMALIZED FREE ENERGY PREDICTED BY IDOCK:   -2.51 KCAL/MOL
REMARK 922        TOTAL FREE ENERGY PREDICTED BY IDOCK:   -2.70 KCAL/MOL
REMARK 923 INTER-LIGAND FREE ENERGY PREDICTED BY IDOCK:   -2.66 KCAL/MOL
REMARK 924 INTRA-LIGAND FREE ENERGY PREDICTED BY IDOCK:   -0.04 KCAL/MOL
REMARK 927      BINDING AFFINITY PREDICTED BY RF-SCORE:    0.00 PKD
ROOT
HETATM    1  O   UNL     1      -9.917  12.501  66.399  1.00  0.00    -0.240 OA 
HETATM    2  C   UNL     1     -10.928  12.266  67.264  1.00  0.00    -0.256 C  
HETATM    3  C   UNL     1     -10.444  11.784  68.604  1.00  0.00    -0.242 C  
HETATM    4  O   UNL     1     -12.100  12.434  66.966  1.00  0.00    -0.549 OA 
ENDROOT
BRANCH   3   5
HETATM    5  C   UNL     1     -11.621  11.530  69.541  1.00  0.00    -0.400 C  
HETATM    6  C   UNL     1     -11.313  10.424  70.512  1.00  0.00    -0.341 C  
HETATM    7  O   UNL     1     -12.338  10.177  71.358  1.00  0.00    -0.358 OA 
HETATM    8  O   UNL     1     -10.263   9.802  70.553  1.00  0.00    -0.274 OA 
ENDBRANCH   3   5
TORSDOF 1
ENDMDL
MODEL       92
REMARK 921   NORMALIZED FREE ENERGY PREDICTED BY IDOCK:   -2.50 KCAL/MOL
REMARK 922        TOTAL FREE ENERGY PREDICTED BY IDOCK:   -2.69 KCAL/MOL
REMARK 923 INTER-LIGAND FREE ENERGY PREDICTED BY IDOCK:   -2.60 KCAL/MOL
REMARK 924 INTRA-LIGAND FREE ENERGY PREDICTED BY IDOCK:   -0.09 KCAL/MOL
REMARK 927      BINDING AFFINITY PREDICTED BY RF-SCORE:    0.00 PKD
ROOT
HETATM    1  O   UNL     1      -6.521  17.473  69.687  1.00  0.00    -0.236 OA 
HETATM    2  C   UNL     1      -7.717  17.329  69.074  1.00  0.00    -0.166 C  
HETATM    3  C   UNL     1      -8.229  18.619  68.493  1.00  0.00    -0.370 C  
HETATM    4  O   UNL     1      -8.300  16.258  69.013  1.00  0.00    -0.232 OA 
ENDROOT
BRANCH   3   5
HETATM    5  C   UNL     1      -9.580  18.405  67.818  1.00  0.00    -0.300 C  
HETATM    6  C   UNL     1      -9.421  18.210  66.335  1.00  0.00    -0.278 C  
HETATM    7  O   UNL     1     -10.603  18.016  65.709  1.00  0.00    -0.528 OA 
HETATM    8  O   UNL     1      -8.355  18.220  65.740  1.00  0.00    -0.489 OA 
ENDBRANCH   3   5
TORSDOF 1
ENDMDL
MODEL       93
REMARK 921   NORMALIZED FREE ENERGY PREDICTED BY IDOCK:   -2.49 KCAL/MOL
REMARK 922        TOTAL FREE ENERGY PREDICTED BY IDOCK:   -2.68 KCAL/MOL
REMARK 923 INTER-LIGAND FREE ENERGY PREDICTED BY IDOCK:   -2.59 KCAL/MOL
REMARK 924 INTRA-LIGAND FREE ENERGY PREDICTED BY IDOCK:   -0.09 KCAL/MOL
REMARK 927      BINDING AFFINITY PREDICTED BY RF-SCORE:    0.00 PKD
ROOT
HETATM    1  O   UNL     1      -8.166  13.622  68.176  1.00  0.00    -0.140 OA 
HETATM    2  C   UNL     1      -8.743  14.669  67.545  1.00  0.00    -0.186 C  
HETATM    3  C   UNL     1     -10.177  14.405  67.176  1.00  0.00    -0.257 C  
HETATM    4  O   UNL     1      -8.143  15.706  67.310  1.00  0.00    -0.162 OA 
ENDROOT
BRANCH   3   5
HETATM    5  C   UNL     1     -10.780  15.611  66.464  1.00  0.00    -0.293 C  
HETATM    6  C   UNL     1     -10.731  15.442  64.970  1.00  0.00    -0.438 C  
HETATM    7  O   UNL     1     -11.261  16.496  64.312  1.00  0.00    -0.992 OA 
HETATM    8  O   UNL     1     -10.270  14.469  64.393  1.00  0.00    -0.125 OA 
ENDBRANCH   3   5
TORSDOF 1
ENDMDL
MODEL       94
REMARK 921   NORMALIZED FREE ENERGY PREDICTED BY IDOCK:   -2.48 KCAL/MOL
REMARK 922        TOTAL FREE ENERGY PREDICTED BY IDOCK:   -2.67 KCAL/MOL
REMARK 923 INTER-LIGAND FREE ENERGY PREDICTED BY IDOCK:   -2.59 KCAL/MOL
REMARK 924 INTRA-LIGAND FREE ENERGY PREDICTED BY IDOCK:   -0.08 KCAL/MOL
REMARK 927      BINDING AFFINITY PREDICTED BY RF-SCORE:    0.00 PKD
ROOT
HETATM    1  O   UNL     1      -9.848  14.386  67.130  1.00  0.00    -0.245 OA 
HETATM    2  C   UNL     1     -10.422  15.582  67.392  1.00  0.00    -0.281 C  
HETATM    3  C   UNL     1      -9.746  16.719  66.675  1.00  0.00    -0.281 C  
HETATM    4  O   UNL     1     -11.383  15.701  68.135  1.00  0.00    -0.336 OA 
ENDROOT
BRANCH   3   5
HETATM    5  C   UNL     1     -10.426  18.043  67.006  1.00  0.00    -0.361 C  
HETATM    6  C   UNL     1      -9.732  18.742  68.142  1.00  0.00    -0.341 C  
HETATM    7  O   UNL     1     -10.312  19.921  68.456  1.00  0.00    -0.448 OA 
HETATM    8  O   UNL     1      -8.752  18.313  68.731  1.00  0.00    -0.300 OA 
ENDBRANCH   3   5
TORSDOF 1
ENDMDL
MODEL       95
REMARK 921   NORMALIZED FREE ENERGY PREDICTED BY IDOCK:   -2.46 KCAL/MOL
REMARK 922        TOTAL FREE ENERGY PREDICTED BY IDOCK:   -2.65 KCAL/MOL
REMARK 923 INTER-LIGAND FREE ENERGY PREDICTED BY IDOCK:   -2.66 KCAL/MOL
REMARK 924 INTRA-LIGAND FREE ENERGY PREDICTED BY IDOCK:    0.01 KCAL/MOL
REMARK 927      BINDING AFFINITY PREDICTED BY RF-SCORE:    0.00 PKD
ROOT
HETATM    1  O   UNL     1     -10.404  20.255  68.075  1.00  0.00    -0.359 OA 
HETATM    2  C   UNL     1      -9.658  19.139  68.229  1.00  0.00    -0.356 C  
HETATM    3  C   UNL     1     -10.353  17.903  67.726  1.00  0.00    -0.393 C  
HETATM    4  O   UNL     1      -8.543  19.157  68.726  1.00  0.00    -0.359 OA 
ENDROOT
BRANCH   3   5
HETATM    5  C   UNL     1      -9.474  16.673  67.925  1.00  0.00    -0.225 C  
HETATM    6  C   UNL     1      -8.550  16.471  66.755  1.00  0.00    -0.230 C  
HETATM    7  O   UNL     1      -7.756  15.388  66.903  1.00  0.00    -0.212 OA 
HETATM    8  O   UNL     1      -8.503  17.191  65.770  1.00  0.00    -0.522 OA 
ENDBRANCH   3   5
TORSDOF 1
ENDMDL
MODEL       96
REMARK 921   NORMALIZED FREE ENERGY PREDICTED BY IDOCK:   -2.46 KCAL/MOL
REMARK 922        TOTAL FREE ENERGY PREDICTED BY IDOCK:   -2.64 KCAL/MOL
REMARK 923 INTER-LIGAND FREE ENERGY PREDICTED BY IDOCK:   -2.55 KCAL/MOL
REMARK 924 INTRA-LIGAND FREE ENERGY PREDICTED BY IDOCK:   -0.09 KCAL/MOL
REMARK 927      BINDING AFFINITY PREDICTED BY RF-SCORE:    0.00 PKD
ROOT
HETATM    1  O   UNL     1      -8.389  18.129  68.120  1.00  0.00    -0.261 OA 
HETATM    2  C   UNL     1      -8.922  17.404  67.112  1.00  0.00    -0.240 C  
HETATM    3  C   UNL     1      -9.149  15.966  67.490  1.00  0.00    -0.204 C  
HETATM    4  O   UNL     1      -9.181  17.886  66.020  1.00  0.00    -0.509 OA 
ENDROOT
BRANCH   3   5
HETATM    5  C   UNL     1      -9.747  15.190  66.320  1.00  0.00    -0.315 C  
HETATM    6  C   UNL     1     -11.170  14.793  66.602  1.00  0.00    -0.346 C  
HETATM    7  O   UNL     1     -11.728  14.106  65.582  1.00  0.00    -0.338 OA 
HETATM    8  O   UNL     1     -11.776  15.052  67.630  1.00  0.00    -0.342 OA 
ENDBRANCH   3   5
TORSDOF 1
ENDMDL
MODEL       97
REMARK 921   NORMALIZED FREE ENERGY PREDICTED BY IDOCK:   -2.45 KCAL/MOL
REMARK 922        TOTAL FREE ENERGY PREDICTED BY IDOCK:   -2.63 KCAL/MOL
REMARK 923 INTER-LIGAND FREE ENERGY PREDICTED BY IDOCK:   -2.60 KCAL/MOL
REMARK 924 INTRA-LIGAND FREE ENERGY PREDICTED BY IDOCK:   -0.03 KCAL/MOL
REMARK 927      BINDING AFFINITY PREDICTED BY RF-SCORE:    0.00 PKD
ROOT
HETATM    1  O   UNL     1      -9.606   9.972  62.502  1.00  0.00    -0.272 OA 
HETATM    2  C   UNL     1      -9.436  10.247  63.814  1.00  0.00    -0.300 C  
HETATM    3  C   UNL     1     -10.617  10.960  64.415  1.00  0.00    -0.343 C  
HETATM    4  O   UNL     1      -8.424   9.940  64.425  1.00  0.00    -0.152 OA 
ENDROOT
BRANCH   3   5
HETATM    5  C   UNL     1     -10.376  11.250  65.893  1.00  0.00    -0.304 C  
HETATM    6  C   UNL     1     -11.477  12.099  66.466  1.00  0.00    -0.369 C  
HETATM    7  O   UNL     1     -11.292  12.370  67.777  1.00  0.00    -0.258 OA 
HETATM    8  O   UNL     1     -12.441  12.508  65.840  1.00  0.00    -0.596 OA 
ENDBRANCH   3   5
TORSDOF 1
ENDMDL
MODEL       98
REMARK 921   NORMALIZED FREE ENERGY PREDICTED BY IDOCK:   -2.44 KCAL/MOL
REMARK 922        TOTAL FREE ENERGY PREDICTED BY IDOCK:   -2.63 KCAL/MOL
REMARK 923 INTER-LIGAND FREE ENERGY PREDICTED BY IDOCK:   -2.53 KCAL/MOL
REMARK 924 INTRA-LIGAND FREE ENERGY PREDICTED BY IDOCK:   -0.10 KCAL/MOL
REMARK 927      BINDING AFFINITY PREDICTED BY RF-SCORE:    0.00 PKD
ROOT
HETATM    1  O   UNL     1     -10.194  14.292  65.762  1.00  0.00    -0.305 OA 
HETATM    2  C   UNL     1     -10.937  14.353  66.889  1.00  0.00    -0.308 C  
HETATM    3  C   UNL     1     -10.933  15.722  67.513  1.00  0.00    -0.293 C  
HETATM    4  O   UNL     1     -11.536  13.387  67.334  1.00  0.00    -0.314 OA 
ENDROOT
BRANCH   3   5
HETATM    5  C   UNL     1     -11.780  15.738  68.781  1.00  0.00    -0.387 C  
HETATM    6  C   UNL     1     -10.920  15.629  70.010  1.00  0.00    -0.327 C  
HETATM    7  O   UNL     1     -11.643  15.642  71.151  1.00  0.00    -0.336 OA 
HETATM    8  O   UNL     1      -9.702  15.537  70.004  1.00  0.00    -0.260 OA 
ENDBRANCH   3   5
TORSDOF 1
ENDMDL
MODEL       99
REMARK 921   NORMALIZED FREE ENERGY PREDICTED BY IDOCK:   -2.44 KCAL/MOL
REMARK 922        TOTAL FREE ENERGY PREDICTED BY IDOCK:   -2.63 KCAL/MOL
REMARK 923 INTER-LIGAND FREE ENERGY PREDICTED BY IDOCK:   -2.59 KCAL/MOL
REMARK 924 INTRA-LIGAND FREE ENERGY PREDICTED BY IDOCK:   -0.04 KCAL/MOL
REMARK 927      BINDING AFFINITY PREDICTED BY RF-SCORE:    0.00 PKD
ROOT
HETATM    1  O   UNL     1     -12.641  11.961  71.230  1.00  0.00    -0.359 OA 
HETATM    2  C   UNL     1     -12.628  10.643  71.528  1.00  0.00    -0.412 C  
HETATM    3  C   UNL     1     -11.432   9.931  70.957  1.00  0.00    -0.466 C  
HETATM    4  O   UNL     1     -13.504  10.110  72.191  1.00  0.00    -0.411 OA 
ENDROOT
BRANCH   3   5
HETATM    5  C   UNL     1     -11.465   8.450  71.318  1.00  0.00    -0.325 C  
HETATM    6  C   UNL     1     -10.530   7.657  70.445  1.00  0.00    -0.220 C  
HETATM    7  O   UNL     1     -10.536   6.340  70.743  1.00  0.00    -0.221 OA 
HETATM    8  O   UNL     1      -9.833   8.129  69.561  1.00  0.00    -0.176 OA 
ENDBRANCH   3   5
TORSDOF 1
ENDMDL
MODEL      100
REMARK 921   NORMALIZED FREE ENERGY PREDICTED BY IDOCK:   -2.44 KCAL/MOL
REMARK 922        TOTAL FREE ENERGY PREDICTED BY IDOCK:   -2.62 KCAL/MOL
REMARK 923 INTER-LIGAND FREE ENERGY PREDICTED BY IDOCK:   -2.55 KCAL/MOL
REMARK 924 INTRA-LIGAND FREE ENERGY PREDICTED BY IDOCK:   -0.07 KCAL/MOL
REMARK 927      BINDING AFFINITY PREDICTED BY RF-SCORE:    0.00 PKD
ROOT
HETATM    1  O   UNL     1      -8.737  15.124  68.455  1.00  0.00    -0.158 OA 
HETATM    2  C   UNL     1      -9.120  16.410  68.296  1.00  0.00    -0.207 C  
HETATM    3  C   UNL     1      -8.903  16.910  66.894  1.00  0.00    -0.248 C  
HETATM    4  O   UNL     1      -9.588  17.074  69.208  1.00  0.00    -0.173 OA 
ENDROOT
BRANCH   3   5
HETATM    5  C   UNL     1      -9.347  18.364  66.767  1.00  0.00    -0.296 C  
HETATM    6  C   UNL     1     -10.417  18.516  65.721  1.00  0.00    -0.247 C  
HETATM    7  O   UNL     1     -10.832  19.795  65.587  1.00  0.00    -0.462 OA 
HETATM    8  O   UNL     1     -10.876  17.602  65.054  1.00  0.00    -0.758 OA 
ENDBRANCH   3   5
TORSDOF 1
ENDMDL
MODEL      101
REMARK 921   NORMALIZED FREE ENERGY PREDICTED BY IDOCK:   -2.44 KCAL/MOL
REMARK 922        TOTAL FREE ENERGY PREDICTED BY IDOCK:   -2.62 KCAL/MOL
REMARK 923 INTER-LIGAND FREE ENERGY PREDICTED BY IDOCK:   -2.52 KCAL/MOL
REMARK 924 INTRA-LIGAND FREE ENERGY PREDICTED BY IDOCK:   -0.10 KCAL/MOL
REMARK 927      BINDING AFFINITY PREDICTED BY RF-SCORE:    0.00 PKD
ROOT
HETATM    1  O   UNL     1      -8.826   9.932  66.398  1.00  0.00    -0.140 OA 
HETATM    2  C   UNL     1     -10.078  10.404  66.208  1.00  0.00    -0.231 C  
HETATM    3  C   UNL     1     -10.198  11.249  64.970  1.00  0.00    -0.339 C  
HETATM    4  O   UNL     1     -10.996  10.158  66.975  1.00  0.00    -0.209 OA 
ENDROOT
BRANCH   3   5
HETATM    5  C   UNL     1     -11.625  11.760  64.803  1.00  0.00    -0.241 C  
HETATM    6  C   UNL     1     -11.749  13.186  65.263  1.00  0.00    -0.344 C  
HETATM    7  O   UNL     1     -13.004  13.667  65.125  1.00  0.00    -0.734 OA 
HETATM    8  O   UNL     1     -10.834  13.856  65.713  1.00  0.00    -0.283 OA 
ENDBRANCH   3   5
TORSDOF 1
ENDMDL
MODEL      102
REMARK 921   NORMALIZED FREE ENERGY PREDICTED BY IDOCK:   -2.42 KCAL/MOL
REMARK 922        TOTAL FREE ENERGY PREDICTED BY IDOCK:   -2.60 KCAL/MOL
REMARK 923 INTER-LIGAND FREE ENERGY PREDICTED BY IDOCK:   -2.52 KCAL/MOL
REMARK 924 INTRA-LIGAND FREE ENERGY PREDICTED BY IDOCK:   -0.08 KCAL/MOL
REMARK 927      BINDING AFFINITY PREDICTED BY RF-SCORE:    0.00 PKD
ROOT
HETATM    1  O   UNL     1      -9.876  11.642  64.558  1.00  0.00    -0.243 OA 
HETATM    2  C   UNL     1     -10.150  11.816  65.870  1.00  0.00    -0.234 C  
HETATM    3  C   UNL     1     -11.518  12.395  66.105  1.00  0.00    -0.430 C  
HETATM    4  O   UNL     1      -9.355  11.527  66.751  1.00  0.00    -0.173 OA 
ENDROOT
BRANCH   3   5
HETATM    5  C   UNL     1     -11.777  12.574  67.598  1.00  0.00    -0.423 C  
HETATM    6  C   UNL     1     -11.918  14.029  67.953  1.00  0.00    -0.351 C  
HETATM    7  O   UNL     1     -12.151  14.220  69.270  1.00  0.00    -0.325 OA 
HETATM    8  O   UNL     1     -11.837  14.953  67.159  1.00  0.00    -0.338 OA 
ENDBRANCH   3   5
TORSDOF 1
ENDMDL
MODEL      103
REMARK 921   NORMALIZED FREE ENERGY PREDICTED BY IDOCK:   -2.42 KCAL/MOL
REMARK 922        TOTAL FREE ENERGY PREDICTED BY IDOCK:   -2.60 KCAL/MOL
REMARK 923 INTER-LIGAND FREE ENERGY PREDICTED BY IDOCK:   -2.51 KCAL/MOL
REMARK 924 INTRA-LIGAND FREE ENERGY PREDICTED BY IDOCK:   -0.09 KCAL/MOL
REMARK 927      BINDING AFFINITY PREDICTED BY RF-SCORE:    0.00 PKD
ROOT
HETATM    1  O   UNL     1     -10.264  17.102  68.662  1.00  0.00    -0.294 OA 
HETATM    2  C   UNL     1      -9.791  17.718  67.556  1.00  0.00    -0.304 C  
HETATM    3  C   UNL     1      -8.504  18.454  67.808  1.00  0.00    -0.270 C  
HETATM    4  O   UNL     1     -10.366  17.668  66.479  1.00  0.00    -0.343 OA 
ENDROOT
BRANCH   3   5
HETATM    5  C   UNL     1      -8.014  19.133  66.533  1.00  0.00    -0.296 C  
HETATM    6  C   UNL     1      -6.985  18.292  65.830  1.00  0.00    -0.277 C  
HETATM    7  O   UNL     1      -6.533  18.868  64.695  1.00  0.00    -0.500 OA 
HETATM    8  O   UNL     1      -6.586  17.206  66.221  1.00  0.00    -0.226 OA 
ENDBRANCH   3   5
TORSDOF 1
ENDMDL
MODEL      104
REMARK 921   NORMALIZED FREE ENERGY PREDICTED BY IDOCK:   -2.41 KCAL/MOL
REMARK 922        TOTAL FREE ENERGY PREDICTED BY IDOCK:   -2.60 KCAL/MOL
REMARK 923 INTER-LIGAND FREE ENERGY PREDICTED BY IDOCK:   -2.53 KCAL/MOL
REMARK 924 INTRA-LIGAND FREE ENERGY PREDICTED BY IDOCK:   -0.07 KCAL/MOL
REMARK 927      BINDING AFFINITY PREDICTED BY RF-SCORE:    0.00 PKD
ROOT
HETATM    1  O   UNL     1      -8.489   7.935  69.957  1.00  0.00    -0.130 OA 
HETATM    2  C   UNL     1      -9.316   8.560  70.825  1.00  0.00    -0.172 C  
HETATM    3  C   UNL     1     -10.738   8.606  70.339  1.00  0.00    -0.248 C  
HETATM    4  O   UNL     1      -8.925   9.029  71.883  1.00  0.00    -0.364 OA 
ENDROOT
BRANCH   3   5
HETATM    5  C   UNL     1     -11.629   9.323  71.349  1.00  0.00    -0.437 C  
HETATM    6  C   UNL     1     -12.797   8.464  71.748  1.00  0.00    -0.345 C  
HETATM    7  O   UNL     1     -13.604   9.072  72.645  1.00  0.00    -0.465 OA 
HETATM    8  O   UNL     1     -13.015   7.340  71.324  1.00  0.00    -0.369 OA 
ENDBRANCH   3   5
TORSDOF 1
ENDMDL
MODEL      105
REMARK 921   NORMALIZED FREE ENERGY PREDICTED BY IDOCK:   -2.41 KCAL/MOL
REMARK 922        TOTAL FREE ENERGY PREDICTED BY IDOCK:   -2.59 KCAL/MOL
REMARK 923 INTER-LIGAND FREE ENERGY PREDICTED BY IDOCK:   -2.53 KCAL/MOL
REMARK 924 INTRA-LIGAND FREE ENERGY PREDICTED BY IDOCK:   -0.06 KCAL/MOL
REMARK 927      BINDING AFFINITY PREDICTED BY RF-SCORE:    0.00 PKD
ROOT
HETATM    1  O   UNL     1     -11.125  19.237  67.454  1.00  0.00    -0.444 OA 
HETATM    2  C   UNL     1     -10.298  18.348  66.862  1.00  0.00    -0.390 C  
HETATM    3  C   UNL     1      -9.468  17.578  67.853  1.00  0.00    -0.277 C  
HETATM    4  O   UNL     1     -10.246  18.205  65.650  1.00  0.00    -0.578 OA 
ENDROOT
BRANCH   3   5
HETATM    5  C   UNL     1      -8.550  16.593  67.136  1.00  0.00    -0.214 C  
HETATM    6  C   UNL     1      -7.136  16.709  67.632  1.00  0.00    -0.136 C  
HETATM    7  O   UNL     1      -6.298  15.846  67.016  1.00  0.00    -0.309 OA 
HETATM    8  O   UNL     1      -6.760  17.487  68.495  1.00  0.00    -0.186 OA 
ENDBRANCH   3   5
TORSDOF 1
ENDMDL
MODEL      106
REMARK 921   NORMALIZED FREE ENERGY PREDICTED BY IDOCK:   -2.41 KCAL/MOL
REMARK 922        TOTAL FREE ENERGY PREDICTED BY IDOCK:   -2.59 KCAL/MOL
REMARK 923 INTER-LIGAND FREE ENERGY PREDICTED BY IDOCK:   -2.49 KCAL/MOL
REMARK 924 INTRA-LIGAND FREE ENERGY PREDICTED BY IDOCK:   -0.10 KCAL/MOL
REMARK 927      BINDING AFFINITY PREDICTED BY RF-SCORE:    0.00 PKD
ROOT
HETATM    1  O   UNL     1     -14.342   8.656  71.385  1.00  0.00    -0.386 OA 
HETATM    2  C   UNL     1     -13.097   8.180  71.603  1.00  0.00    -0.335 C  
HETATM    3  C   UNL     1     -12.080   9.274  71.779  1.00  0.00    -0.457 C  
HETATM    4  O   UNL     1     -12.849   6.985  71.648  1.00  0.00    -0.366 OA 
ENDROOT
BRANCH   3   5
HETATM    5  C   UNL     1     -10.693   8.687  72.019  1.00  0.00    -0.427 C  
HETATM    6  C   UNL     1      -9.827   8.821  70.797  1.00  0.00    -0.205 C  
HETATM    7  O   UNL     1      -8.590   8.311  70.980  1.00  0.00    -0.127 OA 
HETATM    8  O   UNL     1     -10.179   9.332  69.745  1.00  0.00    -0.191 OA 
ENDBRANCH   3   5
TORSDOF 1
ENDMDL
MODEL      107
REMARK 921   NORMALIZED FREE ENERGY PREDICTED BY IDOCK:   -2.40 KCAL/MOL
REMARK 922        TOTAL FREE ENERGY PREDICTED BY IDOCK:   -2.58 KCAL/MOL
REMARK 923 INTER-LIGAND FREE ENERGY PREDICTED BY IDOCK:   -2.53 KCAL/MOL
REMARK 924 INTRA-LIGAND FREE ENERGY PREDICTED BY IDOCK:   -0.04 KCAL/MOL
REMARK 927      BINDING AFFINITY PREDICTED BY RF-SCORE:    0.00 PKD
ROOT
HETATM    1  O   UNL     1      -9.205  12.982  67.500  1.00  0.00    -0.180 OA 
HETATM    2  C   UNL     1      -9.879  13.864  66.730  1.00  0.00    -0.274 C  
HETATM    3  C   UNL     1      -9.254  15.233  66.733  1.00  0.00    -0.274 C  
HETATM    4  O   UNL     1     -10.885  13.559  66.108  1.00  0.00    -0.280 OA 
ENDROOT
BRANCH   3   5
HETATM    5  C   UNL     1     -10.052  16.190  65.854  1.00  0.00    -0.379 C  
HETATM    6  C   UNL     1     -10.037  17.585  66.416  1.00  0.00    -0.345 C  
HETATM    7  O   UNL     1     -10.735  18.457  65.656  1.00  0.00    -0.548 OA 
HETATM    8  O   UNL     1      -9.464  17.918  67.441  1.00  0.00    -0.254 OA 
ENDBRANCH   3   5
TORSDOF 1
ENDMDL
MODEL      108
REMARK 921   NORMALIZED FREE ENERGY PREDICTED BY IDOCK:   -2.39 KCAL/MOL
REMARK 922        TOTAL FREE ENERGY PREDICTED BY IDOCK:   -2.57 KCAL/MOL
REMARK 923 INTER-LIGAND FREE ENERGY PREDICTED BY IDOCK:   -2.48 KCAL/MOL
REMARK 924 INTRA-LIGAND FREE ENERGY PREDICTED BY IDOCK:   -0.09 KCAL/MOL
REMARK 927      BINDING AFFINITY PREDICTED BY RF-SCORE:    0.00 PKD
ROOT
HETATM    1  O   UNL     1     -11.565   6.290  69.466  1.00  0.00    -0.423 OA 
HETATM    2  C   UNL     1     -10.991   6.210  70.687  1.00  0.00    -0.311 C  
HETATM    3  C   UNL     1     -11.222   7.442  71.518  1.00  0.00    -0.271 C  
HETATM    4  O   UNL     1     -10.358   5.231  71.052  1.00  0.00    -0.224 OA 
ENDROOT
BRANCH   3   5
HETATM    5  C   UNL     1     -10.553   7.303  72.883  1.00  0.00    -0.344 C  
HETATM    6  C   UNL     1      -9.344   8.191  72.988  1.00  0.00    -0.265 C  
HETATM    7  O   UNL     1      -8.732   8.092  74.188  1.00  0.00    -0.258 OA 
HETATM    8  O   UNL     1      -8.941   8.930  72.103  1.00  0.00    -0.381 OA 
ENDBRANCH   3   5
TORSDOF 1
ENDMDL
MODEL      109
REMARK 921   NORMALIZED FREE ENERGY PREDICTED BY IDOCK:   -2.38 KCAL/MOL
REMARK 922        TOTAL FREE ENERGY PREDICTED BY IDOCK:   -2.56 KCAL/MOL
REMARK 923 INTER-LIGAND FREE ENERGY PREDICTED BY IDOCK:   -2.46 KCAL/MOL
REMARK 924 INTRA-LIGAND FREE ENERGY PREDICTED BY IDOCK:   -0.10 KCAL/MOL
REMARK 927      BINDING AFFINITY PREDICTED BY RF-SCORE:    0.00 PKD
ROOT
HETATM    1  O   UNL     1      -8.267   8.395  73.841  1.00  0.00    -0.320 OA 
HETATM    2  C   UNL     1      -9.151   8.446  72.821  1.00  0.00    -0.229 C  
HETATM    3  C   UNL     1     -10.402   7.657  73.097  1.00  0.00    -0.411 C  
HETATM    4  O   UNL     1      -8.934   9.071  71.794  1.00  0.00    -0.343 OA 
ENDROOT
BRANCH   3   5
HETATM    5  C   UNL     1     -11.364   7.744  71.916  1.00  0.00    -0.315 C  
HETATM    6  C   UNL     1     -11.305   6.498  71.075  1.00  0.00    -0.323 C  
HETATM    7  O   UNL     1     -12.149   6.545  70.022  1.00  0.00    -0.282 OA 
HETATM    8  O   UNL     1     -10.584   5.538  71.299  1.00  0.00    -0.239 OA 
ENDBRANCH   3   5
TORSDOF 1
ENDMDL
MODEL      110
REMARK 921   NORMALIZED FREE ENERGY PREDICTED BY IDOCK:   -2.37 KCAL/MOL
REMARK 922        TOTAL FREE ENERGY PREDICTED BY IDOCK:   -2.55 KCAL/MOL
REMARK 923 INTER-LIGAND FREE ENERGY PREDICTED BY IDOCK:   -2.47 KCAL/MOL
REMARK 924 INTRA-LIGAND FREE ENERGY PREDICTED BY IDOCK:   -0.08 KCAL/MOL
REMARK 927      BINDING AFFINITY PREDICTED BY RF-SCORE:    0.00 PKD
ROOT
HETATM    1  O   UNL     1      -8.379  18.713  66.008  1.00  0.00    -0.475 OA 
HETATM    2  C   UNL     1      -8.845  17.499  66.378  1.00  0.00    -0.241 C  
HETATM    3  C   UNL     1     -10.263  17.551  66.878  1.00  0.00    -0.329 C  
HETATM    4  O   UNL     1      -8.168  16.486  66.307  1.00  0.00    -0.302 OA 
ENDROOT
BRANCH   3   5
HETATM    5  C   UNL     1     -10.740  16.160  67.286  1.00  0.00    -0.277 C  
HETATM    6  C   UNL     1     -10.981  16.081  68.768  1.00  0.00    -0.320 C  
HETATM    7  O   UNL     1     -11.407  14.860  69.159  1.00  0.00    -0.260 OA 
HETATM    8  O   UNL     1     -10.817  17.003  69.552  1.00  0.00    -0.264 OA 
ENDBRANCH   3   5
TORSDOF 1
ENDMDL
MODEL      111
REMARK 921   NORMALIZED FREE ENERGY PREDICTED BY IDOCK:   -2.36 KCAL/MOL
REMARK 922        TOTAL FREE ENERGY PREDICTED BY IDOCK:   -2.54 KCAL/MOL
REMARK 923 INTER-LIGAND FREE ENERGY PREDICTED BY IDOCK:   -2.50 KCAL/MOL
REMARK 924 INTRA-LIGAND FREE ENERGY PREDICTED BY IDOCK:   -0.03 KCAL/MOL
REMARK 927      BINDING AFFINITY PREDICTED BY RF-SCORE:    0.00 PKD
ROOT
HETATM    1  O   UNL     1      -8.900  19.645  66.607  1.00  0.00    -0.318 OA 
HETATM    2  C   UNL     1      -9.949  18.847  66.906  1.00  0.00    -0.345 C  
HETATM    3  C   UNL     1      -9.695  17.404  66.565  1.00  0.00    -0.302 C  
HETATM    4  O   UNL     1     -10.982  19.275  67.397  1.00  0.00    -0.484 OA 
ENDROOT
BRANCH   3   5
HETATM    5  C   UNL     1     -10.906  16.546  66.916  1.00  0.00    -0.083 C  
HETATM    6  C   UNL     1     -10.653  15.096  66.609  1.00  0.00    -0.304 C  
HETATM    7  O   UNL     1     -11.709  14.311  66.912  1.00  0.00    -0.371 OA 
HETATM    8  O   UNL     1      -9.617  14.653  66.139  1.00  0.00    -0.296 OA 
ENDBRANCH   3   5
TORSDOF 1
ENDMDL
MODEL      112
REMARK 921   NORMALIZED FREE ENERGY PREDICTED BY IDOCK:   -2.36 KCAL/MOL
REMARK 922        TOTAL FREE ENERGY PREDICTED BY IDOCK:   -2.53 KCAL/MOL
REMARK 923 INTER-LIGAND FREE ENERGY PREDICTED BY IDOCK:   -2.45 KCAL/MOL
REMARK 924 INTRA-LIGAND FREE ENERGY PREDICTED BY IDOCK:   -0.08 KCAL/MOL
REMARK 927      BINDING AFFINITY PREDICTED BY RF-SCORE:    0.00 PKD
ROOT
HETATM    1  O   UNL     1      -9.765  16.566  68.388  1.00  0.00    -0.223 OA 
HETATM    2  C   UNL     1      -9.291  17.829  68.478  1.00  0.00    -0.295 C  
HETATM    3  C   UNL     1      -7.842  17.934  68.088  1.00  0.00    -0.266 C  
HETATM    4  O   UNL     1      -9.985  18.766  68.841  1.00  0.00    -0.400 OA 
ENDROOT
BRANCH   3   5
HETATM    5  C   UNL     1      -7.356  19.374  68.210  1.00  0.00    -0.343 C  
HETATM    6  C   UNL     1      -6.332  19.511  69.303  1.00  0.00    -0.311 C  
HETATM    7  O   UNL     1      -5.880  20.778  69.433  1.00  0.00    -0.362 OA 
HETATM    8  O   UNL     1      -5.936  18.596  70.007  1.00  0.00    -0.249 OA 
ENDBRANCH   3   5
TORSDOF 1
ENDMDL
MODEL      113
REMARK 921   NORMALIZED FREE ENERGY PREDICTED BY IDOCK:   -2.32 KCAL/MOL
REMARK 922        TOTAL FREE ENERGY PREDICTED BY IDOCK:   -2.50 KCAL/MOL
REMARK 923 INTER-LIGAND FREE ENERGY PREDICTED BY IDOCK:   -2.43 KCAL/MOL
REMARK 924 INTRA-LIGAND FREE ENERGY PREDICTED BY IDOCK:   -0.07 KCAL/MOL
REMARK 927      BINDING AFFINITY PREDICTED BY RF-SCORE:    0.00 PKD
ROOT
HETATM    1  O   UNL     1     -11.921  10.385  71.196  1.00  0.00    -0.352 OA 
HETATM    2  C   UNL     1     -11.638   9.220  71.819  1.00  0.00    -0.388 C  
HETATM    3  C   UNL     1     -10.225   8.763  71.581  1.00  0.00    -0.394 C  
HETATM    4  O   UNL     1     -12.460   8.620  72.496  1.00  0.00    -0.391 OA 
ENDROOT
BRANCH   3   5
HETATM    5  C   UNL     1      -9.957   7.445  72.300  1.00  0.00    -0.206 C  
HETATM    6  C   UNL     1      -8.819   7.579  73.274  1.00  0.00    -0.173 C  
HETATM    7  O   UNL     1      -8.560   6.426  73.929  1.00  0.00    -0.121 OA 
HETATM    8  O   UNL     1      -8.185   8.603  73.470  1.00  0.00    -0.404 OA 
ENDBRANCH   3   5
TORSDOF 1
ENDMDL
MODEL      114
REMARK 921   NORMALIZED FREE ENERGY PREDICTED BY IDOCK:   -2.32 KCAL/MOL
REMARK 922        TOTAL FREE ENERGY PREDICTED BY IDOCK:   -2.49 KCAL/MOL
REMARK 923 INTER-LIGAND FREE ENERGY PREDICTED BY IDOCK:   -2.46 KCAL/MOL
REMARK 924 INTRA-LIGAND FREE ENERGY PREDICTED BY IDOCK:   -0.04 KCAL/MOL
REMARK 927      BINDING AFFINITY PREDICTED BY RF-SCORE:    0.00 PKD
ROOT
HETATM    1  O   UNL     1      -7.327  19.141  65.165  1.00  0.00    -0.348 OA 
HETATM    2  C   UNL     1      -7.455  18.864  66.482  1.00  0.00    -0.240 C  
HETATM    3  C   UNL     1      -6.993  19.994  67.360  1.00  0.00    -0.273 C  
HETATM    4  O   UNL     1      -7.898  17.801  66.889  1.00  0.00    -0.206 OA 
ENDROOT
BRANCH   3   5
HETATM    5  C   UNL     1      -7.153  19.631  68.833  1.00  0.00    -0.388 C  
HETATM    6  C   UNL     1      -6.230  20.445  69.697  1.00  0.00    -0.275 C  
HETATM    7  O   UNL     1      -6.352  20.147  71.009  1.00  0.00    -0.399 OA 
HETATM    8  O   UNL     1      -5.450  21.289  69.284  1.00  0.00    -0.326 OA 
ENDBRANCH   3   5
TORSDOF 1
ENDMDL
MODEL      115
REMARK 921   NORMALIZED FREE ENERGY PREDICTED BY IDOCK:   -2.32 KCAL/MOL
REMARK 922        TOTAL FREE ENERGY PREDICTED BY IDOCK:   -2.49 KCAL/MOL
REMARK 923 INTER-LIGAND FREE ENERGY PREDICTED BY IDOCK:   -2.41 KCAL/MOL
REMARK 924 INTRA-LIGAND FREE ENERGY PREDICTED BY IDOCK:   -0.09 KCAL/MOL
REMARK 927      BINDING AFFINITY PREDICTED BY RF-SCORE:    0.00 PKD
ROOT
HETATM    1  O   UNL     1     -11.102   9.568  69.779  1.00  0.00    -0.234 OA 
HETATM    2  C   UNL     1     -11.126   8.461  70.554  1.00  0.00    -0.252 C  
HETATM    3  C   UNL     1     -11.471   8.764  71.986  1.00  0.00    -0.441 C  
HETATM    4  O   UNL     1     -10.889   7.346  70.115  1.00  0.00    -0.247 OA 
ENDROOT
BRANCH   3   5
HETATM    5  C   UNL     1     -11.482   7.486  72.819  1.00  0.00    -0.352 C  
HETATM    6  C   UNL     1     -10.173   7.291  73.533  1.00  0.00    -0.358 C  
HETATM    7  O   UNL     1     -10.153   6.167  74.281  1.00  0.00    -0.249 OA 
HETATM    8  O   UNL     1      -9.219   8.051  73.462  1.00  0.00    -0.272 OA 
ENDBRANCH   3   5
TORSDOF 1
ENDMDL
MODEL      116
REMARK 921   NORMALIZED FREE ENERGY PREDICTED BY IDOCK:   -2.28 KCAL/MOL
REMARK 922        TOTAL FREE ENERGY PREDICTED BY IDOCK:   -2.45 KCAL/MOL
REMARK 923 INTER-LIGAND FREE ENERGY PREDICTED BY IDOCK:   -2.36 KCAL/MOL
REMARK 924 INTRA-LIGAND FREE ENERGY PREDICTED BY IDOCK:   -0.09 KCAL/MOL
REMARK 927      BINDING AFFINITY PREDICTED BY RF-SCORE:    0.00 PKD
ROOT
HETATM    1  O   UNL     1      -6.614  20.780  64.372  1.00  0.00    -0.312 OA 
HETATM    2  C   UNL     1      -6.500  19.778  65.273  1.00  0.00    -0.276 C  
HETATM    3  C   UNL     1      -6.063  20.264  66.628  1.00  0.00    -0.210 C  
HETATM    4  O   UNL     1      -6.732  18.613  64.992  1.00  0.00    -0.526 OA 
ENDROOT
BRANCH   3   5
HETATM    5  C   UNL     1      -5.947  19.098  67.605  1.00  0.00    -0.204 C  
HETATM    6  C   UNL     1      -7.182  18.976  68.454  1.00  0.00    -0.286 C  
HETATM    7  O   UNL     1      -7.108  17.950  69.329  1.00  0.00    -0.215 OA 
HETATM    8  O   UNL     1      -8.155  19.709  68.380  1.00  0.00    -0.330 OA 
ENDBRANCH   3   5
TORSDOF 1
ENDMDL
MODEL      117
REMARK 921   NORMALIZED FREE ENERGY PREDICTED BY IDOCK:   -2.28 KCAL/MOL
REMARK 922        TOTAL FREE ENERGY PREDICTED BY IDOCK:   -2.45 KCAL/MOL
REMARK 923 INTER-LIGAND FREE ENERGY PREDICTED BY IDOCK:   -2.35 KCAL/MOL
REMARK 924 INTRA-LIGAND FREE ENERGY PREDICTED BY IDOCK:   -0.10 KCAL/MOL
REMARK 927      BINDING AFFINITY PREDICTED BY RF-SCORE:    0.00 PKD
ROOT
HETATM    1  O   UNL     1     -12.563  13.294  66.301  1.00  0.00    -0.334 OA 
HETATM    2  C   UNL     1     -11.643  13.746  67.182  1.00  0.00    -0.364 C  
HETATM    3  C   UNL     1     -10.570  14.572  66.528  1.00  0.00    -0.297 C  
HETATM    4  O   UNL     1     -11.699  13.496  68.376  1.00  0.00    -0.315 OA 
ENDROOT
BRANCH   3   5
HETATM    5  C   UNL     1      -9.557  15.054  67.561  1.00  0.00    -0.203 C  
HETATM    6  C   UNL     1      -9.840  16.470  67.981  1.00  0.00    -0.240 C  
HETATM    7  O   UNL     1      -8.959  16.924  68.899  1.00  0.00    -0.259 OA 
HETATM    8  O   UNL     1     -10.758  17.154  67.556  1.00  0.00    -0.342 OA 
ENDBRANCH   3   5
TORSDOF 1
ENDMDL
MODEL      118
REMARK 921   NORMALIZED FREE ENERGY PREDICTED BY IDOCK:   -2.27 KCAL/MOL
REMARK 922        TOTAL FREE ENERGY PREDICTED BY IDOCK:   -2.44 KCAL/MOL
REMARK 923 INTER-LIGAND FREE ENERGY PREDICTED BY IDOCK:   -2.41 KCAL/MOL
REMARK 924 INTRA-LIGAND FREE ENERGY PREDICTED BY IDOCK:   -0.04 KCAL/MOL
REMARK 927      BINDING AFFINITY PREDICTED BY RF-SCORE:    0.00 PKD
ROOT
HETATM    1  O   UNL     1     -13.137  10.970  71.646  1.00  0.00    -0.446 OA 
HETATM    2  C   UNL     1     -12.196  10.665  70.726  1.00  0.00    -0.375 C  
HETATM    3  C   UNL     1     -11.832  11.839  69.858  1.00  0.00    -0.423 C  
HETATM    4  O   UNL     1     -11.709   9.549  70.628  1.00  0.00    -0.270 OA 
ENDROOT
BRANCH   3   5
HETATM    5  C   UNL     1     -10.771  11.444  68.836  1.00  0.00    -0.248 C  
HETATM    6  C   UNL     1     -10.156  12.657  68.195  1.00  0.00    -0.231 C  
HETATM    7  O   UNL     1      -9.209  12.338  67.285  1.00  0.00    -0.174 OA 
HETATM    8  O   UNL     1     -10.459  13.812  68.451  1.00  0.00    -0.240 OA 
ENDBRANCH   3   5
TORSDOF 1
ENDMDL
MODEL      119
REMARK 921   NORMALIZED FREE ENERGY PREDICTED BY IDOCK:   -2.23 KCAL/MOL
REMARK 922        TOTAL FREE ENERGY PREDICTED BY IDOCK:   -2.41 KCAL/MOL
REMARK 923 INTER-LIGAND FREE ENERGY PREDICTED BY IDOCK:   -2.31 KCAL/MOL
REMARK 924 INTRA-LIGAND FREE ENERGY PREDICTED BY IDOCK:   -0.10 KCAL/MOL
REMARK 927      BINDING AFFINITY PREDICTED BY RF-SCORE:    0.00 PKD
ROOT
HETATM    1  O   UNL     1     -14.348   9.138  71.260  1.00  0.00    -0.180 OA 
HETATM    2  C   UNL     1     -13.750   7.968  71.574  1.00  0.00    -0.312 C  
HETATM    3  C   UNL     1     -12.250   8.042  71.489  1.00  0.00    -0.328 C  
HETATM    4  O   UNL     1     -14.381   6.971  71.889  1.00  0.00    -0.376 OA 
ENDROOT
BRANCH   3   5
HETATM    5  C   UNL     1     -11.623   6.699  71.848  1.00  0.00    -0.344 C  
HETATM    6  C   UNL     1     -11.159   5.969  70.618  1.00  0.00    -0.301 C  
HETATM    7  O   UNL     1     -10.597   4.774  70.906  1.00  0.00    -0.105 OA 
HETATM    8  O   UNL     1     -11.267   6.388  69.476  1.00  0.00    -0.362 OA 
ENDBRANCH   3   5
TORSDOF 1
ENDMDL
MODEL      120
REMARK 921   NORMALIZED FREE ENERGY PREDICTED BY IDOCK:   -2.23 KCAL/MOL
REMARK 922        TOTAL FREE ENERGY PREDICTED BY IDOCK:   -2.40 KCAL/MOL
REMARK 923 INTER-LIGAND FREE ENERGY PREDICTED BY IDOCK:   -2.37 KCAL/MOL
REMARK 924 INTRA-LIGAND FREE ENERGY PREDICTED BY IDOCK:   -0.03 KCAL/MOL
REMARK 927      BINDING AFFINITY PREDICTED BY RF-SCORE:    0.00 PKD
ROOT
HETATM    1  O   UNL     1     -10.106  10.525  64.734  1.00  0.00    -0.318 OA 
HETATM    2  C   UNL     1     -10.281  10.048  65.986  1.00  0.00    -0.207 C  
HETATM    3  C   UNL     1     -10.954  11.039  66.895  1.00  0.00    -0.311 C  
HETATM    4  O   UNL     1      -9.920   8.929  66.319  1.00  0.00    -0.282 OA 
ENDROOT
BRANCH   3   5
HETATM    5  C   UNL     1     -11.124  10.456  68.295  1.00  0.00    -0.338 C  
HETATM    6  C   UNL     1     -11.765  11.450  69.223  1.00  0.00    -0.337 C  
HETATM    7  O   UNL     1     -11.931  10.961  70.471  1.00  0.00    -0.313 OA 
HETATM    8  O   UNL     1     -12.107  12.579  68.909  1.00  0.00    -0.264 OA 
ENDBRANCH   3   5
TORSDOF 1
ENDMDL
MODEL      121
REMARK 921   NORMALIZED FREE ENERGY PREDICTED BY IDOCK:   -2.23 KCAL/MOL
REMARK 922        TOTAL FREE ENERGY PREDICTED BY IDOCK:   -2.40 KCAL/MOL
REMARK 923 INTER-LIGAND FREE ENERGY PREDICTED BY IDOCK:   -2.30 KCAL/MOL
REMARK 924 INTRA-LIGAND FREE ENERGY PREDICTED BY IDOCK:   -0.10 KCAL/MOL
REMARK 927      BINDING AFFINITY PREDICTED BY RF-SCORE:    0.00 PKD
ROOT
HETATM    1  O   UNL     1     -11.357  15.397  67.675  1.00  0.00    -0.331 OA 
HETATM    2  C   UNL     1     -11.298  14.059  67.853  1.00  0.00    -0.291 C  
HETATM    3  C   UNL     1     -11.617  13.292  66.599  1.00  0.00    -0.408 C  
HETATM    4  O   UNL     1     -11.015  13.551  68.927  1.00  0.00    -0.251 OA 
ENDROOT
BRANCH   3   5
HETATM    5  C   UNL     1     -11.541  11.790  66.853  1.00  0.00    -0.310 C  
HETATM    6  C   UNL     1     -10.288  11.202  66.265  1.00  0.00    -0.249 C  
HETATM    7  O   UNL     1     -10.191   9.872  66.476  1.00  0.00    -0.231 OA 
HETATM    8  O   UNL     1      -9.437  11.836  65.660  1.00  0.00    -0.231 OA 
ENDBRANCH   3   5
TORSDOF 1
ENDMDL
MODEL      122
REMARK 921   NORMALIZED FREE ENERGY PREDICTED BY IDOCK:   -2.22 KCAL/MOL
REMARK 922        TOTAL FREE ENERGY PREDICTED BY IDOCK:   -2.39 KCAL/MOL
REMARK 923 INTER-LIGAND FREE ENERGY PREDICTED BY IDOCK:   -2.32 KCAL/MOL
REMARK 924 INTRA-LIGAND FREE ENERGY PREDICTED BY IDOCK:   -0.06 KCAL/MOL
REMARK 927      BINDING AFFINITY PREDICTED BY RF-SCORE:    0.00 PKD
ROOT
HETATM    1  O   UNL     1      -9.400  13.118  68.076  1.00  0.00    -0.205 OA 
HETATM    2  C   UNL     1      -9.915  11.954  68.529  1.00  0.00    -0.192 C  
HETATM    3  C   UNL     1     -11.359  12.077  68.933  1.00  0.00    -0.333 C  
HETATM    4  O   UNL     1      -9.258  10.927  68.596  1.00  0.00    -0.173 OA 
ENDROOT
BRANCH   3   5
HETATM    5  C   UNL     1     -11.891  10.740  69.439  1.00  0.00    -0.370 C  
HETATM    6  C   UNL     1     -12.537  10.888  70.789  1.00  0.00    -0.377 C  
HETATM    7  O   UNL     1     -13.020   9.719  71.263  1.00  0.00    -0.348 OA 
HETATM    8  O   UNL     1     -12.627  11.937  71.408  1.00  0.00    -0.326 OA 
ENDBRANCH   3   5
TORSDOF 1
ENDMDL
MODEL      123
REMARK 921   NORMALIZED FREE ENERGY PREDICTED BY IDOCK:   -2.21 KCAL/MOL
REMARK 922        TOTAL FREE ENERGY PREDICTED BY IDOCK:   -2.38 KCAL/MOL
REMARK 923 INTER-LIGAND FREE ENERGY PREDICTED BY IDOCK:   -2.32 KCAL/MOL
REMARK 924 INTRA-LIGAND FREE ENERGY PREDICTED BY IDOCK:   -0.06 KCAL/MOL
REMARK 927      BINDING AFFINITY PREDICTED BY RF-SCORE:    0.00 PKD
ROOT
HETATM    1  O   UNL     1     -10.251   8.789  66.419  1.00  0.00    -0.289 OA 
HETATM    2  C   UNL     1     -10.759   9.457  67.478  1.00  0.00    -0.222 C  
HETATM    3  C   UNL     1     -10.282   8.906  68.794  1.00  0.00    -0.224 C  
HETATM    4  O   UNL     1     -11.523  10.402  67.354  1.00  0.00    -0.354 OA 
ENDROOT
BRANCH   3   5
HETATM    5  C   UNL     1     -10.885   9.690  69.955  1.00  0.00    -0.302 C  
HETATM    6  C   UNL     1     -11.572   8.773  70.930  1.00  0.00    -0.277 C  
HETATM    7  O   UNL     1     -12.115   9.440  71.972  1.00  0.00    -0.362 OA 
HETATM    8  O   UNL     1     -11.645   7.560  70.816  1.00  0.00    -0.288 OA 
ENDBRANCH   3   5
TORSDOF 1
ENDMDL
MODEL      124
REMARK 921   NORMALIZED FREE ENERGY PREDICTED BY IDOCK:   -2.21 KCAL/MOL
REMARK 922        TOTAL FREE ENERGY PREDICTED BY IDOCK:   -2.38 KCAL/MOL
REMARK 923 INTER-LIGAND FREE ENERGY PREDICTED BY IDOCK:   -2.30 KCAL/MOL
REMARK 924 INTRA-LIGAND FREE ENERGY PREDICTED BY IDOCK:   -0.09 KCAL/MOL
REMARK 927      BINDING AFFINITY PREDICTED BY RF-SCORE:    0.00 PKD
ROOT
HETATM    1  O   UNL     1      -7.037  15.754  69.181  1.00  0.00    -0.150 OA 
HETATM    2  C   UNL     1      -6.823  17.086  69.256  1.00  0.00    -0.219 C  
HETATM    3  C   UNL     1      -7.917  17.887  68.604  1.00  0.00    -0.285 C  
HETATM    4  O   UNL     1      -5.839  17.564  69.799  1.00  0.00    -0.224 OA 
ENDROOT
BRANCH   3   5
HETATM    5  C   UNL     1      -7.628  19.380  68.712  1.00  0.00    -0.398 C  
HETATM    6  C   UNL     1      -7.344  19.978  67.361  1.00  0.00    -0.270 C  
HETATM    7  O   UNL     1      -7.086  21.303  67.425  1.00  0.00    -0.512 OA 
HETATM    8  O   UNL     1      -7.343  19.357  66.310  1.00  0.00    -0.238 OA 
ENDBRANCH   3   5
TORSDOF 1
ENDMDL
MODEL      125
REMARK 921   NORMALIZED FREE ENERGY PREDICTED BY IDOCK:   -2.21 KCAL/MOL
REMARK 922        TOTAL FREE ENERGY PREDICTED BY IDOCK:   -2.38 KCAL/MOL
REMARK 923 INTER-LIGAND FREE ENERGY PREDICTED BY IDOCK:   -2.32 KCAL/MOL
REMARK 924 INTRA-LIGAND FREE ENERGY PREDICTED BY IDOCK:   -0.07 KCAL/MOL
REMARK 927      BINDING AFFINITY PREDICTED BY RF-SCORE:    0.00 PKD
ROOT
HETATM    1  O   UNL     1     -10.974  17.043  65.104  1.00  0.00    -0.528 OA 
HETATM    2  C   UNL     1     -10.155  16.785  66.147  1.00  0.00    -0.345 C  
HETATM    3  C   UNL     1      -9.184  15.672  65.861  1.00  0.00    -0.330 C  
HETATM    4  O   UNL     1     -10.217  17.401  67.200  1.00  0.00    -0.305 OA 
ENDROOT
BRANCH   3   5
HETATM    5  C   UNL     1      -8.287  15.417  67.068  1.00  0.00    -0.268 C  
HETATM    6  C   UNL     1      -8.330  13.971  67.481  1.00  0.00    -0.192 C  
HETATM    7  O   UNL     1      -7.542  13.714  68.548  1.00  0.00    -0.122 OA 
HETATM    8  O   UNL     1      -8.994  13.107  66.930  1.00  0.00    -0.224 OA 
ENDBRANCH   3   5
TORSDOF 1
ENDMDL
MODEL      126
REMARK 921   NORMALIZED FREE ENERGY PREDICTED BY IDOCK:   -2.20 KCAL/MOL
REMARK 922        TOTAL FREE ENERGY PREDICTED BY IDOCK:   -2.37 KCAL/MOL
REMARK 923 INTER-LIGAND FREE ENERGY PREDICTED BY IDOCK:   -2.34 KCAL/MOL
REMARK 924 INTRA-LIGAND FREE ENERGY PREDICTED BY IDOCK:   -0.03 KCAL/MOL
REMARK 927      BINDING AFFINITY PREDICTED BY RF-SCORE:    0.00 PKD
ROOT
HETATM    1  O   UNL     1     -12.922   8.639  72.461  1.00  0.00    -0.371 OA 
HETATM    2  C   UNL     1     -11.660   8.807  72.007  1.00  0.00    -0.366 C  
HETATM    3  C   UNL     1     -11.606   9.588  70.723  1.00  0.00    -0.378 C  
HETATM    4  O   UNL     1     -10.686   8.361  72.594  1.00  0.00    -0.339 OA 
ENDROOT
BRANCH   3   5
HETATM    5  C   UNL     1     -10.164   9.747  70.251  1.00  0.00    -0.346 C  
HETATM    6  C   UNL     1     -10.068  10.730  69.117  1.00  0.00    -0.205 C  
HETATM    7  O   UNL     1      -8.801  10.893  68.679  1.00  0.00    -0.146 OA 
HETATM    8  O   UNL     1     -11.015  11.328  68.630  1.00  0.00    -0.187 OA 
ENDBRANCH   3   5
TORSDOF 1
ENDMDL
MODEL      127
REMARK 921   NORMALIZED FREE ENERGY PREDICTED BY IDOCK:   -2.19 KCAL/MOL
REMARK 922        TOTAL FREE ENERGY PREDICTED BY IDOCK:   -2.36 KCAL/MOL
REMARK 923 INTER-LIGAND FREE ENERGY PREDICTED BY IDOCK:   -2.33 KCAL/MOL
REMARK 924 INTRA-LIGAND FREE ENERGY PREDICTED BY IDOCK:   -0.03 KCAL/MOL
REMARK 927      BINDING AFFINITY PREDICTED BY RF-SCORE:    0.00 PKD
ROOT
HETATM    1  O   UNL     1      -9.723   7.300  66.567  1.00  0.00    -0.186 OA 
HETATM    2  C   UNL     1      -9.977   7.954  67.722  1.00  0.00    -0.173 C  
HETATM    3  C   UNL     1     -10.604   9.303  67.499  1.00  0.00    -0.329 C  
HETATM    4  O   UNL     1      -9.714   7.481  68.817  1.00  0.00    -0.148 OA 
ENDROOT
BRANCH   3   5
HETATM    5  C   UNL     1     -10.866  10.001  68.830  1.00  0.00    -0.250 C  
HETATM    6  C   UNL     1     -11.695  11.241  68.639  1.00  0.00    -0.324 C  
HETATM    7  O   UNL     1     -11.946  11.881  69.803  1.00  0.00    -0.306 OA 
HETATM    8  O   UNL     1     -12.109  11.646  67.564  1.00  0.00    -0.611 OA 
ENDBRANCH   3   5
TORSDOF 1
ENDMDL
MODEL      128
REMARK 921   NORMALIZED FREE ENERGY PREDICTED BY IDOCK:   -2.18 KCAL/MOL
REMARK 922        TOTAL FREE ENERGY PREDICTED BY IDOCK:   -2.35 KCAL/MOL
REMARK 923 INTER-LIGAND FREE ENERGY PREDICTED BY IDOCK:   -2.32 KCAL/MOL
REMARK 924 INTRA-LIGAND FREE ENERGY PREDICTED BY IDOCK:   -0.03 KCAL/MOL
REMARK 927      BINDING AFFINITY PREDICTED BY RF-SCORE:    0.00 PKD
ROOT
HETATM    1  O   UNL     1     -11.962  15.795  68.586  1.00  0.00    -0.344 OA 
HETATM    2  C   UNL     1     -10.648  15.640  68.311  1.00  0.00    -0.262 C  
HETATM    3  C   UNL     1     -10.103  16.740  67.442  1.00  0.00    -0.276 C  
HETATM    4  O   UNL     1      -9.995  14.698  68.734  1.00  0.00    -0.227 OA 
ENDROOT
BRANCH   3   5
HETATM    5  C   UNL     1      -8.620  16.517  67.159  1.00  0.00    -0.208 C  
HETATM    6  C   UNL     1      -8.048  17.644  66.343  1.00  0.00    -0.267 C  
HETATM    7  O   UNL     1      -6.734  17.475  66.078  1.00  0.00    -0.252 OA 
HETATM    8  O   UNL     1      -8.679  18.613  65.953  1.00  0.00    -0.481 OA 
ENDBRANCH   3   5
TORSDOF 1
ENDMDL
MODEL      129
REMARK 921   NORMALIZED FREE ENERGY PREDICTED BY IDOCK:   -2.18 KCAL/MOL
REMARK 922        TOTAL FREE ENERGY PREDICTED BY IDOCK:   -2.35 KCAL/MOL
REMARK 923 INTER-LIGAND FREE ENERGY PREDICTED BY IDOCK:   -2.28 KCAL/MOL
REMARK 924 INTRA-LIGAND FREE ENERGY PREDICTED BY IDOCK:   -0.07 KCAL/MOL
REMARK 927      BINDING AFFINITY PREDICTED BY RF-SCORE:    0.00 PKD
ROOT
HETATM    1  O   UNL     1     -11.145  15.001  69.783  1.00  0.00    -0.254 OA 
HETATM    2  C   UNL     1     -10.880  14.045  68.865  1.00  0.00    -0.258 C  
HETATM    3  C   UNL     1     -11.781  12.847  69.000  1.00  0.00    -0.375 C  
HETATM    4  O   UNL     1      -9.999  14.163  68.028  1.00  0.00    -0.216 OA 
ENDROOT
BRANCH   3   5
HETATM    5  C   UNL     1     -11.441  11.798  67.946  1.00  0.00    -0.387 C  
HETATM    6  C   UNL     1     -11.086  10.483  68.584  1.00  0.00    -0.267 C  
HETATM    7  O   UNL     1     -10.782   9.531  67.675  1.00  0.00    -0.274 OA 
HETATM    8  O   UNL     1     -11.068  10.273  69.787  1.00  0.00    -0.249 OA 
ENDBRANCH   3   5
TORSDOF 1
ENDMDL
MODEL      130
REMARK 921   NORMALIZED FREE ENERGY PREDICTED BY IDOCK:   -2.18 KCAL/MOL
REMARK 922        TOTAL FREE ENERGY PREDICTED BY IDOCK:   -2.35 KCAL/MOL
REMARK 923 INTER-LIGAND FREE ENERGY PREDICTED BY IDOCK:   -2.27 KCAL/MOL
REMARK 924 INTRA-LIGAND FREE ENERGY PREDICTED BY IDOCK:   -0.08 KCAL/MOL
REMARK 927      BINDING AFFINITY PREDICTED BY RF-SCORE:    0.00 PKD
ROOT
HETATM    1  O   UNL     1      -9.721   9.745  70.794  1.00  0.00    -0.192 OA 
HETATM    2  C   UNL     1     -10.500   9.013  71.621  1.00  0.00    -0.355 C  
HETATM    3  C   UNL     1      -9.732   7.936  72.338  1.00  0.00    -0.275 C  
HETATM    4  O   UNL     1     -11.696   9.221  71.753  1.00  0.00    -0.359 OA 
ENDROOT
BRANCH   3   5
HETATM    5  C   UNL     1     -10.654   7.137  73.254  1.00  0.00    -0.405 C  
HETATM    6  C   UNL     1     -10.695   5.688  72.853  1.00  0.00    -0.248 C  
HETATM    7  O   UNL     1     -11.503   4.954  73.649  1.00  0.00    -0.251 OA 
HETATM    8  O   UNL     1     -10.076   5.205  71.918  1.00  0.00    -0.183 OA 
ENDBRANCH   3   5
TORSDOF 1
ENDMDL
MODEL      131
REMARK 921   NORMALIZED FREE ENERGY PREDICTED BY IDOCK:   -2.17 KCAL/MOL
REMARK 922        TOTAL FREE ENERGY PREDICTED BY IDOCK:   -2.34 KCAL/MOL
REMARK 923 INTER-LIGAND FREE ENERGY PREDICTED BY IDOCK:   -2.24 KCAL/MOL
REMARK 924 INTRA-LIGAND FREE ENERGY PREDICTED BY IDOCK:   -0.10 KCAL/MOL
REMARK 927      BINDING AFFINITY PREDICTED BY RF-SCORE:    0.00 PKD
ROOT
HETATM    1  O   UNL     1      -9.300  10.240  67.693  1.00  0.00    -0.144 OA 
HETATM    2  C   UNL     1      -9.890  10.196  68.908  1.00  0.00    -0.189 C  
HETATM    3  C   UNL     1     -11.365  10.487  68.847  1.00  0.00    -0.313 C  
HETATM    4  O   UNL     1      -9.272   9.947  69.931  1.00  0.00    -0.219 OA 
ENDROOT
BRANCH   3   5
HETATM    5  C   UNL     1     -11.983  10.429  70.240  1.00  0.00    -0.387 C  
HETATM    6  C   UNL     1     -12.263  11.809  70.768  1.00  0.00    -0.326 C  
HETATM    7  O   UNL     1     -12.814  11.790  72.001  1.00  0.00    -0.322 OA 
HETATM    8  O   UNL     1     -12.029  12.847  70.168  1.00  0.00    -0.341 OA 
ENDBRANCH   3   5
TORSDOF 1
ENDMDL
MODEL      132
REMARK 921   NORMALIZED FREE ENERGY PREDICTED BY IDOCK:   -2.15 KCAL/MOL
REMARK 922        TOTAL FREE ENERGY PREDICTED BY IDOCK:   -2.32 KCAL/MOL
REMARK 923 INTER-LIGAND FREE ENERGY PREDICTED BY IDOCK:   -2.27 KCAL/MOL
REMARK 924 INTRA-LIGAND FREE ENERGY PREDICTED BY IDOCK:   -0.05 KCAL/MOL
REMARK 927      BINDING AFFINITY PREDICTED BY RF-SCORE:    0.00 PKD
ROOT
HETATM    1  O   UNL     1      -9.432   2.990  72.553  1.00  0.00    -0.099 OA 
HETATM    2  C   UNL     1     -10.407   3.887  72.819  1.00  0.00    -0.164 C  
HETATM    3  C   UNL     1     -10.306   5.123  71.967  1.00  0.00    -0.274 C  
HETATM    4  O   UNL     1     -11.266   3.693  73.665  1.00  0.00    -0.234 OA 
ENDROOT
BRANCH   3   5
HETATM    5  C   UNL     1     -11.425   6.103  72.307  1.00  0.00    -0.360 C  
HETATM    6  C   UNL     1     -12.013   6.709  71.062  1.00  0.00    -0.359 C  
HETATM    7  O   UNL     1     -13.009   7.581  71.332  1.00  0.00    -0.351 OA 
HETATM    8  O   UNL     1     -11.649   6.457  69.924  1.00  0.00    -0.429 OA 
ENDBRANCH   3   5
TORSDOF 1
ENDMDL
MODEL      133
REMARK 921   NORMALIZED FREE ENERGY PREDICTED BY IDOCK:   -2.15 KCAL/MOL
REMARK 922        TOTAL FREE ENERGY PREDICTED BY IDOCK:   -2.31 KCAL/MOL
REMARK 923 INTER-LIGAND FREE ENERGY PREDICTED BY IDOCK:   -2.22 KCAL/MOL
REMARK 924 INTRA-LIGAND FREE ENERGY PREDICTED BY IDOCK:   -0.09 KCAL/MOL
REMARK 927      BINDING AFFINITY PREDICTED BY RF-SCORE:    0.00 PKD
ROOT
HETATM    1  O   UNL     1      -8.970  19.473  69.039  1.00  0.00    -0.343 OA 
HETATM    2  C   UNL     1      -7.790  19.199  68.441  1.00  0.00    -0.335 C  
HETATM    3  C   UNL     1      -7.940  18.294  67.249  1.00  0.00    -0.229 C  
HETATM    4  O   UNL     1      -6.729  19.649  68.845  1.00  0.00    -0.289 OA 
ENDROOT
BRANCH   3   5
HETATM    5  C   UNL     1      -6.582  18.012  66.613  1.00  0.00    -0.233 C  
HETATM    6  C   UNL     1      -6.337  18.913  65.435  1.00  0.00    -0.283 C  
HETATM    7  O   UNL     1      -5.140  18.688  64.851  1.00  0.00    -0.145 OA 
HETATM    8  O   UNL     1      -7.117  19.762  65.031  1.00  0.00    -0.363 OA 
ENDBRANCH   3   5
TORSDOF 1
ENDMDL
MODEL      134
REMARK 921   NORMALIZED FREE ENERGY PREDICTED BY IDOCK:   -2.08 KCAL/MOL
REMARK 922        TOTAL FREE ENERGY PREDICTED BY IDOCK:   -2.25 KCAL/MOL
REMARK 923 INTER-LIGAND FREE ENERGY PREDICTED BY IDOCK:   -2.18 KCAL/MOL
REMARK 924 INTRA-LIGAND FREE ENERGY PREDICTED BY IDOCK:   -0.07 KCAL/MOL
REMARK 927      BINDING AFFINITY PREDICTED BY RF-SCORE:    0.00 PKD
ROOT
HETATM    1  O   UNL     1     -11.289  10.671  70.001  1.00  0.00    -0.278 OA 
HETATM    2  C   UNL     1     -10.587   9.573  70.359  1.00  0.00    -0.276 C  
HETATM    3  C   UNL     1     -11.320   8.715  71.354  1.00  0.00    -0.350 C  
HETATM    4  O   UNL     1      -9.479   9.326  69.910  1.00  0.00    -0.172 OA 
ENDROOT
BRANCH   3   5
HETATM    5  C   UNL     1     -10.487   7.493  71.728  1.00  0.00    -0.222 C  
HETATM    6  C   UNL     1     -10.836   6.312  70.864  1.00  0.00    -0.272 C  
HETATM    7  O   UNL     1     -10.111   5.214  71.171  1.00  0.00    -0.201 OA 
HETATM    8  O   UNL     1     -11.676   6.320  69.978  1.00  0.00    -0.408 OA 
ENDBRANCH   3   5
TORSDOF 1
ENDMDL
MODEL      135
REMARK 921   NORMALIZED FREE ENERGY PREDICTED BY IDOCK:   -2.08 KCAL/MOL
REMARK 922        TOTAL FREE ENERGY PREDICTED BY IDOCK:   -2.24 KCAL/MOL
REMARK 923 INTER-LIGAND FREE ENERGY PREDICTED BY IDOCK:   -2.16 KCAL/MOL
REMARK 924 INTRA-LIGAND FREE ENERGY PREDICTED BY IDOCK:   -0.08 KCAL/MOL
REMARK 927      BINDING AFFINITY PREDICTED BY RF-SCORE:    0.00 PKD
ROOT
HETATM    1  O   UNL     1      -9.412   3.987  71.243  1.00  0.00    -0.139 OA 
HETATM    2  C   UNL     1     -10.106   5.092  70.891  1.00  0.00    -0.232 C  
HETATM    3  C   UNL     1     -10.729   5.786  72.072  1.00  0.00    -0.285 C  
HETATM    4  O   UNL     1     -10.203   5.465  69.733  1.00  0.00    -0.229 OA 
ENDROOT
BRANCH   3   5
HETATM    5  C   UNL     1     -11.502   7.022  71.622  1.00  0.00    -0.299 C  
HETATM    6  C   UNL     1     -10.851   8.282  72.122  1.00  0.00    -0.320 C  
HETATM    7  O   UNL     1     -11.513   9.394  71.738  1.00  0.00    -0.380 OA 
HETATM    8  O   UNL     1      -9.836   8.321  72.801  1.00  0.00    -0.274 OA 
ENDBRANCH   3   5
TORSDOF 1
ENDMDL
MODEL      136
REMARK 921   NORMALIZED FREE ENERGY PREDICTED BY IDOCK:   -2.07 KCAL/MOL
REMARK 922        TOTAL FREE ENERGY PREDICTED BY IDOCK:   -2.23 KCAL/MOL
REMARK 923 INTER-LIGAND FREE ENERGY PREDICTED BY IDOCK:   -2.19 KCAL/MOL
REMARK 924 INTRA-LIGAND FREE ENERGY PREDICTED BY IDOCK:   -0.05 KCAL/MOL
REMARK 927      BINDING AFFINITY PREDICTED BY RF-SCORE:    0.00 PKD
ROOT
HETATM    1  O   UNL     1      -6.784  15.404  69.635  1.00  0.00    -0.162 OA 
HETATM    2  C   UNL     1      -7.199  16.581  69.118  1.00  0.00    -0.226 C  
HETATM    3  C   UNL     1      -8.490  16.456  68.355  1.00  0.00    -0.204 C  
HETATM    4  O   UNL     1      -6.576  17.621  69.266  1.00  0.00    -0.241 OA 
ENDROOT
BRANCH   3   5
HETATM    5  C   UNL     1      -8.914  17.808  67.789  1.00  0.00    -0.249 C  
HETATM    6  C   UNL     1     -10.407  17.976  67.846  1.00  0.00    -0.392 C  
HETATM    7  O   UNL     1     -10.813  19.167  67.353  1.00  0.00    -0.483 OA 
HETATM    8  O   UNL     1     -11.187  17.145  68.285  1.00  0.00    -0.229 OA 
ENDBRANCH   3   5
TORSDOF 1
ENDMDL
MODEL      137
REMARK 921   NORMALIZED FREE ENERGY PREDICTED BY IDOCK:   -2.03 KCAL/MOL
REMARK 922        TOTAL FREE ENERGY PREDICTED BY IDOCK:   -2.19 KCAL/MOL
REMARK 923 INTER-LIGAND FREE ENERGY PREDICTED BY IDOCK:   -2.13 KCAL/MOL
REMARK 924 INTRA-LIGAND FREE ENERGY PREDICTED BY IDOCK:   -0.05 KCAL/MOL
REMARK 927      BINDING AFFINITY PREDICTED BY RF-SCORE:    0.00 PKD
ROOT
HETATM    1  O   UNL     1      -7.220  12.517  66.841  1.00  0.00    -0.032 OA 
HETATM    2  C   UNL     1      -8.571  12.536  66.847  1.00  0.00    -0.158 C  
HETATM    3  C   UNL     1      -9.168  11.699  65.748  1.00  0.00    -0.184 C  
HETATM    4  O   UNL     1      -9.216  13.172  67.666  1.00  0.00    -0.189 OA 
ENDROOT
BRANCH   3   5
HETATM    5  C   UNL     1     -10.691  11.756  65.796  1.00  0.00    -0.328 C  
HETATM    6  C   UNL     1     -11.221  12.855  64.916  1.00  0.00    -0.300 C  
HETATM    7  O   UNL     1     -12.570  12.929  64.936  1.00  0.00    -0.550 OA 
HETATM    8  O   UNL     1     -10.531  13.609  64.248  1.00  0.00    -0.392 OA 
ENDBRANCH   3   5
TORSDOF 1
ENDMDL
MODEL      138
REMARK 921   NORMALIZED FREE ENERGY PREDICTED BY IDOCK:   -2.02 KCAL/MOL
REMARK 922        TOTAL FREE ENERGY PREDICTED BY IDOCK:   -2.17 KCAL/MOL
REMARK 923 INTER-LIGAND FREE ENERGY PREDICTED BY IDOCK:   -2.13 KCAL/MOL
REMARK 924 INTRA-LIGAND FREE ENERGY PREDICTED BY IDOCK:   -0.05 KCAL/MOL
REMARK 927      BINDING AFFINITY PREDICTED BY RF-SCORE:    0.00 PKD
ROOT
HETATM    1  O   UNL     1      -7.884  11.098  68.541  1.00  0.00    -0.120 OA 
HETATM    2  C   UNL     1      -9.203  11.312  68.741  1.00  0.00    -0.126 C  
HETATM    3  C   UNL     1      -9.885  10.147  69.404  1.00  0.00    -0.247 C  
HETATM    4  O   UNL     1      -9.758  12.348  68.410  1.00  0.00    -0.217 OA 
ENDROOT
BRANCH   3   5
HETATM    5  C   UNL     1     -11.370  10.436  69.604  1.00  0.00    -0.333 C  
HETATM    6  C   UNL     1     -11.867   9.851  70.897  1.00  0.00    -0.356 C  
HETATM    7  O   UNL     1     -13.180  10.094  71.104  1.00  0.00    -0.380 OA 
HETATM    8  O   UNL     1     -11.181   9.225  71.690  1.00  0.00    -0.349 OA 
ENDBRANCH   3   5
TORSDOF 1
ENDMDL
MODEL      139
REMARK 921   NORMALIZED FREE ENERGY PREDICTED BY IDOCK:   -2.01 KCAL/MOL
REMARK 922        TOTAL FREE ENERGY PREDICTED BY IDOCK:   -2.17 KCAL/MOL
REMARK 923 INTER-LIGAND FREE ENERGY PREDICTED BY IDOCK:   -2.10 KCAL/MOL
REMARK 924 INTRA-LIGAND FREE ENERGY PREDICTED BY IDOCK:   -0.07 KCAL/MOL
REMARK 927      BINDING AFFINITY PREDICTED BY RF-SCORE:    0.00 PKD
ROOT
HETATM    1  O   UNL     1     -12.970   8.991  71.602  1.00  0.00    -0.328 OA 
HETATM    2  C   UNL     1     -12.708   7.687  71.362  1.00  0.00    -0.327 C  
HETATM    3  C   UNL     1     -11.491   7.489  70.501  1.00  0.00    -0.259 C  
HETATM    4  O   UNL     1     -13.401   6.785  71.807  1.00  0.00    -0.296 OA 
ENDROOT
BRANCH   3   5
HETATM    5  C   UNL     1     -11.240   6.004  70.257  1.00  0.00    -0.392 C  
HETATM    6  C   UNL     1      -9.873   5.598  70.734  1.00  0.00    -0.183 C  
HETATM    7  O   UNL     1      -9.623   4.286  70.533  1.00  0.00    -0.164 OA 
HETATM    8  O   UNL     1      -9.061   6.351  71.249  1.00  0.00    -0.148 OA 
ENDBRANCH   3   5
TORSDOF 1
ENDMDL
MODEL      140
REMARK 921   NORMALIZED FREE ENERGY PREDICTED BY IDOCK:   -2.00 KCAL/MOL
REMARK 922        TOTAL FREE ENERGY PREDICTED BY IDOCK:   -2.15 KCAL/MOL
REMARK 923 INTER-LIGAND FREE ENERGY PREDICTED BY IDOCK:   -2.06 KCAL/MOL
REMARK 924 INTRA-LIGAND FREE ENERGY PREDICTED BY IDOCK:   -0.10 KCAL/MOL
REMARK 927      BINDING AFFINITY PREDICTED BY RF-SCORE:    0.00 PKD
ROOT
HETATM    1  O   UNL     1      -8.775   8.041  65.856  1.00  0.00    -0.148 OA 
HETATM    2  C   UNL     1      -9.151   7.161  66.810  1.00  0.00    -0.147 C  
HETATM    3  C   UNL     1     -10.611   7.268  67.155  1.00  0.00    -0.416 C  
HETATM    4  O   UNL     1      -8.370   6.373  67.322  1.00  0.00    -0.112 OA 
ENDROOT
BRANCH   3   5
HETATM    5  C   UNL     1     -10.984   6.259  68.236  1.00  0.00    -0.408 C  
HETATM    6  C   UNL     1     -11.030   6.907  69.592  1.00  0.00    -0.259 C  
HETATM    7  O   UNL     1     -11.361   6.037  70.571  1.00  0.00    -0.323 OA 
HETATM    8  O   UNL     1     -10.800   8.086  69.810  1.00  0.00    -0.245 OA 
ENDBRANCH   3   5
TORSDOF 1
ENDMDL
MODEL      141
REMARK 921   NORMALIZED FREE ENERGY PREDICTED BY IDOCK:   -2.00 KCAL/MOL
REMARK 922        TOTAL FREE ENERGY PREDICTED BY IDOCK:   -2.15 KCAL/MOL
REMARK 923 INTER-LIGAND FREE ENERGY PREDICTED BY IDOCK:   -2.06 KCAL/MOL
REMARK 924 INTRA-LIGAND FREE ENERGY PREDICTED BY IDOCK:   -0.09 KCAL/MOL
REMARK 927      BINDING AFFINITY PREDICTED BY RF-SCORE:    0.00 PKD
ROOT
HETATM    1  O   UNL     1      -6.245  14.409  67.351  1.00  0.00    -0.334 OA 
HETATM    2  C   UNL     1      -6.877  15.595  67.215  1.00  0.00    -0.162 C  
HETATM    3  C   UNL     1      -8.351  15.440  66.958  1.00  0.00    -0.268 C  
HETATM    4  O   UNL     1      -6.293  16.665  67.296  1.00  0.00    -0.148 OA 
ENDROOT
BRANCH   3   5
HETATM    5  C   UNL     1      -9.018  16.803  66.809  1.00  0.00    -0.265 C  
HETATM    6  C   UNL     1      -9.647  17.245  68.102  1.00  0.00    -0.283 C  
HETATM    7  O   UNL     1     -10.245  18.452  68.002  1.00  0.00    -0.346 OA 
HETATM    8  O   UNL     1      -9.633  16.602  69.141  1.00  0.00    -0.259 OA 
ENDBRANCH   3   5
TORSDOF 1
ENDMDL
MODEL      142
REMARK 921   NORMALIZED FREE ENERGY PREDICTED BY IDOCK:   -1.99 KCAL/MOL
REMARK 922        TOTAL FREE ENERGY PREDICTED BY IDOCK:   -2.15 KCAL/MOL
REMARK 923 INTER-LIGAND FREE ENERGY PREDICTED BY IDOCK:   -2.10 KCAL/MOL
REMARK 924 INTRA-LIGAND FREE ENERGY PREDICTED BY IDOCK:   -0.05 KCAL/MOL
REMARK 927      BINDING AFFINITY PREDICTED BY RF-SCORE:    0.00 PKD
ROOT
HETATM    1  O   UNL     1      -9.172  13.323  66.934  1.00  0.00    -0.229 OA 
HETATM    2  C   UNL     1      -9.696  13.585  68.152  1.00  0.00    -0.233 C  
HETATM    3  C   UNL     1      -9.402  14.985  68.620  1.00  0.00    -0.202 C  
HETATM    4  O   UNL     1     -10.334  12.759  68.785  1.00  0.00    -0.208 OA 
ENDROOT
BRANCH   3   5
HETATM    5  C   UNL     1     -10.011  15.230  69.997  1.00  0.00    -0.125 C  
HETATM    6  C   UNL     1     -11.399  15.798  69.885  1.00  0.00    -0.349 C  
HETATM    7  O   UNL     1     -11.965  16.024  71.090  1.00  0.00    -0.411 OA 
HETATM    8  O   UNL     1     -11.972  16.036  68.834  1.00  0.00    -0.348 OA 
ENDBRANCH   3   5
TORSDOF 1
ENDMDL
MODEL      143
REMARK 921   NORMALIZED FREE ENERGY PREDICTED BY IDOCK:   -1.94 KCAL/MOL
REMARK 922        TOTAL FREE ENERGY PREDICTED BY IDOCK:   -2.10 KCAL/MOL
REMARK 923 INTER-LIGAND FREE ENERGY PREDICTED BY IDOCK:   -2.01 KCAL/MOL
REMARK 924 INTRA-LIGAND FREE ENERGY PREDICTED BY IDOCK:   -0.09 KCAL/MOL
REMARK 927      BINDING AFFINITY PREDICTED BY RF-SCORE:    0.00 PKD
ROOT
HETATM    1  O   UNL     1     -11.041   6.966  67.033  1.00  0.00    -0.389 OA 
HETATM    2  C   UNL     1     -10.477   6.948  68.261  1.00  0.00    -0.206 C  
HETATM    3  C   UNL     1     -11.360   6.304  69.295  1.00  0.00    -0.411 C  
HETATM    4  O   UNL     1      -9.369   7.411  68.483  1.00  0.00    -0.142 OA 
ENDROOT
BRANCH   3   5
HETATM    5  C   UNL     1     -10.682   6.311  70.661  1.00  0.00    -0.321 C  
HETATM    6  C   UNL     1     -10.014   4.993  70.943  1.00  0.00    -0.216 C  
HETATM    7  O   UNL     1      -9.402   4.970  72.147  1.00  0.00    -0.134 OA 
HETATM    8  O   UNL     1     -10.010   4.036  70.184  1.00  0.00    -0.188 OA 
ENDBRANCH   3   5
TORSDOF 1
ENDMDL
MODEL      144
REMARK 921   NORMALIZED FREE ENERGY PREDICTED BY IDOCK:   -1.94 KCAL/MOL
REMARK 922        TOTAL FREE ENERGY PREDICTED BY IDOCK:   -2.09 KCAL/MOL
REMARK 923 INTER-LIGAND FREE ENERGY PREDICTED BY IDOCK:   -2.04 KCAL/MOL
REMARK 924 INTRA-LIGAND FREE ENERGY PREDICTED BY IDOCK:   -0.05 KCAL/MOL
REMARK 927      BINDING AFFINITY PREDICTED BY RF-SCORE:    0.00 PKD
ROOT
HETATM    1  O   UNL     1      -7.818   8.362  65.396  1.00  0.00    -0.097 OA 
HETATM    2  C   UNL     1      -8.213   9.618  65.089  1.00  0.00    -0.134 C  
HETATM    3  C   UNL     1      -9.692   9.822  65.275  1.00  0.00    -0.371 C  
HETATM    4  O   UNL     1      -7.434  10.475  64.702  1.00  0.00    -0.079 OA 
ENDROOT
BRANCH   3   5
HETATM    5  C   UNL     1     -10.087  11.250  64.912  1.00  0.00    -0.333 C  
HETATM    6  C   UNL     1     -11.087  11.802  65.891  1.00  0.00    -0.302 C  
HETATM    7  O   UNL     1     -11.455  13.068  65.596  1.00  0.00    -0.313 OA 
HETATM    8  O   UNL     1     -11.532  11.194  66.852  1.00  0.00    -0.414 OA 
ENDBRANCH   3   5
TORSDOF 1
ENDMDL
MODEL      145
REMARK 921   NORMALIZED FREE ENERGY PREDICTED BY IDOCK:   -1.93 KCAL/MOL
REMARK 922        TOTAL FREE ENERGY PREDICTED BY IDOCK:   -2.09 KCAL/MOL
REMARK 923 INTER-LIGAND FREE ENERGY PREDICTED BY IDOCK:   -1.99 KCAL/MOL
REMARK 924 INTRA-LIGAND FREE ENERGY PREDICTED BY IDOCK:   -0.10 KCAL/MOL
REMARK 927      BINDING AFFINITY PREDICTED BY RF-SCORE:    0.00 PKD
ROOT
HETATM    1  O   UNL     1     -10.892   7.707  66.914  1.00  0.00    -0.328 OA 
HETATM    2  C   UNL     1     -10.505   7.484  68.190  1.00  0.00    -0.183 C  
HETATM    3  C   UNL     1      -9.509   8.500  68.679  1.00  0.00    -0.144 C  
HETATM    4  O   UNL     1     -10.931   6.551  68.852  1.00  0.00    -0.282 OA 
ENDROOT
BRANCH   3   5
HETATM    5  C   UNL     1      -9.102   8.203  70.119  1.00  0.00    -0.147 C  
HETATM    6  C   UNL     1      -9.793   9.130  71.081  1.00  0.00    -0.301 C  
HETATM    7  O   UNL     1      -9.453   8.890  72.366  1.00  0.00    -0.315 OA 
HETATM    8  O   UNL     1     -10.578  10.009  70.761  1.00  0.00    -0.287 OA 
ENDBRANCH   3   5
TORSDOF 1
ENDMDL
MODEL      146
REMARK 921   NORMALIZED FREE ENERGY PREDICTED BY IDOCK:   -1.93 KCAL/MOL
REMARK 922        TOTAL FREE ENERGY PREDICTED BY IDOCK:   -2.08 KCAL/MOL
REMARK 923 INTER-LIGAND FREE ENERGY PREDICTED BY IDOCK:   -1.98 KCAL/MOL
REMARK 924 INTRA-LIGAND FREE ENERGY PREDICTED BY IDOCK:   -0.10 KCAL/MOL
REMARK 927      BINDING AFFINITY PREDICTED BY RF-SCORE:    0.00 PKD
ROOT
HETATM    1  O   UNL     1     -11.097   5.617  69.971  1.00  0.00    -0.310 OA 
HETATM    2  C   UNL     1     -10.267   6.207  69.083  1.00  0.00    -0.194 C  
HETATM    3  C   UNL     1     -10.956   6.566  67.795  1.00  0.00    -0.407 C  
HETATM    4  O   UNL     1      -9.087   6.413  69.323  1.00  0.00    -0.135 OA 
ENDROOT
BRANCH   3   5
HETATM    5  C   UNL     1      -9.978   7.224  66.827  1.00  0.00    -0.287 C  
HETATM    6  C   UNL     1     -10.125   8.721  66.839  1.00  0.00    -0.278 C  
HETATM    7  O   UNL     1      -9.269   9.332  65.992  1.00  0.00    -0.173 OA 
HETATM    8  O   UNL     1     -10.920   9.338  67.530  1.00  0.00    -0.199 OA 
ENDBRANCH   3   5
TORSDOF 1
ENDMDL
MODEL      147
REMARK 921   NORMALIZED FREE ENERGY PREDICTED BY IDOCK:   -1.92 KCAL/MOL
REMARK 922        TOTAL FREE ENERGY PREDICTED BY IDOCK:   -2.07 KCAL/MOL
REMARK 923 INTER-LIGAND FREE ENERGY PREDICTED BY IDOCK:   -1.98 KCAL/MOL
REMARK 924 INTRA-LIGAND FREE ENERGY PREDICTED BY IDOCK:   -0.09 KCAL/MOL
REMARK 927      BINDING AFFINITY PREDICTED BY RF-SCORE:    0.00 PKD
ROOT
HETATM    1  O   UNL     1     -11.826  12.238  68.440  1.00  0.00    -0.317 OA 
HETATM    2  C   UNL     1     -11.616  11.663  69.645  1.00  0.00    -0.330 C  
HETATM    3  C   UNL     1     -11.119  10.247  69.533  1.00  0.00    -0.310 C  
HETATM    4  O   UNL     1     -11.818  12.249  70.697  1.00  0.00    -0.232 OA 
ENDROOT
BRANCH   3   5
HETATM    5  C   UNL     1     -10.902   9.642  70.916  1.00  0.00    -0.409 C  
HETATM    6  C   UNL     1      -9.437   9.487  71.217  1.00  0.00     0.154 C  
HETATM    7  O   UNL     1      -9.214   8.954  72.439  1.00  0.00    -0.362 OA 
HETATM    8  O   UNL     1      -8.532   9.801  70.461  1.00  0.00    -0.171 OA 
ENDBRANCH   3   5
TORSDOF 1
ENDMDL
MODEL      148
REMARK 921   NORMALIZED FREE ENERGY PREDICTED BY IDOCK:   -1.92 KCAL/MOL
REMARK 922        TOTAL FREE ENERGY PREDICTED BY IDOCK:   -2.07 KCAL/MOL
REMARK 923 INTER-LIGAND FREE ENERGY PREDICTED BY IDOCK:   -2.03 KCAL/MOL
REMARK 924 INTRA-LIGAND FREE ENERGY PREDICTED BY IDOCK:   -0.04 KCAL/MOL
REMARK 927      BINDING AFFINITY PREDICTED BY RF-SCORE:    0.00 PKD
ROOT
HETATM    1  O   UNL     1      -7.299   9.568  67.709  1.00  0.00    -0.082 OA 
HETATM    2  C   UNL     1      -8.636   9.692  67.559  1.00  0.00    -0.126 C  
HETATM    3  C   UNL     1      -9.017  10.869  66.703  1.00  0.00    -0.173 C  
HETATM    4  O   UNL     1      -9.430   8.920  68.073  1.00  0.00    -0.141 OA 
ENDROOT
BRANCH   3   5
HETATM    5  C   UNL     1     -10.533  10.967  66.566  1.00  0.00    -0.309 C  
HETATM    6  C   UNL     1     -10.941  12.291  65.979  1.00  0.00    -0.292 C  
HETATM    7  O   UNL     1     -12.280  12.406  65.844  1.00  0.00    -0.629 OA 
HETATM    8  O   UNL     1     -10.167  13.177  65.652  1.00  0.00    -0.281 OA 
ENDBRANCH   3   5
TORSDOF 1
ENDMDL
MODEL      149
REMARK 921   NORMALIZED FREE ENERGY PREDICTED BY IDOCK:   -1.91 KCAL/MOL
REMARK 922        TOTAL FREE ENERGY PREDICTED BY IDOCK:   -2.07 KCAL/MOL
REMARK 923 INTER-LIGAND FREE ENERGY PREDICTED BY IDOCK:   -2.00 KCAL/MOL
REMARK 924 INTRA-LIGAND FREE ENERGY PREDICTED BY IDOCK:   -0.06 KCAL/MOL
REMARK 927      BINDING AFFINITY PREDICTED BY RF-SCORE:    0.00 PKD
ROOT
HETATM    1  O   UNL     1     -10.022   4.566  65.354  1.00  0.00    -0.192 OA 
HETATM    2  C   UNL     1     -10.166   4.794  66.678  1.00  0.00    -0.238 C  
HETATM    3  C   UNL     1     -10.911   6.068  66.969  1.00  0.00    -0.413 C  
HETATM    4  O   UNL     1      -9.728   4.033  67.527  1.00  0.00    -0.184 OA 
ENDROOT
BRANCH   3   5
HETATM    5  C   UNL     1     -11.044   6.281  68.474  1.00  0.00    -0.397 C  
HETATM    6  C   UNL     1     -10.569   7.651  68.872  1.00  0.00    -0.159 C  
HETATM    7  O   UNL     1     -10.677   7.871  70.201  1.00  0.00    -0.237 OA 
HETATM    8  O   UNL     1     -10.133   8.491  68.100  1.00  0.00    -0.185 OA 
ENDBRANCH   3   5
TORSDOF 1
ENDMDL
MODEL      150
REMARK 921   NORMALIZED FREE ENERGY PREDICTED BY IDOCK:   -1.89 KCAL/MOL
REMARK 922        TOTAL FREE ENERGY PREDICTED BY IDOCK:   -2.05 KCAL/MOL
REMARK 923 INTER-LIGAND FREE ENERGY PREDICTED BY IDOCK:   -1.98 KCAL/MOL
REMARK 924 INTRA-LIGAND FREE ENERGY PREDICTED BY IDOCK:   -0.06 KCAL/MOL
REMARK 927      BINDING AFFINITY PREDICTED BY RF-SCORE:    0.00 PKD
ROOT
HETATM    1  O   UNL     1      -8.648   8.637  69.069  1.00  0.00    -0.127 OA 
HETATM    2  C   UNL     1      -8.828   7.906  70.191  1.00  0.00    -0.144 C  
HETATM    3  C   UNL     1      -8.919   8.757  71.428  1.00  0.00    -0.307 C  
HETATM    4  O   UNL     1      -8.903   6.687  70.177  1.00  0.00    -0.139 OA 
ENDROOT
BRANCH   3   5
HETATM    5  C   UNL     1      -9.117   7.887  72.666  1.00  0.00    -0.256 C  
HETATM    6  C   UNL     1     -10.577   7.725  72.987  1.00  0.00    -0.379 C  
HETATM    7  O   UNL     1     -10.785   6.956  74.079  1.00  0.00    -0.277 OA 
HETATM    8  O   UNL     1     -11.492   8.221  72.348  1.00  0.00    -0.355 OA 
ENDBRANCH   3   5
TORSDOF 1
ENDMDL
MODEL      151
REMARK 921   NORMALIZED FREE ENERGY PREDICTED BY IDOCK:   -1.87 KCAL/MOL
REMARK 922        TOTAL FREE ENERGY PREDICTED BY IDOCK:   -2.02 KCAL/MOL
REMARK 923 INTER-LIGAND FREE ENERGY PREDICTED BY IDOCK:   -1.92 KCAL/MOL
REMARK 924 INTRA-LIGAND FREE ENERGY PREDICTED BY IDOCK:   -0.10 KCAL/MOL
REMARK 927      BINDING AFFINITY PREDICTED BY RF-SCORE:    0.00 PKD
ROOT
HETATM    1  O   UNL     1      -8.282   5.125  68.134  1.00  0.00    -0.097 OA 
HETATM    2  C   UNL     1      -9.450   5.051  68.809  1.00  0.00    -0.139 C  
HETATM    3  C   UNL     1     -10.192   6.360  68.832  1.00  0.00    -0.215 C  
HETATM    4  O   UNL     1      -9.840   4.021  69.337  1.00  0.00    -0.185 OA 
ENDROOT
BRANCH   3   5
HETATM    5  C   UNL     1     -11.498   6.225  69.608  1.00  0.00    -0.425 C  
HETATM    6  C   UNL     1     -11.374   6.812  70.987  1.00  0.00    -0.309 C  
HETATM    7  O   UNL     1     -12.518   6.709  71.698  1.00  0.00    -0.352 OA 
HETATM    8  O   UNL     1     -10.364   7.330  71.437  1.00  0.00    -0.200 OA 
ENDBRANCH   3   5
TORSDOF 1
ENDMDL
MODEL      152
REMARK 921   NORMALIZED FREE ENERGY PREDICTED BY IDOCK:   -1.87 KCAL/MOL
REMARK 922        TOTAL FREE ENERGY PREDICTED BY IDOCK:   -2.02 KCAL/MOL
REMARK 923 INTER-LIGAND FREE ENERGY PREDICTED BY IDOCK:   -1.93 KCAL/MOL
REMARK 924 INTRA-LIGAND FREE ENERGY PREDICTED BY IDOCK:   -0.09 KCAL/MOL
REMARK 927      BINDING AFFINITY PREDICTED BY RF-SCORE:    0.00 PKD
ROOT
HETATM    1  O   UNL     1     -10.386  18.200  68.988  1.00  0.00    -0.337 OA 
HETATM    2  C   UNL     1     -10.184  17.245  68.053  1.00  0.00    -0.332 C  
HETATM    3  C   UNL     1     -10.388  15.855  68.591  1.00  0.00    -0.229 C  
HETATM    4  O   UNL     1      -9.869  17.507  66.903  1.00  0.00    -0.277 OA 
ENDROOT
BRANCH   3   5
HETATM    5  C   UNL     1     -10.145  14.816  67.501  1.00  0.00    -0.224 C  
HETATM    6  C   UNL     1      -8.902  14.016  67.781  1.00  0.00    -0.187 C  
HETATM    7  O   UNL     1      -8.662  13.084  66.832  1.00  0.00    -0.207 OA 
HETATM    8  O   UNL     1      -8.175  14.171  68.749  1.00  0.00    -0.137 OA 
ENDBRANCH   3   5
TORSDOF 1
ENDMDL
MODEL      153
REMARK 921   NORMALIZED FREE ENERGY PREDICTED BY IDOCK:   -1.86 KCAL/MOL
REMARK 922        TOTAL FREE ENERGY PREDICTED BY IDOCK:   -2.01 KCAL/MOL
REMARK 923 INTER-LIGAND FREE ENERGY PREDICTED BY IDOCK:   -1.91 KCAL/MOL
REMARK 924 INTRA-LIGAND FREE ENERGY PREDICTED BY IDOCK:   -0.10 KCAL/MOL
REMARK 927      BINDING AFFINITY PREDICTED BY RF-SCORE:    0.00 PKD
ROOT
HETATM    1  O   UNL     1     -11.140   6.552  67.864  1.00  0.00    -0.303 OA 
HETATM    2  C   UNL     1     -10.925   6.144  69.134  1.00  0.00    -0.381 C  
HETATM    3  C   UNL     1     -10.030   4.937  69.211  1.00  0.00    -0.270 C  
HETATM    4  O   UNL     1     -11.416   6.709  70.099  1.00  0.00    -0.350 OA 
ENDROOT
BRANCH   3   5
HETATM    5  C   UNL     1      -9.821   4.514  70.661  1.00  0.00    -0.292 C  
HETATM    6  C   UNL     1      -8.493   4.991  71.180  1.00  0.00    -0.120 C  
HETATM    7  O   UNL     1      -8.280   4.632  72.465  1.00  0.00    -0.110 OA 
HETATM    8  O   UNL     1      -7.680   5.633  70.533  1.00  0.00    -0.089 OA 
ENDBRANCH   3   5
TORSDOF 1
ENDMDL
MODEL      154
REMARK 921   NORMALIZED FREE ENERGY PREDICTED BY IDOCK:   -1.86 KCAL/MOL
REMARK 922        TOTAL FREE ENERGY PREDICTED BY IDOCK:   -2.01 KCAL/MOL
REMARK 923 INTER-LIGAND FREE ENERGY PREDICTED BY IDOCK:   -1.92 KCAL/MOL
REMARK 924 INTRA-LIGAND FREE ENERGY PREDICTED BY IDOCK:   -0.09 KCAL/MOL
REMARK 927      BINDING AFFINITY PREDICTED BY RF-SCORE:    0.00 PKD
ROOT
HETATM    1  O   UNL     1     -10.007  13.960  65.902  1.00  0.00    -0.299 OA 
HETATM    2  C   UNL     1      -9.236  14.528  66.854  1.00  0.00    -0.250 C  
HETATM    3  C   UNL     1      -9.879  15.738  67.475  1.00  0.00    -0.229 C  
HETATM    4  O   UNL     1      -8.138  14.090  67.160  1.00  0.00    -0.174 OA 
ENDROOT
BRANCH   3   5
HETATM    5  C   UNL     1      -8.970  16.345  68.539  1.00  0.00    -0.224 C  
HETATM    6  C   UNL     1      -8.170  17.490  67.982  1.00  0.00    -0.239 C  
HETATM    7  O   UNL     1      -7.356  18.049  68.903  1.00  0.00    -0.274 OA 
HETATM    8  O   UNL     1      -8.232  17.889  66.830  1.00  0.00    -0.232 OA 
ENDBRANCH   3   5
TORSDOF 1
ENDMDL
MODEL      155
REMARK 921   NORMALIZED FREE ENERGY PREDICTED BY IDOCK:   -1.85 KCAL/MOL
REMARK 922        TOTAL FREE ENERGY PREDICTED BY IDOCK:   -2.00 KCAL/MOL
REMARK 923 INTER-LIGAND FREE ENERGY PREDICTED BY IDOCK:   -1.96 KCAL/MOL
REMARK 924 INTRA-LIGAND FREE ENERGY PREDICTED BY IDOCK:   -0.04 KCAL/MOL
REMARK 927      BINDING AFFINITY PREDICTED BY RF-SCORE:    0.00 PKD
ROOT
HETATM    1  O   UNL     1      -6.948   9.807  62.442  1.00  0.00    -0.101 OA 
HETATM    2  C   UNL     1      -7.550  10.008  63.634  1.00  0.00    -0.143 C  
HETATM    3  C   UNL     1      -9.037  10.198  63.507  1.00  0.00    -0.302 C  
HETATM    4  O   UNL     1      -6.933  10.030  64.687  1.00  0.00    -0.129 OA 
ENDROOT
BRANCH   3   5
HETATM    5  C   UNL     1      -9.669  10.424  64.877  1.00  0.00    -0.372 C  
HETATM    6  C   UNL     1     -10.910  11.268  64.770  1.00  0.00    -0.244 C  
HETATM    7  O   UNL     1     -11.494  11.484  65.970  1.00  0.00    -0.274 OA 
HETATM    8  O   UNL     1     -11.360  11.719  63.729  1.00  0.00    -0.395 OA 
ENDBRANCH   3   5
TORSDOF 1
ENDMDL
MODEL      156
REMARK 921   NORMALIZED FREE ENERGY PREDICTED BY IDOCK:   -1.83 KCAL/MOL
REMARK 922        TOTAL FREE ENERGY PREDICTED BY IDOCK:   -1.98 KCAL/MOL
REMARK 923 INTER-LIGAND FREE ENERGY PREDICTED BY IDOCK:   -1.98 KCAL/MOL
REMARK 924 INTRA-LIGAND FREE ENERGY PREDICTED BY IDOCK:    0.01 KCAL/MOL
REMARK 927      BINDING AFFINITY PREDICTED BY RF-SCORE:    0.00 PKD
ROOT
HETATM    1  O   UNL     1      -7.634  19.489  65.548  1.00  0.00    -0.425 OA 
HETATM    2  C   UNL     1      -7.447  18.270  66.101  1.00  0.00    -0.256 C  
HETATM    3  C   UNL     1      -6.527  18.309  67.291  1.00  0.00    -0.191 C  
HETATM    4  O   UNL     1      -7.976  17.261  65.663  1.00  0.00    -0.437 OA 
ENDROOT
BRANCH   3   5
HETATM    5  C   UNL     1      -6.345  16.912  67.876  1.00  0.00    -0.149 C  
HETATM    6  C   UNL     1      -7.418  16.600  68.882  1.00  0.00    -0.232 C  
HETATM    7  O   UNL     1      -7.284  15.367  69.417  1.00  0.00    -0.172 OA 
HETATM    8  O   UNL     1      -8.321  17.359  69.198  1.00  0.00    -0.122 OA 
ENDBRANCH   3   5
TORSDOF 1
ENDMDL
MODEL      157
REMARK 921   NORMALIZED FREE ENERGY PREDICTED BY IDOCK:   -1.82 KCAL/MOL
REMARK 922        TOTAL FREE ENERGY PREDICTED BY IDOCK:   -1.96 KCAL/MOL
REMARK 923 INTER-LIGAND FREE ENERGY PREDICTED BY IDOCK:   -1.88 KCAL/MOL
REMARK 924 INTRA-LIGAND FREE ENERGY PREDICTED BY IDOCK:   -0.09 KCAL/MOL
REMARK 927      BINDING AFFINITY PREDICTED BY RF-SCORE:    0.00 PKD
ROOT
HETATM    1  O   UNL     1     -11.582  15.281  68.388  1.00  0.00    -0.331 OA 
HETATM    2  C   UNL     1     -10.442  15.189  69.107  1.00  0.00    -0.252 C  
HETATM    3  C   UNL     1      -9.221  15.041  68.242  1.00  0.00    -0.184 C  
HETATM    4  O   UNL     1     -10.431  15.225  70.328  1.00  0.00    -0.272 OA 
ENDROOT
BRANCH   3   5
HETATM    5  C   UNL     1      -7.963  14.938  69.099  1.00  0.00    -0.165 C  
HETATM    6  C   UNL     1      -7.282  16.273  69.227  1.00  0.00    -0.221 C  
HETATM    7  O   UNL     1      -6.165  16.214  69.983  1.00  0.00    -0.192 OA 
HETATM    8  O   UNL     1      -7.676  17.309  68.714  1.00  0.00    -0.258 OA 
ENDBRANCH   3   5
TORSDOF 1
ENDMDL
MODEL      158
REMARK 921   NORMALIZED FREE ENERGY PREDICTED BY IDOCK:   -1.80 KCAL/MOL
REMARK 922        TOTAL FREE ENERGY PREDICTED BY IDOCK:   -1.95 KCAL/MOL
REMARK 923 INTER-LIGAND FREE ENERGY PREDICTED BY IDOCK:   -1.86 KCAL/MOL
REMARK 924 INTRA-LIGAND FREE ENERGY PREDICTED BY IDOCK:   -0.09 KCAL/MOL
REMARK 927      BINDING AFFINITY PREDICTED BY RF-SCORE:    0.00 PKD
ROOT
HETATM    1  O   UNL     1     -11.071  14.947  65.897  1.00  0.00    -0.330 OA 
HETATM    2  C   UNL     1      -9.844  14.524  66.275  1.00  0.00    -0.304 C  
HETATM    3  C   UNL     1      -8.946  15.654  66.697  1.00  0.00    -0.317 C  
HETATM    4  O   UNL     1      -9.523  13.346  66.265  1.00  0.00    -0.254 OA 
ENDROOT
BRANCH   3   5
HETATM    5  C   UNL     1      -7.575  15.127  67.110  1.00  0.00    -0.204 C  
HETATM    6  C   UNL     1      -7.363  15.267  68.592  1.00  0.00    -0.120 C  
HETATM    7  O   UNL     1      -6.156  14.806  68.988  1.00  0.00    -0.090 OA 
HETATM    8  O   UNL     1      -8.174  15.741  69.372  1.00  0.00    -0.238 OA 
ENDBRANCH   3   5
TORSDOF 1
ENDMDL
MODEL      159
REMARK 921   NORMALIZED FREE ENERGY PREDICTED BY IDOCK:   -1.79 KCAL/MOL
REMARK 922        TOTAL FREE ENERGY PREDICTED BY IDOCK:   -1.93 KCAL/MOL
REMARK 923 INTER-LIGAND FREE ENERGY PREDICTED BY IDOCK:   -1.90 KCAL/MOL
REMARK 924 INTRA-LIGAND FREE ENERGY PREDICTED BY IDOCK:   -0.04 KCAL/MOL
REMARK 927      BINDING AFFINITY PREDICTED BY RF-SCORE:    0.00 PKD
ROOT
HETATM    1  O   UNL     1     -12.474   9.980  71.125  1.00  0.00    -0.323 OA 
HETATM    2  C   UNL     1     -11.548   8.996  71.111  1.00  0.00    -0.306 C  
HETATM    3  C   UNL     1     -10.201   9.474  70.642  1.00  0.00    -0.364 C  
HETATM    4  O   UNL     1     -11.803   7.849  71.445  1.00  0.00    -0.286 OA 
ENDROOT
BRANCH   3   5
HETATM    5  C   UNL     1      -9.194   8.327  70.641  1.00  0.00    -0.167 C  
HETATM    6  C   UNL     1      -7.782   8.845  70.657  1.00  0.00    -0.107 C  
HETATM    7  O   UNL     1      -6.867   7.851  70.658  1.00  0.00    -0.041 OA 
HETATM    8  O   UNL     1      -7.471  10.025  70.669  1.00  0.00    -0.302 OA 
ENDBRANCH   3   5
TORSDOF 1
ENDMDL
MODEL      160
REMARK 921   NORMALIZED FREE ENERGY PREDICTED BY IDOCK:   -1.77 KCAL/MOL
REMARK 922        TOTAL FREE ENERGY PREDICTED BY IDOCK:   -1.91 KCAL/MOL
REMARK 923 INTER-LIGAND FREE ENERGY PREDICTED BY IDOCK:   -1.87 KCAL/MOL
REMARK 924 INTRA-LIGAND FREE ENERGY PREDICTED BY IDOCK:   -0.04 KCAL/MOL
REMARK 927      BINDING AFFINITY PREDICTED BY RF-SCORE:    0.00 PKD
ROOT
HETATM    1  O   UNL     1     -12.073   7.400  72.126  1.00  0.00    -0.288 OA 
HETATM    2  C   UNL     1     -10.995   7.254  72.928  1.00  0.00    -0.337 C  
HETATM    3  C   UNL     1      -9.895   8.228  72.603  1.00  0.00    -0.357 C  
HETATM    4  O   UNL     1     -10.942   6.413  73.812  1.00  0.00    -0.138 OA 
ENDROOT
BRANCH   3   5
HETATM    5  C   UNL     1      -8.702   8.020  73.531  1.00  0.00    -0.330 C  
HETATM    6  C   UNL     1      -7.416   8.417  72.859  1.00  0.00    -0.064 C  
HETATM    7  O   UNL     1      -6.340   8.246  73.658  1.00  0.00    -0.103 OA 
HETATM    8  O   UNL     1      -7.328   8.849  71.720  1.00  0.00    -0.256 OA 
ENDBRANCH   3   5
TORSDOF 1
ENDMDL
MODEL      161
REMARK 921   NORMALIZED FREE ENERGY PREDICTED BY IDOCK:   -1.76 KCAL/MOL
REMARK 922        TOTAL FREE ENERGY PREDICTED BY IDOCK:   -1.91 KCAL/MOL
REMARK 923 INTER-LIGAND FREE ENERGY PREDICTED BY IDOCK:   -1.81 KCAL/MOL
REMARK 924 INTRA-LIGAND FREE ENERGY PREDICTED BY IDOCK:   -0.10 KCAL/MOL
REMARK 927      BINDING AFFINITY PREDICTED BY RF-SCORE:    0.00 PKD
ROOT
HETATM    1  O   UNL     1     -10.215   9.854  65.791  1.00  0.00    -0.265 OA 
HETATM    2  C   UNL     1     -10.193   9.275  67.012  1.00  0.00    -0.262 C  
HETATM    3  C   UNL     1     -10.411  10.261  68.126  1.00  0.00    -0.224 C  
HETATM    4  O   UNL     1     -10.013   8.077  67.167  1.00  0.00    -0.187 OA 
ENDROOT
BRANCH   3   5
HETATM    5  C   UNL     1     -10.375   9.560  69.480  1.00  0.00    -0.229 C  
HETATM    6  C   UNL     1      -9.041   9.743  70.151  1.00  0.00    -0.197 C  
HETATM    7  O   UNL     1      -8.979   9.133  71.355  1.00  0.00    -0.283 OA 
HETATM    8  O   UNL     1      -8.103  10.368  69.681  1.00  0.00    -0.161 OA 
ENDBRANCH   3   5
TORSDOF 1
ENDMDL
MODEL      162
REMARK 921   NORMALIZED FREE ENERGY PREDICTED BY IDOCK:   -1.75 KCAL/MOL
REMARK 922        TOTAL FREE ENERGY PREDICTED BY IDOCK:   -1.89 KCAL/MOL
REMARK 923 INTER-LIGAND FREE ENERGY PREDICTED BY IDOCK:   -1.80 KCAL/MOL
REMARK 924 INTRA-LIGAND FREE ENERGY PREDICTED BY IDOCK:   -0.09 KCAL/MOL
REMARK 927      BINDING AFFINITY PREDICTED BY RF-SCORE:    0.00 PKD
ROOT
HETATM    1  O   UNL     1      -9.177   7.328  69.909  1.00  0.00    -0.142 OA 
HETATM    2  C   UNL     1     -10.224   8.141  69.648  1.00  0.00    -0.205 C  
HETATM    3  C   UNL     1     -10.037   8.940  68.388  1.00  0.00    -0.215 C  
HETATM    4  O   UNL     1     -11.205   8.203  70.373  1.00  0.00    -0.264 OA 
ENDROOT
BRANCH   3   5
HETATM    5  C   UNL     1     -11.242   9.843  68.140  1.00  0.00    -0.142 C  
HETATM    6  C   UNL     1     -10.900  11.286  68.388  1.00  0.00    -0.205 C  
HETATM    7  O   UNL     1     -11.948  12.111  68.174  1.00  0.00    -0.430 OA 
HETATM    8  O   UNL     1      -9.804  11.693  68.743  1.00  0.00    -0.193 OA 
ENDBRANCH   3   5
TORSDOF 1
ENDMDL
MODEL      163
REMARK 921   NORMALIZED FREE ENERGY PREDICTED BY IDOCK:   -1.74 KCAL/MOL
REMARK 922        TOTAL FREE ENERGY PREDICTED BY IDOCK:   -1.88 KCAL/MOL
REMARK 923 INTER-LIGAND FREE ENERGY PREDICTED BY IDOCK:   -2.07 KCAL/MOL
REMARK 924 INTRA-LIGAND FREE ENERGY PREDICTED BY IDOCK:    0.19 KCAL/MOL
REMARK 927      BINDING AFFINITY PREDICTED BY RF-SCORE:    0.00 PKD
ROOT
HETATM    1  O   UNL     1      -8.493  19.148  67.368  1.00  0.00    -0.276 OA 
HETATM    2  C   UNL     1      -8.850  18.094  68.135  1.00  0.00    -0.280 C  
HETATM    3  C   UNL     1     -10.224  18.246  68.728  1.00  0.00    -0.342 C  
HETATM    4  O   UNL     1      -8.116  17.133  68.315  1.00  0.00    -0.220 OA 
ENDROOT
BRANCH   3   5
HETATM    5  C   UNL     1     -10.577  17.035  69.586  1.00  0.00    -0.087 C  
HETATM    6  C   UNL     1     -11.010  15.873  68.734  1.00  0.00    -0.301 C  
HETATM    7  O   UNL     1     -11.327  14.784  69.468  1.00  0.00    -0.256 OA 
HETATM    8  O   UNL     1     -11.075  15.887  67.515  1.00  0.00    -0.312 OA 
ENDBRANCH   3   5
TORSDOF 1
ENDMDL
MODEL      164
REMARK 921   NORMALIZED FREE ENERGY PREDICTED BY IDOCK:   -1.74 KCAL/MOL
REMARK 922        TOTAL FREE ENERGY PREDICTED BY IDOCK:   -1.88 KCAL/MOL
REMARK 923 INTER-LIGAND FREE ENERGY PREDICTED BY IDOCK:   -1.83 KCAL/MOL
REMARK 924 INTRA-LIGAND FREE ENERGY PREDICTED BY IDOCK:   -0.05 KCAL/MOL
REMARK 927      BINDING AFFINITY PREDICTED BY RF-SCORE:    0.00 PKD
ROOT
HETATM    1  O   UNL     1     -10.025   9.699  65.491  1.00  0.00    -0.311 OA 
HETATM    2  C   UNL     1      -9.455   9.210  66.614  1.00  0.00    -0.185 C  
HETATM    3  C   UNL     1     -10.462   8.635  67.572  1.00  0.00    -0.335 C  
HETATM    4  O   UNL     1      -8.250   9.244  66.809  1.00  0.00    -0.114 OA 
ENDROOT
BRANCH   3   5
HETATM    5  C   UNL     1      -9.771   8.101  68.823  1.00  0.00    -0.155 C  
HETATM    6  C   UNL     1     -10.381   6.800  69.268  1.00  0.00    -0.200 C  
HETATM    7  O   UNL     1      -9.787   6.301  70.374  1.00  0.00    -0.173 OA 
HETATM    8  O   UNL     1     -11.309   6.238  68.709  1.00  0.00    -0.356 OA 
ENDBRANCH   3   5
TORSDOF 1
ENDMDL
MODEL      165
REMARK 921   NORMALIZED FREE ENERGY PREDICTED BY IDOCK:   -1.72 KCAL/MOL
REMARK 922        TOTAL FREE ENERGY PREDICTED BY IDOCK:   -1.87 KCAL/MOL
REMARK 923 INTER-LIGAND FREE ENERGY PREDICTED BY IDOCK:   -1.83 KCAL/MOL
REMARK 924 INTRA-LIGAND FREE ENERGY PREDICTED BY IDOCK:   -0.03 KCAL/MOL
REMARK 927      BINDING AFFINITY PREDICTED BY RF-SCORE:    0.00 PKD
ROOT
HETATM    1  O   UNL     1     -11.427  11.459  70.547  1.00  0.00    -0.201 OA 
HETATM    2  C   UNL     1     -11.776  11.194  69.269  1.00  0.00    -0.331 C  
HETATM    3  C   UNL     1     -10.673  11.495  68.292  1.00  0.00    -0.247 C  
HETATM    4  O   UNL     1     -12.877  10.760  68.965  1.00  0.00    -0.044 OA 
ENDROOT
BRANCH   3   5
HETATM    5  C   UNL     1     -11.117  11.184  66.866  1.00  0.00    -0.313 C  
HETATM    6  C   UNL     1     -10.139  11.727  65.861  1.00  0.00    -0.234 C  
HETATM    7  O   UNL     1     -10.505  11.464  64.588  1.00  0.00    -0.278 OA 
HETATM    8  O   UNL     1      -9.119  12.338  66.140  1.00  0.00    -0.183 OA 
ENDBRANCH   3   5
TORSDOF 1
ENDMDL
MODEL      166
REMARK 921   NORMALIZED FREE ENERGY PREDICTED BY IDOCK:   -1.72 KCAL/MOL
REMARK 922        TOTAL FREE ENERGY PREDICTED BY IDOCK:   -1.86 KCAL/MOL
REMARK 923 INTER-LIGAND FREE ENERGY PREDICTED BY IDOCK:   -1.79 KCAL/MOL
REMARK 924 INTRA-LIGAND FREE ENERGY PREDICTED BY IDOCK:   -0.08 KCAL/MOL
REMARK 927      BINDING AFFINITY PREDICTED BY RF-SCORE:    0.00 PKD
ROOT
HETATM    1  O   UNL     1     -10.602   3.901  73.379  1.00  0.00    -0.162 OA 
HETATM    2  C   UNL     1      -9.932   4.947  72.848  1.00  0.00    -0.157 C  
HETATM    3  C   UNL     1      -9.895   6.138  73.767  1.00  0.00    -0.198 C  
HETATM    4  O   UNL     1      -9.423   4.907  71.739  1.00  0.00    -0.143 OA 
ENDROOT
BRANCH   3   5
HETATM    5  C   UNL     1      -9.132   7.291  73.122  1.00  0.00    -0.193 C  
HETATM    6  C   UNL     1     -10.069   8.240  72.427  1.00  0.00    -0.312 C  
HETATM    7  O   UNL     1      -9.422   9.275  71.847  1.00  0.00    -0.291 OA 
HETATM    8  O   UNL     1     -11.283   8.113  72.379  1.00  0.00    -0.330 OA 
ENDBRANCH   3   5
TORSDOF 1
ENDMDL
MODEL      167
REMARK 921   NORMALIZED FREE ENERGY PREDICTED BY IDOCK:   -1.67 KCAL/MOL
REMARK 922        TOTAL FREE ENERGY PREDICTED BY IDOCK:   -1.81 KCAL/MOL
REMARK 923 INTER-LIGAND FREE ENERGY PREDICTED BY IDOCK:   -1.71 KCAL/MOL
REMARK 924 INTRA-LIGAND FREE ENERGY PREDICTED BY IDOCK:   -0.10 KCAL/MOL
REMARK 927      BINDING AFFINITY PREDICTED BY RF-SCORE:    0.00 PKD
ROOT
HETATM    1  O   UNL     1     -10.445   9.860  68.882  1.00  0.00    -0.193 OA 
HETATM    2  C   UNL     1     -10.201   8.560  68.605  1.00  0.00    -0.197 C  
HETATM    3  C   UNL     1      -9.454   7.861  69.708  1.00  0.00    -0.163 C  
HETATM    4  O   UNL     1     -10.557   8.032  67.563  1.00  0.00    -0.259 OA 
ENDROOT
BRANCH   3   5
HETATM    5  C   UNL     1      -9.201   6.401  69.346  1.00  0.00    -0.143 C  
HETATM    6  C   UNL     1     -10.210   5.497  69.999  1.00  0.00    -0.266 C  
HETATM    7  O   UNL     1     -10.012   4.196  69.694  1.00  0.00    -0.195 OA 
HETATM    8  O   UNL     1     -11.116   5.872  70.726  1.00  0.00    -0.293 OA 
ENDBRANCH   3   5
TORSDOF 1
ENDMDL
MODEL      168
REMARK 921   NORMALIZED FREE ENERGY PREDICTED BY IDOCK:   -1.61 KCAL/MOL
REMARK 922        TOTAL FREE ENERGY PREDICTED BY IDOCK:   -1.74 KCAL/MOL
REMARK 923 INTER-LIGAND FREE ENERGY PREDICTED BY IDOCK:   -1.68 KCAL/MOL
REMARK 924 INTRA-LIGAND FREE ENERGY PREDICTED BY IDOCK:   -0.07 KCAL/MOL
REMARK 927      BINDING AFFINITY PREDICTED BY RF-SCORE:    0.00 PKD
ROOT
HETATM    1  O   UNL     1      -7.194  10.984  69.535  1.00  0.00    -0.130 OA 
HETATM    2  C   UNL     1      -8.405  10.953  68.936  1.00  0.00    -0.139 C  
HETATM    3  C   UNL     1      -8.662  12.167  68.085  1.00  0.00    -0.185 C  
HETATM    4  O   UNL     1      -9.190  10.029  69.085  1.00  0.00    -0.167 OA 
ENDROOT
BRANCH   3   5
HETATM    5  C   UNL     1     -10.039  12.087  67.435  1.00  0.00    -0.206 C  
HETATM    6  C   UNL     1     -10.874  13.289  67.781  1.00  0.00    -0.252 C  
HETATM    7  O   UNL     1     -12.101  13.247  67.216  1.00  0.00    -0.357 OA 
HETATM    8  O   UNL     1     -10.507  14.213  68.490  1.00  0.00    -0.239 OA 
ENDBRANCH   3   5
TORSDOF 1
ENDMDL
MODEL      169
REMARK 921   NORMALIZED FREE ENERGY PREDICTED BY IDOCK:   -1.61 KCAL/MOL
REMARK 922        TOTAL FREE ENERGY PREDICTED BY IDOCK:   -1.74 KCAL/MOL
REMARK 923 INTER-LIGAND FREE ENERGY PREDICTED BY IDOCK:   -1.67 KCAL/MOL
REMARK 924 INTRA-LIGAND FREE ENERGY PREDICTED BY IDOCK:   -0.08 KCAL/MOL
REMARK 927      BINDING AFFINITY PREDICTED BY RF-SCORE:    0.00 PKD
ROOT
HETATM    1  O   UNL     1     -10.779   7.782  66.780  1.00  0.00    -0.311 OA 
HETATM    2  C   UNL     1      -9.929   7.796  67.830  1.00  0.00    -0.172 C  
HETATM    3  C   UNL     1     -10.387   8.708  68.935  1.00  0.00    -0.228 C  
HETATM    4  O   UNL     1      -8.905   7.131  67.856  1.00  0.00    -0.125 OA 
ENDROOT
BRANCH   3   5
HETATM    5  C   UNL     1      -9.395   8.692  70.093  1.00  0.00    -0.171 C  
HETATM    6  C   UNL     1      -8.409   9.821  69.980  1.00  0.00    -0.192 C  
HETATM    7  O   UNL     1      -7.517   9.834  70.995  1.00  0.00    -0.318 OA 
HETATM    8  O   UNL     1      -8.395  10.648  69.082  1.00  0.00    -0.151 OA 
ENDBRANCH   3   5
TORSDOF 1
ENDMDL
MODEL      170
REMARK 921   NORMALIZED FREE ENERGY PREDICTED BY IDOCK:   -1.60 KCAL/MOL
REMARK 922        TOTAL FREE ENERGY PREDICTED BY IDOCK:   -1.74 KCAL/MOL
REMARK 923 INTER-LIGAND FREE ENERGY PREDICTED BY IDOCK:   -1.64 KCAL/MOL
REMARK 924 INTRA-LIGAND FREE ENERGY PREDICTED BY IDOCK:   -0.10 KCAL/MOL
REMARK 927      BINDING AFFINITY PREDICTED BY RF-SCORE:    0.00 PKD
ROOT
HETATM    1  O   UNL     1     -10.200   4.478  71.547  1.00  0.00    -0.184 OA 
HETATM    2  C   UNL     1      -9.505   5.158  72.485  1.00  0.00    -0.145 C  
HETATM    3  C   UNL     1      -8.497   6.102  71.889  1.00  0.00    -0.129 C  
HETATM    4  O   UNL     1      -9.691   5.003  73.682  1.00  0.00    -0.135 OA 
ENDROOT
BRANCH   3   5
HETATM    5  C   UNL     1      -7.737   6.841  72.987  1.00  0.00    -0.093 C  
HETATM    6  C   UNL     1      -8.240   8.250  73.142  1.00  0.00    -0.169 C  
HETATM    7  O   UNL     1      -7.587   8.929  74.110  1.00  0.00    -0.416 OA 
HETATM    8  O   UNL     1      -9.137   8.747  72.480  1.00  0.00    -0.367 OA 
ENDBRANCH   3   5
TORSDOF 1
ENDMDL
MODEL      171
REMARK 921   NORMALIZED FREE ENERGY PREDICTED BY IDOCK:   -1.60 KCAL/MOL
REMARK 922        TOTAL FREE ENERGY PREDICTED BY IDOCK:   -1.73 KCAL/MOL
REMARK 923 INTER-LIGAND FREE ENERGY PREDICTED BY IDOCK:   -1.66 KCAL/MOL
REMARK 924 INTRA-LIGAND FREE ENERGY PREDICTED BY IDOCK:   -0.07 KCAL/MOL
REMARK 927      BINDING AFFINITY PREDICTED BY RF-SCORE:    0.00 PKD
ROOT
HETATM    1  O   UNL     1     -10.460   6.824  69.036  1.00  0.00    -0.184 OA 
HETATM    2  C   UNL     1      -9.882   6.395  70.179  1.00  0.00    -0.167 C  
HETATM    3  C   UNL     1     -10.231   4.968  70.505  1.00  0.00    -0.316 C  
HETATM    4  O   UNL     1      -9.160   7.107  70.859  1.00  0.00    -0.151 OA 
ENDROOT
BRANCH   3   5
HETATM    5  C   UNL     1      -9.559   4.533  71.803  1.00  0.00    -0.220 C  
HETATM    6  C   UNL     1     -10.472   4.733  72.981  1.00  0.00    -0.202 C  
HETATM    7  O   UNL     1      -9.904   4.353  74.147  1.00  0.00    -0.125 OA 
HETATM    8  O   UNL     1     -11.605   5.185  72.917  1.00  0.00    -0.297 OA 
ENDBRANCH   3   5
TORSDOF 1
ENDMDL
MODEL      172
REMARK 921   NORMALIZED FREE ENERGY PREDICTED BY IDOCK:   -1.58 KCAL/MOL
REMARK 922        TOTAL FREE ENERGY PREDICTED BY IDOCK:   -1.71 KCAL/MOL
REMARK 923 INTER-LIGAND FREE ENERGY PREDICTED BY IDOCK:   -1.68 KCAL/MOL
REMARK 924 INTRA-LIGAND FREE ENERGY PREDICTED BY IDOCK:   -0.03 KCAL/MOL
REMARK 927      BINDING AFFINITY PREDICTED BY RF-SCORE:    0.00 PKD
ROOT
HETATM    1  O   UNL     1     -11.013   7.341  66.885  1.00  0.00    -0.343 OA 
HETATM    2  C   UNL     1     -10.552   6.765  68.017  1.00  0.00    -0.231 C  
HETATM    3  C   UNL     1     -10.055   5.363  67.794  1.00  0.00    -0.215 C  
HETATM    4  O   UNL     1     -10.552   7.340  69.094  1.00  0.00    -0.212 OA 
ENDROOT
BRANCH   3   5
HETATM    5  C   UNL     1      -9.550   4.756  69.099  1.00  0.00    -0.237 C  
HETATM    6  C   UNL     1      -9.305   3.280  68.953  1.00  0.00    -0.164 C  
HETATM    7  O   UNL     1      -8.854   2.714  70.094  1.00  0.00    -0.067 OA 
HETATM    8  O   UNL     1      -9.483   2.640  67.928  1.00  0.00    -0.211 OA 
ENDBRANCH   3   5
TORSDOF 1
ENDMDL
MODEL      173
REMARK 921   NORMALIZED FREE ENERGY PREDICTED BY IDOCK:   -1.58 KCAL/MOL
REMARK 922        TOTAL FREE ENERGY PREDICTED BY IDOCK:   -1.71 KCAL/MOL
REMARK 923 INTER-LIGAND FREE ENERGY PREDICTED BY IDOCK:   -1.62 KCAL/MOL
REMARK 924 INTRA-LIGAND FREE ENERGY PREDICTED BY IDOCK:   -0.10 KCAL/MOL
REMARK 927      BINDING AFFINITY PREDICTED BY RF-SCORE:    0.00 PKD
ROOT
HETATM    1  O   UNL     1      -9.912   3.539  71.561  1.00  0.00    -0.172 OA 
HETATM    2  C   UNL     1      -9.211   4.678  71.758  1.00  0.00    -0.137 C  
HETATM    3  C   UNL     1      -8.964   4.962  73.214  1.00  0.00    -0.109 C  
HETATM    4  O   UNL     1      -8.831   5.383  70.836  1.00  0.00    -0.133 OA 
ENDROOT
BRANCH   3   5
HETATM    5  C   UNL     1      -8.174   6.255  73.383  1.00  0.00    -0.114 C  
HETATM    6  C   UNL     1      -9.078   7.400  73.750  1.00  0.00    -0.247 C  
HETATM    7  O   UNL     1      -8.405   8.561  73.909  1.00  0.00    -0.351 OA 
HETATM    8  O   UNL     1     -10.287   7.315  73.895  1.00  0.00    -0.352 OA 
ENDBRANCH   3   5
TORSDOF 1
ENDMDL
MODEL      174
REMARK 921   NORMALIZED FREE ENERGY PREDICTED BY IDOCK:   -1.58 KCAL/MOL
REMARK 922        TOTAL FREE ENERGY PREDICTED BY IDOCK:   -1.71 KCAL/MOL
REMARK 923 INTER-LIGAND FREE ENERGY PREDICTED BY IDOCK:   -1.63 KCAL/MOL
REMARK 924 INTRA-LIGAND FREE ENERGY PREDICTED BY IDOCK:   -0.08 KCAL/MOL
REMARK 927      BINDING AFFINITY PREDICTED BY RF-SCORE:    0.00 PKD
ROOT
HETATM    1  O   UNL     1     -10.538   3.839  63.920  1.00  0.00    -0.253 OA 
HETATM    2  C   UNL     1      -9.797   4.319  64.943  1.00  0.00    -0.175 C  
HETATM    3  C   UNL     1     -10.636   4.741  66.118  1.00  0.00    -0.282 C  
HETATM    4  O   UNL     1      -8.579   4.394  64.894  1.00  0.00    -0.120 OA 
ENDROOT
BRANCH   3   5
HETATM    5  C   UNL     1      -9.756   5.278  67.242  1.00  0.00    -0.163 C  
HETATM    6  C   UNL     1     -10.002   6.744  67.471  1.00  0.00    -0.141 C  
HETATM    7  O   UNL     1      -9.237   7.249  68.464  1.00  0.00    -0.139 OA 
HETATM    8  O   UNL     1     -10.798   7.425  66.844  1.00  0.00    -0.357 OA 
ENDBRANCH   3   5
TORSDOF 1
ENDMDL
MODEL      175
REMARK 921   NORMALIZED FREE ENERGY PREDICTED BY IDOCK:   -1.55 KCAL/MOL
REMARK 922        TOTAL FREE ENERGY PREDICTED BY IDOCK:   -1.68 KCAL/MOL
REMARK 923 INTER-LIGAND FREE ENERGY PREDICTED BY IDOCK:   -1.61 KCAL/MOL
REMARK 924 INTRA-LIGAND FREE ENERGY PREDICTED BY IDOCK:   -0.07 KCAL/MOL
REMARK 927      BINDING AFFINITY PREDICTED BY RF-SCORE:    0.00 PKD
ROOT
HETATM    1  O   UNL     1     -11.286  14.224  69.238  1.00  0.00    -0.257 OA 
HETATM    2  C   UNL     1     -10.489  13.963  68.179  1.00  0.00    -0.245 C  
HETATM    3  C   UNL     1     -10.612  12.543  67.698  1.00  0.00    -0.234 C  
HETATM    4  O   UNL     1      -9.756  14.805  67.684  1.00  0.00    -0.211 OA 
ENDROOT
BRANCH   3   5
HETATM    5  C   UNL     1      -9.692  12.297  66.506  1.00  0.00    -0.242 C  
HETATM    6  C   UNL     1      -8.716  11.190  66.792  1.00  0.00    -0.157 C  
HETATM    7  O   UNL     1      -7.888  10.947  65.753  1.00  0.00    -0.142 OA 
HETATM    8  O   UNL     1      -8.658  10.563  67.839  1.00  0.00    -0.121 OA 
ENDBRANCH   3   5
TORSDOF 1
ENDMDL
MODEL      176
REMARK 921   NORMALIZED FREE ENERGY PREDICTED BY IDOCK:   -1.53 KCAL/MOL
REMARK 922        TOTAL FREE ENERGY PREDICTED BY IDOCK:   -1.66 KCAL/MOL
REMARK 923 INTER-LIGAND FREE ENERGY PREDICTED BY IDOCK:   -1.56 KCAL/MOL
REMARK 924 INTRA-LIGAND FREE ENERGY PREDICTED BY IDOCK:   -0.10 KCAL/MOL
REMARK 927      BINDING AFFINITY PREDICTED BY RF-SCORE:    0.00 PKD
ROOT
HETATM    1  O   UNL     1      -9.095   3.332  70.843  1.00  0.00    -0.090 OA 
HETATM    2  C   UNL     1      -9.076   4.678  70.726  1.00  0.00    -0.130 C  
HETATM    3  C   UNL     1     -10.438   5.294  70.895  1.00  0.00    -0.285 C  
HETATM    4  O   UNL     1      -8.051   5.304  70.506  1.00  0.00    -0.099 OA 
ENDROOT
BRANCH   3   5
HETATM    5  C   UNL     1     -10.365   6.811  70.752  1.00  0.00    -0.227 C  
HETATM    6  C   UNL     1     -10.780   7.247  69.374  1.00  0.00    -0.225 C  
HETATM    7  O   UNL     1     -10.726   8.588  69.217  1.00  0.00    -0.213 OA 
HETATM    8  O   UNL     1     -11.130   6.493  68.479  1.00  0.00    -0.296 OA 
ENDBRANCH   3   5
TORSDOF 1
ENDMDL
MODEL      177
REMARK 921   NORMALIZED FREE ENERGY PREDICTED BY IDOCK:   -1.52 KCAL/MOL
REMARK 922        TOTAL FREE ENERGY PREDICTED BY IDOCK:   -1.65 KCAL/MOL
REMARK 923 INTER-LIGAND FREE ENERGY PREDICTED BY IDOCK:   -1.58 KCAL/MOL
REMARK 924 INTRA-LIGAND FREE ENERGY PREDICTED BY IDOCK:   -0.07 KCAL/MOL
REMARK 927      BINDING AFFINITY PREDICTED BY RF-SCORE:    0.00 PKD
ROOT
HETATM    1  O   UNL     1      -8.970  11.608  66.952  1.00  0.00    -0.178 OA 
HETATM    2  C   UNL     1      -9.405  10.419  66.479  1.00  0.00    -0.163 C  
HETATM    3  C   UNL     1     -10.053   9.575  67.542  1.00  0.00    -0.257 C  
HETATM    4  O   UNL     1      -9.272  10.088  65.311  1.00  0.00    -0.183 OA 
ENDROOT
BRANCH   3   5
HETATM    5  C   UNL     1     -10.523   8.245  66.960  1.00  0.00    -0.384 C  
HETATM    6  C   UNL     1      -9.483   7.174  67.145  1.00  0.00    -0.147 C  
HETATM    7  O   UNL     1      -9.872   5.982  66.642  1.00  0.00    -0.155 OA 
HETATM    8  O   UNL     1      -8.401   7.338  67.688  1.00  0.00    -0.116 OA 
ENDBRANCH   3   5
TORSDOF 1
ENDMDL
MODEL      178
REMARK 921   NORMALIZED FREE ENERGY PREDICTED BY IDOCK:   -1.50 KCAL/MOL
REMARK 922        TOTAL FREE ENERGY PREDICTED BY IDOCK:   -1.63 KCAL/MOL
REMARK 923 INTER-LIGAND FREE ENERGY PREDICTED BY IDOCK:   -1.55 KCAL/MOL
REMARK 924 INTRA-LIGAND FREE ENERGY PREDICTED BY IDOCK:   -0.08 KCAL/MOL
REMARK 927      BINDING AFFINITY PREDICTED BY RF-SCORE:    0.00 PKD
ROOT
HETATM    1  O   UNL     1      -6.900   3.338  71.162  1.00  0.00    -0.031 OA 
HETATM    2  C   UNL     1      -7.669   4.113  70.365  1.00  0.00    -0.045 C  
HETATM    3  C   UNL     1      -9.138   3.839  70.534  1.00  0.00    -0.189 C  
HETATM    4  O   UNL     1      -7.197   4.939  69.599  1.00  0.00    -0.053 OA 
ENDROOT
BRANCH   3   5
HETATM    5  C   UNL     1      -9.961   4.734  69.612  1.00  0.00    -0.297 C  
HETATM    6  C   UNL     1     -10.778   5.721  70.401  1.00  0.00    -0.302 C  
HETATM    7  O   UNL     1     -11.517   6.530  69.611  1.00  0.00    -0.382 OA 
HETATM    8  O   UNL     1     -10.789   5.802  71.619  1.00  0.00    -0.248 OA 
ENDBRANCH   3   5
TORSDOF 1
ENDMDL
MODEL      179
REMARK 921   NORMALIZED FREE ENERGY PREDICTED BY IDOCK:   -1.47 KCAL/MOL
REMARK 922        TOTAL FREE ENERGY PREDICTED BY IDOCK:   -1.60 KCAL/MOL
REMARK 923 INTER-LIGAND FREE ENERGY PREDICTED BY IDOCK:   -1.51 KCAL/MOL
REMARK 924 INTRA-LIGAND FREE ENERGY PREDICTED BY IDOCK:   -0.08 KCAL/MOL
REMARK 927      BINDING AFFINITY PREDICTED BY RF-SCORE:    0.00 PKD
ROOT
HETATM    1  O   UNL     1      -9.326   8.433  71.570  1.00  0.00    -0.162 OA 
HETATM    2  C   UNL     1      -9.522   7.765  70.412  1.00  0.00    -0.164 C  
HETATM    3  C   UNL     1     -10.413   6.564  70.579  1.00  0.00    -0.251 C  
HETATM    4  O   UNL     1      -9.018   8.117  69.357  1.00  0.00    -0.146 OA 
ENDROOT
BRANCH   3   5
HETATM    5  C   UNL     1     -10.600   5.844  69.247  1.00  0.00    -0.379 C  
HETATM    6  C   UNL     1      -9.634   4.700  69.108  1.00  0.00    -0.175 C  
HETATM    7  O   UNL     1      -9.777   4.041  67.937  1.00  0.00    -0.159 OA 
HETATM    8  O   UNL     1      -8.804   4.382  69.945  1.00  0.00    -0.078 OA 
ENDBRANCH   3   5
TORSDOF 1
ENDMDL
MODEL      180
REMARK 921   NORMALIZED FREE ENERGY PREDICTED BY IDOCK:   -1.46 KCAL/MOL
REMARK 922        TOTAL FREE ENERGY PREDICTED BY IDOCK:   -1.58 KCAL/MOL
REMARK 923 INTER-LIGAND FREE ENERGY PREDICTED BY IDOCK:   -1.49 KCAL/MOL
REMARK 924 INTRA-LIGAND FREE ENERGY PREDICTED BY IDOCK:   -0.09 KCAL/MOL
REMARK 927      BINDING AFFINITY PREDICTED BY RF-SCORE:    0.00 PKD
ROOT
HETATM    1  O   UNL     1      -9.026   8.592  64.758  1.00  0.00    -0.023 OA 
HETATM    2  C   UNL     1      -8.963   8.621  66.108  1.00  0.00    -0.180 C  
HETATM    3  C   UNL     1     -10.322   8.616  66.752  1.00  0.00    -0.336 C  
HETATM    4  O   UNL     1      -7.904   8.650  66.715  1.00  0.00    -0.092 OA 
ENDROOT
BRANCH   3   5
HETATM    5  C   UNL     1     -10.197   8.654  68.272  1.00  0.00    -0.237 C  
HETATM    6  C   UNL     1     -10.349  10.056  68.795  1.00  0.00    -0.198 C  
HETATM    7  O   UNL     1     -10.245  10.121  70.140  1.00  0.00    -0.255 OA 
HETATM    8  O   UNL     1     -10.546  11.042  68.102  1.00  0.00    -0.173 OA 
ENDBRANCH   3   5
TORSDOF 1
ENDMDL
MODEL      181
REMARK 921   NORMALIZED FREE ENERGY PREDICTED BY IDOCK:   -1.46 KCAL/MOL
REMARK 922        TOTAL FREE ENERGY PREDICTED BY IDOCK:   -1.58 KCAL/MOL
REMARK 923 INTER-LIGAND FREE ENERGY PREDICTED BY IDOCK:   -1.53 KCAL/MOL
REMARK 924 INTRA-LIGAND FREE ENERGY PREDICTED BY IDOCK:   -0.05 KCAL/MOL
REMARK 927      BINDING AFFINITY PREDICTED BY RF-SCORE:    0.00 PKD
ROOT
HETATM    1  O   UNL     1      -7.098  10.423  70.499  1.00  0.00    -0.301 OA 
HETATM    2  C   UNL     1      -8.080   9.961  69.695  1.00  0.00    -0.165 C  
HETATM    3  C   UNL     1      -8.359  10.878  68.535  1.00  0.00    -0.142 C  
HETATM    4  O   UNL     1      -8.665   8.910  69.908  1.00  0.00    -0.126 OA 
ENDROOT
BRANCH   3   5
HETATM    5  C   UNL     1      -9.475  10.316  67.661  1.00  0.00    -0.169 C  
HETATM    6  C   UNL     1      -9.143  10.453  66.201  1.00  0.00    -0.160 C  
HETATM    7  O   UNL     1     -10.114   9.961  65.400  1.00  0.00    -0.313 OA 
HETATM    8  O   UNL     1      -8.117  10.949  65.762  1.00  0.00    -0.157 OA 
ENDBRANCH   3   5
TORSDOF 1
ENDMDL
MODEL      182
REMARK 921   NORMALIZED FREE ENERGY PREDICTED BY IDOCK:   -1.46 KCAL/MOL
REMARK 922        TOTAL FREE ENERGY PREDICTED BY IDOCK:   -1.58 KCAL/MOL
REMARK 923 INTER-LIGAND FREE ENERGY PREDICTED BY IDOCK:   -1.51 KCAL/MOL
REMARK 924 INTRA-LIGAND FREE ENERGY PREDICTED BY IDOCK:   -0.07 KCAL/MOL
REMARK 927      BINDING AFFINITY PREDICTED BY RF-SCORE:    0.00 PKD
ROOT
HETATM    1  O   UNL     1      -9.673   4.525  71.382  1.00  0.00    -0.159 OA 
HETATM    2  C   UNL     1      -9.544   5.533  70.492  1.00  0.00    -0.173 C  
HETATM    3  C   UNL     1     -10.695   5.605  69.526  1.00  0.00    -0.380 C  
HETATM    4  O   UNL     1      -8.586   6.290  70.491  1.00  0.00    -0.135 OA 
ENDROOT
BRANCH   3   5
HETATM    5  C   UNL     1     -10.501   6.754  68.542  1.00  0.00    -0.234 C  
HETATM    6  C   UNL     1      -9.826   6.282  67.283  1.00  0.00    -0.137 C  
HETATM    7  O   UNL     1      -9.643   7.279  66.390  1.00  0.00    -0.172 OA 
HETATM    8  O   UNL     1      -9.475   5.133  67.067  1.00  0.00    -0.126 OA 
ENDBRANCH   3   5
TORSDOF 1
ENDMDL
MODEL      183
REMARK 921   NORMALIZED FREE ENERGY PREDICTED BY IDOCK:   -1.40 KCAL/MOL
REMARK 922        TOTAL FREE ENERGY PREDICTED BY IDOCK:   -1.53 KCAL/MOL
REMARK 923 INTER-LIGAND FREE ENERGY PREDICTED BY IDOCK:   -1.43 KCAL/MOL
REMARK 924 INTRA-LIGAND FREE ENERGY PREDICTED BY IDOCK:   -0.09 KCAL/MOL
REMARK 927      BINDING AFFINITY PREDICTED BY RF-SCORE:    0.00 PKD
ROOT
HETATM    1  O   UNL     1     -10.653  12.741  67.156  1.00  0.00    -0.235 OA 
HETATM    2  C   UNL     1     -10.398  11.450  66.845  1.00  0.00    -0.227 C  
HETATM    3  C   UNL     1      -9.210  11.297  65.935  1.00  0.00    -0.229 C  
HETATM    4  O   UNL     1     -11.074  10.526  67.269  1.00  0.00    -0.292 OA 
ENDROOT
BRANCH   3   5
HETATM    5  C   UNL     1      -8.967   9.826  65.611  1.00  0.00    -0.199 C  
HETATM    6  C   UNL     1      -7.771   9.297  66.354  1.00  0.00    -0.093 C  
HETATM    7  O   UNL     1      -7.531   7.995  66.089  1.00  0.00    -0.073 OA 
HETATM    8  O   UNL     1      -7.078   9.952  67.117  1.00  0.00    -0.084 OA 
ENDBRANCH   3   5
TORSDOF 1
ENDMDL
MODEL      184
REMARK 921   NORMALIZED FREE ENERGY PREDICTED BY IDOCK:   -1.40 KCAL/MOL
REMARK 922        TOTAL FREE ENERGY PREDICTED BY IDOCK:   -1.52 KCAL/MOL
REMARK 923 INTER-LIGAND FREE ENERGY PREDICTED BY IDOCK:   -1.47 KCAL/MOL
REMARK 924 INTRA-LIGAND FREE ENERGY PREDICTED BY IDOCK:   -0.05 KCAL/MOL
REMARK 927      BINDING AFFINITY PREDICTED BY RF-SCORE:    0.00 PKD
ROOT
HETATM    1  O   UNL     1      -8.352   5.496  68.589  1.00  0.00    -0.101 OA 
HETATM    2  C   UNL     1      -9.363   6.385  68.471  1.00  0.00    -0.122 C  
HETATM    3  C   UNL     1      -9.723   7.031  69.780  1.00  0.00    -0.168 C  
HETATM    4  O   UNL     1      -9.911   6.619  67.405  1.00  0.00    -0.122 OA 
ENDROOT
BRANCH   3   5
HETATM    5  C   UNL     1     -10.869   8.021  69.595  1.00  0.00    -0.172 C  
HETATM    6  C   UNL     1     -10.693   9.227  70.475  1.00  0.00    -0.257 C  
HETATM    7  O   UNL     1     -11.693  10.124  70.331  1.00  0.00    -0.271 OA 
HETATM    8  O   UNL     1      -9.759   9.401  71.242  1.00  0.00    -0.262 OA 
ENDBRANCH   3   5
TORSDOF 1
ENDMDL
MODEL      185
REMARK 921   NORMALIZED FREE ENERGY PREDICTED BY IDOCK:   -1.40 KCAL/MOL
REMARK 922        TOTAL FREE ENERGY PREDICTED BY IDOCK:   -1.52 KCAL/MOL
REMARK 923 INTER-LIGAND FREE ENERGY PREDICTED BY IDOCK:   -1.48 KCAL/MOL
REMARK 924 INTRA-LIGAND FREE ENERGY PREDICTED BY IDOCK:   -0.04 KCAL/MOL
REMARK 927      BINDING AFFINITY PREDICTED BY RF-SCORE:    0.00 PKD
ROOT
HETATM    1  O   UNL     1     -11.159   6.424  67.091  1.00  0.00    -0.377 OA 
HETATM    2  C   UNL     1     -10.372   5.353  66.849  1.00  0.00    -0.260 C  
HETATM    3  C   UNL     1     -10.622   4.744  65.496  1.00  0.00    -0.169 C  
HETATM    4  O   UNL     1      -9.554   4.941  67.657  1.00  0.00    -0.137 OA 
ENDROOT
BRANCH   3   5
HETATM    5  C   UNL     1      -9.715   3.539  65.273  1.00  0.00    -0.111 C  
HETATM    6  C   UNL     1     -10.243   2.657  64.175  1.00  0.00    -0.022 C  
HETATM    7  O   UNL     1      -9.458   1.580  63.953  1.00  0.00    -0.111 OA 
HETATM    8  O   UNL     1     -11.265   2.868  63.541  1.00  0.00    -0.294 OA 
ENDBRANCH   3   5
TORSDOF 1
ENDMDL
MODEL      186
REMARK 921   NORMALIZED FREE ENERGY PREDICTED BY IDOCK:   -1.39 KCAL/MOL
REMARK 922        TOTAL FREE ENERGY PREDICTED BY IDOCK:   -1.52 KCAL/MOL
REMARK 923 INTER-LIGAND FREE ENERGY PREDICTED BY IDOCK:   -1.43 KCAL/MOL
REMARK 924 INTRA-LIGAND FREE ENERGY PREDICTED BY IDOCK:   -0.09 KCAL/MOL
REMARK 927      BINDING AFFINITY PREDICTED BY RF-SCORE:    0.00 PKD
ROOT
HETATM    1  O   UNL     1      -9.310  12.352  66.146  1.00  0.00    -0.225 OA 
HETATM    2  C   UNL     1      -9.649  11.533  67.166  1.00  0.00    -0.177 C  
HETATM    3  C   UNL     1      -8.650  10.428  67.378  1.00  0.00    -0.125 C  
HETATM    4  O   UNL     1     -10.662  11.693  67.829  1.00  0.00    -0.190 OA 
ENDROOT
BRANCH   3   5
HETATM    5  C   UNL     1      -9.078   9.531  68.535  1.00  0.00    -0.131 C  
HETATM    6  C   UNL     1      -9.801   8.309  68.037  1.00  0.00    -0.169 C  
HETATM    7  O   UNL     1     -10.191   7.493  69.040  1.00  0.00    -0.194 OA 
HETATM    8  O   UNL     1     -10.022   8.060  66.862  1.00  0.00    -0.217 OA 
ENDBRANCH   3   5
TORSDOF 1
ENDMDL
MODEL      187
REMARK 921   NORMALIZED FREE ENERGY PREDICTED BY IDOCK:   -1.39 KCAL/MOL
REMARK 922        TOTAL FREE ENERGY PREDICTED BY IDOCK:   -1.52 KCAL/MOL
REMARK 923 INTER-LIGAND FREE ENERGY PREDICTED BY IDOCK:   -1.44 KCAL/MOL
REMARK 924 INTRA-LIGAND FREE ENERGY PREDICTED BY IDOCK:   -0.07 KCAL/MOL
REMARK 927      BINDING AFFINITY PREDICTED BY RF-SCORE:    0.00 PKD
ROOT
HETATM    1  O   UNL     1     -10.443   6.230  68.068  1.00  0.00    -0.172 OA 
HETATM    2  C   UNL     1     -10.342   7.533  68.411  1.00  0.00    -0.195 C  
HETATM    3  C   UNL     1      -9.615   8.350  67.377  1.00  0.00    -0.202 C  
HETATM    4  O   UNL     1     -10.798   7.976  69.453  1.00  0.00    -0.199 OA 
ENDROOT
BRANCH   3   5
HETATM    5  C   UNL     1      -9.524   9.809  67.811  1.00  0.00    -0.152 C  
HETATM    6  C   UNL     1     -10.173  10.717  66.803  1.00  0.00    -0.230 C  
HETATM    7  O   UNL     1     -10.110  12.018  67.162  1.00  0.00    -0.200 OA 
HETATM    8  O   UNL     1     -10.704  10.345  65.769  1.00  0.00    -0.093 OA 
ENDBRANCH   3   5
TORSDOF 1
ENDMDL
MODEL      188
REMARK 921   NORMALIZED FREE ENERGY PREDICTED BY IDOCK:   -1.38 KCAL/MOL
REMARK 922        TOTAL FREE ENERGY PREDICTED BY IDOCK:   -1.50 KCAL/MOL
REMARK 923 INTER-LIGAND FREE ENERGY PREDICTED BY IDOCK:   -1.47 KCAL/MOL
REMARK 924 INTRA-LIGAND FREE ENERGY PREDICTED BY IDOCK:   -0.03 KCAL/MOL
REMARK 927      BINDING AFFINITY PREDICTED BY RF-SCORE:    0.00 PKD
ROOT
HETATM    1  O   UNL     1     -10.783   5.481  69.348  1.00  0.00    -0.295 OA 
HETATM    2  C   UNL     1     -10.204   6.328  70.228  1.00  0.00    -0.196 C  
HETATM    3  C   UNL     1      -9.159   7.202  69.590  1.00  0.00    -0.140 C  
HETATM    4  O   UNL     1     -10.512   6.360  71.409  1.00  0.00    -0.210 OA 
ENDROOT
BRANCH   3   5
HETATM    5  C   UNL     1      -8.534   8.135  70.622  1.00  0.00    -0.128 C  
HETATM    6  C   UNL     1      -7.697   9.195  69.960  1.00  0.00    -0.088 C  
HETATM    7  O   UNL     1      -7.132  10.038  70.851  1.00  0.00    -0.337 OA 
HETATM    8  O   UNL     1      -7.532   9.303  68.755  1.00  0.00    -0.074 OA 
ENDBRANCH   3   5
TORSDOF 1
ENDMDL
MODEL      189
REMARK 921   NORMALIZED FREE ENERGY PREDICTED BY IDOCK:   -1.37 KCAL/MOL
REMARK 922        TOTAL FREE ENERGY PREDICTED BY IDOCK:   -1.49 KCAL/MOL
REMARK 923 INTER-LIGAND FREE ENERGY PREDICTED BY IDOCK:   -1.41 KCAL/MOL
REMARK 924 INTRA-LIGAND FREE ENERGY PREDICTED BY IDOCK:   -0.08 KCAL/MOL
REMARK 927      BINDING AFFINITY PREDICTED BY RF-SCORE:    0.00 PKD
ROOT
HETATM    1  O   UNL     1      -8.769   8.867  68.716  1.00  0.00    -0.134 OA 
HETATM    2  C   UNL     1      -9.055  10.180  68.577  1.00  0.00    -0.134 C  
HETATM    3  C   UNL     1      -8.035  10.911  67.746  1.00  0.00    -0.111 C  
HETATM    4  O   UNL     1     -10.040  10.695  69.082  1.00  0.00    -0.206 OA 
ENDROOT
BRANCH   3   5
HETATM    5  C   UNL     1      -8.401  12.387  67.622  1.00  0.00    -0.169 C  
HETATM    6  C   UNL     1      -9.162  12.653  66.353  1.00  0.00    -0.160 C  
HETATM    7  O   UNL     1      -9.502  13.953  66.216  1.00  0.00    -0.273 OA 
HETATM    8  O   UNL     1      -9.454  11.806  65.523  1.00  0.00    -0.227 OA 
ENDBRANCH   3   5
TORSDOF 1
ENDMDL
MODEL      190
REMARK 921   NORMALIZED FREE ENERGY PREDICTED BY IDOCK:   -1.36 KCAL/MOL
REMARK 922        TOTAL FREE ENERGY PREDICTED BY IDOCK:   -1.48 KCAL/MOL
REMARK 923 INTER-LIGAND FREE ENERGY PREDICTED BY IDOCK:   -1.39 KCAL/MOL
REMARK 924 INTRA-LIGAND FREE ENERGY PREDICTED BY IDOCK:   -0.09 KCAL/MOL
REMARK 927      BINDING AFFINITY PREDICTED BY RF-SCORE:    0.00 PKD
ROOT
HETATM    1  O   UNL     1     -10.166  11.811  66.945  1.00  0.00    -0.205 OA 
HETATM    2  C   UNL     1      -9.751  10.551  66.686  1.00  0.00    -0.189 C  
HETATM    3  C   UNL     1      -8.509  10.512  65.839  1.00  0.00    -0.164 C  
HETATM    4  O   UNL     1     -10.339   9.567  67.106  1.00  0.00    -0.229 OA 
ENDROOT
BRANCH   3   5
HETATM    5  C   UNL     1      -8.084   9.071  65.573  1.00  0.00    -0.110 C  
HETATM    6  C   UNL     1      -8.264   8.711  64.124  1.00  0.00    -0.155 C  
HETATM    7  O   UNL     1      -7.893   7.439  63.857  1.00  0.00    -0.126 OA 
HETATM    8  O   UNL     1      -8.693   9.465  63.265  1.00  0.00    -0.213 OA 
ENDBRANCH   3   5
TORSDOF 1
ENDMDL
MODEL      191
REMARK 921   NORMALIZED FREE ENERGY PREDICTED BY IDOCK:   -1.36 KCAL/MOL
REMARK 922        TOTAL FREE ENERGY PREDICTED BY IDOCK:   -1.48 KCAL/MOL
REMARK 923 INTER-LIGAND FREE ENERGY PREDICTED BY IDOCK:   -1.38 KCAL/MOL
REMARK 924 INTRA-LIGAND FREE ENERGY PREDICTED BY IDOCK:   -0.10 KCAL/MOL
REMARK 927      BINDING AFFINITY PREDICTED BY RF-SCORE:    0.00 PKD
ROOT
HETATM    1  O   UNL     1      -9.804   8.923  67.823  1.00  0.00    -0.152 OA 
HETATM    2  C   UNL     1     -10.157   7.620  67.769  1.00  0.00    -0.186 C  
HETATM    3  C   UNL     1      -9.341   6.760  68.696  1.00  0.00    -0.131 C  
HETATM    4  O   UNL     1     -11.044   7.209  67.038  1.00  0.00    -0.345 OA 
ENDROOT
BRANCH   3   5
HETATM    5  C   UNL     1      -9.774   5.300  68.595  1.00  0.00    -0.199 C  
HETATM    6  C   UNL     1      -8.830   4.512  67.730  1.00  0.00    -0.107 C  
HETATM    7  O   UNL     1      -9.187   3.213  67.624  1.00  0.00    -0.163 OA 
HETATM    8  O   UNL     1      -7.844   4.971  67.174  1.00  0.00    -0.095 OA 
ENDBRANCH   3   5
TORSDOF 1
ENDMDL
MODEL      192
REMARK 921   NORMALIZED FREE ENERGY PREDICTED BY IDOCK:   -1.35 KCAL/MOL
REMARK 922        TOTAL FREE ENERGY PREDICTED BY IDOCK:   -1.47 KCAL/MOL
REMARK 923 INTER-LIGAND FREE ENERGY PREDICTED BY IDOCK:   -1.38 KCAL/MOL
REMARK 924 INTRA-LIGAND FREE ENERGY PREDICTED BY IDOCK:   -0.09 KCAL/MOL
REMARK 927      BINDING AFFINITY PREDICTED BY RF-SCORE:    0.00 PKD
ROOT
HETATM    1  O   UNL     1      -9.926   5.097  72.470  1.00  0.00    -0.163 OA 
HETATM    2  C   UNL     1      -9.212   6.237  72.334  1.00  0.00    -0.138 C  
HETATM    3  C   UNL     1      -9.103   7.010  73.619  1.00  0.00    -0.198 C  
HETATM    4  O   UNL     1      -8.721   6.581  71.270  1.00  0.00    -0.130 OA 
ENDROOT
BRANCH   3   5
HETATM    5  C   UNL     1      -8.294   8.286  73.413  1.00  0.00    -0.252 C  
HETATM    6  C   UNL     1      -6.860   8.094  73.824  1.00  0.00    -0.127 C  
HETATM    7  O   UNL     1      -6.117   9.208  73.650  1.00  0.00    -0.298 OA 
HETATM    8  O   UNL     1      -6.395   7.056  74.268  1.00  0.00    -0.077 OA 
ENDBRANCH   3   5
TORSDOF 1
ENDMDL
MODEL      193
REMARK 921   NORMALIZED FREE ENERGY PREDICTED BY IDOCK:   -1.35 KCAL/MOL
REMARK 922        TOTAL FREE ENERGY PREDICTED BY IDOCK:   -1.46 KCAL/MOL
REMARK 923 INTER-LIGAND FREE ENERGY PREDICTED BY IDOCK:   -1.37 KCAL/MOL
REMARK 924 INTRA-LIGAND FREE ENERGY PREDICTED BY IDOCK:   -0.09 KCAL/MOL
REMARK 927      BINDING AFFINITY PREDICTED BY RF-SCORE:    0.00 PKD
ROOT
HETATM    1  O   UNL     1      -7.419   7.628  65.020  1.00  0.00    -0.079 OA 
HETATM    2  C   UNL     1      -7.978   8.843  65.213  1.00  0.00    -0.116 C  
HETATM    3  C   UNL     1      -9.443   8.760  65.548  1.00  0.00    -0.096 C  
HETATM    4  O   UNL     1      -7.343   9.881  65.118  1.00  0.00    -0.120 OA 
ENDROOT
BRANCH   3   5
HETATM    5  C   UNL     1     -10.027  10.154  65.751  1.00  0.00    -0.339 C  
HETATM    6  C   UNL     1     -10.326  10.411  67.203  1.00  0.00    -0.238 C  
HETATM    7  O   UNL     1     -10.843  11.641  67.415  1.00  0.00    -0.224 OA 
HETATM    8  O   UNL     1     -10.130   9.615  68.108  1.00  0.00    -0.161 OA 
ENDBRANCH   3   5
TORSDOF 1
ENDMDL
MODEL      194
REMARK 921   NORMALIZED FREE ENERGY PREDICTED BY IDOCK:   -1.32 KCAL/MOL
REMARK 922        TOTAL FREE ENERGY PREDICTED BY IDOCK:   -1.44 KCAL/MOL
REMARK 923 INTER-LIGAND FREE ENERGY PREDICTED BY IDOCK:   -1.35 KCAL/MOL
REMARK 924 INTRA-LIGAND FREE ENERGY PREDICTED BY IDOCK:   -0.10 KCAL/MOL
REMARK 927      BINDING AFFINITY PREDICTED BY RF-SCORE:    0.00 PKD
ROOT
HETATM    1  O   UNL     1     -11.257   4.202  64.571  1.00  0.00    -0.328 OA 
HETATM    2  C   UNL     1     -10.041   4.035  65.137  1.00  0.00    -0.182 C  
HETATM    3  C   UNL     1      -9.943   4.673  66.496  1.00  0.00    -0.265 C  
HETATM    4  O   UNL     1      -9.136   3.429  64.585  1.00  0.00    -0.122 OA 
ENDROOT
BRANCH   3   5
HETATM    5  C   UNL     1      -8.554   4.460  67.091  1.00  0.00    -0.104 C  
HETATM    6  C   UNL     1      -8.550   3.313  68.064  1.00  0.00    -0.096 C  
HETATM    7  O   UNL     1      -7.331   3.098  68.606  1.00  0.00    -0.049 OA 
HETATM    8  O   UNL     1      -9.525   2.635  68.348  1.00  0.00    -0.201 OA 
ENDBRANCH   3   5
TORSDOF 1
ENDMDL
MODEL      195
REMARK 921   NORMALIZED FREE ENERGY PREDICTED BY IDOCK:   -1.32 KCAL/MOL
REMARK 922        TOTAL FREE ENERGY PREDICTED BY IDOCK:   -1.44 KCAL/MOL
REMARK 923 INTER-LIGAND FREE ENERGY PREDICTED BY IDOCK:   -1.34 KCAL/MOL
REMARK 924 INTRA-LIGAND FREE ENERGY PREDICTED BY IDOCK:   -0.10 KCAL/MOL
REMARK 927      BINDING AFFINITY PREDICTED BY RF-SCORE:    0.00 PKD
ROOT
HETATM    1  O   UNL     1      -8.314   7.227  73.855  1.00  0.00    -0.129 OA 
HETATM    2  C   UNL     1      -8.427   7.460  72.529  1.00  0.00    -0.109 C  
HETATM    3  C   UNL     1      -9.779   7.084  71.987  1.00  0.00    -0.166 C  
HETATM    4  O   UNL     1      -7.514   7.926  71.863  1.00  0.00    -0.069 OA 
ENDROOT
BRANCH   3   5
HETATM    5  C   UNL     1      -9.854   7.362  70.489  1.00  0.00    -0.180 C  
HETATM    6  C   UNL     1     -10.648   8.608  70.207  1.00  0.00    -0.223 C  
HETATM    7  O   UNL     1     -10.731   8.882  68.887  1.00  0.00    -0.197 OA 
HETATM    8  O   UNL     1     -11.169   9.311  71.059  1.00  0.00    -0.268 OA 
ENDBRANCH   3   5
TORSDOF 1
ENDMDL
MODEL      196
REMARK 921   NORMALIZED FREE ENERGY PREDICTED BY IDOCK:   -1.31 KCAL/MOL
REMARK 922        TOTAL FREE ENERGY PREDICTED BY IDOCK:   -1.43 KCAL/MOL
REMARK 923 INTER-LIGAND FREE ENERGY PREDICTED BY IDOCK:   -1.34 KCAL/MOL
REMARK 924 INTRA-LIGAND FREE ENERGY PREDICTED BY IDOCK:   -0.10 KCAL/MOL
REMARK 927      BINDING AFFINITY PREDICTED BY RF-SCORE:    0.00 PKD
ROOT
HETATM    1  O   UNL     1     -11.229   6.130  67.564  1.00  0.00    -0.292 OA 
HETATM    2  C   UNL     1     -10.567   7.304  67.669  1.00  0.00    -0.246 C  
HETATM    3  C   UNL     1      -9.607   7.326  68.827  1.00  0.00    -0.142 C  
HETATM    4  O   UNL     1     -10.748   8.232  66.897  1.00  0.00    -0.299 OA 
ENDROOT
BRANCH   3   5
HETATM    5  C   UNL     1      -8.889   8.669  68.905  1.00  0.00    -0.138 C  
HETATM    6  C   UNL     1      -7.472   8.558  68.414  1.00  0.00    -0.095 C  
HETATM    7  O   UNL     1      -6.811   9.735  68.469  1.00  0.00    -0.056 OA 
HETATM    8  O   UNL     1      -6.954   7.531  68.004  1.00  0.00    -0.068 OA 
ENDBRANCH   3   5
TORSDOF 1
ENDMDL
MODEL      197
REMARK 921   NORMALIZED FREE ENERGY PREDICTED BY IDOCK:   -1.31 KCAL/MOL
REMARK 922        TOTAL FREE ENERGY PREDICTED BY IDOCK:   -1.43 KCAL/MOL
REMARK 923 INTER-LIGAND FREE ENERGY PREDICTED BY IDOCK:   -1.39 KCAL/MOL
REMARK 924 INTRA-LIGAND FREE ENERGY PREDICTED BY IDOCK:   -0.04 KCAL/MOL
REMARK 927      BINDING AFFINITY PREDICTED BY RF-SCORE:    0.00 PKD
ROOT
HETATM    1  O   UNL     1      -9.759   6.173  72.923  1.00  0.00    -0.158 OA 
HETATM    2  C   UNL     1      -9.963   7.254  72.138  1.00  0.00    -0.165 C  
HETATM    3  C   UNL     1      -9.679   6.979  70.686  1.00  0.00    -0.174 C  
HETATM    4  O   UNL     1     -10.336   8.329  72.582  1.00  0.00    -0.313 OA 
ENDROOT
BRANCH   3   5
HETATM    5  C   UNL     1      -9.920   8.228  69.844  1.00  0.00    -0.190 C  
HETATM    6  C   UNL     1      -9.148   8.171  68.555  1.00  0.00    -0.136 C  
HETATM    7  O   UNL     1      -9.343   9.264  67.786  1.00  0.00    -0.129 OA 
HETATM    8  O   UNL     1      -8.420   7.250  68.217  1.00  0.00    -0.124 OA 
ENDBRANCH   3   5
TORSDOF 1
ENDMDL
MODEL      198
REMARK 921   NORMALIZED FREE ENERGY PREDICTED BY IDOCK:   -1.31 KCAL/MOL
REMARK 922        TOTAL FREE ENERGY PREDICTED BY IDOCK:   -1.42 KCAL/MOL
REMARK 923 INTER-LIGAND FREE ENERGY PREDICTED BY IDOCK:   -1.33 KCAL/MOL
REMARK 924 INTRA-LIGAND FREE ENERGY PREDICTED BY IDOCK:   -0.10 KCAL/MOL
REMARK 927      BINDING AFFINITY PREDICTED BY RF-SCORE:    0.00 PKD
ROOT
HETATM    1  O   UNL     1      -6.184   4.978  64.868  1.00  0.00    -0.031 OA 
HETATM    2  C   UNL     1      -7.140   5.774  65.394  1.00  0.00    -0.069 C  
HETATM    3  C   UNL     1      -7.850   5.137  66.557  1.00  0.00    -0.103 C  
HETATM    4  O   UNL     1      -7.384   6.887  64.954  1.00  0.00    -0.077 OA 
ENDROOT
BRANCH   3   5
HETATM    5  C   UNL     1      -8.920   6.073  67.112  1.00  0.00    -0.114 C  
HETATM    6  C   UNL     1     -10.292   5.664  66.649  1.00  0.00    -0.256 C  
HETATM    7  O   UNL     1     -11.262   6.474  67.126  1.00  0.00    -0.388 OA 
HETATM    8  O   UNL     1     -10.528   4.711  65.923  1.00  0.00    -0.287 OA 
ENDBRANCH   3   5
TORSDOF 1
ENDMDL
MODEL      199
REMARK 921   NORMALIZED FREE ENERGY PREDICTED BY IDOCK:   -1.28 KCAL/MOL
REMARK 922        TOTAL FREE ENERGY PREDICTED BY IDOCK:   -1.39 KCAL/MOL
REMARK 923 INTER-LIGAND FREE ENERGY PREDICTED BY IDOCK:   -1.35 KCAL/MOL
REMARK 924 INTRA-LIGAND FREE ENERGY PREDICTED BY IDOCK:   -0.04 KCAL/MOL
REMARK 927      BINDING AFFINITY PREDICTED BY RF-SCORE:    0.00 PKD
ROOT
HETATM    1  O   UNL     1     -10.084   3.753  71.456  1.00  0.00    -0.157 OA 
HETATM    2  C   UNL     1     -10.170   4.906  70.756  1.00  0.00    -0.206 C  
HETATM    3  C   UNL     1      -9.974   6.123  71.618  1.00  0.00    -0.203 C  
HETATM    4  O   UNL     1     -10.386   4.931  69.554  1.00  0.00    -0.224 OA 
ENDROOT
BRANCH   3   5
HETATM    5  C   UNL     1     -10.083   7.396  70.784  1.00  0.00    -0.190 C  
HETATM    6  C   UNL     1      -8.739   7.817  70.256  1.00  0.00    -0.143 C  
HETATM    7  O   UNL     1      -8.805   8.942  69.510  1.00  0.00    -0.138 OA 
HETATM    8  O   UNL     1      -7.692   7.225  70.462  1.00  0.00    -0.090 OA 
ENDBRANCH   3   5
TORSDOF 1
ENDMDL
MODEL      200
REMARK 921   NORMALIZED FREE ENERGY PREDICTED BY IDOCK:   -1.27 KCAL/MOL
REMARK 922        TOTAL FREE ENERGY PREDICTED BY IDOCK:   -1.38 KCAL/MOL
REMARK 923 INTER-LIGAND FREE ENERGY PREDICTED BY IDOCK:   -1.29 KCAL/MOL
REMARK 924 INTRA-LIGAND FREE ENERGY PREDICTED BY IDOCK:   -0.10 KCAL/MOL
REMARK 927      BINDING AFFINITY PREDICTED BY RF-SCORE:    0.00 PKD
ROOT
HETATM    1  O   UNL     1      -9.842   2.911  70.795  1.00  0.00    -0.118 OA 
HETATM    2  C   UNL     1      -9.652   3.530  69.609  1.00  0.00    -0.114 C  
HETATM    3  C   UNL     1      -9.362   4.999  69.761  1.00  0.00    -0.191 C  
HETATM    4  O   UNL     1      -9.715   2.940  68.542  1.00  0.00    -0.103 OA 
ENDROOT
BRANCH   3   5
HETATM    5  C   UNL     1      -9.159   5.651  68.397  1.00  0.00    -0.121 C  
HETATM    6  C   UNL     1     -10.405   6.361  67.944  1.00  0.00    -0.190 C  
HETATM    7  O   UNL     1     -10.254   6.952  66.738  1.00  0.00    -0.219 OA 
HETATM    8  O   UNL     1     -11.448   6.414  68.577  1.00  0.00    -0.228 OA 
ENDBRANCH   3   5
TORSDOF 1
ENDMDL
MODEL      201
REMARK 921   NORMALIZED FREE ENERGY PREDICTED BY IDOCK:   -1.25 KCAL/MOL
REMARK 922        TOTAL FREE ENERGY PREDICTED BY IDOCK:   -1.37 KCAL/MOL
REMARK 923 INTER-LIGAND FREE ENERGY PREDICTED BY IDOCK:   -1.29 KCAL/MOL
REMARK 924 INTRA-LIGAND FREE ENERGY PREDICTED BY IDOCK:   -0.07 KCAL/MOL
REMARK 927      BINDING AFFINITY PREDICTED BY RF-SCORE:    0.00 PKD
ROOT
HETATM    1  O   UNL     1     -11.660   1.930  73.131  1.00  0.00    -0.124 OA 
HETATM    2  C   UNL     1     -10.591   2.756  73.080  1.00  0.00    -0.162 C  
HETATM    3  C   UNL     1     -10.222   3.312  74.429  1.00  0.00    -0.220 C  
HETATM    4  O   UNL     1     -10.005   3.009  72.039  1.00  0.00    -0.165 OA 
ENDROOT
BRANCH   3   5
HETATM    5  C   UNL     1      -9.015   4.238  74.317  1.00  0.00    -0.102 C  
HETATM    6  C   UNL     1      -9.443   5.672  74.173  1.00  0.00    -0.142 C  
HETATM    7  O   UNL     1      -8.394   6.518  74.074  1.00  0.00    -0.117 OA 
HETATM    8  O   UNL     1     -10.602   6.056  74.146  1.00  0.00    -0.260 OA 
ENDBRANCH   3   5
TORSDOF 1
ENDMDL
MODEL      202
REMARK 921   NORMALIZED FREE ENERGY PREDICTED BY IDOCK:   -1.24 KCAL/MOL
REMARK 922        TOTAL FREE ENERGY PREDICTED BY IDOCK:   -1.35 KCAL/MOL
REMARK 923 INTER-LIGAND FREE ENERGY PREDICTED BY IDOCK:   -1.28 KCAL/MOL
REMARK 924 INTRA-LIGAND FREE ENERGY PREDICTED BY IDOCK:   -0.07 KCAL/MOL
REMARK 927      BINDING AFFINITY PREDICTED BY RF-SCORE:    0.00 PKD
ROOT
HETATM    1  O   UNL     1     -11.303   4.183  64.559  1.00  0.00    -0.301 OA 
HETATM    2  C   UNL     1     -10.113   4.083  65.191  1.00  0.00    -0.182 C  
HETATM    3  C   UNL     1     -10.116   4.746  66.541  1.00  0.00    -0.286 C  
HETATM    4  O   UNL     1      -9.152   3.512  64.698  1.00  0.00    -0.121 OA 
ENDROOT
BRANCH   3   5
HETATM    5  C   UNL     1      -8.753   4.609  67.211  1.00  0.00    -0.104 C  
HETATM    6  C   UNL     1      -8.155   5.957  67.508  1.00  0.00    -0.102 C  
HETATM    7  O   UNL     1      -6.946   5.868  68.105  1.00  0.00    -0.065 OA 
HETATM    8  O   UNL     1      -8.684   7.027  67.250  1.00  0.00    -0.119 OA 
ENDBRANCH   3   5
TORSDOF 1
ENDMDL
MODEL      203
REMARK 921   NORMALIZED FREE ENERGY PREDICTED BY IDOCK:   -1.24 KCAL/MOL
REMARK 922        TOTAL FREE ENERGY PREDICTED BY IDOCK:   -1.35 KCAL/MOL
REMARK 923 INTER-LIGAND FREE ENERGY PREDICTED BY IDOCK:   -1.27 KCAL/MOL
REMARK 924 INTRA-LIGAND FREE ENERGY PREDICTED BY IDOCK:   -0.08 KCAL/MOL
REMARK 927      BINDING AFFINITY PREDICTED BY RF-SCORE:    0.00 PKD
ROOT
HETATM    1  O   UNL     1      -9.034   8.295  67.406  1.00  0.00    -0.132 OA 
HETATM    2  C   UNL     1      -9.559   7.473  68.342  1.00  0.00    -0.150 C  
HETATM    3  C   UNL     1      -8.613   7.214  69.482  1.00  0.00    -0.134 C  
HETATM    4  O   UNL     1     -10.683   7.004  68.249  1.00  0.00    -0.208 OA 
ENDROOT
BRANCH   3   5
HETATM    5  C   UNL     1      -9.250   6.281  70.508  1.00  0.00    -0.164 C  
HETATM    6  C   UNL     1      -9.471   6.985  71.818  1.00  0.00    -0.152 C  
HETATM    7  O   UNL     1     -10.036   6.183  72.747  1.00  0.00    -0.175 OA 
HETATM    8  O   UNL     1      -9.182   8.149  72.043  1.00  0.00    -0.153 OA 
ENDBRANCH   3   5
TORSDOF 1
ENDMDL
MODEL      204
REMARK 921   NORMALIZED FREE ENERGY PREDICTED BY IDOCK:   -1.24 KCAL/MOL
REMARK 922        TOTAL FREE ENERGY PREDICTED BY IDOCK:   -1.35 KCAL/MOL
REMARK 923 INTER-LIGAND FREE ENERGY PREDICTED BY IDOCK:   -1.26 KCAL/MOL
REMARK 924 INTRA-LIGAND FREE ENERGY PREDICTED BY IDOCK:   -0.09 KCAL/MOL
REMARK 927      BINDING AFFINITY PREDICTED BY RF-SCORE:    0.00 PKD
ROOT
HETATM    1  O   UNL     1      -8.850  10.241  65.475  1.00  0.00    -0.157 OA 
HETATM    2  C   UNL     1      -9.205   8.980  65.808  1.00  0.00    -0.232 C  
HETATM    3  C   UNL     1      -8.189   7.959  65.375  1.00  0.00    -0.139 C  
HETATM    4  O   UNL     1     -10.244   8.723  66.396  1.00  0.00    -0.289 OA 
ENDROOT
BRANCH   3   5
HETATM    5  C   UNL     1      -8.635   6.555  65.770  1.00  0.00    -0.149 C  
HETATM    6  C   UNL     1      -7.994   6.124  67.060  1.00  0.00    -0.102 C  
HETATM    7  O   UNL     1      -8.374   4.883  67.437  1.00  0.00    -0.106 OA 
HETATM    8  O   UNL     1      -7.216   6.800  67.714  1.00  0.00    -0.085 OA 
ENDBRANCH   3   5
TORSDOF 1
ENDMDL
MODEL      205
REMARK 921   NORMALIZED FREE ENERGY PREDICTED BY IDOCK:   -1.20 KCAL/MOL
REMARK 922        TOTAL FREE ENERGY PREDICTED BY IDOCK:   -1.31 KCAL/MOL
REMARK 923 INTER-LIGAND FREE ENERGY PREDICTED BY IDOCK:   -1.22 KCAL/MOL
REMARK 924 INTRA-LIGAND FREE ENERGY PREDICTED BY IDOCK:   -0.09 KCAL/MOL
REMARK 927      BINDING AFFINITY PREDICTED BY RF-SCORE:    0.00 PKD
ROOT
HETATM    1  O   UNL     1      -7.726   5.362  64.505  1.00  0.00    -0.084 OA 
HETATM    2  C   UNL     1      -8.469   6.279  65.162  1.00  0.00    -0.084 C  
HETATM    3  C   UNL     1      -9.475   5.653  66.089  1.00  0.00    -0.157 C  
HETATM    4  O   UNL     1      -8.323   7.481  65.002  1.00  0.00    -0.131 OA 
ENDROOT
BRANCH   3   5
HETATM    5  C   UNL     1     -10.290   6.727  66.803  1.00  0.00    -0.286 C  
HETATM    6  C   UNL     1      -9.928   6.805  68.261  1.00  0.00    -0.146 C  
HETATM    7  O   UNL     1     -10.633   7.751  68.919  1.00  0.00    -0.210 OA 
HETATM    8  O   UNL     1      -9.094   6.104  68.811  1.00  0.00    -0.126 OA 
ENDBRANCH   3   5
TORSDOF 1
ENDMDL
MODEL      206
REMARK 921   NORMALIZED FREE ENERGY PREDICTED BY IDOCK:   -1.17 KCAL/MOL
REMARK 922        TOTAL FREE ENERGY PREDICTED BY IDOCK:   -1.28 KCAL/MOL
REMARK 923 INTER-LIGAND FREE ENERGY PREDICTED BY IDOCK:   -1.25 KCAL/MOL
REMARK 924 INTRA-LIGAND FREE ENERGY PREDICTED BY IDOCK:   -0.03 KCAL/MOL
REMARK 927      BINDING AFFINITY PREDICTED BY RF-SCORE:    0.00 PKD
ROOT
HETATM    1  O   UNL     1      -8.327   4.175  68.403  1.00  0.00    -0.089 OA 
HETATM    2  C   UNL     1      -9.292   4.452  67.498  1.00  0.00    -0.154 C  
HETATM    3  C   UNL     1      -8.999   3.872  66.141  1.00  0.00    -0.130 C  
HETATM    4  O   UNL     1     -10.285   5.107  67.776  1.00  0.00    -0.172 OA 
ENDROOT
BRANCH   3   5
HETATM    5  C   UNL     1     -10.112   4.216  65.157  1.00  0.00    -0.219 C  
HETATM    6  C   UNL     1      -9.930   3.486  63.855  1.00  0.00    -0.183 C  
HETATM    7  O   UNL     1     -10.905   3.769  62.962  1.00  0.00    -0.205 OA 
HETATM    8  O   UNL     1      -9.014   2.718  63.607  1.00  0.00    -0.095 OA 
ENDBRANCH   3   5
TORSDOF 1
ENDMDL
MODEL      207
REMARK 921   NORMALIZED FREE ENERGY PREDICTED BY IDOCK:   -1.15 KCAL/MOL
REMARK 922        TOTAL FREE ENERGY PREDICTED BY IDOCK:   -1.26 KCAL/MOL
REMARK 923 INTER-LIGAND FREE ENERGY PREDICTED BY IDOCK:   -1.17 KCAL/MOL
REMARK 924 INTRA-LIGAND FREE ENERGY PREDICTED BY IDOCK:   -0.09 KCAL/MOL
REMARK 927      BINDING AFFINITY PREDICTED BY RF-SCORE:    0.00 PKD
ROOT
HETATM    1  O   UNL     1     -11.138  10.065  68.660  1.00  0.00    -0.228 OA 
HETATM    2  C   UNL     1     -10.494   8.877  68.636  1.00  0.00    -0.193 C  
HETATM    3  C   UNL     1      -9.743   8.599  69.910  1.00  0.00    -0.175 C  
HETATM    4  O   UNL     1     -10.531   8.129  67.672  1.00  0.00    -0.234 OA 
ENDROOT
BRANCH   3   5
HETATM    5  C   UNL     1      -9.032   7.252  69.831  1.00  0.00    -0.142 C  
HETATM    6  C   UNL     1      -7.541   7.429  69.745  1.00  0.00    -0.095 C  
HETATM    7  O   UNL     1      -6.882   6.251  69.677  1.00  0.00    -0.060 OA 
HETATM    8  O   UNL     1      -6.965   8.506  69.737  1.00  0.00    -0.046 OA 
ENDBRANCH   3   5
TORSDOF 1
ENDMDL
MODEL      208
REMARK 921   NORMALIZED FREE ENERGY PREDICTED BY IDOCK:   -1.13 KCAL/MOL
REMARK 922        TOTAL FREE ENERGY PREDICTED BY IDOCK:   -1.24 KCAL/MOL
REMARK 923 INTER-LIGAND FREE ENERGY PREDICTED BY IDOCK:   -1.19 KCAL/MOL
REMARK 924 INTRA-LIGAND FREE ENERGY PREDICTED BY IDOCK:   -0.05 KCAL/MOL
REMARK 927      BINDING AFFINITY PREDICTED BY RF-SCORE:    0.00 PKD
ROOT
HETATM    1  O   UNL     1      -8.203   4.783  67.942  1.00  0.00    -0.096 OA 
HETATM    2  C   UNL     1      -8.103   5.969  68.582  1.00  0.00    -0.107 C  
HETATM    3  C   UNL     1      -9.414   6.703  68.650  1.00  0.00    -0.128 C  
HETATM    4  O   UNL     1      -7.051   6.379  69.046  1.00  0.00    -0.076 OA 
ENDROOT
BRANCH   3   5
HETATM    5  C   UNL     1      -9.249   8.034  69.377  1.00  0.00    -0.152 C  
HETATM    6  C   UNL     1     -10.064   9.115  68.723  1.00  0.00    -0.197 C  
HETATM    7  O   UNL     1      -9.939  10.307  69.347  1.00  0.00    -0.214 OA 
HETATM    8  O   UNL     1     -10.769   8.959  67.738  1.00  0.00    -0.223 OA 
ENDBRANCH   3   5
TORSDOF 1
ENDMDL
MODEL      209
REMARK 921   NORMALIZED FREE ENERGY PREDICTED BY IDOCK:   -1.07 KCAL/MOL
REMARK 922        TOTAL FREE ENERGY PREDICTED BY IDOCK:   -1.18 KCAL/MOL
REMARK 923 INTER-LIGAND FREE ENERGY PREDICTED BY IDOCK:   -1.08 KCAL/MOL
REMARK 924 INTRA-LIGAND FREE ENERGY PREDICTED BY IDOCK:   -0.10 KCAL/MOL
REMARK 927      BINDING AFFINITY PREDICTED BY RF-SCORE:    0.00 PKD
ROOT
HETATM    1  O   UNL     1      -9.056  11.672  65.279  1.00  0.00    -0.103 OA 
HETATM    2  C   UNL     1      -9.122  10.347  65.022  1.00  0.00    -0.203 C  
HETATM    3  C   UNL     1      -8.017   9.876  64.116  1.00  0.00    -0.150 C  
HETATM    4  O   UNL     1      -9.995   9.630  65.487  1.00  0.00    -0.311 OA 
ENDROOT
BRANCH   3   5
HETATM    5  C   UNL     1      -8.138   8.378  63.855  1.00  0.00    -0.143 C  
HETATM    6  C   UNL     1      -7.137   7.602  64.667  1.00  0.00    -0.065 C  
HETATM    7  O   UNL     1      -7.221   6.270  64.458  1.00  0.00    -0.057 OA 
HETATM    8  O   UNL     1      -6.329   8.098  65.437  1.00  0.00    -0.048 OA 
ENDBRANCH   3   5
TORSDOF 1
ENDMDL
MODEL      210
REMARK 921   NORMALIZED FREE ENERGY PREDICTED BY IDOCK:   -1.07 KCAL/MOL
REMARK 922        TOTAL FREE ENERGY PREDICTED BY IDOCK:   -1.17 KCAL/MOL
REMARK 923 INTER-LIGAND FREE ENERGY PREDICTED BY IDOCK:   -1.25 KCAL/MOL
REMARK 924 INTRA-LIGAND FREE ENERGY PREDICTED BY IDOCK:    0.08 KCAL/MOL
REMARK 927      BINDING AFFINITY PREDICTED BY RF-SCORE:    0.00 PKD
ROOT
HETATM    1  O   UNL     1      -9.603   9.634  70.459  1.00  0.00    -0.258 OA 
HETATM    2  C   UNL     1      -9.769   8.809  69.402  1.00  0.00    -0.172 C  
HETATM    3  C   UNL     1      -8.582   7.913  69.173  1.00  0.00    -0.138 C  
HETATM    4  O   UNL     1     -10.782   8.810  68.720  1.00  0.00    -0.181 OA 
ENDROOT
BRANCH   3   5
HETATM    5  C   UNL     1      -8.817   7.006  67.969  1.00  0.00    -0.124 C  
HETATM    6  C   UNL     1      -8.479   7.711  66.684  1.00  0.00    -0.130 C  
HETATM    7  O   UNL     1      -8.675   6.930  65.599  1.00  0.00    -0.145 OA 
HETATM    8  O   UNL     1      -8.071   8.858  66.604  1.00  0.00    -0.105 OA 
ENDBRANCH   3   5
TORSDOF 1
ENDMDL
MODEL      211
REMARK 921   NORMALIZED FREE ENERGY PREDICTED BY IDOCK:   -1.06 KCAL/MOL
REMARK 922        TOTAL FREE ENERGY PREDICTED BY IDOCK:   -1.17 KCAL/MOL
REMARK 923 INTER-LIGAND FREE ENERGY PREDICTED BY IDOCK:   -1.13 KCAL/MOL
REMARK 924 INTRA-LIGAND FREE ENERGY PREDICTED BY IDOCK:   -0.03 KCAL/MOL
REMARK 927      BINDING AFFINITY PREDICTED BY RF-SCORE:    0.00 PKD
ROOT
HETATM    1  O   UNL     1      -6.712   2.182  63.005  1.00  0.00    -0.024 OA 
HETATM    2  C   UNL     1      -7.094   2.967  64.036  1.00  0.00    -0.049 C  
HETATM    3  C   UNL     1      -8.573   3.245  64.037  1.00  0.00    -0.089 C  
HETATM    4  O   UNL     1      -6.305   3.394  64.865  1.00  0.00    -0.026 OA 
ENDROOT
BRANCH   3   5
HETATM    5  C   UNL     1      -8.953   4.135  65.216  1.00  0.00    -0.134 C  
HETATM    6  C   UNL     1     -10.429   4.423  65.226  1.00  0.00    -0.179 C  
HETATM    7  O   UNL     1     -10.796   5.209  66.262  1.00  0.00    -0.296 OA 
HETATM    8  O   UNL     1     -11.227   4.004  64.403  1.00  0.00    -0.338 OA 
ENDBRANCH   3   5
TORSDOF 1
ENDMDL
MODEL      212
REMARK 921   NORMALIZED FREE ENERGY PREDICTED BY IDOCK:   -1.02 KCAL/MOL
REMARK 922        TOTAL FREE ENERGY PREDICTED BY IDOCK:   -1.12 KCAL/MOL
REMARK 923 INTER-LIGAND FREE ENERGY PREDICTED BY IDOCK:   -1.02 KCAL/MOL
REMARK 924 INTRA-LIGAND FREE ENERGY PREDICTED BY IDOCK:   -0.10 KCAL/MOL
REMARK 927      BINDING AFFINITY PREDICTED BY RF-SCORE:    0.00 PKD
ROOT
HETATM    1  O   UNL     1     -10.103   9.726  65.856  1.00  0.00    -0.282 OA 
HETATM    2  C   UNL     1      -8.848   9.822  66.349  1.00  0.00    -0.146 C  
HETATM    3  C   UNL     1      -8.720  10.884  67.407  1.00  0.00    -0.130 C  
HETATM    4  O   UNL     1      -7.933   9.113  65.960  1.00  0.00    -0.101 OA 
ENDROOT
BRANCH   3   5
HETATM    5  C   UNL     1      -7.288  10.955  67.927  1.00  0.00    -0.088 C  
HETATM    6  C   UNL     1      -7.159  10.270  69.260  1.00  0.00    -0.083 C  
HETATM    7  O   UNL     1      -5.899  10.315  69.746  1.00  0.00    -0.041 OA 
HETATM    8  O   UNL     1      -8.075   9.727  69.857  1.00  0.00    -0.148 OA 
ENDBRANCH   3   5
TORSDOF 1
ENDMDL
MODEL      213
REMARK 921   NORMALIZED FREE ENERGY PREDICTED BY IDOCK:   -0.99 KCAL/MOL
REMARK 922        TOTAL FREE ENERGY PREDICTED BY IDOCK:   -1.09 KCAL/MOL
REMARK 923 INTER-LIGAND FREE ENERGY PREDICTED BY IDOCK:   -1.01 KCAL/MOL
REMARK 924 INTRA-LIGAND FREE ENERGY PREDICTED BY IDOCK:   -0.08 KCAL/MOL
REMARK 927      BINDING AFFINITY PREDICTED BY RF-SCORE:    0.00 PKD
ROOT
HETATM    1  O   UNL     1      -7.892   7.376  67.140  1.00  0.00    -0.112 OA 
HETATM    2  C   UNL     1      -8.044   6.036  67.225  1.00  0.00    -0.106 C  
HETATM    3  C   UNL     1      -7.900   5.525  68.633  1.00  0.00    -0.091 C  
HETATM    4  O   UNL     1      -8.272   5.337  66.250  1.00  0.00    -0.108 OA 
ENDROOT
BRANCH   3   5
HETATM    5  C   UNL     1      -8.076   4.010  68.675  1.00  0.00    -0.078 C  
HETATM    6  C   UNL     1      -9.310   3.628  69.445  1.00  0.00    -0.176 C  
HETATM    7  O   UNL     1      -9.494   2.291  69.498  1.00  0.00    -0.117 OA 
HETATM    8  O   UNL     1     -10.077   4.419  69.971  1.00  0.00    -0.218 OA 
ENDBRANCH   3   5
TORSDOF 1
ENDMDL
MODEL      214
REMARK 921   NORMALIZED FREE ENERGY PREDICTED BY IDOCK:   -0.94 KCAL/MOL
REMARK 922        TOTAL FREE ENERGY PREDICTED BY IDOCK:   -1.04 KCAL/MOL
REMARK 923 INTER-LIGAND FREE ENERGY PREDICTED BY IDOCK:   -1.03 KCAL/MOL
REMARK 924 INTRA-LIGAND FREE ENERGY PREDICTED BY IDOCK:   -0.00 KCAL/MOL
REMARK 927      BINDING AFFINITY PREDICTED BY RF-SCORE:    0.00 PKD
ROOT
HETATM    1  O   UNL     1     -11.115   7.583  67.509  1.00  0.00    -0.114 OA 
HETATM    2  C   UNL     1     -10.191   6.818  68.131  1.00  0.00    -0.174 C  
HETATM    3  C   UNL     1      -8.921   7.568  68.428  1.00  0.00    -0.128 C  
HETATM    4  O   UNL     1     -10.390   5.646  68.411  1.00  0.00    -0.178 OA 
ENDROOT
BRANCH   3   5
HETATM    5  C   UNL     1      -7.912   6.661  69.125  1.00  0.00    -0.112 C  
HETATM    6  C   UNL     1      -8.100   6.686  70.617  1.00  0.00    -0.112 C  
HETATM    7  O   UNL     1      -7.220   5.890  71.263  1.00  0.00    -0.074 OA 
HETATM    8  O   UNL     1      -8.946   7.343  71.203  1.00  0.00    -0.142 OA 
ENDBRANCH   3   5
TORSDOF 1
ENDMDL
MODEL      215
REMARK 921   NORMALIZED FREE ENERGY PREDICTED BY IDOCK:   -0.92 KCAL/MOL
REMARK 922        TOTAL FREE ENERGY PREDICTED BY IDOCK:   -1.01 KCAL/MOL
REMARK 923 INTER-LIGAND FREE ENERGY PREDICTED BY IDOCK:   -0.98 KCAL/MOL
REMARK 924 INTRA-LIGAND FREE ENERGY PREDICTED BY IDOCK:   -0.04 KCAL/MOL
REMARK 927      BINDING AFFINITY PREDICTED BY RF-SCORE:    0.00 PKD
ROOT
HETATM    1  O   UNL     1     -10.975   7.322  66.854  1.00  0.00    -0.343 OA 
HETATM    2  C   UNL     1     -10.156   6.347  67.305  1.00  0.00    -0.163 C  
HETATM    3  C   UNL     1      -8.756   6.838  67.559  1.00  0.00    -0.119 C  
HETATM    4  O   UNL     1     -10.533   5.199  67.479  1.00  0.00    -0.163 OA 
ENDROOT
BRANCH   3   5
HETATM    5  C   UNL     1      -7.871   5.702  68.063  1.00  0.00    -0.097 C  
HETATM    6  C   UNL     1      -6.415   6.069  67.976  1.00  0.00    -0.050 C  
HETATM    7  O   UNL     1      -5.606   5.082  68.418  1.00  0.00    -0.014 OA 
HETATM    8  O   UNL     1      -5.987   7.133  67.558  1.00  0.00    -0.030 OA 
ENDBRANCH   3   5
TORSDOF 1
ENDMDL
MODEL      216
REMARK 921   NORMALIZED FREE ENERGY PREDICTED BY IDOCK:   -0.92 KCAL/MOL
REMARK 922        TOTAL FREE ENERGY PREDICTED BY IDOCK:   -1.01 KCAL/MOL
REMARK 923 INTER-LIGAND FREE ENERGY PREDICTED BY IDOCK:   -0.96 KCAL/MOL
REMARK 924 INTRA-LIGAND FREE ENERGY PREDICTED BY IDOCK:   -0.05 KCAL/MOL
REMARK 927      BINDING AFFINITY PREDICTED BY RF-SCORE:    0.00 PKD
ROOT
HETATM    1  O   UNL     1      -6.086   1.614  69.208  1.00  0.00    -0.023 OA 
HETATM    2  C   UNL     1      -6.916   2.610  68.827  1.00  0.00    -0.044 C  
HETATM    3  C   UNL     1      -8.152   2.692  69.681  1.00  0.00    -0.057 C  
HETATM    4  O   UNL     1      -6.668   3.349  67.887  1.00  0.00    -0.044 OA 
ENDROOT
BRANCH   3   5
HETATM    5  C   UNL     1      -9.056   3.827  69.210  1.00  0.00    -0.200 C  
HETATM    6  C   UNL     1      -9.649   4.569  70.376  1.00  0.00    -0.200 C  
HETATM    7  O   UNL     1     -10.454   5.583  69.989  1.00  0.00    -0.260 OA 
HETATM    8  O   UNL     1      -9.440   4.306  71.550  1.00  0.00    -0.136 OA 
ENDBRANCH   3   5
TORSDOF 1
ENDMDL
MODEL      217
REMARK 921   NORMALIZED FREE ENERGY PREDICTED BY IDOCK:   -0.92 KCAL/MOL
REMARK 922        TOTAL FREE ENERGY PREDICTED BY IDOCK:   -1.01 KCAL/MOL
REMARK 923 INTER-LIGAND FREE ENERGY PREDICTED BY IDOCK:   -0.91 KCAL/MOL
REMARK 924 INTRA-LIGAND FREE ENERGY PREDICTED BY IDOCK:   -0.10 KCAL/MOL
REMARK 927      BINDING AFFINITY PREDICTED BY RF-SCORE:    0.00 PKD
ROOT
HETATM    1  O   UNL     1      -7.707   2.513  67.478  1.00  0.00    -0.060 OA 
HETATM    2  C   UNL     1      -8.262   3.389  68.344  1.00  0.00    -0.073 C  
HETATM    3  C   UNL     1      -9.154   4.391  67.664  1.00  0.00    -0.145 C  
HETATM    4  O   UNL     1      -8.046   3.352  69.546  1.00  0.00    -0.053 OA 
ENDROOT
BRANCH   3   5
HETATM    5  C   UNL     1      -9.752   5.358  68.681  1.00  0.00    -0.187 C  
HETATM    6  C   UNL     1      -9.020   6.671  68.679  1.00  0.00    -0.124 C  
HETATM    7  O   UNL     1      -9.529   7.550  69.570  1.00  0.00    -0.156 OA 
HETATM    8  O   UNL     1      -8.070   6.940  67.960  1.00  0.00    -0.113 OA 
ENDBRANCH   3   5
TORSDOF 1
ENDMDL
MODEL      218
REMARK 921   NORMALIZED FREE ENERGY PREDICTED BY IDOCK:   -0.83 KCAL/MOL
REMARK 922        TOTAL FREE ENERGY PREDICTED BY IDOCK:   -0.92 KCAL/MOL
REMARK 923 INTER-LIGAND FREE ENERGY PREDICTED BY IDOCK:   -0.83 KCAL/MOL
REMARK 924 INTRA-LIGAND FREE ENERGY PREDICTED BY IDOCK:   -0.09 KCAL/MOL
REMARK 927      BINDING AFFINITY PREDICTED BY RF-SCORE:    0.00 PKD
ROOT
HETATM    1  O   UNL     1      -8.587   4.254  68.945  1.00  0.00    -0.081 OA 
HETATM    2  C   UNL     1      -8.874   4.797  67.741  1.00  0.00    -0.105 C  
HETATM    3  C   UNL     1      -7.657   4.957  66.872  1.00  0.00    -0.088 C  
HETATM    4  O   UNL     1     -10.008   5.117  67.418  1.00  0.00    -0.158 OA 
ENDROOT
BRANCH   3   5
HETATM    5  C   UNL     1      -8.032   5.576  65.529  1.00  0.00    -0.111 C  
HETATM    6  C   UNL     1      -7.547   6.996  65.431  1.00  0.00    -0.097 C  
HETATM    7  O   UNL     1      -7.863   7.570  64.249  1.00  0.00    -0.128 OA 
HETATM    8  O   UNL     1      -6.933   7.586  66.306  1.00  0.00    -0.063 OA 
ENDBRANCH   3   5
TORSDOF 1
ENDMDL
MODEL      219
REMARK 921   NORMALIZED FREE ENERGY PREDICTED BY IDOCK:   -0.81 KCAL/MOL
REMARK 922        TOTAL FREE ENERGY PREDICTED BY IDOCK:   -0.90 KCAL/MOL
REMARK 923 INTER-LIGAND FREE ENERGY PREDICTED BY IDOCK:   -0.83 KCAL/MOL
REMARK 924 INTRA-LIGAND FREE ENERGY PREDICTED BY IDOCK:   -0.07 KCAL/MOL
REMARK 927      BINDING AFFINITY PREDICTED BY RF-SCORE:    0.00 PKD
ROOT
HETATM    1  O   UNL     1      -8.576   8.772  70.131  1.00  0.00    -0.130 OA 
HETATM    2  C   UNL     1      -7.745   8.645  69.073  1.00  0.00    -0.095 C  
HETATM    3  C   UNL     1      -8.323   9.220  67.809  1.00  0.00    -0.116 C  
HETATM    4  O   UNL     1      -6.648   8.115  69.159  1.00  0.00    -0.042 OA 
ENDROOT
BRANCH   3   5
HETATM    5  C   UNL     1      -7.351   9.049  66.646  1.00  0.00    -0.086 C  
HETATM    6  C   UNL     1      -7.043  10.370  65.997  1.00  0.00    -0.133 C  
HETATM    7  O   UNL     1      -6.181  10.250  64.963  1.00  0.00    -0.116 OA 
HETATM    8  O   UNL     1      -7.505  11.444  66.346  1.00  0.00    -0.110 OA 
ENDBRANCH   3   5
TORSDOF 1
ENDMDL
MODEL      220
REMARK 921   NORMALIZED FREE ENERGY PREDICTED BY IDOCK:   -0.79 KCAL/MOL
REMARK 922        TOTAL FREE ENERGY PREDICTED BY IDOCK:   -0.88 KCAL/MOL
REMARK 923 INTER-LIGAND FREE ENERGY PREDICTED BY IDOCK:   -0.78 KCAL/MOL
REMARK 924 INTRA-LIGAND FREE ENERGY PREDICTED BY IDOCK:   -0.10 KCAL/MOL
REMARK 927      BINDING AFFINITY PREDICTED BY RF-SCORE:    0.00 PKD
ROOT
HETATM    1  O   UNL     1      -6.545   5.381  64.975  1.00  0.00    -0.038 OA 
HETATM    2  C   UNL     1      -7.343   4.989  65.993  1.00  0.00    -0.078 C  
HETATM    3  C   UNL     1      -6.862   3.728  66.656  1.00  0.00    -0.054 C  
HETATM    4  O   UNL     1      -8.343   5.610  66.320  1.00  0.00    -0.110 OA 
ENDROOT
BRANCH   3   5
HETATM    5  C   UNL     1      -7.796   3.327  67.793  1.00  0.00    -0.075 C  
HETATM    6  C   UNL     1      -8.739   2.237  67.363  1.00  0.00    -0.121 C  
HETATM    7  O   UNL     1      -9.578   1.859  68.351  1.00  0.00    -0.198 OA 
HETATM    8  O   UNL     1      -8.762   1.733  66.251  1.00  0.00    -0.108 OA 
ENDBRANCH   3   5
TORSDOF 1
ENDMDL
MODEL      221
REMARK 921   NORMALIZED FREE ENERGY PREDICTED BY IDOCK:   -0.72 KCAL/MOL
REMARK 922        TOTAL FREE ENERGY PREDICTED BY IDOCK:   -0.80 KCAL/MOL
REMARK 923 INTER-LIGAND FREE ENERGY PREDICTED BY IDOCK:   -0.71 KCAL/MOL
REMARK 924 INTRA-LIGAND FREE ENERGY PREDICTED BY IDOCK:   -0.09 KCAL/MOL
REMARK 927      BINDING AFFINITY PREDICTED BY RF-SCORE:    0.00 PKD
ROOT
HETATM    1  O   UNL     1      -7.368   5.071  64.684  1.00  0.00    -0.061 OA 
HETATM    2  C   UNL     1      -7.740   5.796  65.763  1.00  0.00    -0.095 C  
HETATM    3  C   UNL     1      -8.350   4.950  66.846  1.00  0.00    -0.106 C  
HETATM    4  O   UNL     1      -7.587   7.006  65.826  1.00  0.00    -0.087 OA 
ENDROOT
BRANCH   3   5
HETATM    5  C   UNL     1      -8.756   5.812  68.038  1.00  0.00    -0.103 C  
HETATM    6  C   UNL     1      -7.856   5.566  69.217  1.00  0.00    -0.091 C  
HETATM    7  O   UNL     1      -8.189   6.319  70.289  1.00  0.00    -0.120 OA 
HETATM    8  O   UNL     1      -6.921   4.781  69.231  1.00  0.00    -0.049 OA 
ENDBRANCH   3   5
TORSDOF 1
ENDMDL
MODEL      222
REMARK 921   NORMALIZED FREE ENERGY PREDICTED BY IDOCK:    5.72 KCAL/MOL
REMARK 922        TOTAL FREE ENERGY PREDICTED BY IDOCK:    6.02 KCAL/MOL
REMARK 923 INTER-LIGAND FREE ENERGY PREDICTED BY IDOCK:    6.09 KCAL/MOL
REMARK 924 INTRA-LIGAND FREE ENERGY PREDICTED BY IDOCK:   -0.07 KCAL/MOL
REMARK 927      BINDING AFFINITY PREDICTED BY RF-SCORE:    0.00 PKD
ROOT
HETATM    1  O   UNL     1     -10.217  16.061  67.598  1.00  0.00    -0.251 OA 
HETATM    2  C   UNL     1     -10.769  15.165  68.446  1.00  0.00    -0.248 C  
HETATM    3  C   UNL     1      -9.855  14.809  69.587  1.00  0.00     0.076 C  
HETATM    4  O   UNL     1     -11.889  14.707  68.281  1.00  0.00    -0.322 OA 
ENDROOT
BRANCH   3   5
HETATM    5  C   UNL     1     -10.520  13.794  70.511  1.00  0.00     1.998 C  
HETATM    6  C   UNL     1     -10.134  12.388  70.142  1.00  0.00     2.803 C  
HETATM    7  O   UNL     1     -10.707  11.466  70.946  1.00  0.00     1.660 OA 
HETATM    8  O   UNL     1      -9.388  12.087  69.223  1.00  0.00     0.376 OA 
ENDBRANCH   3   5
TORSDOF 1
ENDMDL
