MODEL        1
REMARK 921   NORMALIZED FREE ENERGY PREDICTED BY IDOCK:   -7.06 KCAL/MOL
REMARK 922        TOTAL FREE ENERGY PREDICTED BY IDOCK:  -10.12 KCAL/MOL
REMARK 923 INTER-LIGAND FREE ENERGY PREDICTED BY IDOCK:   -9.12 KCAL/MOL
REMARK 924 INTRA-LIGAND FREE ENERGY PREDICTED BY IDOCK:   -1.01 KCAL/MOL
REMARK 927      BINDING AFFINITY PREDICTED BY RF-SCORE:    0.00 PKD
ROOT
HETATM    1  O   UNL     1     -11.629  16.506  63.730  1.00  0.00    -1.617 OA 
HETATM    2  C   UNL     1     -10.816  15.996  64.777  1.00  0.00    -0.294 C  
HETATM    3  H   UNL     1     -11.639  17.455  63.739  1.00  0.00     0.000 HD 
ENDROOT
BRANCH   2   4
HETATM    4  C   UNL     1     -10.799  14.469  64.762  1.00  0.00    -0.393 C  
HETATM    5  O   UNL     1     -10.710  13.981  66.114  1.00  0.00    -0.285 OA 
HETATM    6  C   UNL     1     -11.285  12.662  66.129  1.00  0.00    -0.309 C  
HETATM    7  H   UNL     1     -14.403  13.460  65.240  1.00  0.00     0.000 HD 
HETATM    8  O   UNL     1     -11.680  13.124  62.929  1.00  0.00    -0.739 OA 
HETATM    9  C   UNL     1     -12.501  12.802  65.174  1.00  0.00    -0.501 C  
HETATM   10  C   UNL     1     -12.033  13.815  64.129  1.00  0.00    -0.432 C  
HETATM   11  H   UNL     1     -12.444  12.719  62.537  1.00  0.00     0.000 HD 
HETATM   12  O   UNL     1     -13.659  13.373  65.824  1.00  0.00    -0.058 OA 
BRANCH   6  13
HETATM   13  O   UNL     1     -11.792  12.330  67.442  1.00  0.00    -0.480 OA 
BRANCH  13  14
HETATM   14  C   UNL     1     -10.825  12.392  68.498  1.00  0.00    -0.242 C  
HETATM   15  C   UNL     1     -12.206  13.808  69.827  1.00  0.00    -0.310 C  
HETATM   16  O   UNL     1     -10.915  13.623  69.220  1.00  0.00    -0.228 OA 
HETATM   17  H   UNL     1     -11.041   9.226  69.396  1.00  0.00     0.000 HD 
HETATM   18  C   UNL     1     -12.460  12.737  70.881  1.00  0.00    -0.283 C  
HETATM   19  O   UNL     1     -10.928   9.952  68.794  1.00  0.00    -0.223 OA 
HETATM   20  O   UNL     1     -13.753  12.864  71.484  1.00  0.00    -0.059 OA 
HETATM   21  C   UNL     1     -12.330  11.340  70.251  1.00  0.00    -0.307 C  
HETATM   22  H   UNL     1     -13.911  12.196  72.141  1.00  0.00     0.000 HD 
HETATM   23  O   UNL     1     -12.417  10.359  71.296  1.00  0.00    -0.345 OA 
HETATM   24  C   UNL     1     -11.009  11.207  69.482  1.00  0.00    -0.220 C  
HETATM   25  H   UNL     1     -12.337   9.496  70.907  1.00  0.00     0.000 HD 
BRANCH  15  26
HETATM   26  C   UNL     1     -12.242  15.225  70.407  1.00  0.00    -0.363 C  
HETATM   27  O   UNL     1     -13.602  15.649  70.539  1.00  0.00    -0.833 OA 
HETATM   28  H   UNL     1     -13.625  16.527  70.899  1.00  0.00     0.000 HD 
ENDBRANCH  15  26
ENDBRANCH  13  14
ENDBRANCH   6  13
BRANCH   6  29
HETATM   29  C   UNL     1     -10.242  11.646  65.580  1.00  0.00    -0.260 C  
HETATM   30  H   UNL     1     -10.088  10.307  64.115  1.00  0.00     0.000 HD 
HETATM   31  O   UNL     1     -10.725  10.927  64.450  1.00  0.00    -0.340 OA 
ENDBRANCH   6  29
ENDBRANCH   2   4
TORSDOF 5
ENDMDL
MODEL        2
REMARK 921   NORMALIZED FREE ENERGY PREDICTED BY IDOCK:   -6.60 KCAL/MOL
REMARK 922        TOTAL FREE ENERGY PREDICTED BY IDOCK:   -9.54 KCAL/MOL
REMARK 923 INTER-LIGAND FREE ENERGY PREDICTED BY IDOCK:   -8.54 KCAL/MOL
REMARK 924 INTRA-LIGAND FREE ENERGY PREDICTED BY IDOCK:   -1.00 KCAL/MOL
REMARK 927      BINDING AFFINITY PREDICTED BY RF-SCORE:    0.00 PKD
ROOT
HETATM    1  O   UNL     1     -11.709  11.833  62.908  1.00  0.00    -0.728 OA 
HETATM    2  C   UNL     1     -10.559  12.452  63.466  1.00  0.00    -0.413 C  
HETATM    3  H   UNL     1     -11.483  11.331  62.135  1.00  0.00     0.000 HD 
ENDROOT
BRANCH   2   4
HETATM    4  C   UNL     1     -10.922  13.258  64.711  1.00  0.00    -0.350 C  
HETATM    5  O   UNL     1      -9.811  14.098  65.075  1.00  0.00    -0.250 OA 
HETATM    6  C   UNL     1     -10.346  15.219  65.804  1.00  0.00    -0.344 C  
HETATM    7  H   UNL     1     -12.234  16.539  63.388  1.00  0.00     0.000 HD 
HETATM    8  O   UNL     1     -13.214  13.732  65.396  1.00  0.00    -0.722 OA 
HETATM    9  C   UNL     1     -11.657  15.539  65.037  1.00  0.00    -0.133 C  
HETATM   10  C   UNL     1     -12.145  14.172  64.557  1.00  0.00    -0.468 C  
HETATM   11  H   UNL     1     -13.971  14.298  65.300  1.00  0.00     0.000 HD 
HETATM   12  O   UNL     1     -11.432  16.343  63.858  1.00  0.00    -1.063 OA 
BRANCH   6  13
HETATM   13  O   UNL     1      -9.479  16.371  65.694  1.00  0.00    -0.486 OA 
BRANCH  13  14
HETATM   14  C   UNL     1      -8.963  16.862  66.939  1.00  0.00    -0.224 C  
HETATM   15  C   UNL     1      -6.980  17.695  65.914  1.00  0.00    -0.224 C  
HETATM   16  O   UNL     1      -7.535  16.864  66.950  1.00  0.00    -0.174 OA 
HETATM   17  H   UNL     1     -11.229  19.217  67.385  1.00  0.00     0.000 HD 
HETATM   18  C   UNL     1      -7.359  19.154  66.139  1.00  0.00    -0.271 C  
HETATM   19  O   UNL     1     -10.913  18.338  67.214  1.00  0.00    -0.312 OA 
HETATM   20  O   UNL     1      -6.856  20.010  65.106  1.00  0.00    -0.301 OA 
HETATM   21  C   UNL     1      -8.888  19.294  66.213  1.00  0.00    -0.326 C  
HETATM   22  H   UNL     1      -7.092  20.920  65.247  1.00  0.00     0.000 HD 
HETATM   23  O   UNL     1      -9.203  20.645  66.583  1.00  0.00    -0.592 OA 
HETATM   24  C   UNL     1      -9.480  18.298  67.220  1.00  0.00    -0.264 C  
HETATM   25  H   UNL     1     -10.148  20.732  66.629  1.00  0.00     0.000 HD 
BRANCH  15  26
HETATM   26  C   UNL     1      -5.465  17.473  65.908  1.00  0.00    -0.080 C  
HETATM   27  O   UNL     1      -5.151  16.321  66.695  1.00  0.00    -0.311 OA 
HETATM   28  H   UNL     1      -4.211  16.183  66.691  1.00  0.00     0.000 HD 
ENDBRANCH  15  26
ENDBRANCH  13  14
ENDBRANCH   6  13
BRANCH   6  29
HETATM   29  C   UNL     1     -10.633  14.782  67.269  1.00  0.00    -0.273 C  
HETATM   30  H   UNL     1     -12.130  14.841  68.580  1.00  0.00     0.000 HD 
HETATM   31  O   UNL     1     -11.955  15.108  67.685  1.00  0.00    -0.236 OA 
ENDBRANCH   6  29
ENDBRANCH   2   4
TORSDOF 5
ENDMDL
MODEL        3
REMARK 921   NORMALIZED FREE ENERGY PREDICTED BY IDOCK:   -6.59 KCAL/MOL
REMARK 922        TOTAL FREE ENERGY PREDICTED BY IDOCK:   -9.52 KCAL/MOL
REMARK 923 INTER-LIGAND FREE ENERGY PREDICTED BY IDOCK:   -8.28 KCAL/MOL
REMARK 924 INTRA-LIGAND FREE ENERGY PREDICTED BY IDOCK:   -1.24 KCAL/MOL
REMARK 927      BINDING AFFINITY PREDICTED BY RF-SCORE:    0.00 PKD
ROOT
HETATM    1  O   UNL     1     -11.770  16.101  63.807  1.00  0.00    -1.404 OA 
HETATM    2  C   UNL     1     -12.269  14.805  64.105  1.00  0.00    -0.295 C  
HETATM    3  H   UNL     1     -12.307  16.529  63.152  1.00  0.00     0.000 HD 
ENDROOT
BRANCH   2   4
HETATM    4  C   UNL     1     -11.406  14.116  65.160  1.00  0.00    -0.336 C  
HETATM    5  O   UNL     1     -10.215  14.893  65.382  1.00  0.00    -0.336 OA 
HETATM    6  C   UNL     1      -9.756  14.596  66.714  1.00  0.00    -0.257 C  
HETATM    7  H   UNL     1     -12.389  15.739  68.421  1.00  0.00     0.000 HD 
HETATM    8  O   UNL     1     -12.279  12.539  66.802  1.00  0.00    -0.532 OA 
HETATM    9  C   UNL     1     -11.077  14.502  67.523  1.00  0.00    -0.307 C  
HETATM   10  C   UNL     1     -12.081  13.926  66.524  1.00  0.00    -0.449 C  
HETATM   11  H   UNL     1     -12.697  12.422  67.647  1.00  0.00     0.000 HD 
HETATM   12  O   UNL     1     -11.580  15.796  67.926  1.00  0.00    -0.283 OA 
BRANCH   6  13
HETATM   13  O   UNL     1      -8.986  15.694  67.255  1.00  0.00    -0.188 OA 
BRANCH  13  14
HETATM   14  C   UNL     1      -8.450  16.597  66.279  1.00  0.00    -0.320 C  
HETATM   15  C   UNL     1      -9.320  18.507  67.409  1.00  0.00    -0.279 C  
HETATM   16  O   UNL     1      -9.243  17.781  66.169  1.00  0.00    -0.457 OA 
HETATM   17  H   UNL     1      -5.271  16.066  66.976  1.00  0.00     0.000 HD 
HETATM   18  C   UNL     1      -7.942  19.015  67.816  1.00  0.00    -0.263 C  
HETATM   19  O   UNL     1      -6.163  15.826  66.758  1.00  0.00    -0.195 OA 
HETATM   20  O   UNL     1      -7.968  19.713  69.067  1.00  0.00    -0.330 OA 
HETATM   21  C   UNL     1      -6.955  17.840  67.912  1.00  0.00    -0.193 C  
HETATM   22  H   UNL     1      -7.109  20.030  69.320  1.00  0.00     0.000 HD 
HETATM   23  O   UNL     1      -5.639  18.368  68.139  1.00  0.00    -0.167 OA 
HETATM   24  C   UNL     1      -6.992  16.989  66.635  1.00  0.00    -0.249 C  
HETATM   25  H   UNL     1      -5.030  17.641  68.199  1.00  0.00     0.000 HD 
BRANCH  15  26
HETATM   26  C   UNL     1     -10.333  19.639  67.219  1.00  0.00    -0.451 C  
HETATM   27  O   UNL     1      -9.639  20.847  66.894  1.00  0.00    -0.681 OA 
HETATM   28  H   UNL     1     -10.267  21.549  66.775  1.00  0.00     0.000 HD 
ENDBRANCH  15  26
ENDBRANCH  13  14
ENDBRANCH   6  13
BRANCH   6  29
HETATM   29  C   UNL     1      -8.997  13.238  66.700  1.00  0.00    -0.126 C  
HETATM   30  H   UNL     1      -8.933  11.550  67.754  1.00  0.00     0.000 HD 
HETATM   31  O   UNL     1      -9.397  12.380  67.762  1.00  0.00    -0.183 OA 
ENDBRANCH   6  29
ENDBRANCH   2   4
TORSDOF 5
ENDMDL
MODEL        4
REMARK 921   NORMALIZED FREE ENERGY PREDICTED BY IDOCK:   -6.58 KCAL/MOL
REMARK 922        TOTAL FREE ENERGY PREDICTED BY IDOCK:   -9.51 KCAL/MOL
REMARK 923 INTER-LIGAND FREE ENERGY PREDICTED BY IDOCK:   -8.41 KCAL/MOL
REMARK 924 INTRA-LIGAND FREE ENERGY PREDICTED BY IDOCK:   -1.10 KCAL/MOL
REMARK 927      BINDING AFFINITY PREDICTED BY RF-SCORE:    0.00 PKD
ROOT
HETATM    1  O   UNL     1     -11.917  12.464  70.554  1.00  0.00    -0.482 OA 
HETATM    2  C   UNL     1     -12.020  11.083  70.242  1.00  0.00    -0.365 C  
HETATM    3  H   UNL     1     -12.349  12.660  71.376  1.00  0.00     0.000 HD 
ENDROOT
BRANCH   2   4
HETATM    4  C   UNL     1     -11.325  10.768  68.919  1.00  0.00    -0.284 C  
HETATM    5  O   UNL     1     -11.685  11.763  67.943  1.00  0.00    -0.432 OA 
HETATM    6  C   UNL     1     -10.622  11.813  66.973  1.00  0.00    -0.232 C  
HETATM    7  H   UNL     1      -8.150  12.805  68.986  1.00  0.00     0.000 HD 
HETATM    8  O   UNL     1      -9.303   9.417  68.741  1.00  0.00    -0.144 OA 
HETATM    9  C   UNL     1      -9.349  11.656  67.847  1.00  0.00    -0.174 C  
HETATM   10  C   UNL     1      -9.793  10.736  68.984  1.00  0.00    -0.194 C  
HETATM   11  H   UNL     1      -8.355   9.398  68.781  1.00  0.00     0.000 HD 
HETATM   12  O   UNL     1      -8.930  12.901  68.451  1.00  0.00    -0.187 OA 
BRANCH   6  13
HETATM   13  O   UNL     1     -10.562  13.109  66.335  1.00  0.00    -0.280 OA 
BRANCH  13  14
HETATM   14  C   UNL     1     -11.682  13.966  66.595  1.00  0.00    -0.395 C  
HETATM   15  C   UNL     1     -10.281  15.785  67.232  1.00  0.00    -0.268 C  
HETATM   16  O   UNL     1     -11.379  14.932  67.603  1.00  0.00    -0.315 OA 
HETATM   17  H   UNL     1     -12.708  14.207  63.470  1.00  0.00     0.000 HD 
HETATM   18  C   UNL     1     -10.642  16.620  66.009  1.00  0.00    -0.233 C  
HETATM   19  O   UNL     1     -12.436  13.759  64.262  1.00  0.00    -0.629 OA 
HETATM   20  O   UNL     1      -9.560  17.457  65.585  1.00  0.00    -0.519 OA 
HETATM   21  C   UNL     1     -11.056  15.699  64.849  1.00  0.00    -0.402 C  
HETATM   22  H   UNL     1      -9.785  17.977  64.822  1.00  0.00     0.000 HD 
HETATM   23  O   UNL     1     -11.540  16.515  63.771  1.00  0.00    -1.617 OA 
HETATM   24  C   UNL     1     -12.127  14.697  65.301  1.00  0.00    -0.276 C  
HETATM   25  H   UNL     1     -11.795  15.947  63.054  1.00  0.00     0.000 HD 
BRANCH  15  26
HETATM   26  C   UNL     1      -9.935  16.645  68.451  1.00  0.00    -0.255 C  
HETATM   27  O   UNL     1     -10.623  17.896  68.360  1.00  0.00    -0.349 OA 
HETATM   28  H   UNL     1     -10.409  18.430  69.115  1.00  0.00     0.000 HD 
ENDBRANCH  15  26
ENDBRANCH  13  14
ENDBRANCH   6  13
BRANCH   6  29
HETATM   29  C   UNL     1     -10.784  10.626  65.980  1.00  0.00    -0.057 C  
HETATM   30  H   UNL     1     -10.851  10.322  64.014  1.00  0.00     0.000 HD 
HETATM   31  O   UNL     1     -10.752  11.047  64.620  1.00  0.00    -0.324 OA 
ENDBRANCH   6  29
ENDBRANCH   2   4
TORSDOF 5
ENDMDL
MODEL        5
REMARK 921   NORMALIZED FREE ENERGY PREDICTED BY IDOCK:   -6.50 KCAL/MOL
REMARK 922        TOTAL FREE ENERGY PREDICTED BY IDOCK:   -9.41 KCAL/MOL
REMARK 923 INTER-LIGAND FREE ENERGY PREDICTED BY IDOCK:   -8.59 KCAL/MOL
REMARK 924 INTRA-LIGAND FREE ENERGY PREDICTED BY IDOCK:   -0.82 KCAL/MOL
REMARK 927      BINDING AFFINITY PREDICTED BY RF-SCORE:    0.00 PKD
ROOT
HETATM    1  O   UNL     1      -9.488  20.438  66.398  1.00  0.00    -0.589 OA 
HETATM    2  C   UNL     1     -10.519  19.487  66.178  1.00  0.00    -0.518 C  
HETATM    3  H   UNL     1      -9.358  20.982  65.631  1.00  0.00     0.000 HD 
ENDROOT
BRANCH   2   4
HETATM    4  C   UNL     1     -10.729  18.613  67.413  1.00  0.00    -0.402 C  
HETATM    5  O   UNL     1     -10.845  17.237  67.007  1.00  0.00    -0.202 OA 
HETATM    6  C   UNL     1     -10.442  16.427  68.127  1.00  0.00    -0.302 C  
HETATM    7  H   UNL     1      -7.271  17.444  68.368  1.00  0.00     0.000 HD 
HETATM    8  O   UNL     1     -10.071  19.273  69.666  1.00  0.00    -0.423 OA 
HETATM    9  C   UNL     1      -9.242  17.218  68.712  1.00  0.00    -0.238 C  
HETATM   10  C   UNL     1      -9.604  18.681  68.453  1.00  0.00    -0.359 C  
HETATM   11  H   UNL     1      -9.374  19.315  70.310  1.00  0.00     0.000 HD 
HETATM   12  O   UNL     1      -8.005  16.960  68.009  1.00  0.00    -0.176 OA 
BRANCH   6  13
HETATM   13  O   UNL     1      -9.948  15.141  67.687  1.00  0.00    -0.227 OA 
BRANCH  13  14
HETATM   14  C   UNL     1     -10.934  14.102  67.627  1.00  0.00    -0.267 C  
HETATM   15  C   UNL     1     -11.173  14.315  65.266  1.00  0.00    -0.337 C  
HETATM   16  O   UNL     1     -11.840  14.301  66.541  1.00  0.00    -0.385 OA 
HETATM   17  H   UNL     1      -8.926  11.624  68.468  1.00  0.00     0.000 HD 
HETATM   18  C   UNL     1     -10.539  12.958  64.981  1.00  0.00    -0.315 C  
HETATM   19  O   UNL     1      -9.339  12.475  68.556  1.00  0.00    -0.177 OA 
HETATM   20  O   UNL     1      -9.831  12.941  63.735  1.00  0.00    -0.700 OA 
HETATM   21  C   UNL     1      -9.574  12.581  66.117  1.00  0.00    -0.228 C  
HETATM   22  H   UNL     1      -9.435  12.095  63.558  1.00  0.00     0.000 HD 
HETATM   23  O   UNL     1      -9.118  11.236  65.899  1.00  0.00    -0.200 OA 
HETATM   24  C   UNL     1     -10.260  12.712  67.483  1.00  0.00    -0.215 C  
HETATM   25  H   UNL     1      -8.522  11.003  66.600  1.00  0.00     0.000 HD 
BRANCH  15  26
HETATM   26  C   UNL     1     -12.206  14.715  64.209  1.00  0.00    -0.408 C  
HETATM   27  O   UNL     1     -11.943  16.052  63.772  1.00  0.00    -1.339 OA 
HETATM   28  H   UNL     1     -12.584  16.301  63.116  1.00  0.00     0.000 HD 
ENDBRANCH  15  26
ENDBRANCH  13  14
ENDBRANCH   6  13
BRANCH   6  29
HETATM   29  C   UNL     1     -11.618  16.339  69.141  1.00  0.00    -0.213 C  
HETATM   30  H   UNL     1     -11.894  16.342  71.113  1.00  0.00     0.000 HD 
HETATM   31  O   UNL     1     -11.176  16.396  70.493  1.00  0.00    -0.369 OA 
ENDBRANCH   6  29
ENDBRANCH   2   4
TORSDOF 5
ENDMDL
MODEL        6
REMARK 921   NORMALIZED FREE ENERGY PREDICTED BY IDOCK:   -6.50 KCAL/MOL
REMARK 922        TOTAL FREE ENERGY PREDICTED BY IDOCK:   -9.40 KCAL/MOL
REMARK 923 INTER-LIGAND FREE ENERGY PREDICTED BY IDOCK:   -8.85 KCAL/MOL
REMARK 924 INTRA-LIGAND FREE ENERGY PREDICTED BY IDOCK:   -0.55 KCAL/MOL
REMARK 927      BINDING AFFINITY PREDICTED BY RF-SCORE:    0.00 PKD
ROOT
HETATM    1  O   UNL     1     -10.420  10.888  62.700  1.00  0.00    -0.760 OA 
HETATM    2  C   UNL     1      -9.998  12.036  63.422  1.00  0.00    -0.357 C  
HETATM    3  H   UNL     1      -9.819  10.694  61.991  1.00  0.00     0.000 HD 
ENDROOT
BRANCH   2   4
HETATM    4  C   UNL     1     -10.963  12.349  64.563  1.00  0.00    -0.316 C  
HETATM    5  O   UNL     1     -10.362  13.318  65.443  1.00  0.00    -0.294 OA 
HETATM    6  C   UNL     1     -11.434  14.017  66.102  1.00  0.00    -0.346 C  
HETATM    7  H   UNL     1     -12.854  15.408  63.418  1.00  0.00     0.000 HD 
HETATM    8  O   UNL     1     -13.373  12.005  64.430  1.00  0.00    -0.657 OA 
HETATM    9  C   UNL     1     -12.487  14.181  64.973  1.00  0.00    -0.419 C  
HETATM   10  C   UNL     1     -12.319  12.919  64.127  1.00  0.00    -0.376 C  
HETATM   11  H   UNL     1     -14.213  12.358  64.160  1.00  0.00     0.000 HD 
HETATM   12  O   UNL     1     -12.210  15.307  64.110  1.00  0.00    -0.606 OA 
BRANCH   6  13
HETATM   13  O   UNL     1     -11.018  15.340  66.510  1.00  0.00    -0.315 OA 
BRANCH  13  14
HETATM   14  C   UNL     1      -9.759  15.771  65.976  1.00  0.00    -0.345 C  
HETATM   15  C   UNL     1     -10.190  18.054  66.509  1.00  0.00    -0.382 C  
HETATM   16  O   UNL     1      -9.830  17.111  65.483  1.00  0.00    -0.549 OA 
HETATM   17  H   UNL     1      -7.862  14.292  68.232  1.00  0.00     0.000 HD 
HETATM   18  C   UNL     1      -9.114  18.107  67.587  1.00  0.00    -0.259 C  
HETATM   19  O   UNL     1      -8.544  14.348  67.573  1.00  0.00    -0.168 OA 
HETATM   20  O   UNL     1      -9.453  19.008  68.648  1.00  0.00    -0.366 OA 
HETATM   21  C   UNL     1      -8.884  16.703  68.169  1.00  0.00    -0.206 C  
HETATM   22  H   UNL     1      -8.781  19.042  69.320  1.00  0.00     0.000 HD 
HETATM   23  O   UNL     1      -7.760  16.759  69.062  1.00  0.00    -0.240 OA 
HETATM   24  C   UNL     1      -8.644  15.679  67.051  1.00  0.00    -0.224 C  
HETATM   25  H   UNL     1      -7.618  15.892  69.422  1.00  0.00     0.000 HD 
BRANCH  15  26
HETATM   26  C   UNL     1     -10.413  19.408  65.831  1.00  0.00    -0.472 C  
HETATM   27  O   UNL     1      -9.205  20.173  65.891  1.00  0.00    -0.550 OA 
HETATM   28  H   UNL     1      -9.343  21.014  65.471  1.00  0.00     0.000 HD 
ENDBRANCH  15  26
ENDBRANCH  13  14
ENDBRANCH   6  13
BRANCH   6  29
HETATM   29  C   UNL     1     -11.976  13.138  67.265  1.00  0.00    -0.335 C  
HETATM   30  H   UNL     1     -12.045  13.169  69.255  1.00  0.00     0.000 HD 
HETATM   31  O   UNL     1     -11.714  13.706  68.544  1.00  0.00    -0.313 OA 
ENDBRANCH   6  29
ENDBRANCH   2   4
TORSDOF 5
ENDMDL
MODEL        7
REMARK 921   NORMALIZED FREE ENERGY PREDICTED BY IDOCK:   -6.45 KCAL/MOL
REMARK 922        TOTAL FREE ENERGY PREDICTED BY IDOCK:   -9.34 KCAL/MOL
REMARK 923 INTER-LIGAND FREE ENERGY PREDICTED BY IDOCK:   -8.39 KCAL/MOL
REMARK 924 INTRA-LIGAND FREE ENERGY PREDICTED BY IDOCK:   -0.95 KCAL/MOL
REMARK 927      BINDING AFFINITY PREDICTED BY RF-SCORE:    0.00 PKD
ROOT
HETATM    1  O   UNL     1     -12.520  10.645  69.061  1.00  0.00    -0.777 OA 
HETATM    2  C   UNL     1     -11.242  10.027  69.098  1.00  0.00    -0.149 C  
HETATM    3  H   UNL     1     -12.933  10.620  69.915  1.00  0.00     0.000 HD 
ENDROOT
BRANCH   2   4
HETATM    4  C   UNL     1     -10.575  10.067  67.724  1.00  0.00    -0.261 C  
HETATM    5  O   UNL     1     -11.088  11.187  66.979  1.00  0.00    -0.291 OA 
HETATM    6  C   UNL     1     -10.081  11.556  66.018  1.00  0.00    -0.232 C  
HETATM    7  H   UNL     1      -7.649  12.413  68.139  1.00  0.00     0.000 HD 
HETATM    8  O   UNL     1      -8.424   9.030  67.233  1.00  0.00    -0.114 OA 
HETATM    9  C   UNL     1      -8.761  11.381  66.815  1.00  0.00    -0.174 C  
HETATM   10  C   UNL     1      -9.048  10.206  67.750  1.00  0.00    -0.130 C  
HETATM   11  H   UNL     1      -7.478   9.116  67.249  1.00  0.00     0.000 HD 
HETATM   12  O   UNL     1      -8.458  12.520  67.651  1.00  0.00    -0.150 OA 
BRANCH   6  13
HETATM   13  O   UNL     1     -10.195  12.951  65.655  1.00  0.00    -0.279 OA 
BRANCH  13  14
HETATM   14  C   UNL     1     -11.365  13.613  66.153  1.00  0.00    -0.312 C  
HETATM   15  C   UNL     1     -10.097  15.427  67.036  1.00  0.00    -0.249 C  
HETATM   16  O   UNL     1     -11.070  14.402  67.307  1.00  0.00    -0.293 OA 
HETATM   17  H   UNL     1     -12.683  14.317  63.213  1.00  0.00     0.000 HD 
HETATM   18  C   UNL     1     -10.644  16.429  66.027  1.00  0.00    -0.269 C  
HETATM   19  O   UNL     1     -12.300  13.762  63.882  1.00  0.00    -0.652 OA 
HETATM   20  O   UNL     1      -9.689  17.447  65.701  1.00  0.00    -0.533 OA 
HETATM   21  C   UNL     1     -11.067  15.701  64.741  1.00  0.00    -0.412 C  
HETATM   22  H   UNL     1     -10.031  18.072  65.071  1.00  0.00     0.000 HD 
HETATM   23  O   UNL     1     -11.721  16.645  63.878  1.00  0.00    -1.487 OA 
HETATM   24  C   UNL     1     -11.991  14.518  65.060  1.00  0.00    -0.399 C  
HETATM   25  H   UNL     1     -11.982  16.195  63.083  1.00  0.00     0.000 HD 
BRANCH  15  26
HETATM   26  C   UNL     1      -9.729  16.078  68.372  1.00  0.00    -0.213 C  
HETATM   27  O   UNL     1      -9.460  15.058  69.339  1.00  0.00    -0.328 OA 
HETATM   28  H   UNL     1      -9.231  15.461  70.168  1.00  0.00     0.000 HD 
ENDBRANCH  15  26
ENDBRANCH  13  14
ENDBRANCH   6  13
BRANCH   6  29
HETATM   29  C   UNL     1     -10.152  10.581  64.808  1.00  0.00    -0.336 C  
HETATM   30  H   UNL     1     -10.377  10.665  62.831  1.00  0.00     0.000 HD 
HETATM   31  O   UNL     1     -10.333  11.261  63.571  1.00  0.00    -0.348 OA 
ENDBRANCH   6  29
ENDBRANCH   2   4
TORSDOF 5
ENDMDL
MODEL        8
REMARK 921   NORMALIZED FREE ENERGY PREDICTED BY IDOCK:   -6.39 KCAL/MOL
REMARK 922        TOTAL FREE ENERGY PREDICTED BY IDOCK:   -9.27 KCAL/MOL
REMARK 923 INTER-LIGAND FREE ENERGY PREDICTED BY IDOCK:   -8.10 KCAL/MOL
REMARK 924 INTRA-LIGAND FREE ENERGY PREDICTED BY IDOCK:   -1.17 KCAL/MOL
REMARK 927      BINDING AFFINITY PREDICTED BY RF-SCORE:    0.00 PKD
ROOT
HETATM    1  O   UNL     1      -9.766  20.951  67.128  1.00  0.00    -0.654 OA 
HETATM    2  C   UNL     1     -10.367  19.857  67.805  1.00  0.00    -0.407 C  
HETATM    3  H   UNL     1     -10.406  21.626  66.939  1.00  0.00     0.000 HD 
ENDROOT
BRANCH   2   4
HETATM    4  C   UNL     1      -9.338  18.770  68.110  1.00  0.00    -0.316 C  
HETATM    5  O   UNL     1     -10.015  17.515  68.306  1.00  0.00    -0.292 OA 
HETATM    6  C   UNL     1      -9.075  16.471  67.991  1.00  0.00    -0.209 C  
HETATM    7  H   UNL     1      -8.584  17.189  64.768  1.00  0.00     0.000 HD 
HETATM    8  O   UNL     1      -6.988  18.917  67.476  1.00  0.00    -0.202 OA 
HETATM    9  C   UNL     1      -8.323  17.041  66.759  1.00  0.00    -0.234 C  
HETATM   10  C   UNL     1      -8.288  18.548  67.014  1.00  0.00    -0.255 C  
HETATM   11  H   UNL     1      -6.338  18.779  66.798  1.00  0.00     0.000 HD 
HETATM   12  O   UNL     1      -9.044  16.840  65.523  1.00  0.00    -0.414 OA 
BRANCH   6  13
HETATM   13  O   UNL     1      -9.758  15.267  67.573  1.00  0.00    -0.205 OA 
BRANCH  13  14
HETATM   14  C   UNL     1     -11.182  15.291  67.731  1.00  0.00    -0.326 C  
HETATM   15  C   UNL     1     -11.553  14.552  65.496  1.00  0.00    -0.350 C  
HETATM   16  O   UNL     1     -11.843  15.551  66.491  1.00  0.00     0.160 OA 
HETATM   17  H   UNL     1     -11.363  12.827  69.915  1.00  0.00     0.000 HD 
HETATM   18  C   UNL     1     -12.091  13.193  65.931  1.00  0.00    -0.444 C  
HETATM   19  O   UNL     1     -11.051  13.650  69.559  1.00  0.00    -0.186 OA 
HETATM   20  O   UNL     1     -11.789  12.162  64.983  1.00  0.00    -0.352 OA 
HETATM   21  C   UNL     1     -11.505  12.811  67.300  1.00  0.00    -0.337 C  
HETATM   22  H   UNL     1     -12.124  11.315  65.254  1.00  0.00     0.000 HD 
HETATM   23  O   UNL     1     -12.150  11.609  67.750  1.00  0.00    -0.613 OA 
HETATM   24  C   UNL     1     -11.694  13.947  68.313  1.00  0.00    -0.361 C  
HETATM   25  H   UNL     1     -11.787  11.372  68.596  1.00  0.00     0.000 HD 
BRANCH  15  26
HETATM   26  C   UNL     1     -12.159  15.030  64.174  1.00  0.00    -0.223 C  
HETATM   27  O   UNL     1     -11.583  16.289  63.815  1.00  0.00    -1.539 OA 
HETATM   28  H   UNL     1     -11.958  16.585  62.994  1.00  0.00     0.000 HD 
ENDBRANCH  15  26
ENDBRANCH  13  14
ENDBRANCH   6  13
BRANCH   6  29
HETATM   29  C   UNL     1      -8.118  16.266  69.201  1.00  0.00    -0.215 C  
HETATM   30  H   UNL     1      -6.168  16.057  69.544  1.00  0.00     0.000 HD 
HETATM   31  O   UNL     1      -6.753  16.182  68.806  1.00  0.00    -0.124 OA 
ENDBRANCH   6  29
ENDBRANCH   2   4
TORSDOF 5
ENDMDL
MODEL        9
REMARK 921   NORMALIZED FREE ENERGY PREDICTED BY IDOCK:   -6.31 KCAL/MOL
REMARK 922        TOTAL FREE ENERGY PREDICTED BY IDOCK:   -9.16 KCAL/MOL
REMARK 923 INTER-LIGAND FREE ENERGY PREDICTED BY IDOCK:   -8.34 KCAL/MOL
REMARK 924 INTRA-LIGAND FREE ENERGY PREDICTED BY IDOCK:   -0.83 KCAL/MOL
REMARK 927      BINDING AFFINITY PREDICTED BY RF-SCORE:    0.00 PKD
ROOT
HETATM    1  O   UNL     1      -5.266  19.052  66.141  1.00  0.00    -0.149 OA 
HETATM    2  C   UNL     1      -6.238  18.028  65.992  1.00  0.00    -0.242 C  
HETATM    3  H   UNL     1      -4.418  18.764  65.827  1.00  0.00     0.000 HD 
ENDROOT
BRANCH   2   4
HETATM    4  C   UNL     1      -7.603  18.490  66.496  1.00  0.00    -0.246 C  
HETATM    5  O   UNL     1      -8.632  17.691  65.885  1.00  0.00    -0.526 OA 
HETATM    6  C   UNL     1      -9.768  17.710  66.770  1.00  0.00    -0.300 C  
HETATM    7  H   UNL     1      -8.371  16.225  69.415  1.00  0.00     0.000 HD 
HETATM    8  O   UNL     1      -7.934  19.690  68.593  1.00  0.00    -0.343 OA 
HETATM    9  C   UNL     1      -9.114  17.628  68.175  1.00  0.00    -0.276 C  
HETATM   10  C   UNL     1      -7.799  18.391  68.014  1.00  0.00    -0.274 C  
HETATM   11  H   UNL     1      -8.056  19.628  69.533  1.00  0.00     0.000 HD 
HETATM   12  O   UNL     1      -8.772  16.276  68.554  1.00  0.00    -0.193 OA 
BRANCH   6  13
HETATM   13  O   UNL     1     -10.583  16.529  66.595  1.00  0.00    -0.291 OA 
BRANCH  13  14
HETATM   14  C   UNL     1     -10.129  15.625  65.579  1.00  0.00    -0.362 C  
HETATM   15  C   UNL     1     -10.148  13.767  67.071  1.00  0.00    -0.256 C  
HETATM   16  O   UNL     1      -9.378  14.544  66.136  1.00  0.00    -0.277 OA 
HETATM   17  H   UNL     1     -12.844  15.760  63.710  1.00  0.00     0.000 HD 
HETATM   18  C   UNL     1     -11.315  13.087  66.366  1.00  0.00    -0.317 C  
HETATM   19  O   UNL     1     -12.110  16.109  64.202  1.00  0.00    -0.753 OA 
HETATM   20  O   UNL     1     -12.130  12.331  67.271  1.00  0.00    -0.548 OA 
HETATM   21  C   UNL     1     -12.186  14.138  65.659  1.00  0.00    -0.435 C  
HETATM   22  H   UNL     1     -12.858  11.907  66.831  1.00  0.00     0.000 HD 
HETATM   23  O   UNL     1     -13.179  13.455  64.877  1.00  0.00    -0.679 OA 
HETATM   24  C   UNL     1     -11.328  15.054  64.775  1.00  0.00    -0.406 C  
HETATM   25  H   UNL     1     -13.717  14.105  64.440  1.00  0.00     0.000 HD 
BRANCH  15  26
HETATM   26  C   UNL     1      -9.195  12.767  67.732  1.00  0.00    -0.199 C  
HETATM   27  O   UNL     1      -8.790  13.270  69.009  1.00  0.00    -0.351 OA 
HETATM   28  H   UNL     1      -8.199  12.649  69.419  1.00  0.00     0.000 HD 
ENDBRANCH  15  26
ENDBRANCH  13  14
ENDBRANCH   6  13
BRANCH   6  29
HETATM   29  C   UNL     1     -10.541  19.046  66.577  1.00  0.00    -0.410 C  
HETATM   30  H   UNL     1     -11.327  20.117  65.094  1.00  0.00     0.000 HD 
HETATM   31  O   UNL     1     -10.855  19.300  65.212  1.00  0.00    -0.503 OA 
ENDBRANCH   6  29
ENDBRANCH   2   4
TORSDOF 5
ENDMDL
MODEL       10
REMARK 921   NORMALIZED FREE ENERGY PREDICTED BY IDOCK:   -6.25 KCAL/MOL
REMARK 922        TOTAL FREE ENERGY PREDICTED BY IDOCK:   -9.08 KCAL/MOL
REMARK 923 INTER-LIGAND FREE ENERGY PREDICTED BY IDOCK:   -7.94 KCAL/MOL
REMARK 924 INTRA-LIGAND FREE ENERGY PREDICTED BY IDOCK:   -1.14 KCAL/MOL
REMARK 927      BINDING AFFINITY PREDICTED BY RF-SCORE:    0.00 PKD
ROOT
HETATM    1  O   UNL     1     -12.415  14.006  63.275  1.00  0.00    -1.139 OA 
HETATM    2  C   UNL     1     -11.720  12.782  63.457  1.00  0.00    -0.530 C  
HETATM    3  H   UNL     1     -12.872  14.018  62.443  1.00  0.00     0.000 HD 
ENDROOT
BRANCH   2   4
HETATM    4  C   UNL     1     -10.986  12.762  64.796  1.00  0.00    -0.305 C  
HETATM    5  O   UNL     1     -10.237  13.983  64.946  1.00  0.00    -0.405 OA 
HETATM    6  C   UNL     1     -10.075  14.212  66.358  1.00  0.00    -0.293 C  
HETATM    7  H   UNL     1     -13.292  14.553  67.186  1.00  0.00     0.000 HD 
HETATM    8  O   UNL     1     -11.669  11.392  66.693  1.00  0.00    -0.434 OA 
HETATM    9  C   UNL     1     -11.449  13.781  66.939  1.00  0.00    -0.347 C  
HETATM   10  C   UNL     1     -11.891  12.636  66.028  1.00  0.00    -0.436 C  
HETATM   11  H   UNL     1     -12.229  11.313  67.456  1.00  0.00     0.000 HD 
HETATM   12  O   UNL     1     -12.451  14.816  66.831  1.00  0.00    -0.027 OA 
BRANCH   6  13
HETATM   13  O   UNL     1      -9.900  15.619  66.640  1.00  0.00    -0.228 OA 
BRANCH  13  14
HETATM   14  C   UNL     1      -8.977  15.915  67.696  1.00  0.00    -0.190 C  
HETATM   15  C   UNL     1      -7.994  17.713  66.480  1.00  0.00    -0.267 C  
HETATM   16  O   UNL     1      -7.767  16.483  67.191  1.00  0.00    -0.150 OA 
HETATM   17  H   UNL     1     -11.220  16.955  69.879  1.00  0.00     0.000 HD 
HETATM   18  C   UNL     1      -8.544  18.779  67.420  1.00  0.00    -0.273 C  
HETATM   19  O   UNL     1     -10.832  16.358  69.251  1.00  0.00    -0.291 OA 
HETATM   20  O   UNL     1      -8.819  20.011  66.742  1.00  0.00    -0.324 OA 
HETATM   21  C   UNL     1      -9.830  18.273  68.093  1.00  0.00    -0.341 C  
HETATM   22  H   UNL     1      -9.162  20.676  67.329  1.00  0.00     0.000 HD 
HETATM   23  O   UNL     1     -10.232  19.231  69.085  1.00  0.00    -0.573 OA 
HETATM   24  C   UNL     1      -9.611  16.891  68.723  1.00  0.00    -0.268 C  
HETATM   25  H   UNL     1     -11.028  18.918  69.500  1.00  0.00     0.000 HD 
BRANCH  15  26
HETATM   26  C   UNL     1      -6.667  18.124  65.836  1.00  0.00    -0.292 C  
HETATM   27  O   UNL     1      -6.891  19.222  64.947  1.00  0.00    -0.430 OA 
HETATM   28  H   UNL     1      -6.068  19.478  64.547  1.00  0.00     0.000 HD 
ENDBRANCH  15  26
ENDBRANCH  13  14
ENDBRANCH   6  13
BRANCH   6  29
HETATM   29  C   UNL     1      -8.922  13.313  66.890  1.00  0.00    -0.207 C  
HETATM   30  H   UNL     1      -8.586  12.043  68.387  1.00  0.00     0.000 HD 
HETATM   31  O   UNL     1      -9.290  12.592  68.061  1.00  0.00    -0.193 OA 
ENDBRANCH   6  29
ENDBRANCH   2   4
TORSDOF 5
ENDMDL
MODEL       11
REMARK 921   NORMALIZED FREE ENERGY PREDICTED BY IDOCK:   -6.22 KCAL/MOL
REMARK 922        TOTAL FREE ENERGY PREDICTED BY IDOCK:   -9.05 KCAL/MOL
REMARK 923 INTER-LIGAND FREE ENERGY PREDICTED BY IDOCK:   -7.97 KCAL/MOL
REMARK 924 INTRA-LIGAND FREE ENERGY PREDICTED BY IDOCK:   -1.08 KCAL/MOL
REMARK 927      BINDING AFFINITY PREDICTED BY RF-SCORE:    0.00 PKD
ROOT
HETATM    1  O   UNL     1     -11.248  16.881  64.129  1.00  0.00    -1.386 OA 
HETATM    2  C   UNL     1     -10.745  15.904  65.029  1.00  0.00    -0.404 C  
HETATM    3  H   UNL     1     -11.220  17.747  64.517  1.00  0.00     0.000 HD 
ENDROOT
BRANCH   2   4
HETATM    4  C   UNL     1     -10.789  14.511  64.406  1.00  0.00    -0.055 C  
HETATM    5  O   UNL     1     -10.054  13.594  65.236  1.00  0.00    -0.316 OA 
HETATM    6  C   UNL     1     -10.589  12.279  64.996  1.00  0.00    -0.287 C  
HETATM    7  H   UNL     1     -13.705  12.796  66.078  1.00  0.00     0.000 HD 
HETATM    8  O   UNL     1     -12.512  13.783  62.841  1.00  0.00    -1.009 OA 
HETATM    9  C   UNL     1     -12.113  12.542  64.871  1.00  0.00    -0.440 C  
HETATM   10  C   UNL     1     -12.196  13.926  64.227  1.00  0.00    -0.408 C  
HETATM   11  H   UNL     1     -13.383  13.421  62.731  1.00  0.00     0.000 HD 
HETATM   12  O   UNL     1     -12.772  12.635  66.154  1.00  0.00    -0.264 OA 
BRANCH   6  13
HETATM   13  O   UNL     1     -10.384  11.417  66.139  1.00  0.00    -0.233 OA 
BRANCH  13  14
HETATM   14  C   UNL     1      -9.612  11.993  67.202  1.00  0.00    -0.192 C  
HETATM   15  C   UNL     1     -10.955  10.965  68.881  1.00  0.00    -0.229 C  
HETATM   16  O   UNL     1     -10.404  12.194  68.374  1.00  0.00    -0.219 OA 
HETATM   17  H   UNL     1      -6.837  10.313  66.610  1.00  0.00     0.000 HD 
HETATM   18  C   UNL     1      -9.842  10.028  69.335  1.00  0.00    -0.224 C  
HETATM   19  O   UNL     1      -7.580  10.865  66.396  1.00  0.00    -0.139 OA 
HETATM   20  O   UNL     1     -10.348   8.776  69.812  1.00  0.00    -0.200 OA 
HETATM   21  C   UNL     1      -8.866   9.771  68.176  1.00  0.00    -0.119 C  
HETATM   22  H   UNL     1      -9.654   8.191  70.096  1.00  0.00     0.000 HD 
HETATM   23  O   UNL     1      -7.750   9.019  68.678  1.00  0.00    -0.094 OA 
HETATM   24  C   UNL     1      -8.398  11.092  67.551  1.00  0.00    -0.122 C  
HETATM   25  H   UNL     1      -7.147   8.859  67.962  1.00  0.00     0.000 HD 
BRANCH  15  26
HETATM   26  C   UNL     1     -11.921  11.325  70.013  1.00  0.00    -0.368 C  
HETATM   27  O   UNL     1     -12.922  10.310  70.123  1.00  0.00    -0.576 OA 
HETATM   28  H   UNL     1     -13.521  10.533  70.826  1.00  0.00     0.000 HD 
ENDBRANCH  15  26
ENDBRANCH  13  14
ENDBRANCH   6  13
BRANCH   6  29
HETATM   29  C   UNL     1      -9.994  11.722  63.671  1.00  0.00    -0.381 C  
HETATM   30  H   UNL     1      -9.298  10.001  62.952  1.00  0.00     0.000 HD 
HETATM   31  O   UNL     1      -9.662  10.341  63.761  1.00  0.00    -0.302 OA 
ENDBRANCH   6  29
ENDBRANCH   2   4
TORSDOF 5
ENDMDL
MODEL       12
REMARK 921   NORMALIZED FREE ENERGY PREDICTED BY IDOCK:   -6.21 KCAL/MOL
REMARK 922        TOTAL FREE ENERGY PREDICTED BY IDOCK:   -9.03 KCAL/MOL
REMARK 923 INTER-LIGAND FREE ENERGY PREDICTED BY IDOCK:   -7.96 KCAL/MOL
REMARK 924 INTRA-LIGAND FREE ENERGY PREDICTED BY IDOCK:   -1.07 KCAL/MOL
REMARK 927      BINDING AFFINITY PREDICTED BY RF-SCORE:    0.00 PKD
ROOT
HETATM    1  O   UNL     1      -8.289  16.935  65.752  1.00  0.00    -0.472 OA 
HETATM    2  C   UNL     1      -9.595  16.575  66.177  1.00  0.00    -0.315 C  
HETATM    3  H   UNL     1      -7.926  17.616  66.306  1.00  0.00     0.000 HD 
ENDROOT
BRANCH   2   4
HETATM    4  C   UNL     1     -10.178  15.480  65.287  1.00  0.00    -0.346 C  
HETATM    5  O   UNL     1      -9.931  14.195  65.888  1.00  0.00    -0.298 OA 
HETATM    6  C   UNL     1     -10.947  13.297  65.406  1.00  0.00    -0.284 C  
HETATM    7  H   UNL     1     -13.623  14.833  66.683  1.00  0.00     0.000 HD 
HETATM    8  O   UNL     1     -11.964  15.858  63.671  1.00  0.00    -1.239 OA 
HETATM    9  C   UNL     1     -12.218  14.188  65.392  1.00  0.00    -0.433 C  
HETATM   10  C   UNL     1     -11.689  15.579  65.045  1.00  0.00    -0.041 C  
HETATM   11  H   UNL     1     -12.900  15.920  63.522  1.00  0.00     0.000 HD 
HETATM   12  O   UNL     1     -12.845  14.288  66.691  1.00  0.00    -0.035 OA 
BRANCH   6  13
HETATM   13  O   UNL     1     -11.175  12.220  66.343  1.00  0.00    -0.290 OA 
BRANCH  13  14
HETATM   14  C   UNL     1     -10.184  12.091  67.372  1.00  0.00    -0.200 C  
HETATM   15  C   UNL     1     -11.805  12.281  69.108  1.00  0.00    -0.301 C  
HETATM   16  O   UNL     1     -10.571  12.781  68.562  1.00  0.00    -0.244 OA 
HETATM   17  H   UNL     1      -9.385   8.955  66.738  1.00  0.00     0.000 HD 
HETATM   18  C   UNL     1     -11.644  10.832  69.551  1.00  0.00    -0.303 C  
HETATM   19  O   UNL     1      -9.541   9.869  66.534  1.00  0.00    -0.171 OA 
HETATM   20  O   UNL     1     -12.862  10.284  70.068  1.00  0.00    -0.572 OA 
HETATM   21  C   UNL     1     -11.163   9.973  68.371  1.00  0.00    -0.127 C  
HETATM   22  H   UNL     1     -12.762   9.380  70.344  1.00  0.00     0.000 HD 
HETATM   23  O   UNL     1     -10.870   8.654  68.858  1.00  0.00    -0.410 OA 
HETATM   24  C   UNL     1      -9.929  10.598  67.706  1.00  0.00    -0.167 C  
HETATM   25  H   UNL     1     -10.573   8.122  68.128  1.00  0.00     0.000 HD 
BRANCH  15  26
HETATM   26  C   UNL     1     -12.208  13.207  70.259  1.00  0.00    -0.306 C  
HETATM   27  O   UNL     1     -12.792  14.400  69.726  1.00  0.00    -0.517 OA 
HETATM   28  H   UNL     1     -13.043  14.974  70.440  1.00  0.00     0.000 HD 
ENDBRANCH  15  26
ENDBRANCH  13  14
ENDBRANCH   6  13
BRANCH   6  29
HETATM   29  C   UNL     1     -10.568  12.820  63.975  1.00  0.00    -0.416 C  
HETATM   30  H   UNL     1     -11.459  12.484  62.226  1.00  0.00     0.000 HD 
HETATM   31  O   UNL     1     -11.690  12.776  63.101  1.00  0.00    -0.472 OA 
ENDBRANCH   6  29
ENDBRANCH   2   4
TORSDOF 5
ENDMDL
MODEL       13
REMARK 921   NORMALIZED FREE ENERGY PREDICTED BY IDOCK:   -6.19 KCAL/MOL
REMARK 922        TOTAL FREE ENERGY PREDICTED BY IDOCK:   -9.01 KCAL/MOL
REMARK 923 INTER-LIGAND FREE ENERGY PREDICTED BY IDOCK:   -7.93 KCAL/MOL
REMARK 924 INTRA-LIGAND FREE ENERGY PREDICTED BY IDOCK:   -1.07 KCAL/MOL
REMARK 927      BINDING AFFINITY PREDICTED BY RF-SCORE:    0.00 PKD
ROOT
HETATM    1  O   UNL     1     -12.493  14.464  63.225  1.00  0.00    -1.099 OA 
HETATM    2  C   UNL     1     -12.113  13.501  64.198  1.00  0.00    -0.435 C  
HETATM    3  H   UNL     1     -12.803  14.042  62.433  1.00  0.00     0.000 HD 
ENDROOT
BRANCH   2   4
HETATM    4  C   UNL     1     -11.615  14.179  65.473  1.00  0.00    -0.337 C  
HETATM    5  O   UNL     1     -11.947  13.359  66.608  1.00  0.00    -0.381 OA 
HETATM    6  C   UNL     1     -10.999  13.667  67.647  1.00  0.00    -0.267 C  
HETATM    7  H   UNL     1      -8.212  12.674  66.100  1.00  0.00     0.000 HD 
HETATM    8  O   UNL     1      -9.820  15.828  65.515  1.00  0.00    -0.325 OA 
HETATM    9  C   UNL     1      -9.669  13.835  66.865  1.00  0.00    -0.265 C  
HETATM   10  C   UNL     1     -10.103  14.428  65.525  1.00  0.00    -0.356 C  
HETATM   11  H   UNL     1      -8.883  15.982  65.547  1.00  0.00     0.000 HD 
HETATM   12  O   UNL     1      -9.027  12.572  66.579  1.00  0.00    -0.207 OA 
BRANCH   6  13
HETATM   13  O   UNL     1     -10.839  12.552  68.553  1.00  0.00    -0.227 OA 
BRANCH  13  14
HETATM   14  C   UNL     1     -11.951  11.648  68.603  1.00  0.00    -0.248 C  
HETATM   15  C   UNL     1     -10.599   9.778  68.009  1.00  0.00    -0.243 C  
HETATM   16  O   UNL     1     -11.775  10.550  67.706  1.00  0.00    -0.438 OA 
HETATM   17  H   UNL     1     -12.456  11.848  71.857  1.00  0.00     0.000 HD 
HETATM   18  C   UNL     1     -10.726   9.125  69.380  1.00  0.00    -0.198 C  
HETATM   19  O   UNL     1     -12.332  12.180  70.975  1.00  0.00    -0.351 OA 
HETATM   20  O   UNL     1      -9.558   8.377  69.736  1.00  0.00    -0.168 OA 
HETATM   21  C   UNL     1     -10.986  10.198  70.450  1.00  0.00    -0.319 C  
HETATM   22  H   UNL     1      -9.638   7.970  70.591  1.00  0.00     0.000 HD 
HETATM   23  O   UNL     1     -11.259   9.540  71.697  1.00  0.00    -0.378 OA 
HETATM   24  C   UNL     1     -12.155  11.106  70.043  1.00  0.00    -0.359 C  
HETATM   25  H   UNL     1     -11.419  10.202  72.359  1.00  0.00     0.000 HD 
BRANCH  15  26
HETATM   26  C   UNL     1     -10.417   8.756  66.884  1.00  0.00    -0.249 C  
HETATM   27  O   UNL     1     -11.149   7.568  67.200  1.00  0.00    -0.538 OA 
HETATM   28  H   UNL     1     -11.036   6.933  66.502  1.00  0.00     0.000 HD 
ENDBRANCH  15  26
ENDBRANCH  13  14
ENDBRANCH   6  13
BRANCH   6  29
HETATM   29  C   UNL     1     -11.423  14.992  68.345  1.00  0.00    -0.323 C  
HETATM   30  H   UNL     1     -10.585  16.688  68.966  1.00  0.00     0.000 HD 
HETATM   31  O   UNL     1     -10.326  15.879  68.540  1.00  0.00    -0.222 OA 
ENDBRANCH   6  29
ENDBRANCH   2   4
TORSDOF 5
ENDMDL
MODEL       14
REMARK 921   NORMALIZED FREE ENERGY PREDICTED BY IDOCK:   -6.18 KCAL/MOL
REMARK 922        TOTAL FREE ENERGY PREDICTED BY IDOCK:   -8.99 KCAL/MOL
REMARK 923 INTER-LIGAND FREE ENERGY PREDICTED BY IDOCK:   -7.86 KCAL/MOL
REMARK 924 INTRA-LIGAND FREE ENERGY PREDICTED BY IDOCK:   -1.13 KCAL/MOL
REMARK 927      BINDING AFFINITY PREDICTED BY RF-SCORE:    0.00 PKD
ROOT
HETATM    1  O   UNL     1     -12.417  14.755  69.024  1.00  0.00    -0.573 OA 
HETATM    2  C   UNL     1     -11.592  15.849  69.396  1.00  0.00    -0.349 C  
HETATM    3  H   UNL     1     -13.281  14.834  69.411  1.00  0.00     0.000 HD 
ENDROOT
BRANCH   2   4
HETATM    4  C   UNL     1     -10.203  15.722  68.773  1.00  0.00    -0.217 C  
HETATM    5  O   UNL     1     -10.038  14.395  68.242  1.00  0.00    -0.226 OA 
HETATM    6  C   UNL     1      -9.058  14.475  67.191  1.00  0.00    -0.225 C  
HETATM    7  H   UNL     1     -10.708  16.507  65.117  1.00  0.00     0.000 HD 
HETATM    8  O   UNL     1      -8.889  17.625  68.000  1.00  0.00    -0.244 OA 
HETATM    9  C   UNL     1      -9.409  15.816  66.492  1.00  0.00    -0.283 C  
HETATM   10  C   UNL     1      -9.915  16.703  67.630  1.00  0.00    -0.264 C  
HETATM   11  H   UNL     1      -8.711  18.232  67.292  1.00  0.00     0.000 HD 
HETATM   12  O   UNL     1     -10.494  15.686  65.545  1.00  0.00    -0.349 OA 
BRANCH   6  13
HETATM   13  O   UNL     1      -9.243  13.414  66.225  1.00  0.00    -0.180 OA 
BRANCH  13  14
HETATM   14  C   UNL     1     -10.335  12.527  66.501  1.00  0.00    -0.237 C  
HETATM   15  C   UNL     1     -11.091  12.579  64.242  1.00  0.00    -0.356 C  
HETATM   16  O   UNL     1     -11.439  12.766  65.626  1.00  0.00    -0.313 OA 
HETATM   17  H   UNL     1      -8.503   9.863  67.152  1.00  0.00     0.000 HD 
HETATM   18  C   UNL     1     -10.711  11.126  63.979  1.00  0.00    -0.339 C  
HETATM   19  O   UNL     1      -8.778  10.768  67.233  1.00  0.00    -0.130 OA 
HETATM   20  O   UNL     1     -10.321  10.905  62.618  1.00  0.00    -0.747 OA 
HETATM   21  C   UNL     1      -9.561  10.707  64.910  1.00  0.00    -0.269 C  
HETATM   22  H   UNL     1     -10.084   9.999  62.454  1.00  0.00     0.000 HD 
HETATM   23  O   UNL     1      -9.336   9.298  64.749  1.00  0.00    -0.429 OA 
HETATM   24  C   UNL     1      -9.888  11.047  66.370  1.00  0.00    -0.212 C  
HETATM   25  H   UNL     1      -8.625   9.039  65.324  1.00  0.00     0.000 HD 
BRANCH  15  26
HETATM   26  C   UNL     1     -12.285  13.037  63.401  1.00  0.00    -0.472 C  
HETATM   27  O   UNL     1     -12.468  14.446  63.565  1.00  0.00    -1.102 OA 
HETATM   28  H   UNL     1     -13.209  14.731  63.043  1.00  0.00     0.000 HD 
ENDBRANCH  15  26
ENDBRANCH  13  14
ENDBRANCH   6  13
BRANCH   6  29
HETATM   29  C   UNL     1      -7.637  14.514  67.822  1.00  0.00    -0.159 C  
HETATM   30  H   UNL     1      -5.952  15.560  67.646  1.00  0.00     0.000 HD 
HETATM   31  O   UNL     1      -6.820  15.536  67.261  1.00  0.00    -0.188 OA 
ENDBRANCH   6  29
ENDBRANCH   2   4
TORSDOF 5
ENDMDL
MODEL       15
REMARK 921   NORMALIZED FREE ENERGY PREDICTED BY IDOCK:   -6.17 KCAL/MOL
REMARK 922        TOTAL FREE ENERGY PREDICTED BY IDOCK:   -8.98 KCAL/MOL
REMARK 923 INTER-LIGAND FREE ENERGY PREDICTED BY IDOCK:   -7.81 KCAL/MOL
REMARK 924 INTRA-LIGAND FREE ENERGY PREDICTED BY IDOCK:   -1.17 KCAL/MOL
REMARK 927      BINDING AFFINITY PREDICTED BY RF-SCORE:    0.00 PKD
ROOT
HETATM    1  O   UNL     1     -11.306   5.869  66.283  1.00  0.00    -0.717 OA 
HETATM    2  C   UNL     1     -11.126   6.331  67.614  1.00  0.00    -0.266 C  
HETATM    3  H   UNL     1     -11.926   5.151  66.254  1.00  0.00     0.000 HD 
ENDROOT
BRANCH   2   4
HETATM    4  C   UNL     1     -10.129   7.486  67.663  1.00  0.00    -0.187 C  
HETATM    5  O   UNL     1     -10.596   8.555  66.819  1.00  0.00    -0.283 OA 
HETATM    6  C   UNL     1     -10.025   9.777  67.323  1.00  0.00    -0.191 C  
HETATM    7  H   UNL     1     -11.450   9.791  70.343  1.00  0.00     0.000 HD 
HETATM    8  O   UNL     1      -8.559   7.843  69.494  1.00  0.00    -0.134 OA 
HETATM    9  C   UNL     1     -10.101   9.586  68.861  1.00  0.00    -0.188 C  
HETATM   10  C   UNL     1      -9.897   8.084  69.056  1.00  0.00    -0.178 C  
HETATM   11  H   UNL     1      -8.416   8.212  70.357  1.00  0.00     0.000 HD 
HETATM   12  O   UNL     1     -11.403   9.908  69.401  1.00  0.00    -0.193 OA 
BRANCH   6  13
HETATM   13  O   UNL     1     -10.848  10.915  66.979  1.00  0.00    -0.261 OA 
BRANCH  13  14
HETATM   14  C   UNL     1     -10.134  12.040  66.448  1.00  0.00    -0.218 C  
HETATM   15  C   UNL     1     -11.924  12.624  64.987  1.00  0.00    -0.419 C  
HETATM   16  O   UNL     1     -10.522  12.318  65.102  1.00  0.00    -0.271 OA 
HETATM   17  H   UNL     1     -10.138  13.833  69.217  1.00  0.00     0.000 HD 
HETATM   18  C   UNL     1     -12.255  13.904  65.745  1.00  0.00    -0.460 C  
HETATM   19  O   UNL     1      -9.994  13.061  68.683  1.00  0.00    -0.202 OA 
HETATM   20  O   UNL     1     -13.650  14.224  65.687  1.00  0.00    -0.633 OA 
HETATM   21  C   UNL     1     -11.827  13.769  67.215  1.00  0.00    -0.401 C  
HETATM   22  H   UNL     1     -13.856  15.022  66.159  1.00  0.00     0.000 HD 
HETATM   23  O   UNL     1     -12.005  15.041  67.859  1.00  0.00    -0.489 OA 
HETATM   24  C   UNL     1     -10.369  13.301  67.320  1.00  0.00    -0.247 C  
HETATM   25  H   UNL     1     -11.741  14.957  68.768  1.00  0.00     0.000 HD 
BRANCH  15  26
HETATM   26  C   UNL     1     -12.253  12.720  63.495  1.00  0.00    -0.525 C  
HETATM   27  O   UNL     1     -12.426  14.095  63.135  1.00  0.00    -1.126 OA 
HETATM   28  H   UNL     1     -12.631  14.155  62.210  1.00  0.00     0.000 HD 
ENDBRANCH  15  26
ENDBRANCH  13  14
ENDBRANCH   6  13
BRANCH   6  29
HETATM   29  C   UNL     1      -8.553   9.890  66.833  1.00  0.00    -0.128 C  
HETATM   30  H   UNL     1      -6.751  10.267  67.590  1.00  0.00     0.000 HD 
HETATM   31  O   UNL     1      -7.650  10.198  67.889  1.00  0.00    -0.088 OA 
ENDBRANCH   6  29
ENDBRANCH   2   4
TORSDOF 5
ENDMDL
MODEL       16
REMARK 921   NORMALIZED FREE ENERGY PREDICTED BY IDOCK:   -6.17 KCAL/MOL
REMARK 922        TOTAL FREE ENERGY PREDICTED BY IDOCK:   -8.98 KCAL/MOL
REMARK 923 INTER-LIGAND FREE ENERGY PREDICTED BY IDOCK:   -8.56 KCAL/MOL
REMARK 924 INTRA-LIGAND FREE ENERGY PREDICTED BY IDOCK:   -0.42 KCAL/MOL
REMARK 927      BINDING AFFINITY PREDICTED BY RF-SCORE:    0.00 PKD
ROOT
HETATM    1  O   UNL     1     -11.410  11.144  62.781  1.00  0.00    -0.683 OA 
HETATM    2  C   UNL     1     -12.486  11.907  63.307  1.00  0.00    -0.384 C  
HETATM    3  H   UNL     1     -11.712  10.553  62.102  1.00  0.00     0.000 HD 
ENDROOT
BRANCH   2   4
HETATM    4  C   UNL     1     -12.000  12.858  64.398  1.00  0.00    -0.395 C  
HETATM    5  O   UNL     1     -12.720  12.593  65.616  1.00  0.00    -0.540 OA 
HETATM    6  C   UNL     1     -11.885  13.022  66.707  1.00  0.00    -0.388 C  
HETATM    7  H   UNL     1      -9.323  10.934  66.234  1.00  0.00     0.000 HD 
HETATM    8  O   UNL     1      -9.823  13.955  64.366  1.00  0.00    -0.681 OA 
HETATM    9  C   UNL     1     -10.466  12.592  66.248  1.00  0.00    -0.246 C  
HETATM   10  C   UNL     1     -10.506  12.755  64.729  1.00  0.00    -0.335 C  
HETATM   11  H   UNL     1      -8.898  13.891  64.570  1.00  0.00     0.000 HD 
HETATM   12  O   UNL     1     -10.192  11.198  66.515  1.00  0.00    -0.216 OA 
BRANCH   6  13
HETATM   13  O   UNL     1     -12.196  12.295  67.917  1.00  0.00    -0.409 OA 
BRANCH  13  14
HETATM   14  C   UNL     1     -11.187  12.352  68.934  1.00  0.00    -0.280 C  
HETATM   15  C   UNL     1     -12.505  13.777  70.316  1.00  0.00    -0.289 C  
HETATM   16  O   UNL     1     -11.240  13.583  69.658  1.00  0.00    -0.180 OA 
HETATM   17  H   UNL     1     -11.387   9.187  69.843  1.00  0.00     0.000 HD 
HETATM   18  C   UNL     1     -12.723  12.707  71.380  1.00  0.00    -0.247 C  
HETATM   19  O   UNL     1     -11.294   9.912  69.236  1.00  0.00    -0.177 OA 
HETATM   20  O   UNL     1     -13.990  12.843  72.034  1.00  0.00    -0.271 OA 
HETATM   21  C   UNL     1     -12.628  11.310  70.746  1.00  0.00    -0.332 C  
HETATM   22  H   UNL     1     -14.126  12.176  72.698  1.00  0.00     0.000 HD 
HETATM   23  O   UNL     1     -12.678  10.330  71.796  1.00  0.00    -0.408 OA 
HETATM   24  C   UNL     1     -11.339  11.168  69.926  1.00  0.00    -0.268 C  
HETATM   25  H   UNL     1     -12.620   9.467  71.404  1.00  0.00     0.000 HD 
BRANCH  15  26
HETATM   26  C   UNL     1     -12.509  15.194  70.896  1.00  0.00    -0.365 C  
HETATM   27  O   UNL     1     -13.852  15.686  70.937  1.00  0.00    -0.822 OA 
HETATM   28  H   UNL     1     -13.855  16.565  71.297  1.00  0.00     0.000 HD 
ENDBRANCH  15  26
ENDBRANCH  13  14
ENDBRANCH   6  13
BRANCH   6  29
HETATM   29  C   UNL     1     -11.994  14.568  66.853  1.00  0.00    -0.346 C  
HETATM   30  H   UNL     1     -10.792  16.132  67.122  1.00  0.00     0.000 HD 
HETATM   31  O   UNL     1     -10.726  15.188  67.032  1.00  0.00    -0.295 OA 
ENDBRANCH   6  29
ENDBRANCH   2   4
TORSDOF 5
ENDMDL
MODEL       17
REMARK 921   NORMALIZED FREE ENERGY PREDICTED BY IDOCK:   -6.13 KCAL/MOL
REMARK 922        TOTAL FREE ENERGY PREDICTED BY IDOCK:   -8.93 KCAL/MOL
REMARK 923 INTER-LIGAND FREE ENERGY PREDICTED BY IDOCK:   -7.94 KCAL/MOL
REMARK 924 INTRA-LIGAND FREE ENERGY PREDICTED BY IDOCK:   -0.99 KCAL/MOL
REMARK 927      BINDING AFFINITY PREDICTED BY RF-SCORE:    0.00 PKD
ROOT
HETATM    1  O   UNL     1     -12.679  14.560  69.455  1.00  0.00    -0.560 OA 
HETATM    2  C   UNL     1     -12.124  13.462  68.746  1.00  0.00    -0.246 C  
HETATM    3  H   UNL     1     -12.813  14.341  70.369  1.00  0.00     0.000 HD 
ENDROOT
BRANCH   2   4
HETATM    4  C   UNL     1     -11.909  13.814  67.275  1.00  0.00    -0.401 C  
HETATM    5  O   UNL     1     -11.495  15.188  67.170  1.00  0.00    -0.330 OA 
HETATM    6  C   UNL     1     -10.748  15.316  65.947  1.00  0.00    -0.334 C  
HETATM    7  H   UNL     1      -8.225  13.255  66.679  1.00  0.00     0.000 HD 
HETATM    8  O   UNL     1     -11.448  12.162  65.543  1.00  0.00    -0.340 OA 
HETATM    9  C   UNL     1      -9.927  13.999  65.902  1.00  0.00    -0.307 C  
HETATM   10  C   UNL     1     -10.849  12.970  66.557  1.00  0.00    -0.279 C  
HETATM   11  H   UNL     1     -10.791  11.639  65.098  1.00  0.00     0.000 HD 
HETATM   12  O   UNL     1      -8.727  14.061  66.706  1.00  0.00    -0.203 OA 
BRANCH   6  13
HETATM   13  O   UNL     1      -9.811  16.415  66.022  1.00  0.00    -0.307 OA 
BRANCH  13  14
HETATM   14  C   UNL     1     -10.034  17.328  67.105  1.00  0.00    -0.282 C  
HETATM   15  C   UNL     1      -7.784  17.144  67.867  1.00  0.00    -0.184 C  
HETATM   16  O   UNL     1      -9.177  17.047  68.213  1.00  0.00    -0.239 OA 
HETATM   17  H   UNL     1     -10.515  20.010  65.246  1.00  0.00     0.000 HD 
HETATM   18  C   UNL     1      -7.430  18.574  67.474  1.00  0.00    -0.220 C  
HETATM   19  O   UNL     1     -10.652  19.114  65.529  1.00  0.00    -0.536 OA 
HETATM   20  O   UNL     1      -6.058  18.707  67.086  1.00  0.00    -0.168 OA 
HETATM   21  C   UNL     1      -8.331  19.039  66.318  1.00  0.00    -0.283 C  
HETATM   22  H   UNL     1      -5.838  19.598  66.841  1.00  0.00     0.000 HD 
HETATM   23  O   UNL     1      -8.083  20.433  66.080  1.00  0.00    -0.532 OA 
HETATM   24  C   UNL     1      -9.810  18.793  66.643  1.00  0.00    -0.356 C  
HETATM   25  H   UNL     1      -8.639  20.720  65.365  1.00  0.00     0.000 HD 
BRANCH  15  26
HETATM   26  C   UNL     1      -6.975  16.647  69.068  1.00  0.00    -0.212 C  
HETATM   27  O   UNL     1      -6.333  17.758  69.701  1.00  0.00    -0.241 OA 
HETATM   28  H   UNL     1      -5.832  17.449  70.446  1.00  0.00     0.000 HD 
ENDBRANCH  15  26
ENDBRANCH  13  14
ENDBRANCH   6  13
BRANCH   6  29
HETATM   29  C   UNL     1     -11.740  15.412  64.752  1.00  0.00    -0.232 C  
HETATM   30  H   UNL     1     -12.046  16.556  63.152  1.00  0.00     0.000 HD 
HETATM   31  O   UNL     1     -11.440  16.497  63.881  1.00  0.00    -1.145 OA 
ENDBRANCH   6  29
ENDBRANCH   2   4
TORSDOF 5
ENDMDL
MODEL       18
REMARK 921   NORMALIZED FREE ENERGY PREDICTED BY IDOCK:   -6.11 KCAL/MOL
REMARK 922        TOTAL FREE ENERGY PREDICTED BY IDOCK:   -8.91 KCAL/MOL
REMARK 923 INTER-LIGAND FREE ENERGY PREDICTED BY IDOCK:   -8.12 KCAL/MOL
REMARK 924 INTRA-LIGAND FREE ENERGY PREDICTED BY IDOCK:   -0.79 KCAL/MOL
REMARK 927      BINDING AFFINITY PREDICTED BY RF-SCORE:    0.00 PKD
ROOT
HETATM    1  O   UNL     1     -12.291   7.233  70.433  1.00  0.00    -0.564 OA 
HETATM    2  C   UNL     1     -11.100   6.909  69.732  1.00  0.00    -0.271 C  
HETATM    3  H   UNL     1     -12.816   6.457  70.587  1.00  0.00     0.000 HD 
ENDROOT
BRANCH   2   4
HETATM    4  C   UNL     1     -10.255   8.157  69.484  1.00  0.00    -0.213 C  
HETATM    5  O   UNL     1     -10.486   8.631  68.145  1.00  0.00    -0.218 OA 
HETATM    6  C   UNL     1     -10.198  10.041  68.137  1.00  0.00    -0.175 C  
HETATM    7  H   UNL     1     -12.541  11.048  70.291  1.00  0.00     0.000 HD 
HETATM    8  O   UNL     1      -9.410   9.593  71.264  1.00  0.00    -0.321 OA 
HETATM    9  C   UNL     1     -10.767  10.520  69.499  1.00  0.00    -0.255 C  
HETATM   10  C   UNL     1     -10.539   9.330  70.431  1.00  0.00    -0.248 C  
HETATM   11  H   UNL     1      -9.586  10.319  71.850  1.00  0.00     0.000 HD 
HETATM   12  O   UNL     1     -12.193  10.755  69.457  1.00  0.00    -0.314 OA 
BRANCH   6  13
HETATM   13  O   UNL     1     -10.934  10.716  67.091  1.00  0.00    -0.285 OA 
BRANCH  13  14
HETATM   14  C   UNL     1     -10.296  11.885  66.559  1.00  0.00    -0.216 C  
HETATM   15  C   UNL     1     -10.533  11.126  64.312  1.00  0.00    -0.362 C  
HETATM   16  O   UNL     1      -9.631  11.604  65.326  1.00  0.00    -0.232 OA 
HETATM   17  H   UNL     1     -12.655  14.026  67.415  1.00  0.00     0.000 HD 
HETATM   18  C   UNL     1     -11.551  12.202  63.952  1.00  0.00    -0.448 C  
HETATM   19  O   UNL     1     -12.022  13.331  67.552  1.00  0.00    -0.356 OA 
HETATM   20  O   UNL     1     -12.493  11.751  62.972  1.00  0.00    -0.911 OA 
HETATM   21  C   UNL     1     -12.308  12.652  65.212  1.00  0.00    -0.466 C  
HETATM   22  H   UNL     1     -13.127  12.422  62.747  1.00  0.00     0.000 HD 
HETATM   23  O   UNL     1     -13.140  13.770  64.869  1.00  0.00    -0.716 OA 
HETATM   24  C   UNL     1     -11.330  13.021  66.336  1.00  0.00    -0.317 C  
HETATM   25  H   UNL     1     -13.608  14.048  65.647  1.00  0.00     0.000 HD 
BRANCH  15  26
HETATM   26  C   UNL     1      -9.689  10.689  63.113  1.00  0.00    -0.333 C  
HETATM   27  O   UNL     1      -8.736  11.711  62.805  1.00  0.00    -0.634 OA 
HETATM   28  H   UNL     1      -8.212  11.440  62.061  1.00  0.00     0.000 HD 
ENDBRANCH  15  26
ENDBRANCH  13  14
ENDBRANCH   6  13
BRANCH   6  29
HETATM   29  C   UNL     1      -8.657  10.245  68.057  1.00  0.00    -0.118 C  
HETATM   30  H   UNL     1      -7.255  11.381  68.899  1.00  0.00     0.000 HD 
HETATM   31  O   UNL     1      -8.196  11.256  68.947  1.00  0.00    -0.141 OA 
ENDBRANCH   6  29
ENDBRANCH   2   4
TORSDOF 5
ENDMDL
MODEL       19
REMARK 921   NORMALIZED FREE ENERGY PREDICTED BY IDOCK:   -6.11 KCAL/MOL
REMARK 922        TOTAL FREE ENERGY PREDICTED BY IDOCK:   -8.90 KCAL/MOL
REMARK 923 INTER-LIGAND FREE ENERGY PREDICTED BY IDOCK:   -8.34 KCAL/MOL
REMARK 924 INTRA-LIGAND FREE ENERGY PREDICTED BY IDOCK:   -0.56 KCAL/MOL
REMARK 927      BINDING AFFINITY PREDICTED BY RF-SCORE:    0.00 PKD
ROOT
HETATM    1  O   UNL     1      -9.875  20.565  66.439  1.00  0.00    -0.612 OA 
HETATM    2  C   UNL     1     -10.718  19.433  66.594  1.00  0.00    -0.429 C  
HETATM    3  H   UNL     1     -10.232  21.169  65.799  1.00  0.00     0.000 HD 
ENDROOT
BRANCH   2   4
HETATM    4  C   UNL     1     -10.144  18.461  67.623  1.00  0.00    -0.360 C  
HETATM    5  O   UNL     1     -10.830  17.200  67.521  1.00  0.00    -0.309 OA 
HETATM    6  C   UNL     1      -9.934  16.186  68.013  1.00  0.00    -0.238 C  
HETATM    7  H   UNL     1      -7.499  16.525  65.754  1.00  0.00     0.000 HD 
HETATM    8  O   UNL     1      -7.918  18.677  68.594  1.00  0.00    -0.325 OA 
HETATM    9  C   UNL     1      -8.557  16.645  67.463  1.00  0.00    -0.189 C  
HETATM   10  C   UNL     1      -8.646  18.171  67.474  1.00  0.00    -0.249 C  
HETATM   11  H   UNL     1      -6.990  18.497  68.501  1.00  0.00     0.000 HD 
HETATM   12  O   UNL     1      -8.342  16.245  66.091  1.00  0.00    -0.320 OA 
BRANCH   6  13
HETATM   13  O   UNL     1     -10.235  14.898  67.430  1.00  0.00    -0.233 OA 
BRANCH  13  14
HETATM   14  C   UNL     1     -11.632  14.596  67.314  1.00  0.00    -0.387 C  
HETATM   15  C   UNL     1     -11.306  13.333  65.320  1.00  0.00    -0.295 C  
HETATM   16  O   UNL     1     -12.017  14.413  65.951  1.00  0.00    -0.377 OA 
HETATM   17  H   UNL     1     -11.829  12.683  69.994  1.00  0.00     0.000 HD 
HETATM   18  C   UNL     1     -11.647  12.006  65.988  1.00  0.00    -0.305 C  
HETATM   19  O   UNL     1     -11.612  13.464  69.499  1.00  0.00    -0.281 OA 
HETATM   20  O   UNL     1     -10.929  10.908  65.412  1.00  0.00    -0.115 OA 
HETATM   21  C   UNL     1     -11.339  12.081  67.492  1.00  0.00    -0.319 C  
HETATM   22  H   UNL     1     -11.143  10.081  65.829  1.00  0.00     0.000 HD 
HETATM   23  O   UNL     1     -11.818  10.879  68.115  1.00  0.00    -0.664 OA 
HETATM   24  C   UNL     1     -11.987  13.321  68.123  1.00  0.00    -0.304 C  
HETATM   25  H   UNL     1     -11.627  10.924  69.044  1.00  0.00     0.000 HD 
BRANCH  15  26
HETATM   26  C   UNL     1     -11.663  13.353  63.831  1.00  0.00    -0.404 C  
HETATM   27  O   UNL     1     -12.307  14.591  63.514  1.00  0.00    -1.081 OA 
HETATM   28  H   UNL     1     -12.529  14.603  62.591  1.00  0.00     0.000 HD 
ENDBRANCH  15  26
ENDBRANCH  13  14
ENDBRANCH   6  13
BRANCH   6  29
HETATM   29  C   UNL     1      -9.960  16.196  69.569  1.00  0.00    -0.222 C  
HETATM   30  H   UNL     1     -11.258  16.539  71.040  1.00  0.00     0.000 HD 
HETATM   31  O   UNL     1     -11.242  16.532  70.089  1.00  0.00    -0.323 OA 
ENDBRANCH   6  29
ENDBRANCH   2   4
TORSDOF 5
ENDMDL
MODEL       20
REMARK 921   NORMALIZED FREE ENERGY PREDICTED BY IDOCK:   -6.10 KCAL/MOL
REMARK 922        TOTAL FREE ENERGY PREDICTED BY IDOCK:   -8.88 KCAL/MOL
REMARK 923 INTER-LIGAND FREE ENERGY PREDICTED BY IDOCK:   -7.68 KCAL/MOL
REMARK 924 INTRA-LIGAND FREE ENERGY PREDICTED BY IDOCK:   -1.20 KCAL/MOL
REMARK 927      BINDING AFFINITY PREDICTED BY RF-SCORE:    0.00 PKD
ROOT
HETATM    1  O   UNL     1      -8.582  14.823  66.378  1.00  0.00    -0.451 OA 
HETATM    2  C   UNL     1      -9.618  15.484  65.667  1.00  0.00    -0.293 C  
HETATM    3  H   UNL     1      -8.047  15.445  66.856  1.00  0.00     0.000 HD 
ENDROOT
BRANCH   2   4
HETATM    4  C   UNL     1     -10.478  14.484  64.898  1.00  0.00    -0.409 C  
HETATM    5  O   UNL     1     -10.073  13.146  65.240  1.00  0.00    -0.287 OA 
HETATM    6  C   UNL     1     -11.207  12.287  65.018  1.00  0.00    -0.321 C  
HETATM    7  H   UNL     1     -13.297  13.622  67.254  1.00  0.00     0.000 HD 
HETATM    8  O   UNL     1     -12.684  15.005  64.001  1.00  0.00    -0.772 OA 
HETATM    9  C   UNL     1     -12.398  13.150  65.515  1.00  0.00    -0.474 C  
HETATM   10  C   UNL     1     -11.984  14.581  65.171  1.00  0.00    -0.369 C  
HETATM   11  H   UNL     1     -13.617  15.066  64.170  1.00  0.00     0.000 HD 
HETATM   12  O   UNL     1     -12.568  13.094  66.949  1.00  0.00    -0.198 OA 
BRANCH   6  13
HETATM   13  O   UNL     1     -11.139  11.109  65.853  1.00  0.00    -0.173 OA 
BRANCH  13  14
HETATM   14  C   UNL     1      -9.855  10.854  66.437  1.00  0.00    -0.207 C  
HETATM   15  C   UNL     1     -10.814   9.826  68.361  1.00  0.00    -0.201 C  
HETATM   16  O   UNL     1      -9.922  10.840  67.865  1.00  0.00    -0.169 OA 
HETATM   17  H   UNL     1      -8.852   8.646  64.202  1.00  0.00     0.000 HD 
HETATM   18  C   UNL     1     -10.299   8.438  67.997  1.00  0.00    -0.215 C  
HETATM   19  O   UNL     1      -9.202   9.474  64.508  1.00  0.00    -0.238 OA 
HETATM   20  O   UNL     1     -11.179   7.399  68.442  1.00  0.00    -0.434 OA 
HETATM   21  C   UNL     1     -10.116   8.329  66.475  1.00  0.00    -0.233 C  
HETATM   22  H   UNL     1     -10.858   6.534  68.215  1.00  0.00     0.000 HD 
HETATM   23  O   UNL     1      -9.483   7.073  66.181  1.00  0.00    -0.352 OA 
HETATM   24  C   UNL     1      -9.282   9.501  65.939  1.00  0.00    -0.206 C  
HETATM   25  H   UNL     1      -9.370   7.006  65.240  1.00  0.00     0.000 HD 
BRANCH  15  26
HETATM   26  C   UNL     1     -10.944  10.027  69.874  1.00  0.00    -0.293 C  
HETATM   27  O   UNL     1     -12.214   9.533  70.311  1.00  0.00    -0.473 OA 
HETATM   28  H   UNL     1     -12.295   9.658  71.249  1.00  0.00     0.000 HD 
ENDBRANCH  15  26
ENDBRANCH  13  14
ENDBRANCH   6  13
BRANCH   6  29
HETATM   29  C   UNL     1     -11.321  11.979  63.497  1.00  0.00    -0.442 C  
HETATM   30  H   UNL     1     -12.741  11.733  62.124  1.00  0.00     0.000 HD 
HETATM   31  O   UNL     1     -12.672  11.922  63.053  1.00  0.00    -0.472 OA 
ENDBRANCH   6  29
ENDBRANCH   2   4
TORSDOF 5
ENDMDL
MODEL       21
REMARK 921   NORMALIZED FREE ENERGY PREDICTED BY IDOCK:   -6.08 KCAL/MOL
REMARK 922        TOTAL FREE ENERGY PREDICTED BY IDOCK:   -8.86 KCAL/MOL
REMARK 923 INTER-LIGAND FREE ENERGY PREDICTED BY IDOCK:   -7.99 KCAL/MOL
REMARK 924 INTRA-LIGAND FREE ENERGY PREDICTED BY IDOCK:   -0.87 KCAL/MOL
REMARK 927      BINDING AFFINITY PREDICTED BY RF-SCORE:    0.00 PKD
ROOT
HETATM    1  O   UNL     1      -9.968  20.490  66.135  1.00  0.00    -0.589 OA 
HETATM    2  C   UNL     1     -10.158  19.954  67.436  1.00  0.00    -0.430 C  
HETATM    3  H   UNL     1     -10.622  21.150  65.940  1.00  0.00     0.000 HD 
ENDROOT
BRANCH   2   4
HETATM    4  C   UNL     1      -9.106  18.893  67.750  1.00  0.00    -0.290 C  
HETATM    5  O   UNL     1      -9.759  17.701  68.225  1.00  0.00    -0.286 OA 
HETATM    6  C   UNL     1      -8.886  16.593  67.938  1.00  0.00    -0.205 C  
HETATM    7  H   UNL     1      -8.861  16.818  64.607  1.00  0.00     0.000 HD 
HETATM    8  O   UNL     1      -6.872  18.872  66.774  1.00  0.00    -0.193 OA 
HETATM    9  C   UNL     1      -8.315  16.954  66.541  1.00  0.00    -0.280 C  
HETATM   10  C   UNL     1      -8.229  18.480  66.561  1.00  0.00    -0.281 C  
HETATM   11  H   UNL     1      -6.328  18.617  66.038  1.00  0.00     0.000 HD 
HETATM   12  O   UNL     1      -9.210  16.598  65.463  1.00  0.00    -0.438 OA 
BRANCH   6  13
HETATM   13  O   UNL     1      -9.633  15.363  67.805  1.00  0.00    -0.209 OA 
BRANCH  13  14
HETATM   14  C   UNL     1     -11.045  15.484  68.026  1.00  0.00    -0.322 C  
HETATM   15  C   UNL     1     -11.529  13.571  66.690  1.00  0.00    -0.339 C  
HETATM   16  O   UNL     1     -11.794  14.966  66.926  1.00  0.00    -0.315 OA 
HETATM   17  H   UNL     1     -10.984  14.783  71.248  1.00  0.00     0.000 HD 
HETATM   18  C   UNL     1     -11.982  12.733  67.881  1.00  0.00    -0.266 C  
HETATM   19  O   UNL     1     -10.728  15.235  70.454  1.00  0.00    -0.288 OA 
HETATM   20  O   UNL     1     -11.701  11.340  67.701  1.00  0.00    -0.564 OA 
HETATM   21  C   UNL     1     -11.294  13.228  69.163  1.00  0.00    -0.282 C  
HETATM   22  H   UNL     1     -11.983  10.817  68.444  1.00  0.00     0.000 HD 
HETATM   23  O   UNL     1     -11.859  12.527  70.282  1.00  0.00    -0.489 OA 
HETATM   24  C   UNL     1     -11.462  14.745  69.325  1.00  0.00    -0.296 C  
HETATM   25  H   UNL     1     -11.433  12.832  71.075  1.00  0.00     0.000 HD 
BRANCH  15  26
HETATM   26  C   UNL     1     -12.238  13.180  65.391  1.00  0.00    -0.461 C  
HETATM   27  O   UNL     1     -13.390  14.010  65.211  1.00  0.00    -0.741 OA 
HETATM   28  H   UNL     1     -13.830  13.768  64.404  1.00  0.00     0.000 HD 
ENDBRANCH  15  26
ENDBRANCH  13  14
ENDBRANCH   6  13
BRANCH   6  29
HETATM   29  C   UNL     1      -7.765  16.538  69.016  1.00  0.00    -0.228 C  
HETATM   30  H   UNL     1      -6.851  15.182  70.153  1.00  0.00     0.000 HD 
HETATM   31  O   UNL     1      -7.535  15.217  69.494  1.00  0.00    -0.196 OA 
ENDBRANCH   6  29
ENDBRANCH   2   4
TORSDOF 5
ENDMDL
MODEL       22
REMARK 921   NORMALIZED FREE ENERGY PREDICTED BY IDOCK:   -6.04 KCAL/MOL
REMARK 922        TOTAL FREE ENERGY PREDICTED BY IDOCK:   -8.81 KCAL/MOL
REMARK 923 INTER-LIGAND FREE ENERGY PREDICTED BY IDOCK:   -8.01 KCAL/MOL
REMARK 924 INTRA-LIGAND FREE ENERGY PREDICTED BY IDOCK:   -0.80 KCAL/MOL
REMARK 927      BINDING AFFINITY PREDICTED BY RF-SCORE:    0.00 PKD
ROOT
HETATM    1  O   UNL     1      -6.400  10.636  64.738  1.00  0.00    -0.339 OA 
HETATM    2  C   UNL     1      -6.806   9.664  65.691  1.00  0.00    -0.091 C  
HETATM    3  H   UNL     1      -5.532  10.442  64.404  1.00  0.00     0.000 HD 
ENDROOT
BRANCH   2   4
HETATM    4  C   UNL     1      -8.201   9.975  66.228  1.00  0.00    -0.124 C  
HETATM    5  O   UNL     1      -8.353  11.400  66.363  1.00  0.00    -0.167 OA 
HETATM    6  C   UNL     1      -9.760  11.688  66.274  1.00  0.00    -0.218 C  
HETATM    7  H   UNL     1     -10.299  10.615  63.158  1.00  0.00     0.000 HD 
HETATM    8  O   UNL     1     -10.100   8.460  66.019  1.00  0.00    -0.470 OA 
HETATM    9  C   UNL     1     -10.245  10.712  65.169  1.00  0.00    -0.299 C  
HETATM   10  C   UNL     1      -9.357   9.481  65.351  1.00  0.00    -0.261 C  
HETATM   11  H   UNL     1     -10.816   8.154  65.476  1.00  0.00     0.000 HD 
HETATM   12  O   UNL     1     -10.002  11.212  63.835  1.00  0.00    -0.267 OA 
BRANCH   6  13
HETATM   13  O   UNL     1      -9.986  13.036  65.800  1.00  0.00    -0.279 OA 
BRANCH  13  14
HETATM   14  C   UNL     1     -11.218  13.631  66.229  1.00  0.00    -0.305 C  
HETATM   15  C   UNL     1     -10.122  15.595  67.016  1.00  0.00    -0.253 C  
HETATM   16  O   UNL     1     -11.016  14.514  67.335  1.00  0.00    -0.288 OA 
HETATM   17  H   UNL     1     -12.512  14.035  63.223  1.00  0.00     0.000 HD 
HETATM   18  C   UNL     1     -10.721  16.482  65.932  1.00  0.00    -0.190 C  
HETATM   19  O   UNL     1     -12.103  13.557  63.935  1.00  0.00    -0.476 OA 
HETATM   20  O   UNL     1      -9.843  17.551  65.559  1.00  0.00    -0.508 OA 
HETATM   21  C   UNL     1     -11.052  15.641  64.689  1.00  0.00    -0.373 C  
HETATM   22  H   UNL     1     -10.217  18.105  64.883  1.00  0.00     0.000 HD 
HETATM   23  O   UNL     1     -11.757  16.471  63.752  1.00  0.00    -1.548 OA 
HETATM   24  C   UNL     1     -11.886  14.410  65.066  1.00  0.00    -0.400 C  
HETATM   25  H   UNL     1     -11.961  15.952  62.983  1.00  0.00     0.000 HD 
BRANCH  15  26
HETATM   26  C   UNL     1      -9.841  16.358  68.314  1.00  0.00    -0.229 C  
HETATM   27  O   UNL     1      -9.462  15.432  69.337  1.00  0.00    -0.246 OA 
HETATM   28  H   UNL     1      -9.287  15.905  70.141  1.00  0.00     0.000 HD 
ENDBRANCH  15  26
ENDBRANCH  13  14
ENDBRANCH   6  13
BRANCH   6  29
HETATM   29  C   UNL     1     -10.431  11.380  67.643  1.00  0.00    -0.194 C  
HETATM   30  H   UNL     1     -12.022  10.409  68.344  1.00  0.00     0.000 HD 
HETATM   31  O   UNL     1     -11.612  10.597  67.507  1.00  0.00    -0.482 OA 
ENDBRANCH   6  29
ENDBRANCH   2   4
TORSDOF 5
ENDMDL
MODEL       23
REMARK 921   NORMALIZED FREE ENERGY PREDICTED BY IDOCK:   -6.02 KCAL/MOL
REMARK 922        TOTAL FREE ENERGY PREDICTED BY IDOCK:   -8.79 KCAL/MOL
REMARK 923 INTER-LIGAND FREE ENERGY PREDICTED BY IDOCK:   -7.74 KCAL/MOL
REMARK 924 INTRA-LIGAND FREE ENERGY PREDICTED BY IDOCK:   -1.05 KCAL/MOL
REMARK 927      BINDING AFFINITY PREDICTED BY RF-SCORE:    0.00 PKD
ROOT
HETATM    1  O   UNL     1     -12.719   9.462  70.563  1.00  0.00    -0.500 OA 
HETATM    2  C   UNL     1     -11.559  10.276  70.464  1.00  0.00    -0.338 C  
HETATM    3  H   UNL     1     -13.198   9.650  71.360  1.00  0.00     0.000 HD 
ENDROOT
BRANCH   2   4
HETATM    4  C   UNL     1     -10.787   9.974  69.181  1.00  0.00    -0.222 C  
HETATM    5  O   UNL     1     -11.385  10.692  68.086  1.00  0.00    -0.293 OA 
HETATM    6  C   UNL     1     -10.360  10.886  67.094  1.00  0.00    -0.220 C  
HETATM    7  H   UNL     1      -8.269  12.770  68.890  1.00  0.00     0.000 HD 
HETATM    8  O   UNL     1      -8.476   9.198  69.144  1.00  0.00    -0.126 OA 
HETATM    9  C   UNL     1      -9.103  11.197  67.950  1.00  0.00    -0.150 C  
HETATM   10  C   UNL     1      -9.303  10.360  69.214  1.00  0.00    -0.187 C  
HETATM   11  H   UNL     1      -7.557   9.437  69.164  1.00  0.00     0.000 HD 
HETATM   12  O   UNL     1      -9.039  12.580  68.366  1.00  0.00    -0.194 OA 
BRANCH   6  13
HETATM   13  O   UNL     1     -10.638  12.049  66.281  1.00  0.00    -0.238 OA 
BRANCH  13  14
HETATM   14  C   UNL     1     -11.951  12.602  66.443  1.00  0.00    -0.357 C  
HETATM   15  C   UNL     1     -11.124  14.837  66.472  1.00  0.00    -0.334 C  
HETATM   16  O   UNL     1     -11.913  13.843  67.151  1.00  0.00    -0.392 OA 
HETATM   17  H   UNL     1     -13.100  11.728  63.477  1.00  0.00     0.000 HD 
HETATM   18  C   UNL     1     -11.751  15.191  65.129  1.00  0.00    -0.179 C  
HETATM   19  O   UNL     1     -12.684  11.595  64.321  1.00  0.00    -0.138 OA 
HETATM   20  O   UNL     1     -10.974  16.152  64.404  1.00  0.00    -0.924 OA 
HETATM   21  C   UNL     1     -11.913  13.923  64.275  1.00  0.00    -0.444 C  
HETATM   22  H   UNL     1     -11.365  16.372  63.566  1.00  0.00     0.000 HD 
HETATM   23  O   UNL     1     -12.648  14.264  63.089  1.00  0.00    -1.028 OA 
HETATM   24  C   UNL     1     -12.630  12.819  65.065  1.00  0.00    -0.468 C  
HETATM   25  H   UNL     1     -12.748  13.480  62.561  1.00  0.00     0.000 HD 
BRANCH  15  26
HETATM   26  C   UNL     1     -11.006  16.046  67.404  1.00  0.00    -0.237 C  
HETATM   27  O   UNL     1     -10.044  16.963  66.873  1.00  0.00    -0.272 OA 
HETATM   28  H   UNL     1      -9.971  17.713  67.450  1.00  0.00     0.000 HD 
ENDBRANCH  15  26
ENDBRANCH  13  14
ENDBRANCH   6  13
BRANCH   6  29
HETATM   29  C   UNL     1     -10.186   9.572  66.279  1.00  0.00    -0.220 C  
HETATM   30  H   UNL     1      -9.467   8.992  64.515  1.00  0.00     0.000 HD 
HETATM   31  O   UNL     1      -9.573   9.794  65.013  1.00  0.00    -0.276 OA 
ENDBRANCH   6  29
ENDBRANCH   2   4
TORSDOF 5
ENDMDL
MODEL       24
REMARK 921   NORMALIZED FREE ENERGY PREDICTED BY IDOCK:   -5.99 KCAL/MOL
REMARK 922        TOTAL FREE ENERGY PREDICTED BY IDOCK:   -8.75 KCAL/MOL
REMARK 923 INTER-LIGAND FREE ENERGY PREDICTED BY IDOCK:   -7.68 KCAL/MOL
REMARK 924 INTRA-LIGAND FREE ENERGY PREDICTED BY IDOCK:   -1.07 KCAL/MOL
REMARK 927      BINDING AFFINITY PREDICTED BY RF-SCORE:    0.00 PKD
ROOT
HETATM    1  O   UNL     1     -11.409  11.510  63.053  1.00  0.00    -0.807 OA 
HETATM    2  C   UNL     1     -12.558  12.134  63.607  1.00  0.00    -0.504 C  
HETATM    3  H   UNL     1     -11.644  10.951  62.323  1.00  0.00     0.000 HD 
ENDROOT
BRANCH   2   4
HETATM    4  C   UNL     1     -12.179  13.034  64.780  1.00  0.00    -0.435 C  
HETATM    5  O   UNL     1     -12.186  12.261  65.995  1.00  0.00    -0.646 OA 
HETATM    6  C   UNL     1     -11.290  12.910  66.917  1.00  0.00    -0.312 C  
HETATM    7  H   UNL     1      -8.455  12.580  65.184  1.00  0.00     0.000 HD 
HETATM    8  O   UNL     1     -10.919  15.108  64.543  1.00  0.00    -0.624 OA 
HETATM    9  C   UNL     1     -10.120  13.363  66.004  1.00  0.00    -0.304 C  
HETATM   10  C   UNL     1     -10.797  13.691  64.673  1.00  0.00    -0.407 C  
HETATM   11  H   UNL     1     -10.063  15.514  64.477  1.00  0.00     0.000 HD 
HETATM   12  O   UNL     1      -9.172  12.303  65.743  1.00  0.00    -0.120 OA 
BRANCH   6  13
HETATM   13  O   UNL     1     -10.760  11.967  67.877  1.00  0.00    -0.192 OA 
BRANCH  13  14
HETATM   14  C   UNL     1     -11.515  10.756  68.017  1.00  0.00    -0.256 C  
HETATM   15  C   UNL     1      -9.574   9.392  67.788  1.00  0.00    -0.134 C  
HETATM   16  O   UNL     1     -10.903   9.673  67.313  1.00  0.00    -0.254 OA 
HETATM   17  H   UNL     1     -12.369  11.204  71.171  1.00  0.00     0.000 HD 
HETATM   18  C   UNL     1      -9.613   8.922  69.237  1.00  0.00    -0.162 C  
HETATM   19  O   UNL     1     -12.276  11.438  70.255  1.00  0.00    -0.332 OA 
HETATM   20  O   UNL     1      -8.305   8.667  69.761  1.00  0.00    -0.117 OA 
HETATM   21  C   UNL     1     -10.312   9.976  70.112  1.00  0.00    -0.266 C  
HETATM   22  H   UNL     1      -8.329   8.374  70.665  1.00  0.00     0.000 HD 
HETATM   23  O   UNL     1     -10.474   9.436  71.433  1.00  0.00    -0.333 OA 
HETATM   24  C   UNL     1     -11.668  10.373  69.513  1.00  0.00    -0.188 C  
HETATM   25  H   UNL     1     -10.905  10.088  71.974  1.00  0.00     0.000 HD 
BRANCH  15  26
HETATM   26  C   UNL     1      -8.960   8.351  66.848  1.00  0.00    -0.145 C  
HETATM   27  O   UNL     1      -9.996   7.511  66.328  1.00  0.00    -0.445 OA 
HETATM   28  H   UNL     1      -9.615   6.865  65.745  1.00  0.00     0.000 HD 
ENDBRANCH  15  26
ENDBRANCH  13  14
ENDBRANCH   6  13
BRANCH   6  29
HETATM   29  C   UNL     1     -12.016  14.126  67.561  1.00  0.00    -0.384 C  
HETATM   30  H   UNL     1     -11.610  16.003  68.085  1.00  0.00     0.000 HD 
HETATM   31  O   UNL     1     -11.166  15.260  67.691  1.00  0.00    -0.313 OA 
ENDBRANCH   6  29
ENDBRANCH   2   4
TORSDOF 5
ENDMDL
MODEL       25
REMARK 921   NORMALIZED FREE ENERGY PREDICTED BY IDOCK:   -5.98 KCAL/MOL
REMARK 922        TOTAL FREE ENERGY PREDICTED BY IDOCK:   -8.73 KCAL/MOL
REMARK 923 INTER-LIGAND FREE ENERGY PREDICTED BY IDOCK:   -7.91 KCAL/MOL
REMARK 924 INTRA-LIGAND FREE ENERGY PREDICTED BY IDOCK:   -0.82 KCAL/MOL
REMARK 927      BINDING AFFINITY PREDICTED BY RF-SCORE:    0.00 PKD
ROOT
HETATM    1  O   UNL     1     -12.325  13.368  63.401  1.00  0.00    -0.808 OA 
HETATM    2  C   UNL     1     -12.744  12.594  64.516  1.00  0.00    -0.357 C  
HETATM    3  H   UNL     1     -12.912  13.250  62.665  1.00  0.00     0.000 HD 
ENDROOT
BRANCH   2   4
HETATM    4  C   UNL     1     -11.799  12.784  65.701  1.00  0.00    -0.425 C  
HETATM    5  O   UNL     1     -12.267  11.999  66.813  1.00  0.00    -0.545 OA 
HETATM    6  C   UNL     1     -11.125  11.712  67.641  1.00  0.00    -0.255 C  
HETATM    7  H   UNL     1      -9.347   9.927  65.449  1.00  0.00     0.000 HD 
HETATM    8  O   UNL     1      -9.483  13.512  65.481  1.00  0.00    -0.500 OA 
HETATM    9  C   UNL     1     -10.003  11.442  66.603  1.00  0.00    -0.208 C  
HETATM   10  C   UNL     1     -10.345  12.374  65.441  1.00  0.00    -0.277 C  
HETATM   11  H   UNL     1      -8.582  13.258  65.320  1.00  0.00     0.000 HD 
HETATM   12  O   UNL     1     -10.034  10.093  66.084  1.00  0.00    -0.220 OA 
BRANCH   6  13
HETATM   13  O   UNL     1     -11.325  10.497  68.399  1.00  0.00    -0.282 OA 
BRANCH  13  14
HETATM   14  C   UNL     1     -10.635  10.446  69.655  1.00  0.00    -0.253 C  
HETATM   15  C   UNL     1     -12.527   9.536  70.782  1.00  0.00    -0.124 C  
HETATM   16  O   UNL     1     -11.537  10.580  70.755  1.00  0.00    -0.333 OA 
HETATM   17  H   UNL     1      -8.452   8.127  68.795  1.00  0.00     0.000 HD 
HETATM   18  C   UNL     1     -11.867   8.180  71.002  1.00  0.00    -0.260 C  
HETATM   19  O   UNL     1      -8.933   8.941  68.708  1.00  0.00    -0.133 OA 
HETATM   20  O   UNL     1     -12.817   7.108  70.998  1.00  0.00    -0.527 OA 
HETATM   21  C   UNL     1     -10.813   7.926  69.913  1.00  0.00    -0.221 C  
HETATM   22  H   UNL     1     -12.406   6.262  71.136  1.00  0.00     0.000 HD 
HETATM   23  O   UNL     1     -10.103   6.721  70.239  1.00  0.00    -0.178 OA 
HETATM   24  C   UNL     1      -9.849   9.115  69.797  1.00  0.00    -0.181 C  
HETATM   25  H   UNL     1      -9.451   6.564  69.566  1.00  0.00     0.000 HD 
BRANCH  15  26
HETATM   26  C   UNL     1     -13.535   9.886  71.880  1.00  0.00    -0.372 C  
HETATM   27  O   UNL     1     -13.397   8.962  72.963  1.00  0.00    -0.865 OA 
HETATM   28  H   UNL     1     -14.022   9.179  73.645  1.00  0.00     0.000 HD 
ENDBRANCH  15  26
ENDBRANCH  13  14
ENDBRANCH   6  13
BRANCH   6  29
HETATM   29  C   UNL     1     -10.805  12.957  68.517  1.00  0.00    -0.257 C  
HETATM   30  H   UNL     1     -11.785  14.339  69.564  1.00  0.00     0.000 HD 
HETATM   31  O   UNL     1     -11.980  13.577  69.029  1.00  0.00    -0.327 OA 
ENDBRANCH   6  29
ENDBRANCH   2   4
TORSDOF 5
ENDMDL
MODEL       26
REMARK 921   NORMALIZED FREE ENERGY PREDICTED BY IDOCK:   -5.97 KCAL/MOL
REMARK 922        TOTAL FREE ENERGY PREDICTED BY IDOCK:   -8.72 KCAL/MOL
REMARK 923 INTER-LIGAND FREE ENERGY PREDICTED BY IDOCK:   -8.69 KCAL/MOL
REMARK 924 INTRA-LIGAND FREE ENERGY PREDICTED BY IDOCK:   -0.03 KCAL/MOL
REMARK 927      BINDING AFFINITY PREDICTED BY RF-SCORE:    0.00 PKD
ROOT
HETATM    1  O   UNL     1     -10.033  20.745  67.312  1.00  0.00    -0.447 OA 
HETATM    2  C   UNL     1     -10.257  20.263  68.629  1.00  0.00    -0.127 C  
HETATM    3  H   UNL     1     -10.317  21.647  67.228  1.00  0.00     0.000 HD 
ENDROOT
BRANCH   2   4
HETATM    4  C   UNL     1      -9.801  18.812  68.765  1.00  0.00    -0.384 C  
HETATM    5  O   UNL     1     -10.829  17.940  68.261  1.00  0.00    -0.289 OA 
HETATM    6  C   UNL     1     -10.187  16.720  67.844  1.00  0.00    -0.300 C  
HETATM    7  H   UNL     1      -8.250  17.971  65.429  1.00  0.00     0.000 HD 
HETATM    8  O   UNL     1      -7.463  18.139  68.925  1.00  0.00    -0.282 OA 
HETATM    9  C   UNL     1      -8.872  17.226  67.194  1.00  0.00    -0.226 C  
HETATM   10  C   UNL     1      -8.510  18.466  68.011  1.00  0.00    -0.276 C  
HETATM   11  H   UNL     1      -6.664  17.925  68.458  1.00  0.00     0.000 HD 
HETATM   12  O   UNL     1      -9.056  17.661  65.828  1.00  0.00    -0.503 OA 
BRANCH   6  13
HETATM   13  O   UNL     1     -10.957  16.052  66.819  1.00  0.00    -0.248 OA 
BRANCH  13  14
HETATM   14  C   UNL     1     -10.180  15.376  65.821  1.00  0.00    -0.354 C  
HETATM   15  C   UNL     1     -11.075  13.248  66.410  1.00  0.00    -0.295 C  
HETATM   16  O   UNL     1      -9.886  14.032  66.208  1.00  0.00    -0.286 OA 
HETATM   17  H   UNL     1     -11.693  16.694  63.204  1.00  0.00     0.000 HD 
HETATM   18  C   UNL     1     -11.847  13.102  65.104  1.00  0.00    -0.359 C  
HETATM   19  O   UNL     1     -11.239  16.700  64.038  1.00  0.00    -1.052 OA 
HETATM   20  O   UNL     1     -13.059  12.357  65.270  1.00  0.00    -0.403 OA 
HETATM   21  C   UNL     1     -12.179  14.490  64.533  1.00  0.00    -0.465 C  
HETATM   22  H   UNL     1     -13.541  12.266  64.456  1.00  0.00     0.000 HD 
HETATM   23  O   UNL     1     -12.762  14.319  63.231  1.00  0.00    -0.940 OA 
HETATM   24  C   UNL     1     -10.922  15.367  64.459  1.00  0.00    -0.203 C  
HETATM   25  H   UNL     1     -12.968  15.177  62.878  1.00  0.00     0.000 HD 
BRANCH  15  26
HETATM   26  C   UNL     1     -10.643  11.899  66.992  1.00  0.00    -0.227 C  
HETATM   27  O   UNL     1     -11.797  11.190  67.453  1.00  0.00    -0.570 OA 
HETATM   28  H   UNL     1     -11.530  10.353  67.814  1.00  0.00     0.000 HD 
ENDBRANCH  15  26
ENDBRANCH  13  14
ENDBRANCH   6  13
BRANCH   6  29
HETATM   29  C   UNL     1      -9.905  15.841  69.096  1.00  0.00    -0.247 C  
HETATM   30  H   UNL     1      -8.373  14.884  69.936  1.00  0.00     0.000 HD 
HETATM   31  O   UNL     1      -8.546  15.422  69.171  1.00  0.00    -0.208 OA 
ENDBRANCH   6  29
ENDBRANCH   2   4
TORSDOF 5
ENDMDL
MODEL       27
REMARK 921   NORMALIZED FREE ENERGY PREDICTED BY IDOCK:   -5.95 KCAL/MOL
REMARK 922        TOTAL FREE ENERGY PREDICTED BY IDOCK:   -8.70 KCAL/MOL
REMARK 923 INTER-LIGAND FREE ENERGY PREDICTED BY IDOCK:   -7.74 KCAL/MOL
REMARK 924 INTRA-LIGAND FREE ENERGY PREDICTED BY IDOCK:   -0.96 KCAL/MOL
REMARK 927      BINDING AFFINITY PREDICTED BY RF-SCORE:    0.00 PKD
ROOT
HETATM    1  O   UNL     1     -10.923  19.422  66.707  1.00  0.00    -0.421 OA 
HETATM    2  C   UNL     1     -10.505  19.542  68.058  1.00  0.00    -0.405 C  
HETATM    3  H   UNL     1     -11.582  20.072  66.496  1.00  0.00     0.000 HD 
ENDROOT
BRANCH   2   4
HETATM    4  C   UNL     1      -9.444  18.498  68.398  1.00  0.00    -0.341 C  
HETATM    5  O   UNL     1      -9.951  17.186  68.091  1.00  0.00    -0.270 OA 
HETATM    6  C   UNL     1      -8.815  16.339  67.838  1.00  0.00    -0.183 C  
HETATM    7  H   UNL     1      -7.593  17.916  65.161  1.00  0.00     0.000 HD 
HETATM    8  O   UNL     1      -7.060  18.989  68.543  1.00  0.00    -0.266 OA 
HETATM    9  C   UNL     1      -7.856  17.270  67.050  1.00  0.00    -0.214 C  
HETATM   10  C   UNL     1      -8.118  18.654  67.643  1.00  0.00    -0.247 C  
HETATM   11  H   UNL     1      -6.239  19.086  68.075  1.00  0.00     0.000 HD 
HETATM   12  O   UNL     1      -8.180  17.346  65.644  1.00  0.00    -0.491 OA 
BRANCH   6  13
HETATM   13  O   UNL     1      -9.171  15.237  66.971  1.00  0.00    -0.199 OA 
BRANCH  13  14
HETATM   14  C   UNL     1     -10.345  14.513  67.362  1.00  0.00    -0.252 C  
HETATM   15  C   UNL     1     -11.130  14.360  65.117  1.00  0.00    -0.362 C  
HETATM   16  O   UNL     1     -11.433  14.756  66.467  1.00  0.00    -0.352 OA 
HETATM   17  H   UNL     1      -8.792  11.772  68.339  1.00  0.00     0.000 HD 
HETATM   18  C   UNL     1     -10.910  12.854  65.039  1.00  0.00    -0.299 C  
HETATM   19  O   UNL     1      -8.969  12.705  68.305  1.00  0.00    -0.194 OA 
HETATM   20  O   UNL     1     -10.569  12.423  63.716  1.00  0.00    -0.399 OA 
HETATM   21  C   UNL     1      -9.794  12.436  66.011  1.00  0.00    -0.257 C  
HETATM   22  H   UNL     1     -10.431  11.484  63.667  1.00  0.00     0.000 HD 
HETATM   23  O   UNL     1      -9.721  11.001  66.030  1.00  0.00    -0.207 OA 
HETATM   24  C   UNL     1     -10.058  12.989  67.418  1.00  0.00    -0.231 C  
HETATM   25  H   UNL     1      -9.032  10.743  66.630  1.00  0.00     0.000 HD 
BRANCH  15  26
HETATM   26  C   UNL     1     -12.284  14.833  64.229  1.00  0.00    -0.379 C  
HETATM   27  O   UNL     1     -12.007  16.153  63.753  1.00  0.00    -1.394 OA 
HETATM   28  H   UNL     1     -12.722  16.447  63.202  1.00  0.00     0.000 HD 
ENDBRANCH  15  26
ENDBRANCH  13  14
ENDBRANCH   6  13
BRANCH   6  29
HETATM   29  C   UNL     1      -8.197  15.899  69.197  1.00  0.00    -0.240 C  
HETATM   30  H   UNL     1      -6.396  15.632  70.003  1.00  0.00     0.000 HD 
HETATM   31  O   UNL     1      -6.774  15.901  69.173  1.00  0.00    -0.141 OA 
ENDBRANCH   6  29
ENDBRANCH   2   4
TORSDOF 5
ENDMDL
MODEL       28
REMARK 921   NORMALIZED FREE ENERGY PREDICTED BY IDOCK:   -5.94 KCAL/MOL
REMARK 922        TOTAL FREE ENERGY PREDICTED BY IDOCK:   -8.69 KCAL/MOL
REMARK 923 INTER-LIGAND FREE ENERGY PREDICTED BY IDOCK:   -7.73 KCAL/MOL
REMARK 924 INTRA-LIGAND FREE ENERGY PREDICTED BY IDOCK:   -0.95 KCAL/MOL
REMARK 927      BINDING AFFINITY PREDICTED BY RF-SCORE:    0.00 PKD
ROOT
HETATM    1  O   UNL     1      -8.847  17.573  65.809  1.00  0.00    -0.514 OA 
HETATM    2  C   UNL     1     -10.203  17.708  66.208  1.00  0.00    -0.362 C  
HETATM    3  H   UNL     1      -8.618  18.224  65.157  1.00  0.00     0.000 HD 
ENDROOT
BRANCH   2   4
HETATM    4  C   UNL     1     -10.572  16.660  67.255  1.00  0.00    -0.281 C  
HETATM    5  O   UNL     1     -10.849  15.408  66.600  1.00  0.00    -0.310 OA 
HETATM    6  C   UNL     1     -10.597  14.362  67.556  1.00  0.00    -0.265 C  
HETATM    7  H   UNL     1      -7.333  14.886  68.029  1.00  0.00     0.000 HD 
HETATM    8  O   UNL     1      -9.925  16.805  69.602  1.00  0.00    -0.118 OA 
HETATM    9  C   UNL     1      -9.329  14.866  68.296  1.00  0.00    -0.195 C  
HETATM   10  C   UNL     1      -9.490  16.387  68.307  1.00  0.00    -0.217 C  
HETATM   11  H   UNL     1      -9.254  16.636  70.253  1.00  0.00     0.000 HD 
HETATM   12  O   UNL     1      -8.109  14.577  67.577  1.00  0.00    -0.161 OA 
BRANCH   6  13
HETATM   13  O   UNL     1     -10.255  13.123  66.893  1.00  0.00    -0.240 OA 
BRANCH  13  14
HETATM   14  C   UNL     1     -11.321  12.167  66.810  1.00  0.00    -0.342 C  
HETATM   15  C   UNL     1     -11.450  12.354  64.438  1.00  0.00    -0.347 C  
HETATM   16  O   UNL     1     -12.165  12.419  65.685  1.00  0.00    -0.599 OA 
HETATM   17  H   UNL     1      -9.557   9.550  67.769  1.00  0.00     0.000 HD 
HETATM   18  C   UNL     1     -10.919  10.945  64.200  1.00  0.00     0.124 C  
HETATM   19  O   UNL     1      -9.902  10.433  67.827  1.00  0.00    -0.164 OA 
HETATM   20  O   UNL     1     -10.167  10.847  62.984  1.00  0.00    -0.608 OA 
HETATM   21  C   UNL     1     -10.033  10.512  65.379  1.00  0.00    -0.289 C  
HETATM   22  H   UNL     1      -9.836   9.968  62.836  1.00  0.00     0.000 HD 
HETATM   23  O   UNL     1      -9.682   9.131  65.201  1.00  0.00    -0.449 OA 
HETATM   24  C   UNL     1     -10.758  10.724  66.715  1.00  0.00    -0.231 C  
HETATM   25  H   UNL     1      -9.134   8.863  65.929  1.00  0.00     0.000 HD 
BRANCH  15  26
HETATM   26  C   UNL     1     -12.404  12.818  63.335  1.00  0.00    -0.437 C  
HETATM   27  O   UNL     1     -12.350  14.244  63.228  1.00  0.00    -1.118 OA 
HETATM   28  H   UNL     1     -12.942  14.532  62.544  1.00  0.00     0.000 HD 
ENDBRANCH  15  26
ENDBRANCH  13  14
ENDBRANCH   6  13
BRANCH   6  29
HETATM   29  C   UNL     1     -11.813  14.249  68.519  1.00  0.00    -0.347 C  
HETATM   30  H   UNL     1     -12.174  14.233  70.477  1.00  0.00     0.000 HD 
HETATM   31  O   UNL     1     -11.430  14.303  69.889  1.00  0.00    -0.261 OA 
ENDBRANCH   6  29
ENDBRANCH   2   4
TORSDOF 5
ENDMDL
MODEL       29
REMARK 921   NORMALIZED FREE ENERGY PREDICTED BY IDOCK:   -5.85 KCAL/MOL
REMARK 922        TOTAL FREE ENERGY PREDICTED BY IDOCK:   -8.56 KCAL/MOL
REMARK 923 INTER-LIGAND FREE ENERGY PREDICTED BY IDOCK:   -7.55 KCAL/MOL
REMARK 924 INTRA-LIGAND FREE ENERGY PREDICTED BY IDOCK:   -1.01 KCAL/MOL
REMARK 927      BINDING AFFINITY PREDICTED BY RF-SCORE:    0.00 PKD
ROOT
HETATM    1  O   UNL     1      -7.042  10.448  70.811  1.00  0.00    -0.431 OA 
HETATM    2  C   UNL     1      -7.675   9.952  69.641  1.00  0.00    -0.149 C  
HETATM    3  H   UNL     1      -6.098  10.440  70.716  1.00  0.00     0.000 HD 
ENDROOT
BRANCH   2   4
HETATM    4  C   UNL     1      -9.195   9.965  69.794  1.00  0.00    -0.227 C  
HETATM    5  O   UNL     1      -9.753  10.957  68.912  1.00  0.00    -0.191 OA 
HETATM    6  C   UNL     1     -11.105  10.557  68.623  1.00  0.00    -0.267 C  
HETATM    7  H   UNL     1     -10.458   7.667  67.080  1.00  0.00     0.000 HD 
HETATM    8  O   UNL     1     -10.486   8.080  70.644  1.00  0.00    -0.205 OA 
HETATM    9  C   UNL     1     -10.988   9.016  68.478  1.00  0.00     0.086 C  
HETATM   10  C   UNL     1      -9.890   8.636  69.471  1.00  0.00    -0.187 C  
HETATM   11  H   UNL     1     -10.916   7.257  70.444  1.00  0.00     0.000 HD 
HETATM   12  O   UNL     1     -10.530   8.611  67.169  1.00  0.00    -0.285 OA 
BRANCH   6  13
HETATM   13  O   UNL     1     -11.543  11.086  67.350  1.00  0.00    -0.525 OA 
BRANCH  13  14
HETATM   14  C   UNL     1     -10.670  12.063  66.768  1.00  0.00    -0.243 C  
HETATM   15  C   UNL     1     -10.613  10.925  64.675  1.00  0.00    -0.262 C  
HETATM   16  O   UNL     1      -9.844  11.490  65.752  1.00  0.00    -0.218 OA 
HETATM   17  H   UNL     1     -12.829  14.557  66.782  1.00  0.00     0.000 HD 
HETATM   18  C   UNL     1     -11.397  12.013  63.950  1.00  0.00    -0.425 C  
HETATM   19  O   UNL     1     -12.330  13.838  67.152  1.00  0.00    -0.357 OA 
HETATM   20  O   UNL     1     -12.206  11.486  62.892  1.00  0.00    -0.942 OA 
HETATM   21  C   UNL     1     -12.293  12.766  64.947  1.00  0.00    -0.490 C  
HETATM   22  H   UNL     1     -12.694  12.164  62.441  1.00  0.00     0.000 HD 
HETATM   23  O   UNL     1     -12.893  13.880  64.267  1.00  0.00    -0.618 OA 
HETATM   24  C   UNL     1     -11.485  13.237  66.163  1.00  0.00    -0.328 C  
HETATM   25  H   UNL     1     -13.448  14.345  64.882  1.00  0.00     0.000 HD 
BRANCH  15  26
HETATM   26  C   UNL     1      -9.639  10.187  63.752  1.00  0.00    -0.223 C  
HETATM   27  O   UNL     1      -9.283   8.933  64.343  1.00  0.00    -0.404 OA 
HETATM   28  H   UNL     1      -8.680   8.475  63.771  1.00  0.00     0.000 HD 
ENDBRANCH  15  26
ENDBRANCH  13  14
ENDBRANCH   6  13
BRANCH   6  29
HETATM   29  C   UNL     1     -12.019  10.951  69.818  1.00  0.00    -0.351 C  
HETATM   30  H   UNL     1     -12.606  12.598  70.772  1.00  0.00     0.000 HD 
HETATM   31  O   UNL     1     -12.048  12.357  70.041  1.00  0.00    -0.309 OA 
ENDBRANCH   6  29
ENDBRANCH   2   4
TORSDOF 5
ENDMDL
MODEL       30
REMARK 921   NORMALIZED FREE ENERGY PREDICTED BY IDOCK:   -5.85 KCAL/MOL
REMARK 922        TOTAL FREE ENERGY PREDICTED BY IDOCK:   -8.56 KCAL/MOL
REMARK 923 INTER-LIGAND FREE ENERGY PREDICTED BY IDOCK:   -7.63 KCAL/MOL
REMARK 924 INTRA-LIGAND FREE ENERGY PREDICTED BY IDOCK:   -0.93 KCAL/MOL
REMARK 927      BINDING AFFINITY PREDICTED BY RF-SCORE:    0.00 PKD
ROOT
HETATM    1  O   UNL     1     -11.466  16.666  63.905  1.00  0.00    -1.604 OA 
HETATM    2  C   UNL     1     -11.020  15.885  65.004  1.00  0.00    -0.412 C  
HETATM    3  H   UNL     1     -11.564  17.577  64.153  1.00  0.00     0.000 HD 
ENDROOT
BRANCH   2   4
HETATM    4  C   UNL     1     -10.862  14.419  64.605  1.00  0.00    -0.346 C  
HETATM    5  O   UNL     1      -9.868  13.802  65.443  1.00  0.00    -0.246 OA 
HETATM    6  C   UNL     1     -10.158  12.392  65.480  1.00  0.00    -0.267 C  
HETATM    7  H   UNL     1     -13.166  12.534  66.924  1.00  0.00     0.000 HD 
HETATM    8  O   UNL     1     -12.580  13.142  63.437  1.00  0.00    -0.722 OA 
HETATM    9  C   UNL     1     -11.708  12.359  65.545  1.00  0.00    -0.407 C  
HETATM   10  C   UNL     1     -12.137  13.575  64.724  1.00  0.00    -0.404 C  
HETATM   11  H   UNL     1     -13.369  12.620  63.511  1.00  0.00     0.000 HD 
HETATM   12  O   UNL     1     -12.216  12.554  66.884  1.00  0.00    -0.511 OA 
BRANCH   6  13
HETATM   13  O   UNL     1      -9.654  11.790  66.694  1.00  0.00    -0.196 OA 
BRANCH  13  14
HETATM   14  C   UNL     1      -8.582  10.856  66.508  1.00  0.00    -0.156 C  
HETATM   15  C   UNL     1      -7.520  11.502  68.541  1.00  0.00    -0.115 C  
HETATM   16  O   UNL     1      -7.375  11.314  67.121  1.00  0.00    -0.114 OA 
HETATM   17  H   UNL     1     -10.395   8.123  66.852  1.00  0.00     0.000 HD 
HETATM   18  C   UNL     1      -7.810  10.173  69.229  1.00  0.00    -0.134 C  
HETATM   19  O   UNL     1     -10.166   8.974  66.497  1.00  0.00    -0.278 OA 
HETATM   20  O   UNL     1      -7.998  10.323  70.641  1.00  0.00    -0.361 OA 
HETATM   21  C   UNL     1      -9.063   9.528  68.617  1.00  0.00    -0.132 C  
HETATM   22  H   UNL     1      -8.178   9.494  71.070  1.00  0.00     0.000 HD 
HETATM   23  O   UNL     1      -9.216   8.212  69.173  1.00  0.00    -0.151 OA 
HETATM   24  C   UNL     1      -8.956   9.466  67.087  1.00  0.00    -0.130 C  
HETATM   25  H   UNL     1      -9.991   7.813  68.795  1.00  0.00     0.000 HD 
BRANCH  15  26
HETATM   26  C   UNL     1      -6.235  12.161  69.051  1.00  0.00    -0.081 C  
HETATM   27  O   UNL     1      -6.440  12.627  70.388  1.00  0.00    -0.437 OA 
HETATM   28  H   UNL     1      -5.644  13.036  70.705  1.00  0.00     0.000 HD 
ENDBRANCH  15  26
ENDBRANCH  13  14
ENDBRANCH   6  13
BRANCH   6  29
HETATM   29  C   UNL     1      -9.625  11.729  64.178  1.00  0.00    -0.072 C  
HETATM   30  H   UNL     1     -10.347  10.808  62.567  1.00  0.00     0.000 HD 
HETATM   31  O   UNL     1     -10.672  11.213  63.362  1.00  0.00    -0.360 OA 
ENDBRANCH   6  29
ENDBRANCH   2   4
TORSDOF 5
ENDMDL
MODEL       31
REMARK 921   NORMALIZED FREE ENERGY PREDICTED BY IDOCK:   -5.84 KCAL/MOL
REMARK 922        TOTAL FREE ENERGY PREDICTED BY IDOCK:   -8.55 KCAL/MOL
REMARK 923 INTER-LIGAND FREE ENERGY PREDICTED BY IDOCK:   -7.68 KCAL/MOL
REMARK 924 INTRA-LIGAND FREE ENERGY PREDICTED BY IDOCK:   -0.87 KCAL/MOL
REMARK 927      BINDING AFFINITY PREDICTED BY RF-SCORE:    0.00 PKD
ROOT
HETATM    1  O   UNL     1      -7.389   8.148  66.938  1.00  0.00    -0.084 OA 
HETATM    2  C   UNL     1      -7.427   9.558  67.099  1.00  0.00    -0.091 C  
HETATM    3  H   UNL     1      -6.522   7.859  66.680  1.00  0.00     0.000 HD 
ENDROOT
BRANCH   2   4
HETATM    4  C   UNL     1      -8.821  10.024  67.513  1.00  0.00    -0.128 C  
HETATM    5  O   UNL     1      -8.896  11.458  67.404  1.00  0.00    -0.146 OA 
HETATM    6  C   UNL     1     -10.281  11.798  67.204  1.00  0.00    -0.212 C  
HETATM    7  H   UNL     1     -10.763  10.249  64.285  1.00  0.00     0.000 HD 
HETATM    8  O   UNL     1     -10.795   8.593  67.468  1.00  0.00    -0.477 OA 
HETATM    9  C   UNL     1     -10.779  10.677  66.253  1.00  0.00    -0.102 C  
HETATM   10  C   UNL     1      -9.971   9.450  66.676  1.00  0.00    -0.258 C  
HETATM   11  H   UNL     1     -11.506   8.237  66.949  1.00  0.00     0.000 HD 
HETATM   12  O   UNL     1     -10.458  10.935  64.868  1.00  0.00    -0.311 OA 
BRANCH   6  13
HETATM   13  O   UNL     1     -10.411  13.057  66.505  1.00  0.00    -0.265 OA 
BRANCH  13  14
HETATM   14  C   UNL     1     -11.649  13.745  66.722  1.00  0.00    -0.370 C  
HETATM   15  C   UNL     1     -10.547  15.793  67.240  1.00  0.00    -0.313 C  
HETATM   16  O   UNL     1     -11.502  14.805  67.669  1.00  0.00    -0.323 OA 
HETATM   17  H   UNL     1     -12.695  13.639  63.596  1.00  0.00     0.000 HD 
HETATM   18  C   UNL     1     -11.030  16.488  65.972  1.00  0.00     0.057 C  
HETATM   19  O   UNL     1     -12.359  13.286  64.411  1.00  0.00    -0.483 OA 
HETATM   20  O   UNL     1     -10.089  17.455  65.491  1.00  0.00    -0.579 OA 
HETATM   21  C   UNL     1     -11.295  15.447  64.872  1.00  0.00    -0.363 C  
HETATM   22  H   UNL     1     -10.390  17.888  64.700  1.00  0.00     0.000 HD 
HETATM   23  O   UNL     1     -11.896  16.113  63.751  1.00  0.00    -1.408 OA 
HETATM   24  C   UNL     1     -12.199  14.321  65.390  1.00  0.00    -0.405 C  
HETATM   25  H   UNL     1     -12.060  15.470  63.071  1.00  0.00     0.000 HD 
BRANCH  15  26
HETATM   26  C   UNL     1     -10.339  16.768  68.403  1.00  0.00    -0.319 C  
HETATM   27  O   UNL     1     -10.893  18.042  68.059  1.00  0.00    -0.336 OA 
HETATM   28  H   UNL     1     -10.765  18.646  68.780  1.00  0.00     0.000 HD 
ENDBRANCH  15  26
ENDBRANCH  13  14
ENDBRANCH   6  13
BRANCH   6  29
HETATM   29  C   UNL     1     -11.018  11.756  68.573  1.00  0.00    -0.227 C  
HETATM   30  H   UNL     1     -12.631  10.909  69.376  1.00  0.00     0.000 HD 
HETATM   31  O   UNL     1     -12.180  10.934  68.540  1.00  0.00    -0.535 OA 
ENDBRANCH   6  29
ENDBRANCH   2   4
TORSDOF 5
ENDMDL
MODEL       32
REMARK 921   NORMALIZED FREE ENERGY PREDICTED BY IDOCK:   -5.77 KCAL/MOL
REMARK 922        TOTAL FREE ENERGY PREDICTED BY IDOCK:   -8.46 KCAL/MOL
REMARK 923 INTER-LIGAND FREE ENERGY PREDICTED BY IDOCK:   -7.43 KCAL/MOL
REMARK 924 INTRA-LIGAND FREE ENERGY PREDICTED BY IDOCK:   -1.02 KCAL/MOL
REMARK 927      BINDING AFFINITY PREDICTED BY RF-SCORE:    0.00 PKD
ROOT
HETATM    1  O   UNL     1      -5.175  19.981  65.960  1.00  0.00    -0.161 OA 
HETATM    2  C   UNL     1      -6.006  18.966  65.418  1.00  0.00    -0.234 C  
HETATM    3  H   UNL     1      -4.275  19.868  65.680  1.00  0.00     0.000 HD 
ENDROOT
BRANCH   2   4
HETATM    4  C   UNL     1      -7.455  19.147  65.867  1.00  0.00    -0.238 C  
HETATM    5  O   UNL     1      -8.097  17.861  65.933  1.00  0.00    -0.524 OA 
HETATM    6  C   UNL     1      -9.174  17.970  66.882  1.00  0.00    -0.269 C  
HETATM    7  H   UNL     1      -7.373  18.661  69.608  1.00  0.00     0.000 HD 
HETATM    8  O   UNL     1      -8.252  21.085  67.114  1.00  0.00    -0.562 OA 
HETATM    9  C   UNL     1      -8.564  18.862  67.997  1.00  0.00    -0.299 C  
HETATM   10  C   UNL     1      -7.628  19.806  67.241  1.00  0.00    -0.255 C  
HETATM   11  H   UNL     1      -8.359  21.493  67.964  1.00  0.00     0.000 HD 
HETATM   12  O   UNL     1      -7.747  18.115  68.926  1.00  0.00    -0.276 OA 
BRANCH   6  13
HETATM   13  O   UNL     1      -9.483  16.685  67.468  1.00  0.00    -0.226 OA 
BRANCH  13  14
HETATM   14  C   UNL     1     -10.864  16.304  67.399  1.00  0.00    -0.242 C  
HETATM   15  C   UNL     1     -10.349  14.212  66.382  1.00  0.00    -0.287 C  
HETATM   16  O   UNL     1     -11.112  15.429  66.297  1.00  0.00    -0.311 OA 
HETATM   17  H   UNL     1     -11.346  16.035  70.651  1.00  0.00     0.000 HD 
HETATM   18  C   UNL     1     -10.768  13.404  67.605  1.00  0.00    -0.247 C  
HETATM   19  O   UNL     1     -11.073  16.459  69.846  1.00  0.00    -0.349 OA 
HETATM   20  O   UNL     1     -10.005  12.200  67.746  1.00  0.00    -0.190 OA 
HETATM   21  C   UNL     1     -10.612  14.255  68.875  1.00  0.00    -0.245 C  
HETATM   22  H   UNL     1     -10.266  11.695  68.509  1.00  0.00     0.000 HD 
HETATM   23  O   UNL     1     -11.161  13.524  69.983  1.00  0.00    -0.484 OA 
HETATM   24  C   UNL     1     -11.309  15.612  68.714  1.00  0.00    -0.349 C  
HETATM   25  H   UNL     1     -11.065  14.050  70.768  1.00  0.00     0.000 HD 
BRANCH  15  26
HETATM   26  C   UNL     1     -10.555  13.447  65.072  1.00  0.00    -0.358 C  
HETATM   27  O   UNL     1      -9.711  12.292  65.059  1.00  0.00    -0.422 OA 
HETATM   28  H   UNL     1      -9.838  11.817  64.246  1.00  0.00     0.000 HD 
ENDBRANCH  15  26
ENDBRANCH  13  14
ENDBRANCH   6  13
BRANCH   6  29
HETATM   29  C   UNL     1     -10.388  18.661  66.198  1.00  0.00    -0.443 C  
HETATM   30  H   UNL     1     -11.709  20.097  66.594  1.00  0.00     0.000 HD 
HETATM   31  O   UNL     1     -10.967  19.676  67.012  1.00  0.00    -0.462 OA 
ENDBRANCH   6  29
ENDBRANCH   2   4
TORSDOF 5
ENDMDL
MODEL       33
REMARK 921   NORMALIZED FREE ENERGY PREDICTED BY IDOCK:   -5.71 KCAL/MOL
REMARK 922        TOTAL FREE ENERGY PREDICTED BY IDOCK:   -8.39 KCAL/MOL
REMARK 923 INTER-LIGAND FREE ENERGY PREDICTED BY IDOCK:   -7.36 KCAL/MOL
REMARK 924 INTRA-LIGAND FREE ENERGY PREDICTED BY IDOCK:   -1.03 KCAL/MOL
REMARK 927      BINDING AFFINITY PREDICTED BY RF-SCORE:    0.00 PKD
ROOT
HETATM    1  O   UNL     1     -11.304   6.881  67.278  1.00  0.00    -0.645 OA 
HETATM    2  C   UNL     1     -10.586   8.065  67.589  1.00  0.00    -0.194 C  
HETATM    3  H   UNL     1     -11.764   6.552  68.041  1.00  0.00     0.000 HD 
ENDROOT
BRANCH   2   4
HETATM    4  C   UNL     1      -9.846   8.595  66.362  1.00  0.00    -0.270 C  
HETATM    5  O   UNL     1     -10.500   9.787  65.891  1.00  0.00    -0.148 OA 
HETATM    6  C   UNL     1      -9.513  10.563  65.185  1.00  0.00    -0.233 C  
HETATM    7  H   UNL     1      -7.422  11.146  67.722  1.00  0.00     0.000 HD 
HETATM    8  O   UNL     1      -7.516   8.081  65.861  1.00  0.00    -0.077 OA 
HETATM    9  C   UNL     1      -8.239  10.374  66.052  1.00  0.00    -0.144 C  
HETATM   10  C   UNL     1      -8.374   8.953  66.599  1.00  0.00    -0.111 C  
HETATM   11  H   UNL     1      -6.604   8.303  66.008  1.00  0.00     0.000 HD 
HETATM   12  O   UNL     1      -8.202  11.262  67.192  1.00  0.00    -0.137 OA 
BRANCH   6  13
HETATM   13  O   UNL     1      -9.850  11.969  65.199  1.00  0.00    -0.248 OA 
BRANCH  13  14
HETATM   14  C   UNL     1     -11.087  12.289  65.848  1.00  0.00    -0.322 C  
HETATM   15  C   UNL     1     -10.310  14.443  66.507  1.00  0.00    -0.281 C  
HETATM   16  O   UNL     1     -10.890  13.198  66.934  1.00  0.00    -0.262 OA 
HETATM   17  H   UNL     1     -12.931  12.402  63.116  1.00  0.00     0.000 HD 
HETATM   18  C   UNL     1     -11.258  15.181  65.570  1.00  0.00    -0.320 C  
HETATM   19  O   UNL     1     -12.316  12.024  63.733  1.00  0.00    -0.484 OA 
HETATM   20  O   UNL     1     -10.702  16.411  65.092  1.00  0.00    -0.579 OA 
HETATM   21  C   UNL     1     -11.613  14.286  64.371  1.00  0.00    -0.344 C  
HETATM   22  H   UNL     1     -11.293  16.871  64.507  1.00  0.00     0.000 HD 
HETATM   23  O   UNL     1     -12.626  14.945  63.595  1.00  0.00    -1.006 OA 
HETATM   24  C   UNL     1     -12.093  12.906  64.841  1.00  0.00    -0.432 C  
HETATM   25  H   UNL     1     -12.844  14.392  62.853  1.00  0.00     0.000 HD 
BRANCH  15  26
HETATM   26  C   UNL     1      -9.979  15.252  67.765  1.00  0.00    -0.224 C  
HETATM   27  O   UNL     1     -11.051  16.157  68.043  1.00  0.00    -0.342 OA 
HETATM   28  H   UNL     1     -10.846  16.658  68.824  1.00  0.00     0.000 HD 
ENDBRANCH  15  26
ENDBRANCH  13  14
ENDBRANCH   6  13
BRANCH   6  29
HETATM   29  C   UNL     1      -9.326   9.972  63.758  1.00  0.00    -0.257 C  
HETATM   30  H   UNL     1      -9.059  10.621  61.895  1.00  0.00     0.000 HD 
HETATM   31  O   UNL     1      -9.173  10.982  62.767  1.00  0.00    -0.297 OA 
ENDBRANCH   6  29
ENDBRANCH   2   4
TORSDOF 5
ENDMDL
MODEL       34
REMARK 921   NORMALIZED FREE ENERGY PREDICTED BY IDOCK:   -5.53 KCAL/MOL
REMARK 922        TOTAL FREE ENERGY PREDICTED BY IDOCK:   -8.15 KCAL/MOL
REMARK 923 INTER-LIGAND FREE ENERGY PREDICTED BY IDOCK:   -7.37 KCAL/MOL
REMARK 924 INTRA-LIGAND FREE ENERGY PREDICTED BY IDOCK:   -0.78 KCAL/MOL
REMARK 927      BINDING AFFINITY PREDICTED BY RF-SCORE:    0.00 PKD
ROOT
HETATM    1  O   UNL     1     -11.204   5.757  66.264  1.00  0.00    -0.756 OA 
HETATM    2  C   UNL     1     -10.982   6.739  67.266  1.00  0.00    -0.363 C  
HETATM    3  H   UNL     1     -11.822   5.101  66.563  1.00  0.00     0.000 HD 
ENDROOT
BRANCH   2   4
HETATM    4  C   UNL     1      -9.989   7.795  66.785  1.00  0.00    -0.261 C  
HETATM    5  O   UNL     1     -10.619   9.089  66.814  1.00  0.00    -0.228 OA 
HETATM    6  C   UNL     1      -9.574  10.069  66.954  1.00  0.00    -0.175 C  
HETATM    7  H   UNL     1      -8.402   9.132  69.937  1.00  0.00     0.000 HD 
HETATM    8  O   UNL     1      -7.569   7.505  66.850  1.00  0.00    -0.098 OA 
HETATM    9  C   UNL     1      -8.595   9.391  67.949  1.00  0.00    -0.120 C  
HETATM   10  C   UNL     1      -8.706   7.903  67.618  1.00  0.00    -0.126 C  
HETATM   11  H   UNL     1      -6.774   7.572  67.366  1.00  0.00     0.000 HD 
HETATM   12  O   UNL     1      -9.001   9.547  69.328  1.00  0.00    -0.144 OA 
BRANCH   6  13
HETATM   13  O   UNL     1     -10.072  11.274  67.579  1.00  0.00    -0.180 OA 
BRANCH  13  14
HETATM   14  C   UNL     1     -11.482  11.493  67.437  1.00  0.00    -0.274 C  
HETATM   15  C   UNL     1     -11.801  11.680  69.791  1.00  0.00    -0.357 C  
HETATM   16  O   UNL     1     -12.203  11.021  68.577  1.00  0.00    -0.582 OA 
HETATM   17  H   UNL     1     -11.264  14.434  65.961  1.00  0.00     0.000 HD 
HETATM   18  C   UNL     1     -12.133  13.167  69.726  1.00  0.00    -0.270 C  
HETATM   19  O   UNL     1     -11.077  13.512  66.090  1.00  0.00    -0.290 OA 
HETATM   20  O   UNL     1     -11.713  13.868  70.903  1.00  0.00    -0.514 OA 
HETATM   21  C   UNL     1     -11.466  13.800  68.494  1.00  0.00    -0.307 C  
HETATM   22  H   UNL     1     -11.920  14.795  70.862  1.00  0.00     0.000 HD 
HETATM   23  O   UNL     1     -11.925  15.156  68.375  1.00  0.00    -0.506 OA 
HETATM   24  C   UNL     1     -11.786  12.999  67.225  1.00  0.00    -0.363 C  
HETATM   25  H   UNL     1     -11.513  15.548  67.614  1.00  0.00     0.000 HD 
BRANCH  15  26
HETATM   26  C   UNL     1     -12.500  10.971  70.954  1.00  0.00    -0.410 C  
HETATM   27  O   UNL     1     -13.210   9.832  70.457  1.00  0.00    -0.589 OA 
HETATM   28  H   UNL     1     -13.643   9.392  71.178  1.00  0.00     0.000 HD 
ENDBRANCH  15  26
ENDBRANCH  13  14
ENDBRANCH   6  13
BRANCH   6  29
HETATM   29  C   UNL     1      -8.908  10.305  65.568  1.00  0.00    -0.172 C  
HETATM   30  H   UNL     1      -9.457  10.639  63.684  1.00  0.00     0.000 HD 
HETATM   31  O   UNL     1      -9.864  10.496  64.531  1.00  0.00    -0.288 OA 
ENDBRANCH   6  29
ENDBRANCH   2   4
TORSDOF 5
ENDMDL
MODEL       35
REMARK 921   NORMALIZED FREE ENERGY PREDICTED BY IDOCK:   -5.50 KCAL/MOL
REMARK 922        TOTAL FREE ENERGY PREDICTED BY IDOCK:   -8.11 KCAL/MOL
REMARK 923 INTER-LIGAND FREE ENERGY PREDICTED BY IDOCK:   -6.91 KCAL/MOL
REMARK 924 INTRA-LIGAND FREE ENERGY PREDICTED BY IDOCK:   -1.21 KCAL/MOL
REMARK 927      BINDING AFFINITY PREDICTED BY RF-SCORE:    0.00 PKD
ROOT
HETATM    1  O   UNL     1     -11.360   6.303  66.549  1.00  0.00    -0.732 OA 
HETATM    2  C   UNL     1     -10.748   7.323  67.323  1.00  0.00    -0.321 C  
HETATM    3  H   UNL     1     -12.000   5.824  67.062  1.00  0.00     0.000 HD 
ENDROOT
BRANCH   2   4
HETATM    4  C   UNL     1      -9.720   8.094  66.498  1.00  0.00    -0.239 C  
HETATM    5  O   UNL     1     -10.332   9.282  65.963  1.00  0.00    -0.205 OA 
HETATM    6  C   UNL     1      -9.280  10.238  65.737  1.00  0.00    -0.175 C  
HETATM    7  H   UNL     1      -8.256  10.616  68.893  1.00  0.00     0.000 HD 
HETATM    8  O   UNL     1      -7.309   7.869  66.789  1.00  0.00    -0.086 OA 
HETATM    9  C   UNL     1      -8.356  10.034  66.967  1.00  0.00    -0.121 C  
HETATM   10  C   UNL     1      -8.473   8.541  67.272  1.00  0.00    -0.123 C  
HETATM   11  H   UNL     1      -6.538   8.145  67.268  1.00  0.00     0.000 HD 
HETATM   12  O   UNL     1      -8.821  10.741  68.139  1.00  0.00    -0.125 OA 
BRANCH   6  13
HETATM   13  O   UNL     1      -9.788  11.591  65.788  1.00  0.00    -0.218 OA 
BRANCH  13  14
HETATM   14  C   UNL     1     -11.212  11.708  65.672  1.00  0.00    -0.214 C  
HETATM   15  C   UNL     1     -11.333  13.316  67.427  1.00  0.00    -0.303 C  
HETATM   16  O   UNL     1     -11.813  12.058  66.921  1.00  0.00    -0.580 OA 
HETATM   17  H   UNL     1     -11.235  13.107  62.685  1.00  0.00     0.000 HD 
HETATM   18  C   UNL     1     -11.725  14.453  66.491  1.00  0.00    -0.391 C  
HETATM   19  O   UNL     1     -11.004  12.456  63.337  1.00  0.00    -0.456 OA 
HETATM   20  O   UNL     1     -11.232  15.721  66.941  1.00  0.00    -0.208 OA 
HETATM   21  C   UNL     1     -11.192  14.176  65.076  1.00  0.00    -0.356 C  
HETATM   22  H   UNL     1     -11.477  16.430  66.357  1.00  0.00     0.000 HD 
HETATM   23  O   UNL     1     -11.712  15.179  64.189  1.00  0.00    -0.678 OA 
HETATM   24  C   UNL     1     -11.591  12.770  64.606  1.00  0.00    -0.338 C  
HETATM   25  H   UNL     1     -11.382  15.009  63.315  1.00  0.00     0.000 HD 
BRANCH  15  26
HETATM   26  C   UNL     1     -11.900  13.492  68.838  1.00  0.00    -0.345 C  
HETATM   27  O   UNL     1     -10.980  14.250  69.629  1.00  0.00    -0.376 OA 
HETATM   28  H   UNL     1     -11.332  14.360  70.504  1.00  0.00     0.000 HD 
ENDBRANCH  15  26
ENDBRANCH  13  14
ENDBRANCH   6  13
BRANCH   6  29
HETATM   29  C   UNL     1      -8.550   9.887  64.409  1.00  0.00    -0.185 C  
HETATM   30  H   UNL     1      -6.690   9.793  63.706  1.00  0.00     0.000 HD 
HETATM   31  O   UNL     1      -7.136  10.007  64.518  1.00  0.00    -0.133 OA 
ENDBRANCH   6  29
ENDBRANCH   2   4
TORSDOF 5
ENDMDL
MODEL       36
REMARK 921   NORMALIZED FREE ENERGY PREDICTED BY IDOCK:   -5.50 KCAL/MOL
REMARK 922        TOTAL FREE ENERGY PREDICTED BY IDOCK:   -8.11 KCAL/MOL
REMARK 923 INTER-LIGAND FREE ENERGY PREDICTED BY IDOCK:   -7.01 KCAL/MOL
REMARK 924 INTRA-LIGAND FREE ENERGY PREDICTED BY IDOCK:   -1.10 KCAL/MOL
REMARK 927      BINDING AFFINITY PREDICTED BY RF-SCORE:    0.00 PKD
ROOT
HETATM    1  O   UNL     1      -8.322  14.129  67.075  1.00  0.00    -0.307 OA 
HETATM    2  C   UNL     1      -8.588  13.176  68.094  1.00  0.00    -0.181 C  
HETATM    3  H   UNL     1      -8.112  14.976  67.448  1.00  0.00     0.000 HD 
ENDROOT
BRANCH   2   4
HETATM    4  C   UNL     1      -8.925  11.813  67.494  1.00  0.00    -0.168 C  
HETATM    5  O   UNL     1      -9.085  10.852  68.554  1.00  0.00    -0.159 OA 
HETATM    6  C   UNL     1      -9.949   9.813  68.060  1.00  0.00    -0.158 C  
HETATM    7  H   UNL     1     -12.694  11.641  67.540  1.00  0.00     0.000 HD 
HETATM    8  O   UNL     1      -9.908  11.513  65.283  1.00  0.00    -0.236 OA 
HETATM    9  C   UNL     1     -10.999  10.599  67.230  1.00  0.00    -0.284 C  
HETATM   10  C   UNL     1     -10.208  11.774  66.655  1.00  0.00    -0.210 C  
HETATM   11  H   UNL     1     -10.703  11.489  64.763  1.00  0.00     0.000 HD 
HETATM   12  O   UNL     1     -12.051  11.160  68.047  1.00  0.00    -0.635 OA 
BRANCH   6  13
HETATM   13  O   UNL     1     -10.646   9.157  69.143  1.00  0.00    -0.223 OA 
BRANCH  13  14
HETATM   14  C   UNL     1     -10.290   9.611  70.456  1.00  0.00    -0.295 C  
HETATM   15  C   UNL     1     -12.397   8.972  71.368  1.00  0.00    -0.318 C  
HETATM   16  O   UNL     1     -11.439  10.032  71.195  1.00  0.00    -0.357 OA 
HETATM   17  H   UNL     1      -7.946   7.359  71.014  1.00  0.00     0.000 HD 
HETATM   18  C   UNL     1     -11.803   7.847  72.206  1.00  0.00    -0.352 C  
HETATM   19  O   UNL     1      -8.396   8.043  70.532  1.00  0.00    -0.118 OA 
HETATM   20  O   UNL     1     -12.714   6.753  72.371  1.00  0.00    -0.520 OA 
HETATM   21  C   UNL     1     -10.508   7.333  71.555  1.00  0.00    -0.202 C  
HETATM   22  H   UNL     1     -12.344   6.052  72.894  1.00  0.00     0.000 HD 
HETATM   23  O   UNL     1      -9.893   6.390  72.447  1.00  0.00    -0.167 OA 
HETATM   24  C   UNL     1      -9.555   8.495  71.243  1.00  0.00    -0.203 C  
HETATM   25  H   UNL     1      -9.094   6.073  72.044  1.00  0.00     0.000 HD 
BRANCH  15  26
HETATM   26  C   UNL     1     -13.649   9.583  72.003  1.00  0.00    -0.415 C  
HETATM   27  O   UNL     1     -13.834   9.032  73.311  1.00  0.00    -1.159 OA 
HETATM   28  H   UNL     1     -14.610   9.411  73.705  1.00  0.00     0.000 HD 
ENDBRANCH  15  26
ENDBRANCH  13  14
ENDBRANCH   6  13
BRANCH   6  29
HETATM   29  C   UNL     1      -9.121   8.846  67.165  1.00  0.00    -0.138 C  
HETATM   30  H   UNL     1      -9.214   8.046  65.344  1.00  0.00     0.000 HD 
HETATM   31  O   UNL     1      -9.720   8.637  65.890  1.00  0.00    -0.209 OA 
ENDBRANCH   6  29
ENDBRANCH   2   4
TORSDOF 5
ENDMDL
MODEL       37
REMARK 921   NORMALIZED FREE ENERGY PREDICTED BY IDOCK:   -5.50 KCAL/MOL
REMARK 922        TOTAL FREE ENERGY PREDICTED BY IDOCK:   -8.11 KCAL/MOL
REMARK 923 INTER-LIGAND FREE ENERGY PREDICTED BY IDOCK:   -7.28 KCAL/MOL
REMARK 924 INTRA-LIGAND FREE ENERGY PREDICTED BY IDOCK:   -0.83 KCAL/MOL
REMARK 927      BINDING AFFINITY PREDICTED BY RF-SCORE:    0.00 PKD
ROOT
HETATM    1  O   UNL     1      -6.745  17.914  68.025  1.00  0.00    -0.189 OA 
HETATM    2  C   UNL     1      -7.219  18.215  66.720  1.00  0.00    -0.206 C  
HETATM    3  H   UNL     1      -5.819  18.108  68.103  1.00  0.00     0.000 HD 
ENDROOT
BRANCH   2   4
HETATM    4  C   UNL     1      -8.709  17.902  66.594  1.00  0.00    -0.262 C  
HETATM    5  O   UNL     1      -8.874  16.627  65.948  1.00  0.00    -0.486 OA 
HETATM    6  C   UNL     1     -10.146  16.098  66.369  1.00  0.00    -0.308 C  
HETATM    7  H   UNL     1      -9.522  15.827  69.638  1.00  0.00     0.000 HD 
HETATM    8  O   UNL     1     -10.425  18.895  68.013  1.00  0.00    -0.385 OA 
HETATM    9  C   UNL     1     -10.208  16.498  67.867  1.00  0.00    -0.273 C  
HETATM   10  C   UNL     1      -9.471  17.836  67.923  1.00  0.00    -0.270 C  
HETATM   11  H   UNL     1     -10.897  18.854  68.836  1.00  0.00     0.000 HD 
HETATM   12  O   UNL     1      -9.484  15.583  68.720  1.00  0.00    -0.190 OA 
BRANCH   6  13
HETATM   13  O   UNL     1     -10.158  14.654  66.297  1.00  0.00    -0.270 OA 
BRANCH  13  14
HETATM   14  C   UNL     1     -11.401  14.079  65.872  1.00  0.00    -0.317 C  
HETATM   15  C   UNL     1     -10.308  12.348  64.652  1.00  0.00    -0.307 C  
HETATM   16  O   UNL     1     -11.269  13.418  64.612  1.00  0.00    -0.330 OA 
HETATM   17  H   UNL     1     -12.395  13.078  68.854  1.00  0.00     0.000 HD 
HETATM   18  C   UNL     1     -10.770  11.251  65.604  1.00  0.00    -0.217 C  
HETATM   19  O   UNL     1     -12.072  13.696  68.208  1.00  0.00    -0.357 OA 
HETATM   20  O   UNL     1      -9.822  10.182  65.702  1.00  0.00    -0.242 OA 
HETATM   21  C   UNL     1     -11.016  11.839  67.003  1.00  0.00    -0.285 C  
HETATM   22  H   UNL     1     -10.110   9.498  66.295  1.00  0.00     0.000 HD 
HETATM   23  O   UNL     1     -11.600  10.819  67.829  1.00  0.00    -0.546 OA 
HETATM   24  C   UNL     1     -11.929  13.070  66.927  1.00  0.00    -0.352 C  
HETATM   25  H   UNL     1     -11.751  11.182  68.694  1.00  0.00     0.000 HD 
BRANCH  15  26
HETATM   26  C   UNL     1     -10.120  11.844  63.219  1.00  0.00    -0.396 C  
HETATM   27  O   UNL     1      -8.723  11.708  62.943  1.00  0.00    -0.600 OA 
HETATM   28  H   UNL     1      -8.606  11.394  62.054  1.00  0.00     0.000 HD 
ENDBRANCH  15  26
ENDBRANCH  13  14
ENDBRANCH   6  13
BRANCH   6  29
HETATM   29  C   UNL     1     -11.277  16.781  65.548  1.00  0.00     0.269 C  
HETATM   30  H   UNL     1     -11.656  17.288  63.660  1.00  0.00     0.000 HD 
HETATM   31  O   UNL     1     -10.965  16.870  64.162  1.00  0.00    -0.760 OA 
ENDBRANCH   6  29
ENDBRANCH   2   4
TORSDOF 5
ENDMDL
MODEL       38
REMARK 921   NORMALIZED FREE ENERGY PREDICTED BY IDOCK:   -5.45 KCAL/MOL
REMARK 922        TOTAL FREE ENERGY PREDICTED BY IDOCK:   -8.05 KCAL/MOL
REMARK 923 INTER-LIGAND FREE ENERGY PREDICTED BY IDOCK:   -7.36 KCAL/MOL
REMARK 924 INTRA-LIGAND FREE ENERGY PREDICTED BY IDOCK:   -0.69 KCAL/MOL
REMARK 927      BINDING AFFINITY PREDICTED BY RF-SCORE:    0.00 PKD
ROOT
HETATM    1  O   UNL     1     -10.841  20.057  67.735  1.00  0.00    -0.256 OA 
HETATM    2  C   UNL     1     -10.019  19.531  68.766  1.00  0.00    -0.463 C  
HETATM    3  H   UNL     1     -11.388  20.761  68.063  1.00  0.00     0.000 HD 
ENDROOT
BRANCH   2   4
HETATM    4  C   UNL     1      -9.139  18.399  68.240  1.00  0.00    -0.312 C  
HETATM    5  O   UNL     1      -9.855  17.155  68.337  1.00  0.00    -0.268 OA 
HETATM    6  C   UNL     1      -9.310  16.270  67.341  1.00  0.00    -0.221 C  
HETATM    7  H   UNL     1     -10.118  18.021  64.615  1.00  0.00     0.000 HD 
HETATM    8  O   UNL     1      -7.283  18.735  66.695  1.00  0.00    -0.205 OA 
HETATM    9  C   UNL     1      -9.069  17.215  66.133  1.00  0.00    -0.179 C  
HETATM   10  C   UNL     1      -8.696  18.549  66.779  1.00  0.00    -0.278 C  
HETATM   11  H   UNL     1      -7.009  18.828  65.790  1.00  0.00     0.000 HD 
HETATM   12  O   UNL     1     -10.265  17.443  65.355  1.00  0.00    -0.603 OA 
BRANCH   6  13
HETATM   13  O   UNL     1     -10.283  15.279  66.937  1.00  0.00    -0.259 OA 
BRANCH  13  14
HETATM   14  C   UNL     1      -9.801  14.301  66.006  1.00  0.00    -0.314 C  
HETATM   15  C   UNL     1     -10.059  12.524  67.573  1.00  0.00    -0.207 C  
HETATM   16  O   UNL     1      -9.167  13.209  66.675  1.00  0.00    -0.246 OA 
HETATM   17  H   UNL     1     -12.333  14.498  63.903  1.00  0.00     0.000 HD 
HETATM   18  C   UNL     1     -11.202  11.877  66.800  1.00  0.00    -0.327 C  
HETATM   19  O   UNL     1     -11.624  14.828  64.441  1.00  0.00    -0.364 OA 
HETATM   20  O   UNL     1     -12.135  11.216  67.662  1.00  0.00    -0.541 OA 
HETATM   21  C   UNL     1     -11.943  12.940  65.972  1.00  0.00    -0.446 C  
HETATM   22  H   UNL     1     -12.848  10.812  67.180  1.00  0.00     0.000 HD 
HETATM   23  O   UNL     1     -12.906  12.277  65.138  1.00  0.00    -0.522 OA 
HETATM   24  C   UNL     1     -10.959  13.760  65.127  1.00  0.00    -0.337 C  
HETATM   25  H   UNL     1     -13.365  12.933  64.627  1.00  0.00     0.000 HD 
BRANCH  15  26
HETATM   26  C   UNL     1      -9.229  11.505  68.359  1.00  0.00    -0.190 C  
HETATM   27  O   UNL     1      -9.992  11.030  69.473  1.00  0.00    -0.430 OA 
HETATM   28  H   UNL     1      -9.477  10.398  69.960  1.00  0.00     0.000 HD 
ENDBRANCH  15  26
ENDBRANCH  13  14
ENDBRANCH   6  13
BRANCH   6  29
HETATM   29  C   UNL     1      -7.977  15.667  67.870  1.00  0.00    -0.142 C  
HETATM   30  H   UNL     1      -6.089  15.459  67.273  1.00  0.00     0.000 HD 
HETATM   31  O   UNL     1      -6.904  15.828  66.949  1.00  0.00    -0.248 OA 
ENDBRANCH   6  29
ENDBRANCH   2   4
TORSDOF 5
ENDMDL
MODEL       39
REMARK 921   NORMALIZED FREE ENERGY PREDICTED BY IDOCK:   -5.38 KCAL/MOL
REMARK 922        TOTAL FREE ENERGY PREDICTED BY IDOCK:   -7.96 KCAL/MOL
REMARK 923 INTER-LIGAND FREE ENERGY PREDICTED BY IDOCK:   -7.25 KCAL/MOL
REMARK 924 INTRA-LIGAND FREE ENERGY PREDICTED BY IDOCK:   -0.71 KCAL/MOL
REMARK 927      BINDING AFFINITY PREDICTED BY RF-SCORE:    0.00 PKD
ROOT
HETATM    1  O   UNL     1      -9.453  16.978  65.491  1.00  0.00    -0.496 OA 
HETATM    2  C   UNL     1     -10.727  16.651  64.956  1.00  0.00    -0.152 C  
HETATM    3  H   UNL     1      -9.403  17.901  65.709  1.00  0.00     0.000 HD 
ENDROOT
BRANCH   2   4
HETATM    4  C   UNL     1     -10.809  15.167  64.605  1.00  0.00    -0.263 C  
HETATM    5  O   UNL     1     -10.013  14.413  65.538  1.00  0.00    -0.339 OA 
HETATM    6  C   UNL     1     -10.558  13.082  65.584  1.00  0.00    -0.282 C  
HETATM    7  H   UNL     1     -13.592  13.817  66.766  1.00  0.00     0.000 HD 
HETATM    8  O   UNL     1     -12.634  14.177  63.327  1.00  0.00    -1.080 OA 
HETATM    9  C   UNL     1     -12.088  13.330  65.518  1.00  0.00    -0.435 C  
HETATM   10  C   UNL     1     -12.222  14.572  64.637  1.00  0.00    -0.460 C  
HETATM   11  H   UNL     1     -13.509  13.809  63.347  1.00  0.00     0.000 HD 
HETATM   12  O   UNL     1     -12.655  13.665  66.805  1.00  0.00    -0.269 OA 
BRANCH   6  13
HETATM   13  O   UNL     1     -10.269  12.445  66.849  1.00  0.00    -0.222 OA 
BRANCH  13  14
HETATM   14  C   UNL     1     -10.477  11.026  66.875  1.00  0.00    -0.246 C  
HETATM   15  C   UNL     1      -8.297  10.613  67.745  1.00  0.00    -0.115 C  
HETATM   16  O   UNL     1      -9.250  10.313  66.709  1.00  0.00    -0.154 OA 
HETATM   17  H   UNL     1     -12.788  11.025  69.228  1.00  0.00     0.000 HD 
HETATM   18  C   UNL     1      -8.818  10.149  69.100  1.00  0.00    -0.175 C  
HETATM   19  O   UNL     1     -12.379  11.290  68.413  1.00  0.00    -0.545 OA 
HETATM   20  O   UNL     1      -7.914  10.463  70.165  1.00  0.00    -0.359 OA 
HETATM   21  C   UNL     1     -10.183  10.796  69.386  1.00  0.00    -0.160 C  
HETATM   22  H   UNL     1      -8.239  10.173  71.010  1.00  0.00     0.000 HD 
HETATM   23  O   UNL     1     -10.717  10.219  70.588  1.00  0.00    -0.399 OA 
HETATM   24  C   UNL     1     -11.144  10.593  68.207  1.00  0.00    -0.279 C  
HETATM   25  H   UNL     1     -11.560  10.620  70.766  1.00  0.00     0.000 HD 
BRANCH  15  26
HETATM   26  C   UNL     1      -6.974   9.942  67.362  1.00  0.00    -0.083 C  
HETATM   27  O   UNL     1      -6.844   8.709  68.075  1.00  0.00    -0.068 OA 
HETATM   28  H   UNL     1      -6.024   8.293  67.838  1.00  0.00     0.000 HD 
ENDBRANCH  15  26
ENDBRANCH  13  14
ENDBRANCH   6  13
BRANCH   6  29
HETATM   29  C   UNL     1     -10.055  12.284  64.346  1.00  0.00    -0.270 C  
HETATM   30  H   UNL     1     -10.813  11.200  62.858  1.00  0.00     0.000 HD 
HETATM   31  O   UNL     1     -11.120  11.687  63.614  1.00  0.00    -0.395 OA 
ENDBRANCH   6  29
ENDBRANCH   2   4
TORSDOF 5
ENDMDL
MODEL       40
REMARK 921   NORMALIZED FREE ENERGY PREDICTED BY IDOCK:   -5.33 KCAL/MOL
REMARK 922        TOTAL FREE ENERGY PREDICTED BY IDOCK:   -7.89 KCAL/MOL
REMARK 923 INTER-LIGAND FREE ENERGY PREDICTED BY IDOCK:   -6.82 KCAL/MOL
REMARK 924 INTRA-LIGAND FREE ENERGY PREDICTED BY IDOCK:   -1.07 KCAL/MOL
REMARK 927      BINDING AFFINITY PREDICTED BY RF-SCORE:    0.00 PKD
ROOT
HETATM    1  O   UNL     1     -10.573  18.850  65.690  1.00  0.00    -0.575 OA 
HETATM    2  C   UNL     1     -10.458  19.912  66.625  1.00  0.00    -0.460 C  
HETATM    3  H   UNL     1     -11.417  18.869  65.256  1.00  0.00     0.000 HD 
ENDROOT
BRANCH   2   4
HETATM    4  C   UNL     1      -9.100  19.881  67.323  1.00  0.00    -0.339 C  
HETATM    5  O   UNL     1      -8.913  18.596  67.944  1.00  0.00    -0.278 OA 
HETATM    6  C   UNL     1      -7.494  18.375  68.047  1.00  0.00    -0.253 C  
HETATM    7  H   UNL     1      -6.748  18.365  64.792  1.00  0.00     0.000 HD 
HETATM    8  O   UNL     1      -7.241  21.343  66.730  1.00  0.00    -0.775 OA 
HETATM    9  C   UNL     1      -6.956  18.948  66.708  1.00  0.00    -0.199 C  
HETATM   10  C   UNL     1      -7.894  20.116  66.404  1.00  0.00    -0.259 C  
HETATM   11  H   UNL     1      -6.494  21.488  66.161  1.00  0.00     0.000 HD 
HETATM   12  O   UNL     1      -7.077  18.014  65.612  1.00  0.00    -0.490 OA 
BRANCH   6  13
HETATM   13  O   UNL     1      -7.188  16.962  68.075  1.00  0.00    -0.155 OA 
BRANCH  13  14
HETATM   14  C   UNL     1      -7.995  16.186  68.970  1.00  0.00    -0.236 C  
HETATM   15  C   UNL     1      -8.717  14.728  67.229  1.00  0.00    -0.210 C  
HETATM   16  O   UNL     1      -9.115  15.606  68.297  1.00  0.00    -0.182 OA 
HETATM   17  H   UNL     1      -5.505  14.914  70.720  1.00  0.00     0.000 HD 
HETATM   18  C   UNL     1      -7.949  13.532  67.778  1.00  0.00    -0.168 C  
HETATM   19  O   UNL     1      -6.019  15.603  70.316  1.00  0.00    -0.157 OA 
HETATM   20  O   UNL     1      -7.502  12.651  66.741  1.00  0.00    -0.383 OA 
HETATM   21  C   UNL     1      -6.736  14.014  68.590  1.00  0.00    -0.096 C  
HETATM   22  H   UNL     1      -7.023  11.905  67.083  1.00  0.00     0.000 HD 
HETATM   23  O   UNL     1      -6.130  12.876  69.223  1.00  0.00    -0.086 OA 
HETATM   24  C   UNL     1      -7.156  15.061  69.631  1.00  0.00    -0.193 C  
HETATM   25  H   UNL     1      -5.380  13.174  69.724  1.00  0.00     0.000 HD 
BRANCH  15  26
HETATM   26  C   UNL     1      -9.984  14.318  66.474  1.00  0.00    -0.281 C  
HETATM   27  O   UNL     1      -9.620  13.662  65.255  1.00  0.00    -0.534 OA 
HETATM   28  H   UNL     1     -10.406  13.408  64.787  1.00  0.00     0.000 HD 
ENDBRANCH  15  26
ENDBRANCH  13  14
ENDBRANCH   6  13
BRANCH   6  29
HETATM   29  C   UNL     1      -6.943  19.165  69.269  1.00  0.00    -0.296 C  
HETATM   30  H   UNL     1      -5.390  20.326  69.722  1.00  0.00     0.000 HD 
HETATM   31  O   UNL     1      -5.726  19.843  68.975  1.00  0.00    -0.214 OA 
ENDBRANCH   6  29
ENDBRANCH   2   4
TORSDOF 5
ENDMDL
MODEL       41
REMARK 921   NORMALIZED FREE ENERGY PREDICTED BY IDOCK:   -5.31 KCAL/MOL
REMARK 922        TOTAL FREE ENERGY PREDICTED BY IDOCK:   -7.87 KCAL/MOL
REMARK 923 INTER-LIGAND FREE ENERGY PREDICTED BY IDOCK:   -7.30 KCAL/MOL
REMARK 924 INTRA-LIGAND FREE ENERGY PREDICTED BY IDOCK:   -0.56 KCAL/MOL
REMARK 927      BINDING AFFINITY PREDICTED BY RF-SCORE:    0.00 PKD
ROOT
HETATM    1  O   UNL     1      -7.856   9.809  69.813  1.00  0.00    -0.119 OA 
HETATM    2  C   UNL     1      -8.588  10.403  68.751  1.00  0.00    -0.141 C  
HETATM    3  H   UNL     1      -7.247   9.159  69.484  1.00  0.00     0.000 HD 
ENDROOT
BRANCH   2   4
HETATM    4  C   UNL     1      -9.568  11.448  69.280  1.00  0.00     0.252 C  
HETATM    5  O   UNL     1      -9.560  12.593  68.407  1.00  0.00    -0.217 OA 
HETATM    6  C   UNL     1     -10.836  13.244  68.547  1.00  0.00    -0.265 C  
HETATM    7  H   UNL     1     -12.788  10.775  67.432  1.00  0.00     0.000 HD 
HETATM    8  O   UNL     1     -11.439  10.925  70.753  1.00  0.00    -0.394 OA 
HETATM    9  C   UNL     1     -11.824  12.052  68.655  1.00  0.00    -0.311 C  
HETATM   10  C   UNL     1     -11.023  10.975  69.387  1.00  0.00    -0.248 C  
HETATM   11  H   UNL     1     -12.340  10.632  70.819  1.00  0.00     0.000 HD 
HETATM   12  O   UNL     1     -12.183  11.505  67.366  1.00  0.00    -0.401 OA 
BRANCH   6  13
HETATM   13  O   UNL     1     -11.174  13.989  67.355  1.00  0.00    -0.291 OA 
BRANCH  13  14
HETATM   14  C   UNL     1     -10.096  14.167  66.426  1.00  0.00    -0.293 C  
HETATM   15  C   UNL     1     -11.213  12.929  64.724  1.00  0.00    -0.306 C  
HETATM   16  O   UNL     1     -10.013  13.079  65.504  1.00  0.00    -0.276 OA 
HETATM   17  H   UNL     1     -10.454  17.424  66.051  1.00  0.00     0.000 HD 
HETATM   18  C   UNL     1     -11.432  14.153  63.841  1.00  0.00     0.120 C  
HETATM   19  O   UNL     1     -10.352  16.612  66.532  1.00  0.00    -0.298 OA 
HETATM   20  O   UNL     1     -12.639  14.060  63.075  1.00  0.00    -1.027 OA 
HETATM   21  C   UNL     1     -11.478  15.422  64.707  1.00  0.00    -0.336 C  
HETATM   22  H   UNL     1     -12.775  14.823  62.524  1.00  0.00     0.000 HD 
HETATM   23  O   UNL     1     -11.525  16.565  63.837  1.00  0.00    -1.608 OA 
HETATM   24  C   UNL     1     -10.262  15.494  65.640  1.00  0.00    -0.376 C  
HETATM   25  H   UNL     1     -11.554  17.349  64.372  1.00  0.00     0.000 HD 
BRANCH  15  26
HETATM   26  C   UNL     1     -11.079  11.636  63.915  1.00  0.00    -0.401 C  
HETATM   27  O   UNL     1      -9.910  10.929  64.342  1.00  0.00    -0.254 OA 
HETATM   28  H   UNL     1      -9.827  10.127  63.840  1.00  0.00     0.000 HD 
ENDBRANCH  15  26
ENDBRANCH  13  14
ENDBRANCH   6  13
BRANCH   6  29
HETATM   29  C   UNL     1     -10.830  14.100  69.846  1.00  0.00     0.133 C  
HETATM   30  H   UNL     1     -10.314  15.934  70.425  1.00  0.00     0.000 HD 
HETATM   31  O   UNL     1     -10.318  15.411  69.631  1.00  0.00    -0.245 OA 
ENDBRANCH   6  29
ENDBRANCH   2   4
TORSDOF 5
ENDMDL
MODEL       42
REMARK 921   NORMALIZED FREE ENERGY PREDICTED BY IDOCK:   -5.30 KCAL/MOL
REMARK 922        TOTAL FREE ENERGY PREDICTED BY IDOCK:   -7.86 KCAL/MOL
REMARK 923 INTER-LIGAND FREE ENERGY PREDICTED BY IDOCK:   -6.61 KCAL/MOL
REMARK 924 INTRA-LIGAND FREE ENERGY PREDICTED BY IDOCK:   -1.24 KCAL/MOL
REMARK 927      BINDING AFFINITY PREDICTED BY RF-SCORE:    0.00 PKD
ROOT
HETATM    1  O   UNL     1      -9.146   6.730  74.194  1.00  0.00    -0.164 OA 
HETATM    2  C   UNL     1      -9.303   7.835  73.316  1.00  0.00    -0.270 C  
HETATM    3  H   UNL     1      -8.251   6.665  74.501  1.00  0.00     0.000 HD 
ENDROOT
BRANCH   2   4
HETATM    4  C   UNL     1     -10.744   7.941  72.822  1.00  0.00    -0.371 C  
HETATM    5  O   UNL     1     -10.872   9.094  71.970  1.00  0.00    -0.352 OA 
HETATM    6  C   UNL     1     -11.977   8.846  71.081  1.00  0.00    -0.293 C  
HETATM    7  H   UNL     1     -10.752   6.182  69.484  1.00  0.00     0.000 HD 
HETATM    8  O   UNL     1     -12.284   6.053  72.726  1.00  0.00    -0.527 OA 
HETATM    9  C   UNL     1     -11.817   7.341  70.741  1.00  0.00    -0.288 C  
HETATM   10  C   UNL     1     -11.244   6.733  72.021  1.00  0.00    -0.262 C  
HETATM   11  H   UNL     1     -12.593   5.304  72.229  1.00  0.00     0.000 HD 
HETATM   12  O   UNL     1     -10.850   7.104  69.693  1.00  0.00    -0.237 OA 
BRANCH   6  13
HETATM   13  O   UNL     1     -11.832   9.593  69.851  1.00  0.00    -0.057 OA 
BRANCH  13  14
HETATM   14  C   UNL     1     -10.763  10.548  69.844  1.00  0.00    -0.247 C  
HETATM   15  C   UNL     1     -10.309  10.187  67.533  1.00  0.00    -0.230 C  
HETATM   16  O   UNL     1      -9.773  10.220  68.868  1.00  0.00    -0.171 OA 
HETATM   17  H   UNL     1     -12.633  13.216  70.355  1.00  0.00     0.000 HD 
HETATM   18  C   UNL     1     -10.798  11.571  67.120  1.00  0.00    -0.268 C  
HETATM   19  O   UNL     1     -12.303  12.342  70.525  1.00  0.00    -0.330 OA 
HETATM   20  O   UNL     1     -11.375  11.573  65.809  1.00  0.00    -0.229 OA 
HETATM   21  C   UNL     1     -11.836  12.084  68.131  1.00  0.00    -0.286 C  
HETATM   22  H   UNL     1     -11.679  12.436  65.552  1.00  0.00     0.000 HD 
HETATM   23  O   UNL     1     -12.156  13.445  67.804  1.00  0.00    -0.338 OA 
HETATM   24  C   UNL     1     -11.303  11.976  69.566  1.00  0.00    -0.228 C  
HETATM   25  H   UNL     1     -12.797  13.763  68.428  1.00  0.00     0.000 HD 
BRANCH  15  26
HETATM   26  C   UNL     1      -9.213   9.650  66.609  1.00  0.00    -0.151 C  
HETATM   27  O   UNL     1      -9.815   9.033  65.467  1.00  0.00    -0.460 OA 
HETATM   28  H   UNL     1      -9.135   8.700  64.894  1.00  0.00     0.000 HD 
ENDBRANCH  15  26
ENDBRANCH  13  14
ENDBRANCH   6  13
BRANCH   6  29
HETATM   29  C   UNL     1     -13.309   9.124  71.835  1.00  0.00    -0.427 C  
HETATM   30  H   UNL     1     -15.125   8.325  72.005  1.00  0.00     0.000 HD 
HETATM   31  O   UNL     1     -14.311   8.156  71.544  1.00  0.00    -0.426 OA 
ENDBRANCH   6  29
ENDBRANCH   2   4
TORSDOF 5
ENDMDL
MODEL       43
REMARK 921   NORMALIZED FREE ENERGY PREDICTED BY IDOCK:   -5.30 KCAL/MOL
REMARK 922        TOTAL FREE ENERGY PREDICTED BY IDOCK:   -7.86 KCAL/MOL
REMARK 923 INTER-LIGAND FREE ENERGY PREDICTED BY IDOCK:   -6.69 KCAL/MOL
REMARK 924 INTRA-LIGAND FREE ENERGY PREDICTED BY IDOCK:   -1.16 KCAL/MOL
REMARK 927      BINDING AFFINITY PREDICTED BY RF-SCORE:    0.00 PKD
ROOT
HETATM    1  O   UNL     1     -10.124  13.626  64.546  1.00  0.00    -0.612 OA 
HETATM    2  C   UNL     1     -10.778  12.619  65.304  1.00  0.00    -0.289 C  
HETATM    3  H   UNL     1     -10.728  14.042  63.943  1.00  0.00     0.000 HD 
ENDROOT
BRANCH   2   4
HETATM    4  C   UNL     1      -9.807  11.950  66.275  1.00  0.00    -0.225 C  
HETATM    5  O   UNL     1     -10.507  11.602  67.484  1.00  0.00    -0.192 OA 
HETATM    6  C   UNL     1      -9.800  10.501  68.084  1.00  0.00    -0.153 C  
HETATM    7  H   UNL     1     -10.217   8.251  65.652  1.00  0.00     0.000 HD 
HETATM    8  O   UNL     1      -7.744  10.850  65.583  1.00  0.00    -0.305 OA 
HETATM    9  C   UNL     1      -9.396   9.640  66.858  1.00  0.00    -0.146 C  
HETATM   10  C   UNL     1      -9.151  10.666  65.752  1.00  0.00    -0.186 C  
HETATM   11  H   UNL     1      -7.338  10.055  65.258  1.00  0.00     0.000 HD 
HETATM   12  O   UNL     1     -10.464   8.778  66.403  1.00  0.00    -0.216 OA 
BRANCH   6  13
HETATM   13  O   UNL     1     -10.682   9.705  68.909  1.00  0.00    -0.218 OA 
BRANCH  13  14
HETATM   14  C   UNL     1     -10.217   9.476  70.246  1.00  0.00    -0.260 C  
HETATM   15  C   UNL     1     -12.434   9.271  71.097  1.00  0.00    -0.272 C  
HETATM   16  O   UNL     1     -11.162   9.935  71.215  1.00  0.00    -0.361 OA 
HETATM   17  H   UNL     1      -8.818   6.547  69.666  1.00  0.00     0.000 HD 
HETATM   18  C   UNL     1     -12.287   7.782  71.391  1.00  0.00    -0.323 C  
HETATM   19  O   UNL     1      -8.991   7.470  69.523  1.00  0.00    -0.143 OA 
HETATM   20  O   UNL     1     -13.526   7.077  71.248  1.00  0.00    -0.397 OA 
HETATM   21  C   UNL     1     -11.240   7.162  70.452  1.00  0.00    -0.287 C  
HETATM   22  H   UNL     1     -13.435   6.148  71.431  1.00  0.00     0.000 HD 
HETATM   23  O   UNL     1     -11.012   5.804  70.859  1.00  0.00    -0.276 OA 
HETATM   24  C   UNL     1      -9.935   7.969  70.479  1.00  0.00    -0.190 C  
HETATM   25  H   UNL     1     -10.364   5.420  70.279  1.00  0.00     0.000 HD 
BRANCH  15  26
HETATM   26  C   UNL     1     -13.407   9.967  72.052  1.00  0.00    -0.432 C  
HETATM   27  O   UNL     1     -13.720   9.086  73.136  1.00  0.00    -1.013 OA 
HETATM   28  H   UNL     1     -14.323   9.518  73.729  1.00  0.00     0.000 HD 
ENDBRANCH  15  26
ENDBRANCH  13  14
ENDBRANCH   6  13
BRANCH   6  29
HETATM   29  C   UNL     1      -8.552  11.046  68.836  1.00  0.00    -0.119 C  
HETATM   30  H   UNL     1      -6.610  10.639  69.001  1.00  0.00     0.000 HD 
HETATM   31  O   UNL     1      -7.373  10.306  68.541  1.00  0.00    -0.078 OA 
ENDBRANCH   6  29
ENDBRANCH   2   4
TORSDOF 5
ENDMDL
MODEL       44
REMARK 921   NORMALIZED FREE ENERGY PREDICTED BY IDOCK:   -5.28 KCAL/MOL
REMARK 922        TOTAL FREE ENERGY PREDICTED BY IDOCK:   -7.82 KCAL/MOL
REMARK 923 INTER-LIGAND FREE ENERGY PREDICTED BY IDOCK:   -7.01 KCAL/MOL
REMARK 924 INTRA-LIGAND FREE ENERGY PREDICTED BY IDOCK:   -0.82 KCAL/MOL
REMARK 927      BINDING AFFINITY PREDICTED BY RF-SCORE:    0.00 PKD
ROOT
HETATM    1  O   UNL     1     -11.580  11.440  63.325  1.00  0.00    -0.827 OA 
HETATM    2  C   UNL     1     -10.450  12.197  63.733  1.00  0.00    -0.437 C  
HETATM    3  H   UNL     1     -11.730  11.530  62.392  1.00  0.00     0.000 HD 
ENDROOT
BRANCH   2   4
HETATM    4  C   UNL     1     -10.207  12.052  65.234  1.00  0.00    -0.271 C  
HETATM    5  O   UNL     1      -9.426  13.169  65.699  1.00  0.00    -0.068 OA 
HETATM    6  C   UNL     1      -9.718  13.337  67.099  1.00  0.00    -0.236 C  
HETATM    7  H   UNL     1     -12.972  14.042  66.856  1.00  0.00     0.000 HD 
HETATM    8  O   UNL     1     -11.619  10.722  66.711  1.00  0.00    -0.178 OA 
HETATM    9  C   UNL     1     -11.243  13.060  67.172  1.00  0.00    -0.286 C  
HETATM   10  C   UNL     1     -11.476  12.002  66.093  1.00  0.00    -0.339 C  
HETATM   11  H   UNL     1     -12.405  10.691  67.243  1.00  0.00     0.000 HD 
HETATM   12  O   UNL     1     -12.038  14.211  66.811  1.00  0.00    -0.429 OA 
BRANCH   6  13
HETATM   13  O   UNL     1      -9.499  14.705  67.514  1.00  0.00    -0.194 OA 
BRANCH  13  14
HETATM   14  C   UNL     1      -8.655  15.474  66.647  1.00  0.00    -0.290 C  
HETATM   15  C   UNL     1     -10.406  17.000  66.115  1.00  0.00    -0.319 C  
HETATM   16  O   UNL     1      -9.405  16.101  65.605  1.00  0.00    -0.420 OA 
HETATM   17  H   UNL     1      -6.652  16.632  68.998  1.00  0.00     0.000 HD 
HETATM   18  C   UNL     1      -9.753  18.161  66.857  1.00  0.00    -0.318 C  
HETATM   19  O   UNL     1      -7.122  15.968  68.507  1.00  0.00    -0.124 OA 
HETATM   20  O   UNL     1     -10.718  19.061  67.413  1.00  0.00    -0.461 OA 
HETATM   21  C   UNL     1      -8.852  17.625  67.981  1.00  0.00    -0.257 C  
HETATM   22  H   UNL     1     -10.311  19.785  67.875  1.00  0.00     0.000 HD 
HETATM   23  O   UNL     1      -8.133  18.729  68.553  1.00  0.00    -0.326 OA 
HETATM   24  C   UNL     1      -7.886  16.558  67.448  1.00  0.00    -0.157 C  
HETATM   25  H   UNL     1      -7.576  18.398  69.248  1.00  0.00     0.000 HD 
BRANCH  15  26
HETATM   26  C   UNL     1     -11.257  17.463  64.929  1.00  0.00     0.735 C  
HETATM   27  O   UNL     1     -11.502  16.353  64.060  1.00  0.00    -1.465 OA 
HETATM   28  H   UNL     1     -12.030  16.640  63.324  1.00  0.00     0.000 HD 
ENDBRANCH  15  26
ENDBRANCH  13  14
ENDBRANCH   6  13
BRANCH   6  29
HETATM   29  C   UNL     1      -8.906  12.292  67.917  1.00  0.00    -0.178 C  
HETATM   30  H   UNL     1      -9.221  10.946  69.350  1.00  0.00     0.000 HD 
HETATM   31  O   UNL     1      -9.716  11.584  68.850  1.00  0.00    -0.161 OA 
ENDBRANCH   6  29
ENDBRANCH   2   4
TORSDOF 5
ENDMDL
MODEL       45
REMARK 921   NORMALIZED FREE ENERGY PREDICTED BY IDOCK:   -5.28 KCAL/MOL
REMARK 922        TOTAL FREE ENERGY PREDICTED BY IDOCK:   -7.82 KCAL/MOL
REMARK 923 INTER-LIGAND FREE ENERGY PREDICTED BY IDOCK:   -6.71 KCAL/MOL
REMARK 924 INTRA-LIGAND FREE ENERGY PREDICTED BY IDOCK:   -1.12 KCAL/MOL
REMARK 927      BINDING AFFINITY PREDICTED BY RF-SCORE:    0.00 PKD
ROOT
HETATM    1  O   UNL     1     -12.661  14.114  66.776  1.00  0.00    -0.554 OA 
HETATM    2  C   UNL     1     -11.571  13.589  66.031  1.00  0.00    -0.338 C  
HETATM    3  H   UNL     1     -13.460  14.099  66.264  1.00  0.00     0.000 HD 
ENDROOT
BRANCH   2   4
HETATM    4  C   UNL     1     -10.285  13.613  66.854  1.00  0.00    -0.261 C  
HETATM    5  O   UNL     1      -9.464  14.714  66.421  1.00  0.00    -0.275 OA 
HETATM    6  C   UNL     1      -8.621  15.077  67.530  1.00  0.00    -0.180 C  
HETATM    7  H   UNL     1     -10.995  16.000  69.688  1.00  0.00     0.000 HD 
HETATM    8  O   UNL     1     -10.068  12.592  69.057  1.00  0.00    -0.423 OA 
HETATM    9  C   UNL     1      -9.569  14.932  68.750  1.00  0.00    -0.214 C  
HETATM   10  C   UNL     1     -10.486  13.770  68.366  1.00  0.00    -0.252 C  
HETATM   11  H   UNL     1     -10.193  12.690  69.994  1.00  0.00     0.000 HD 
HETATM   12  O   UNL     1     -10.414  16.089  68.942  1.00  0.00    -0.220 OA 
BRANCH   6  13
HETATM   13  O   UNL     1      -8.221  16.465  67.446  1.00  0.00    -0.150 OA 
BRANCH  13  14
HETATM   14  C   UNL     1      -8.066  16.971  66.114  1.00  0.00    -0.257 C  
HETATM   15  C   UNL     1      -9.248  18.977  66.622  1.00  0.00    -0.329 C  
HETATM   16  O   UNL     1      -9.146  17.835  65.753  1.00  0.00    -0.503 OA 
HETATM   17  H   UNL     1      -4.795  17.375  66.240  1.00  0.00     0.000 HD 
HETATM   18  C   UNL     1      -8.008  19.855  66.499  1.00  0.00    -0.321 C  
HETATM   19  O   UNL     1      -5.616  16.905  66.327  1.00  0.00    -0.336 OA 
HETATM   20  O   UNL     1      -8.054  20.985  67.377  1.00  0.00    -0.434 OA 
HETATM   21  C   UNL     1      -6.748  19.029  66.801  1.00  0.00    -0.191 C  
HETATM   22  H   UNL     1      -7.281  21.533  67.300  1.00  0.00     0.000 HD 
HETATM   23  O   UNL     1      -5.595  19.839  66.522  1.00  0.00    -0.172 OA 
HETATM   24  C   UNL     1      -6.726  17.739  65.970  1.00  0.00    -0.281 C  
HETATM   25  H   UNL     1      -4.816  19.328  66.710  1.00  0.00     0.000 HD 
BRANCH  15  26
HETATM   26  C   UNL     1     -10.535  19.721  66.256  1.00  0.00    -0.506 C  
HETATM   27  O   UNL     1     -10.308  20.517  65.089  1.00  0.00    -0.230 OA 
HETATM   28  H   UNL     1     -11.106  20.979  64.862  1.00  0.00     0.000 HD 
ENDBRANCH  15  26
ENDBRANCH  13  14
ENDBRANCH   6  13
BRANCH   6  29
HETATM   29  C   UNL     1      -7.429  14.081  67.611  1.00  0.00    -0.174 C  
HETATM   30  H   UNL     1      -6.309  13.200  69.002  1.00  0.00     0.000 HD 
HETATM   31  O   UNL     1      -7.038  13.808  68.952  1.00  0.00    -0.107 OA 
ENDBRANCH   6  29
ENDBRANCH   2   4
TORSDOF 5
ENDMDL
MODEL       46
REMARK 921   NORMALIZED FREE ENERGY PREDICTED BY IDOCK:   -5.24 KCAL/MOL
REMARK 922        TOTAL FREE ENERGY PREDICTED BY IDOCK:   -7.78 KCAL/MOL
REMARK 923 INTER-LIGAND FREE ENERGY PREDICTED BY IDOCK:   -6.97 KCAL/MOL
REMARK 924 INTRA-LIGAND FREE ENERGY PREDICTED BY IDOCK:   -0.81 KCAL/MOL
REMARK 927      BINDING AFFINITY PREDICTED BY RF-SCORE:    0.00 PKD
ROOT
HETATM    1  O   UNL     1      -6.874  17.473  68.157  1.00  0.00    -0.187 OA 
HETATM    2  C   UNL     1      -6.992  17.971  66.832  1.00  0.00    -0.191 C  
HETATM    3  H   UNL     1      -6.037  17.711  68.536  1.00  0.00     0.000 HD 
ENDROOT
BRANCH   2   4
HETATM    4  C   UNL     1      -8.337  17.587  66.221  1.00  0.00    -0.224 C  
HETATM    5  O   UNL     1      -8.516  16.162  66.319  1.00  0.00    -0.310 OA 
HETATM    6  C   UNL     1      -9.933  15.910  66.318  1.00  0.00    -0.298 C  
HETATM    7  H   UNL     1     -10.735  17.514  69.134  1.00  0.00     0.000 HD 
HETATM    8  O   UNL     1     -10.204  19.137  65.979  1.00  0.00    -0.428 OA 
HETATM    9  C   UNL     1     -10.493  17.069  67.185  1.00  0.00    -0.291 C  
HETATM   10  C   UNL     1      -9.558  18.239  66.883  1.00  0.00    -0.296 C  
HETATM   11  H   UNL     1     -10.960  19.541  66.389  1.00  0.00     0.000 HD 
HETATM   12  O   UNL     1     -10.392  16.805  68.603  1.00  0.00    -0.276 OA 
BRANCH   6  13
HETATM   13  O   UNL     1     -10.241  14.668  66.992  1.00  0.00    -0.257 OA 
BRANCH  13  14
HETATM   14  C   UNL     1      -9.916  13.482  66.254  1.00  0.00    -0.298 C  
HETATM   15  C   UNL     1      -8.722  12.537  68.087  1.00  0.00    -0.190 C  
HETATM   16  O   UNL     1      -8.684  12.909  66.698  1.00  0.00    -0.156 OA 
HETATM   17  H   UNL     1     -12.995  12.320  66.028  1.00  0.00     0.000 HD 
HETATM   18  C   UNL     1      -9.751  11.436  68.317  1.00  0.00    -0.202 C  
HETATM   19  O   UNL     1     -12.302  12.966  65.949  1.00  0.00    -0.493 OA 
HETATM   20  O   UNL     1      -9.847  11.062  69.697  1.00  0.00    -0.423 OA 
HETATM   21  C   UNL     1     -11.131  11.896  67.820  1.00  0.00    -0.239 C  
HETATM   22  H   UNL     1     -10.489  10.376  69.840  1.00  0.00     0.000 HD 
HETATM   23  O   UNL     1     -12.038  10.786  67.904  1.00  0.00    -0.702 OA 
HETATM   24  C   UNL     1     -11.047  12.427  66.383  1.00  0.00    -0.301 C  
HETATM   25  H   UNL     1     -12.892  11.070  67.597  1.00  0.00     0.000 HD 
BRANCH  15  26
HETATM   26  C   UNL     1      -7.307  12.113  68.489  1.00  0.00    -0.105 C  
HETATM   27  O   UNL     1      -6.359  12.740  67.620  1.00  0.00    -0.123 OA 
HETATM   28  H   UNL     1      -5.481  12.477  67.869  1.00  0.00     0.000 HD 
ENDBRANCH  15  26
ENDBRANCH  13  14
ENDBRANCH   6  13
BRANCH   6  29
HETATM   29  C   UNL     1     -10.462  15.983  64.856  1.00  0.00    -0.092 C  
HETATM   30  H   UNL     1     -11.717  17.087  63.775  1.00  0.00     0.000 HD 
HETATM   31  O   UNL     1     -11.394  17.042  64.667  1.00  0.00    -0.889 OA 
ENDBRANCH   6  29
ENDBRANCH   2   4
TORSDOF 5
ENDMDL
MODEL       47
REMARK 921   NORMALIZED FREE ENERGY PREDICTED BY IDOCK:   -5.23 KCAL/MOL
REMARK 922        TOTAL FREE ENERGY PREDICTED BY IDOCK:   -7.77 KCAL/MOL
REMARK 923 INTER-LIGAND FREE ENERGY PREDICTED BY IDOCK:   -6.68 KCAL/MOL
REMARK 924 INTRA-LIGAND FREE ENERGY PREDICTED BY IDOCK:   -1.08 KCAL/MOL
REMARK 927      BINDING AFFINITY PREDICTED BY RF-SCORE:    0.00 PKD
ROOT
HETATM    1  O   UNL     1      -8.352  14.581  69.392  1.00  0.00    -0.365 OA 
HETATM    2  C   UNL     1      -8.669  15.303  68.211  1.00  0.00    -0.165 C  
HETATM    3  H   UNL     1      -7.519  14.864  69.750  1.00  0.00     0.000 HD 
ENDROOT
BRANCH   2   4
HETATM    4  C   UNL     1     -10.008  14.849  67.635  1.00  0.00    -0.226 C  
HETATM    5  O   UNL     1      -9.914  13.466  67.246  1.00  0.00    -0.227 OA 
HETATM    6  C   UNL     1     -11.246  12.920  67.291  1.00  0.00    -0.288 C  
HETATM    7  H   UNL     1     -11.842  13.311  70.553  1.00  0.00     0.000 HD 
HETATM    8  O   UNL     1     -12.132  15.939  68.127  1.00  0.00    -0.283 OA 
HETATM    9  C   UNL     1     -11.850  13.583  68.557  1.00  0.00    -0.362 C  
HETATM   10  C   UNL     1     -11.198  14.965  68.595  1.00  0.00    -0.275 C  
HETATM   11  H   UNL     1     -12.869  16.011  68.722  1.00  0.00     0.000 HD 
HETATM   12  O   UNL     1     -11.472  12.906  69.777  1.00  0.00    -0.228 OA 
BRANCH   6  13
HETATM   13  O   UNL     1     -11.214  11.491  67.514  1.00  0.00    -0.260 OA 
BRANCH  13  14
HETATM   14  C   UNL     1      -9.903  10.912  67.548  1.00  0.00    -0.168 C  
HETATM   15  C   UNL     1     -10.419   9.587  69.460  1.00  0.00    -0.220 C  
HETATM   16  O   UNL     1      -9.524  10.551  68.878  1.00  0.00    -0.176 OA 
HETATM   17  H   UNL     1     -10.167   9.212  64.734  1.00  0.00     0.000 HD 
HETATM   18  C   UNL     1     -10.368   8.275  68.687  1.00  0.00    -0.200 C  
HETATM   19  O   UNL     1     -10.210   9.979  65.292  1.00  0.00    -0.296 OA 
HETATM   20  O   UNL     1     -11.275   7.299  69.213  1.00  0.00    -0.446 OA 
HETATM   21  C   UNL     1     -10.697   8.525  67.206  1.00  0.00    -0.149 C  
HETATM   22  H   UNL     1     -11.243   6.480  68.731  1.00  0.00     0.000 HD 
HETATM   23  O   UNL     1     -10.485   7.304  66.480  1.00  0.00    -0.493 OA 
HETATM   24  C   UNL     1      -9.832   9.658  66.637  1.00  0.00    -0.224 C  
HETATM   25  H   UNL     1     -10.689   7.459  65.565  1.00  0.00     0.000 HD 
BRANCH  15  26
HETATM   26  C   UNL     1     -10.024   9.420  70.930  1.00  0.00    -0.283 C  
HETATM   27  O   UNL     1     -11.197   9.180  71.713  1.00  0.00    -0.355 OA 
HETATM   28  H   UNL     1     -10.951   9.075  72.625  1.00  0.00     0.000 HD 
ENDBRANCH  15  26
ENDBRANCH  13  14
ENDBRANCH   6  13
BRANCH   6  29
HETATM   29  C   UNL     1     -12.012  13.341  66.004  1.00  0.00    -0.423 C  
HETATM   30  H   UNL     1     -13.093  12.493  64.563  1.00  0.00     0.000 HD 
HETATM   31  O   UNL     1     -12.625  12.236  65.349  1.00  0.00    -0.572 OA 
ENDBRANCH   6  29
ENDBRANCH   2   4
TORSDOF 5
ENDMDL
MODEL       48
REMARK 921   NORMALIZED FREE ENERGY PREDICTED BY IDOCK:   -5.22 KCAL/MOL
REMARK 922        TOTAL FREE ENERGY PREDICTED BY IDOCK:   -7.75 KCAL/MOL
REMARK 923 INTER-LIGAND FREE ENERGY PREDICTED BY IDOCK:   -7.13 KCAL/MOL
REMARK 924 INTRA-LIGAND FREE ENERGY PREDICTED BY IDOCK:   -0.62 KCAL/MOL
REMARK 927      BINDING AFFINITY PREDICTED BY RF-SCORE:    0.00 PKD
ROOT
HETATM    1  O   UNL     1     -12.176  16.003  63.823  1.00  0.00    -1.269 OA 
HETATM    2  C   UNL     1     -10.955  16.333  64.468  1.00  0.00    -0.068 C  
HETATM    3  H   UNL     1     -12.129  16.187  62.893  1.00  0.00     0.000 HD 
ENDROOT
BRANCH   2   4
HETATM    4  C   UNL     1     -11.030  16.038  65.965  1.00  0.00    -0.097 C  
HETATM    5  O   UNL     1     -11.289  14.636  66.161  1.00  0.00    -0.344 OA 
HETATM    6  C   UNL     1     -10.772  14.284  67.457  1.00  0.00    -0.270 C  
HETATM    7  H   UNL     1      -7.545  14.941  66.908  1.00  0.00     0.000 HD 
HETATM    8  O   UNL     1     -10.002  17.440  67.674  1.00  0.00    -0.280 OA 
HETATM    9  C   UNL     1      -9.452  15.096  67.536  1.00  0.00    -0.206 C  
HETATM   10  C   UNL     1      -9.759  16.374  66.755  1.00  0.00    -0.251 C  
HETATM   11  H   UNL     1      -9.215  17.649  68.163  1.00  0.00     0.000 HD 
HETATM   12  O   UNL     1      -8.353  14.444  66.860  1.00  0.00    -0.185 OA 
BRANCH   6  13
HETATM   13  O   UNL     1     -10.429  12.880  67.517  1.00  0.00    -0.220 OA 
BRANCH  13  14
HETATM   14  C   UNL     1     -11.440  11.989  67.028  1.00  0.00    -0.338 C  
HETATM   15  C   UNL     1     -10.029  11.165  65.294  1.00  0.00    -0.260 C  
HETATM   16  O   UNL     1     -11.299  11.754  65.626  1.00  0.00    -0.307 OA 
HETATM   17  H   UNL     1     -11.492   9.997  69.657  1.00  0.00     0.000 HD 
HETATM   18  C   UNL     1      -9.903   9.781  65.920  1.00  0.00    -0.282 C  
HETATM   19  O   UNL     1     -11.524  10.827  69.196  1.00  0.00    -0.257 OA 
HETATM   20  O   UNL     1      -8.635   9.174  65.644  1.00  0.00    -0.139 OA 
HETATM   21  C   UNL     1     -10.100   9.873  67.442  1.00  0.00    -0.205 C  
HETATM   22  H   UNL     1      -8.557   8.310  66.034  1.00  0.00     0.000 HD 
HETATM   23  O   UNL     1     -10.134   8.541  67.978  1.00  0.00    -0.182 OA 
HETATM   24  C   UNL     1     -11.388  10.633  67.782  1.00  0.00    -0.244 C  
HETATM   25  H   UNL     1     -10.255   8.597  68.918  1.00  0.00     0.000 HD 
BRANCH  15  26
HETATM   26  C   UNL     1      -9.921  11.133  63.767  1.00  0.00    -0.350 C  
HETATM   27  O   UNL     1     -11.234  11.149  63.198  1.00  0.00    -0.807 OA 
HETATM   28  H   UNL     1     -11.167  11.129  62.251  1.00  0.00     0.000 HD 
ENDBRANCH  15  26
ENDBRANCH  13  14
ENDBRANCH   6  13
BRANCH   6  29
HETATM   29  C   UNL     1     -11.786  14.734  68.549  1.00  0.00    -0.317 C  
HETATM   30  H   UNL     1     -11.868  14.911  70.530  1.00  0.00     0.000 HD 
HETATM   31  O   UNL     1     -11.248  14.637  69.863  1.00  0.00    -0.253 OA 
ENDBRANCH   6  29
ENDBRANCH   2   4
TORSDOF 5
ENDMDL
MODEL       49
REMARK 921   NORMALIZED FREE ENERGY PREDICTED BY IDOCK:   -5.21 KCAL/MOL
REMARK 922        TOTAL FREE ENERGY PREDICTED BY IDOCK:   -7.74 KCAL/MOL
REMARK 923 INTER-LIGAND FREE ENERGY PREDICTED BY IDOCK:   -6.58 KCAL/MOL
REMARK 924 INTRA-LIGAND FREE ENERGY PREDICTED BY IDOCK:   -1.16 KCAL/MOL
REMARK 927      BINDING AFFINITY PREDICTED BY RF-SCORE:    0.00 PKD
ROOT
HETATM    1  O   UNL     1      -8.803  14.899  69.640  1.00  0.00    -0.430 OA 
HETATM    2  C   UNL     1      -9.347  15.764  68.655  1.00  0.00    -0.206 C  
HETATM    3  H   UNL     1      -8.020  15.272  70.025  1.00  0.00     0.000 HD 
ENDROOT
BRANCH   2   4
HETATM    4  C   UNL     1     -10.607  15.164  68.035  1.00  0.00    -0.258 C  
HETATM    5  O   UNL     1     -10.233  14.195  67.039  1.00  0.00    -0.256 OA 
HETATM    6  C   UNL     1     -11.322  13.261  66.922  1.00  0.00    -0.318 C  
HETATM    7  H   UNL     1     -11.260  12.025  70.023  1.00  0.00     0.000 HD 
HETATM    8  O   UNL     1     -12.782  15.150  69.137  1.00  0.00    -0.466 OA 
HETATM    9  C   UNL     1     -11.786  13.084  68.393  1.00  0.00    -0.351 C  
HETATM   10  C   UNL     1     -11.540  14.454  69.024  1.00  0.00    -0.296 C  
HETATM   11  H   UNL     1     -13.359  14.711  69.750  1.00  0.00     0.000 HD 
HETATM   12  O   UNL     1     -10.977  12.134  69.123  1.00  0.00    -0.220 OA 
BRANCH   6  13
HETATM   13  O   UNL     1     -10.858  11.976  66.449  1.00  0.00    -0.256 OA 
BRANCH  13  14
HETATM   14  C   UNL     1      -9.483  11.941  66.045  1.00  0.00    -0.229 C  
HETATM   15  C   UNL     1      -9.104   9.853  67.130  1.00  0.00    -0.138 C  
HETATM   16  O   UNL     1      -8.679  11.220  66.981  1.00  0.00    -0.144 OA 
HETATM   17  H   UNL     1     -10.047  11.593  62.814  1.00  0.00     0.000 HD 
HETATM   18  C   UNL     1      -8.926   9.094  65.820  1.00  0.00    -0.193 C  
HETATM   19  O   UNL     1     -10.135  11.989  63.673  1.00  0.00    -0.380 OA 
HETATM   20  O   UNL     1      -9.373   7.736  65.915  1.00  0.00    -0.378 OA 
HETATM   21  C   UNL     1      -9.695   9.802  64.694  1.00  0.00    -0.096 C  
HETATM   22  H   UNL     1      -9.262   7.262  65.099  1.00  0.00     0.000 HD 
HETATM   23  O   UNL     1      -9.379   9.156  63.450  1.00  0.00    -0.409 OA 
HETATM   24  C   UNL     1      -9.339  11.294  64.642  1.00  0.00    -0.135 C  
HETATM   25  H   UNL     1      -9.855   9.594  62.754  1.00  0.00     0.000 HD 
BRANCH  15  26
HETATM   26  C   UNL     1      -8.297   9.243  68.279  1.00  0.00    -0.120 C  
HETATM   27  O   UNL     1      -7.163   8.551  67.747  1.00  0.00    -0.082 OA 
HETATM   28  H   UNL     1      -6.662   8.173  68.460  1.00  0.00     0.000 HD 
ENDBRANCH  15  26
ENDBRANCH  13  14
ENDBRANCH   6  13
BRANCH   6  29
HETATM   29  C   UNL     1     -12.441  13.891  66.043  1.00  0.00    -0.461 C  
HETATM   30  H   UNL     1     -13.679  13.346  64.582  1.00  0.00     0.000 HD 
HETATM   31  O   UNL     1     -12.996  12.961  65.120  1.00  0.00    -0.758 OA 
ENDBRANCH   6  29
ENDBRANCH   2   4
TORSDOF 5
ENDMDL
MODEL       50
REMARK 921   NORMALIZED FREE ENERGY PREDICTED BY IDOCK:   -5.20 KCAL/MOL
REMARK 922        TOTAL FREE ENERGY PREDICTED BY IDOCK:   -7.73 KCAL/MOL
REMARK 923 INTER-LIGAND FREE ENERGY PREDICTED BY IDOCK:   -6.91 KCAL/MOL
REMARK 924 INTRA-LIGAND FREE ENERGY PREDICTED BY IDOCK:   -0.82 KCAL/MOL
REMARK 927      BINDING AFFINITY PREDICTED BY RF-SCORE:    0.00 PKD
ROOT
HETATM    1  O   UNL     1     -12.254  12.430  65.953  1.00  0.00    -0.629 OA 
HETATM    2  C   UNL     1     -10.889  12.559  65.582  1.00  0.00    -0.277 C  
HETATM    3  H   UNL     1     -12.760  12.035  65.254  1.00  0.00     0.000 HD 
ENDROOT
BRANCH   2   4
HETATM    4  C   UNL     1     -10.075  13.195  66.707  1.00  0.00    -0.253 C  
HETATM    5  O   UNL     1      -9.460  14.404  66.225  1.00  0.00    -0.290 OA 
HETATM    6  C   UNL     1      -9.236  15.251  67.367  1.00  0.00    -0.195 C  
HETATM    7  H   UNL     1     -12.412  15.694  68.299  1.00  0.00     0.000 HD 
HETATM    8  O   UNL     1     -10.479  12.773  69.074  1.00  0.00    -0.414 OA 
HETATM    9  C   UNL     1     -10.512  15.028  68.221  1.00  0.00    -0.237 C  
HETATM   10  C   UNL     1     -10.880  13.568  67.958  1.00  0.00    -0.250 C  
HETATM   11  H   UNL     1     -10.977  13.004  69.849  1.00  0.00     0.000 HD 
HETATM   12  O   UNL     1     -11.630  15.830  67.776  1.00  0.00    -0.246 OA 
BRANCH   6  13
HETATM   13  O   UNL     1      -9.202  16.645  66.981  1.00  0.00    -0.211 OA 
BRANCH  13  14
HETATM   14  C   UNL     1      -8.393  17.485  67.815  1.00  0.00    -0.220 C  
HETATM   15  C   UNL     1      -7.230  18.402  65.949  1.00  0.00    -0.232 C  
HETATM   16  O   UNL     1      -7.119  17.741  67.222  1.00  0.00    -0.176 OA 
HETATM   17  H   UNL     1     -10.832  19.444  68.861  1.00  0.00     0.000 HD 
HETATM   18  C   UNL     1      -7.849  19.785  66.117  1.00  0.00    -0.335 C  
HETATM   19  O   UNL     1     -10.394  18.619  68.689  1.00  0.00    -0.347 OA 
HETATM   20  O   UNL     1      -8.012  20.463  64.866  1.00  0.00    -0.238 OA 
HETATM   21  C   UNL     1      -9.216  19.667  66.811  1.00  0.00    -0.359 C  
HETATM   22  H   UNL     1      -8.398  21.325  64.971  1.00  0.00     0.000 HD 
HETATM   23  O   UNL     1      -9.697  20.989  67.097  1.00  0.00    -0.669 OA 
HETATM   24  C   UNL     1      -9.108  18.833  68.095  1.00  0.00    -0.307 C  
HETATM   25  H   UNL     1     -10.542  20.917  67.525  1.00  0.00     0.000 HD 
BRANCH  15  26
HETATM   26  C   UNL     1      -5.829  18.455  65.333  1.00  0.00    -0.215 C  
HETATM   27  O   UNL     1      -5.919  18.932  63.987  1.00  0.00    -0.429 OA 
HETATM   28  H   UNL     1      -5.050  18.966  63.605  1.00  0.00     0.000 HD 
ENDBRANCH  15  26
ENDBRANCH  13  14
ENDBRANCH   6  13
BRANCH   6  29
HETATM   29  C   UNL     1      -7.958  14.772  68.114  1.00  0.00    -0.129 C  
HETATM   30  H   UNL     1      -6.087  14.243  67.685  1.00  0.00     0.000 HD 
HETATM   31  O   UNL     1      -6.867  14.536  67.229  1.00  0.00    -0.252 OA 
ENDBRANCH   6  29
ENDBRANCH   2   4
TORSDOF 5
ENDMDL
MODEL       51
REMARK 921   NORMALIZED FREE ENERGY PREDICTED BY IDOCK:   -5.18 KCAL/MOL
REMARK 922        TOTAL FREE ENERGY PREDICTED BY IDOCK:   -7.71 KCAL/MOL
REMARK 923 INTER-LIGAND FREE ENERGY PREDICTED BY IDOCK:   -6.64 KCAL/MOL
REMARK 924 INTRA-LIGAND FREE ENERGY PREDICTED BY IDOCK:   -1.06 KCAL/MOL
REMARK 927      BINDING AFFINITY PREDICTED BY RF-SCORE:    0.00 PKD
ROOT
HETATM    1  O   UNL     1      -6.391  10.740  65.192  1.00  0.00    -0.339 OA 
HETATM    2  C   UNL     1      -6.053   9.839  66.236  1.00  0.00    -0.064 C  
HETATM    3  H   UNL     1      -5.614  11.040  64.737  1.00  0.00     0.000 HD 
ENDROOT
BRANCH   2   4
HETATM    4  C   UNL     1      -7.303   9.356  66.968  1.00  0.00    -0.087 C  
HETATM    5  O   UNL     1      -8.156  10.482  67.248  1.00  0.00    -0.114 OA 
HETATM    6  C   UNL     1      -9.500   9.980  67.360  1.00  0.00    -0.152 C  
HETATM    7  H   UNL     1      -9.866   8.818  64.251  1.00  0.00     0.000 HD 
HETATM    8  O   UNL     1      -8.135   7.066  66.860  1.00  0.00    -0.113 OA 
HETATM    9  C   UNL     1      -9.565   8.907  66.240  1.00  0.00    -0.260 C  
HETATM   10  C   UNL     1      -8.149   8.333  66.199  1.00  0.00    -0.111 C  
HETATM   11  H   UNL     1      -8.658   6.433  66.383  1.00  0.00     0.000 HD 
HETATM   12  O   UNL     1      -9.827   9.475  64.937  1.00  0.00    -0.152 OA 
BRANCH   6  13
HETATM   13  O   UNL     1     -10.467  11.007  67.041  1.00  0.00    -0.217 OA 
BRANCH  13  14
HETATM   14  C   UNL     1      -9.905  12.269  66.657  1.00  0.00    -0.220 C  
HETATM   15  C   UNL     1     -11.562  12.620  64.981  1.00  0.00    -0.345 C  
HETATM   16  O   UNL     1     -10.156  12.557  65.280  1.00  0.00    -0.278 OA 
HETATM   17  H   UNL     1     -10.598  13.862  69.461  1.00  0.00     0.000 HD 
HETATM   18  C   UNL     1     -12.216  13.775  65.731  1.00  0.00    -0.462 C  
HETATM   19  O   UNL     1     -10.247  13.161  68.925  1.00  0.00    -0.143 OA 
HETATM   20  O   UNL     1     -13.626  13.849  65.489  1.00  0.00    -0.613 OA 
HETATM   21  C   UNL     1     -11.969  13.628  67.241  1.00  0.00    -0.381 C  
HETATM   22  H   UNL     1     -14.034  14.569  65.957  1.00  0.00     0.000 HD 
HETATM   23  O   UNL     1     -12.457  14.807  67.899  1.00  0.00    -0.556 OA 
HETATM   24  C   UNL     1     -10.477  13.415  67.533  1.00  0.00    -0.236 C  
HETATM   25  H   UNL     1     -12.305  14.716  68.833  1.00  0.00     0.000 HD 
BRANCH  15  26
HETATM   26  C   UNL     1     -11.705  12.749  63.462  1.00  0.00    -0.530 C  
HETATM   27  O   UNL     1     -12.094  14.085  63.133  1.00  0.00    -0.907 OA 
HETATM   28  H   UNL     1     -12.182  14.165  62.191  1.00  0.00     0.000 HD 
ENDBRANCH  15  26
ENDBRANCH  13  14
ENDBRANCH   6  13
BRANCH   6  29
HETATM   29  C   UNL     1      -9.692   9.348  68.769  1.00  0.00    -0.156 C  
HETATM   30  H   UNL     1      -9.291   9.784  70.670  1.00  0.00     0.000 HD 
HETATM   31  O   UNL     1      -9.174  10.170  69.809  1.00  0.00    -0.208 OA 
ENDBRANCH   6  29
ENDBRANCH   2   4
TORSDOF 5
ENDMDL
MODEL       52
REMARK 921   NORMALIZED FREE ENERGY PREDICTED BY IDOCK:   -5.17 KCAL/MOL
REMARK 922        TOTAL FREE ENERGY PREDICTED BY IDOCK:   -7.69 KCAL/MOL
REMARK 923 INTER-LIGAND FREE ENERGY PREDICTED BY IDOCK:   -6.91 KCAL/MOL
REMARK 924 INTRA-LIGAND FREE ENERGY PREDICTED BY IDOCK:   -0.78 KCAL/MOL
REMARK 927      BINDING AFFINITY PREDICTED BY RF-SCORE:    0.00 PKD
ROOT
HETATM    1  O   UNL     1     -12.323  10.751  68.742  1.00  0.00    -0.812 OA 
HETATM    2  C   UNL     1     -11.813  12.068  68.893  1.00  0.00    -0.299 C  
HETATM    3  H   UNL     1     -12.761  10.464  69.534  1.00  0.00     0.000 HD 
ENDROOT
BRANCH   2   4
HETATM    4  C   UNL     1     -11.110  12.531  67.619  1.00  0.00    -0.258 C  
HETATM    5  O   UNL     1     -10.896  13.953  67.683  1.00  0.00    -0.250 OA 
HETATM    6  C   UNL     1      -9.767  14.252  66.841  1.00  0.00    -0.264 C  
HETATM    7  H   UNL     1      -7.437  12.513  68.482  1.00  0.00     0.000 HD 
HETATM    8  O   UNL     1      -9.787  11.061  66.193  1.00  0.00    -0.209 OA 
HETATM    9  C   UNL     1      -8.807  13.064  67.113  1.00  0.00    -0.218 C  
HETATM   10  C   UNL     1      -9.745  11.882  67.361  1.00  0.00    -0.184 C  
HETATM   11  H   UNL     1      -8.941  10.659  66.033  1.00  0.00     0.000 HD 
HETATM   12  O   UNL     1      -8.025  13.241  68.315  1.00  0.00    -0.132 OA 
BRANCH   6  13
HETATM   13  O   UNL     1      -9.103  15.462  67.272  1.00  0.00    -0.194 OA 
BRANCH  13  14
HETATM   14  C   UNL     1      -8.417  16.178  66.237  1.00  0.00    -0.322 C  
HETATM   15  C   UNL     1      -9.390  18.257  66.878  1.00  0.00    -0.286 C  
HETATM   16  O   UNL     1      -9.159  17.322  65.809  1.00  0.00    -0.523 OA 
HETATM   17  H   UNL     1      -5.377  15.785  67.456  1.00  0.00     0.000 HD 
HETATM   18  C   UNL     1      -8.070  18.832  67.378  1.00  0.00    -0.251 C  
HETATM   19  O   UNL     1      -6.237  15.509  67.160  1.00  0.00    -0.316 OA 
HETATM   20  O   UNL     1      -8.253  19.741  68.470  1.00  0.00    -0.314 OA 
HETATM   21  C   UNL     1      -7.134  17.695  67.817  1.00  0.00    -0.185 C  
HETATM   22  H   UNL     1      -7.430  20.100  68.781  1.00  0.00     0.000 HD 
HETATM   23  O   UNL     1      -5.850  18.257  68.130  1.00  0.00    -0.170 OA 
HETATM   24  C   UNL     1      -7.013  16.630  66.719  1.00  0.00    -0.229 C  
HETATM   25  H   UNL     1      -5.271  17.554  68.402  1.00  0.00     0.000 HD 
BRANCH  15  26
HETATM   26  C   UNL     1     -10.340  19.335  66.350  1.00  0.00    -0.471 C  
HETATM   27  O   UNL     1     -11.263  19.699  67.381  1.00  0.00    -0.293 OA 
HETATM   28  H   UNL     1     -11.853  20.368  67.054  1.00  0.00     0.000 HD 
ENDBRANCH  15  26
ENDBRANCH  13  14
ENDBRANCH   6  13
BRANCH   6  29
HETATM   29  C   UNL     1     -10.234  14.282  65.357  1.00  0.00    -0.371 C  
HETATM   30  H   UNL     1     -11.752  14.993  64.282  1.00  0.00     0.000 HD 
HETATM   31  O   UNL     1     -11.467  14.975  65.188  1.00  0.00    -0.360 OA 
ENDBRANCH   6  29
ENDBRANCH   2   4
TORSDOF 5
ENDMDL
MODEL       53
REMARK 921   NORMALIZED FREE ENERGY PREDICTED BY IDOCK:   -5.16 KCAL/MOL
REMARK 922        TOTAL FREE ENERGY PREDICTED BY IDOCK:   -7.68 KCAL/MOL
REMARK 923 INTER-LIGAND FREE ENERGY PREDICTED BY IDOCK:   -7.17 KCAL/MOL
REMARK 924 INTRA-LIGAND FREE ENERGY PREDICTED BY IDOCK:   -0.51 KCAL/MOL
REMARK 927      BINDING AFFINITY PREDICTED BY RF-SCORE:    0.00 PKD
ROOT
HETATM    1  O   UNL     1     -11.469  12.248  63.083  1.00  0.00    -0.689 OA 
HETATM    2  C   UNL     1     -11.956  12.391  64.409  1.00  0.00    -0.407 C  
HETATM    3  H   UNL     1     -12.161  12.388  62.449  1.00  0.00     0.000 HD 
ENDROOT
BRANCH   2   4
HETATM    4  C   UNL     1     -10.842  12.166  65.429  1.00  0.00    -0.294 C  
HETATM    5  O   UNL     1     -10.855  13.236  66.392  1.00  0.00    -0.285 OA 
HETATM    6  C   UNL     1     -10.267  12.726  67.603  1.00  0.00    -0.219 C  
HETATM    7  H   UNL     1     -12.502  10.341  68.284  1.00  0.00     0.000 HD 
HETATM    8  O   UNL     1      -9.852   9.987  65.892  1.00  0.00    -0.227 OA 
HETATM    9  C   UNL     1     -10.827  11.281  67.678  1.00  0.00    -0.238 C  
HETATM   10  C   UNL     1     -10.940  10.853  66.215  1.00  0.00    -0.061 C  
HETATM   11  H   UNL     1      -9.913   9.174  66.379  1.00  0.00     0.000 HD 
HETATM   12  O   UNL     1     -12.159  11.226  68.238  1.00  0.00    -0.619 OA 
BRANCH   6  13
HETATM   13  O   UNL     1     -10.751  13.447  68.759  1.00  0.00    -0.247 OA 
BRANCH  13  14
HETATM   14  C   UNL     1     -11.881  14.295  68.515  1.00  0.00    -0.347 C  
HETATM   15  C   UNL     1     -12.445  14.391  70.828  1.00  0.00    -0.352 C  
HETATM   16  O   UNL     1     -12.903  14.101  69.495  1.00  0.00     0.029 OA 
HETATM   17  H   UNL     1     -10.168  16.936  67.530  1.00  0.00     0.000 HD 
HETATM   18  C   UNL     1     -12.077  15.864  70.958  1.00  0.00    -0.395 C  
HETATM   19  O   UNL     1     -10.428  16.022  67.536  1.00  0.00    -0.284 OA 
HETATM   20  O   UNL     1     -11.580  16.187  72.262  1.00  0.00    -0.447 OA 
HETATM   21  C   UNL     1     -11.018  16.235  69.907  1.00  0.00    -0.365 C  
HETATM   22  H   UNL     1     -11.350  17.106  72.343  1.00  0.00     0.000 HD 
HETATM   23  O   UNL     1     -10.811  17.655  69.950  1.00  0.00    -0.129 OA 
HETATM   24  C   UNL     1     -11.456  15.787  68.506  1.00  0.00    -0.379 C  
HETATM   25  H   UNL     1     -10.156  17.884  69.301  1.00  0.00     0.000 HD 
BRANCH  15  26
HETATM   26  C   UNL     1     -13.556  13.975  71.797  1.00  0.00    -0.394 C  
HETATM   27  O   UNL     1     -14.039  15.130  72.490  1.00  0.00    -0.489 OA 
HETATM   28  H   UNL     1     -14.728  14.872  73.090  1.00  0.00     0.000 HD 
ENDBRANCH  15  26
ENDBRANCH  13  14
ENDBRANCH   6  13
BRANCH   6  29
HETATM   29  C   UNL     1      -8.718  12.732  67.457  1.00  0.00    -0.185 C  
HETATM   30  H   UNL     1      -7.144  13.644  68.268  1.00  0.00     0.000 HD 
HETATM   31  O   UNL     1      -8.090  13.640  68.357  1.00  0.00    -0.142 OA 
ENDBRANCH   6  29
ENDBRANCH   2   4
TORSDOF 5
ENDMDL
MODEL       54
REMARK 921   NORMALIZED FREE ENERGY PREDICTED BY IDOCK:   -5.14 KCAL/MOL
REMARK 922        TOTAL FREE ENERGY PREDICTED BY IDOCK:   -7.64 KCAL/MOL
REMARK 923 INTER-LIGAND FREE ENERGY PREDICTED BY IDOCK:   -6.56 KCAL/MOL
REMARK 924 INTRA-LIGAND FREE ENERGY PREDICTED BY IDOCK:   -1.08 KCAL/MOL
REMARK 927      BINDING AFFINITY PREDICTED BY RF-SCORE:    0.00 PKD
ROOT
HETATM    1  O   UNL     1     -11.108   8.861  68.782  1.00  0.00    -0.442 OA 
HETATM    2  C   UNL     1     -10.319   8.342  67.723  1.00  0.00    -0.234 C  
HETATM    3  H   UNL     1     -11.088   8.285  69.536  1.00  0.00     0.000 HD 
ENDROOT
BRANCH   2   4
HETATM    4  C   UNL     1     -10.351   9.270  66.510  1.00  0.00    -0.200 C  
HETATM    5  O   UNL     1     -10.781  10.579  66.925  1.00  0.00    -0.253 OA 
HETATM    6  C   UNL     1     -10.246  11.523  65.978  1.00  0.00    -0.242 C  
HETATM    7  H   UNL     1      -6.994  10.993  66.523  1.00  0.00     0.000 HD 
HETATM    8  O   UNL     1      -9.058   8.887  64.479  1.00  0.00    -0.434 OA 
HETATM    9  C   UNL     1      -8.828  10.959  65.691  1.00  0.00    -0.190 C  
HETATM   10  C   UNL     1      -9.007   9.445  65.793  1.00  0.00    -0.186 C  
HETATM   11  H   UNL     1      -8.226   8.995  64.035  1.00  0.00     0.000 HD 
HETATM   12  O   UNL     1      -7.862  11.338  66.698  1.00  0.00    -0.150 OA 
BRANCH   6  13
HETATM   13  O   UNL     1     -10.087  12.829  66.579  1.00  0.00    -0.247 OA 
BRANCH  13  14
HETATM   14  C   UNL     1     -11.177  13.734  66.357  1.00  0.00    -0.316 C  
HETATM   15  C   UNL     1     -10.878  14.784  68.475  1.00  0.00    -0.252 C  
HETATM   16  O   UNL     1     -11.795  14.121  67.586  1.00  0.00    -0.360 OA 
HETATM   17  H   UNL     1      -9.768  15.430  63.905  1.00  0.00     0.000 HD 
HETATM   18  C   UNL     1     -10.399  16.097  67.867  1.00  0.00    -0.277 C  
HETATM   19  O   UNL     1     -10.064  14.654  64.365  1.00  0.00    -0.014 OA 
HETATM   20  O   UNL     1      -9.455  16.771  68.706  1.00  0.00    -0.245 OA 
HETATM   21  C   UNL     1      -9.761  15.836  66.493  1.00  0.00    -0.265 C  
HETATM   22  H   UNL     1      -9.156  17.590  68.326  1.00  0.00     0.000 HD 
HETATM   23  O   UNL     1      -9.467  17.102  65.880  1.00  0.00    -0.496 OA 
HETATM   24  C   UNL     1     -10.694  15.002  65.605  1.00  0.00    -0.354 C  
HETATM   25  H   UNL     1      -9.072  16.941  65.031  1.00  0.00     0.000 HD 
BRANCH  15  26
HETATM   26  C   UNL     1     -11.596  14.982  69.813  1.00  0.00    -0.304 C  
HETATM   27  O   UNL     1     -10.634  15.280  70.829  1.00  0.00    -0.498 OA 
HETATM   28  H   UNL     1     -11.079  15.404  71.658  1.00  0.00     0.000 HD 
ENDBRANCH  15  26
ENDBRANCH  13  14
ENDBRANCH   6  13
BRANCH   6  29
HETATM   29  C   UNL     1     -11.132  11.519  64.699  1.00  0.00    -0.250 C  
HETATM   30  H   UNL     1     -10.902  11.505  62.722  1.00  0.00     0.000 HD 
HETATM   31  O   UNL     1     -10.360  11.507  63.503  1.00  0.00    -0.354 OA 
ENDBRANCH   6  29
ENDBRANCH   2   4
TORSDOF 5
ENDMDL
MODEL       55
REMARK 921   NORMALIZED FREE ENERGY PREDICTED BY IDOCK:   -5.09 KCAL/MOL
REMARK 922        TOTAL FREE ENERGY PREDICTED BY IDOCK:   -7.58 KCAL/MOL
REMARK 923 INTER-LIGAND FREE ENERGY PREDICTED BY IDOCK:   -6.99 KCAL/MOL
REMARK 924 INTRA-LIGAND FREE ENERGY PREDICTED BY IDOCK:   -0.58 KCAL/MOL
REMARK 927      BINDING AFFINITY PREDICTED BY RF-SCORE:    0.00 PKD
ROOT
HETATM    1  O   UNL     1      -8.503  10.711  69.878  1.00  0.00    -0.355 OA 
HETATM    2  C   UNL     1      -8.745   9.411  69.358  1.00  0.00    -0.157 C  
HETATM    3  H   UNL     1      -8.461  10.695  70.826  1.00  0.00     0.000 HD 
ENDROOT
BRANCH   2   4
HETATM    4  C   UNL     1      -8.812   9.436  67.832  1.00  0.00    -0.124 C  
HETATM    5  O   UNL     1      -9.572  10.583  67.408  1.00  0.00    -0.156 OA 
HETATM    6  C   UNL     1      -9.130  10.918  66.079  1.00  0.00    -0.191 C  
HETATM    7  H   UNL     1      -5.949  11.655  66.775  1.00  0.00     0.000 HD 
HETATM    8  O   UNL     1      -7.199   8.314  66.389  1.00  0.00    -0.073 OA 
HETATM    9  C   UNL     1      -7.598  10.681  66.153  1.00  0.00    -0.138 C  
HETATM   10  C   UNL     1      -7.453   9.511  67.126  1.00  0.00    -0.091 C  
HETATM   11  H   UNL     1      -6.357   8.361  65.951  1.00  0.00     0.000 HD 
HETATM   12  O   UNL     1      -6.887  11.799  66.730  1.00  0.00    -0.127 OA 
BRANCH   6  13
HETATM   13  O   UNL     1      -9.346  12.320  65.798  1.00  0.00    -0.172 OA 
BRANCH  13  14
HETATM   14  C   UNL     1     -10.044  13.043  66.821  1.00  0.00    -0.247 C  
HETATM   15  C   UNL     1      -9.579  15.147  65.804  1.00  0.00    -0.309 C  
HETATM   16  O   UNL     1      -9.501  14.352  67.001  1.00  0.00    -0.229 OA 
HETATM   17  H   UNL     1     -13.059  11.930  66.081  1.00  0.00     0.000 HD 
HETATM   18  C   UNL     1     -11.033  15.393  65.420  1.00  0.00    -0.368 C  
HETATM   19  O   UNL     1     -12.135  11.860  66.289  1.00  0.00    -0.535 OA 
HETATM   20  O   UNL     1     -11.155  16.151  64.210  1.00  0.00    -1.042 OA 
HETATM   21  C   UNL     1     -11.767  14.053  65.254  1.00  0.00    -0.346 C  
HETATM   22  H   UNL     1     -12.062  16.305  63.971  1.00  0.00     0.000 HD 
HETATM   23  O   UNL     1     -13.164  14.320  65.051  1.00  0.00    -0.638 OA 
HETATM   24  C   UNL     1     -11.554  13.156  66.481  1.00  0.00    -0.356 C  
HETATM   25  H   UNL     1     -13.617  13.492  64.948  1.00  0.00     0.000 HD 
BRANCH  15  26
HETATM   26  C   UNL     1      -8.810  16.445  66.062  1.00  0.00    -0.261 C  
HETATM   27  O   UNL     1      -9.700  17.558  65.931  1.00  0.00    -0.513 OA 
HETATM   28  H   UNL     1      -9.223  18.363  66.092  1.00  0.00     0.000 HD 
ENDBRANCH  15  26
ENDBRANCH  13  14
ENDBRANCH   6  13
BRANCH   6  29
HETATM   29  C   UNL     1      -9.809   9.958  65.061  1.00  0.00    -0.252 C  
HETATM   30  H   UNL     1     -10.477   9.998  63.185  1.00  0.00     0.000 HD 
HETATM   31  O   UNL     1     -10.062  10.584  63.808  1.00  0.00    -0.315 OA 
ENDBRANCH   6  29
ENDBRANCH   2   4
TORSDOF 5
ENDMDL
MODEL       56
REMARK 921   NORMALIZED FREE ENERGY PREDICTED BY IDOCK:   -5.04 KCAL/MOL
REMARK 922        TOTAL FREE ENERGY PREDICTED BY IDOCK:   -7.52 KCAL/MOL
REMARK 923 INTER-LIGAND FREE ENERGY PREDICTED BY IDOCK:   -6.63 KCAL/MOL
REMARK 924 INTRA-LIGAND FREE ENERGY PREDICTED BY IDOCK:   -0.89 KCAL/MOL
REMARK 927      BINDING AFFINITY PREDICTED BY RF-SCORE:    0.00 PKD
ROOT
HETATM    1  O   UNL     1      -6.664  11.472  66.243  1.00  0.00    -0.354 OA 
HETATM    2  C   UNL     1      -7.768  11.403  67.134  1.00  0.00    -0.152 C  
HETATM    3  H   UNL     1      -6.132  12.238  66.421  1.00  0.00     0.000 HD 
ENDROOT
BRANCH   2   4
HETATM    4  C   UNL     1      -8.625  10.172  66.849  1.00  0.00    -0.126 C  
HETATM    5  O   UNL     1      -9.025   9.571  68.094  1.00  0.00    -0.124 OA 
HETATM    6  C   UNL     1     -10.246   8.850  67.846  1.00  0.00    -0.222 C  
HETATM    7  H   UNL     1     -12.183  11.424  66.966  1.00  0.00     0.000 HD 
HETATM    8  O   UNL     1      -9.844   9.825  64.765  1.00  0.00    -0.413 OA 
HETATM    9  C   UNL     1     -11.012   9.788  66.875  1.00  0.00     0.060 C  
HETATM   10  C   UNL     1      -9.906  10.446  66.050  1.00  0.00    -0.232 C  
HETATM   11  H   UNL     1     -10.636   9.995  64.271  1.00  0.00     0.000 HD 
HETATM   12  O   UNL     1     -11.714  10.850  67.560  1.00  0.00    -0.543 OA 
BRANCH   6  13
HETATM   13  O   UNL     1     -11.033   8.730  69.053  1.00  0.00    -0.089 OA 
BRANCH  13  14
HETATM   14  C   UNL     1     -10.356   9.109  70.259  1.00  0.00    -0.214 C  
HETATM   15  C   UNL     1     -12.341  10.010  71.221  1.00  0.00    -0.398 C  
HETATM   16  O   UNL     1     -10.966  10.248  70.867  1.00  0.00    -0.281 OA 
HETATM   17  H   UNL     1      -9.724   6.049  71.317  1.00  0.00     0.000 HD 
HETATM   18  C   UNL     1     -12.438   8.920  72.283  1.00  0.00    -0.369 C  
HETATM   19  O   UNL     1      -9.734   6.769  70.697  1.00  0.00    -0.172 OA 
HETATM   20  O   UNL     1     -13.794   8.626  72.636  1.00  0.00    -0.637 OA 
HETATM   21  C   UNL     1     -11.755   7.637  71.782  1.00  0.00    -0.283 C  
HETATM   22  H   UNL     1     -13.855   7.947  73.298  1.00  0.00     0.000 HD 
HETATM   23  O   UNL     1     -11.723   6.688  72.860  1.00  0.00    -0.485 OA 
HETATM   24  C   UNL     1     -10.338   7.934  71.272  1.00  0.00    -0.191 C  
HETATM   25  H   UNL     1     -11.302   5.895  72.551  1.00  0.00     0.000 HD 
BRANCH  15  26
HETATM   26  C   UNL     1     -12.934  11.342  71.688  1.00  0.00    -0.432 C  
HETATM   27  O   UNL     1     -12.472  12.392  70.834  1.00  0.00    -0.371 OA 
HETATM   28  H   UNL     1     -12.840  13.219  71.123  1.00  0.00     0.000 HD 
ENDBRANCH  15  26
ENDBRANCH  13  14
ENDBRANCH   6  13
BRANCH   6  29
HETATM   29  C   UNL     1      -9.906   7.488  67.176  1.00  0.00    -0.201 C  
HETATM   30  H   UNL     1     -10.831   5.802  66.663  1.00  0.00     0.000 HD 
HETATM   31  O   UNL     1     -11.040   6.634  67.072  1.00  0.00    -0.403 OA 
ENDBRANCH   6  29
ENDBRANCH   2   4
TORSDOF 5
ENDMDL
MODEL       57
REMARK 921   NORMALIZED FREE ENERGY PREDICTED BY IDOCK:   -5.03 KCAL/MOL
REMARK 922        TOTAL FREE ENERGY PREDICTED BY IDOCK:   -7.51 KCAL/MOL
REMARK 923 INTER-LIGAND FREE ENERGY PREDICTED BY IDOCK:   -6.38 KCAL/MOL
REMARK 924 INTRA-LIGAND FREE ENERGY PREDICTED BY IDOCK:   -1.13 KCAL/MOL
REMARK 927      BINDING AFFINITY PREDICTED BY RF-SCORE:    0.00 PKD
ROOT
HETATM    1  O   UNL     1     -11.427   4.243  64.793  1.00  0.00    -0.995 OA 
HETATM    2  C   UNL     1     -10.376   4.342  65.743  1.00  0.00    -0.217 C  
HETATM    3  H   UNL     1     -11.630   3.335  64.604  1.00  0.00     0.000 HD 
ENDROOT
BRANCH   2   4
HETATM    4  C   UNL     1     -10.049   5.802  66.047  1.00  0.00     0.084 C  
HETATM    5  O   UNL     1     -10.730   6.202  67.251  1.00  0.00    -0.258 OA 
HETATM    6  C   UNL     1      -9.979   7.287  67.825  1.00  0.00    -0.166 C  
HETATM    7  H   UNL     1      -7.125   5.661  68.428  1.00  0.00     0.000 HD 
HETATM    8  O   UNL     1      -8.064   6.947  65.213  1.00  0.00    -0.124 OA 
HETATM    9  C   UNL     1      -8.507   6.857  67.582  1.00  0.00    -0.122 C  
HETATM   10  C   UNL     1      -8.559   6.103  66.253  1.00  0.00    -0.136 C  
HETATM   11  H   UNL     1      -7.142   7.133  65.340  1.00  0.00     0.000 HD 
HETATM   12  O   UNL     1      -8.026   5.925  68.576  1.00  0.00    -0.100 OA 
BRANCH   6  13
HETATM   13  O   UNL     1     -10.184   7.363  69.254  1.00  0.00    -0.188 OA 
BRANCH  13  14
HETATM   14  C   UNL     1     -10.373   8.687  69.770  1.00  0.00    -0.212 C  
HETATM   15  C   UNL     1     -11.914   7.941  71.427  1.00  0.00    -0.303 C  
HETATM   16  O   UNL     1     -11.675   8.849  70.337  1.00  0.00    -0.180 OA 
HETATM   17  H   UNL     1      -7.324   9.065  70.970  1.00  0.00     0.000 HD 
HETATM   18  C   UNL     1     -10.964   8.231  72.582  1.00  0.00    -0.316 C  
HETATM   19  O   UNL     1      -7.980   8.863  70.313  1.00  0.00    -0.092 OA 
HETATM   20  O   UNL     1     -11.145   7.323  73.675  1.00  0.00    -0.560 OA 
HETATM   21  C   UNL     1      -9.507   8.155  72.096  1.00  0.00    -0.225 C  
HETATM   22  H   UNL     1     -10.552   7.504  74.396  1.00  0.00     0.000 HD 
HETATM   23  O   UNL     1      -8.648   8.587  73.163  1.00  0.00    -0.362 OA 
HETATM   24  C   UNL     1      -9.302   9.017  70.843  1.00  0.00    -0.264 C  
HETATM   25  H   UNL     1      -7.748   8.539  72.862  1.00  0.00     0.000 HD 
BRANCH  15  26
HETATM   26  C   UNL     1     -13.386   8.079  71.826  1.00  0.00    -0.340 C  
HETATM   27  O   UNL     1     -13.478   8.809  73.053  1.00  0.00    -0.873 OA 
HETATM   28  H   UNL     1     -14.391   8.895  73.301  1.00  0.00     0.000 HD 
ENDBRANCH  15  26
ENDBRANCH  13  14
ENDBRANCH   6  13
BRANCH   6  29
HETATM   29  C   UNL     1     -10.323   8.601  67.067  1.00  0.00    -0.298 C  
HETATM   30  H   UNL     1      -9.370  10.115  66.192  1.00  0.00     0.000 HD 
HETATM   31  O   UNL     1      -9.160   9.312  66.655  1.00  0.00    -0.135 OA 
ENDBRANCH   6  29
ENDBRANCH   2   4
TORSDOF 5
ENDMDL
MODEL       58
REMARK 921   NORMALIZED FREE ENERGY PREDICTED BY IDOCK:   -4.95 KCAL/MOL
REMARK 922        TOTAL FREE ENERGY PREDICTED BY IDOCK:   -7.41 KCAL/MOL
REMARK 923 INTER-LIGAND FREE ENERGY PREDICTED BY IDOCK:   -6.41 KCAL/MOL
REMARK 924 INTRA-LIGAND FREE ENERGY PREDICTED BY IDOCK:   -1.00 KCAL/MOL
REMARK 927      BINDING AFFINITY PREDICTED BY RF-SCORE:    0.00 PKD
ROOT
HETATM    1  O   UNL     1      -6.076  18.352  67.713  1.00  0.00    -0.180 OA 
HETATM    2  C   UNL     1      -6.169  17.533  66.556  1.00  0.00    -0.214 C  
HETATM    3  H   UNL     1      -5.170  18.482  67.965  1.00  0.00     0.000 HD 
ENDROOT
BRANCH   2   4
HETATM    4  C   UNL     1      -7.626  17.324  66.150  1.00  0.00    -0.282 C  
HETATM    5  O   UNL     1      -8.037  15.994  66.517  1.00  0.00    -0.269 OA 
HETATM    6  C   UNL     1      -9.466  16.022  66.691  1.00  0.00    -0.237 C  
HETATM    7  H   UNL     1      -9.621  18.176  69.238  1.00  0.00     0.000 HD 
HETATM    8  O   UNL     1      -9.210  19.146  65.809  1.00  0.00    -0.383 OA 
HETATM    9  C   UNL     1      -9.703  17.389  67.386  1.00  0.00    -0.269 C  
HETATM   10  C   UNL     1      -8.623  18.295  66.795  1.00  0.00    -0.261 C  
HETATM   11  H   UNL     1      -9.827  19.748  66.208  1.00  0.00     0.000 HD 
HETATM   12  O   UNL     1      -9.476  17.339  68.812  1.00  0.00    -0.270 OA 
BRANCH   6  13
HETATM   13  O   UNL     1      -9.899  14.985  67.601  1.00  0.00    -0.219 OA 
BRANCH  13  14
HETATM   14  C   UNL     1     -11.177  14.410  67.300  1.00  0.00    -0.323 C  
HETATM   15  C   UNL     1     -10.349  12.186  67.513  1.00  0.00    -0.205 C  
HETATM   16  O   UNL     1     -11.044  13.130  66.678  1.00  0.00    -0.282 OA 
HETATM   17  H   UNL     1     -12.711  15.446  70.030  1.00  0.00     0.000 HD 
HETATM   18  C   UNL     1     -11.148  11.905  68.780  1.00  0.00    -0.245 C  
HETATM   19  O   UNL     1     -12.188  15.533  69.242  1.00  0.00    -0.301 OA 
HETATM   20  O   UNL     1     -10.473  10.996  69.657  1.00  0.00    -0.420 OA 
HETATM   21  C   UNL     1     -11.425  13.219  69.528  1.00  0.00    -0.234 C  
HETATM   22  H   UNL     1     -10.971  10.821  70.447  1.00  0.00     0.000 HD 
HETATM   23  O   UNL     1     -12.310  12.941  70.625  1.00  0.00    -0.358 OA 
HETATM   24  C   UNL     1     -12.033  14.268  68.586  1.00  0.00    -0.313 C  
HETATM   25  H   UNL     1     -12.481  13.753  71.087  1.00  0.00     0.000 HD 
BRANCH  15  26
HETATM   26  C   UNL     1     -10.107  10.925  66.678  1.00  0.00    -0.219 C  
HETATM   27  O   UNL     1      -8.990  10.209  67.214  1.00  0.00    -0.135 OA 
HETATM   28  H   UNL     1      -8.839   9.427  66.697  1.00  0.00     0.000 HD 
ENDBRANCH  15  26
ENDBRANCH  13  14
ENDBRANCH   6  13
BRANCH   6  29
HETATM   29  C   UNL     1     -10.150  15.964  65.295  1.00  0.00    -0.171 C  
HETATM   30  H   UNL     1     -11.350  17.086  64.171  1.00  0.00     0.000 HD 
HETATM   31  O   UNL     1     -10.932  17.122  65.023  1.00  0.00    -0.614 OA 
ENDBRANCH   6  29
ENDBRANCH   2   4
TORSDOF 5
ENDMDL
MODEL       59
REMARK 921   NORMALIZED FREE ENERGY PREDICTED BY IDOCK:   -4.92 KCAL/MOL
REMARK 922        TOTAL FREE ENERGY PREDICTED BY IDOCK:   -7.37 KCAL/MOL
REMARK 923 INTER-LIGAND FREE ENERGY PREDICTED BY IDOCK:   -6.72 KCAL/MOL
REMARK 924 INTRA-LIGAND FREE ENERGY PREDICTED BY IDOCK:   -0.65 KCAL/MOL
REMARK 927      BINDING AFFINITY PREDICTED BY RF-SCORE:    0.00 PKD
ROOT
HETATM    1  O   UNL     1     -10.331   6.571  74.235  1.00  0.00    -0.349 OA 
HETATM    2  C   UNL     1      -9.932   7.678  73.441  1.00  0.00    -0.314 C  
HETATM    3  H   UNL     1      -9.612   6.263  74.774  1.00  0.00     0.000 HD 
ENDROOT
BRANCH   2   4
HETATM    4  C   UNL     1     -11.088   8.175  72.575  1.00  0.00    -0.377 C  
HETATM    5  O   UNL     1     -10.659   9.325  71.822  1.00  0.00    -0.355 OA 
HETATM    6  C   UNL     1     -11.481   9.392  70.642  1.00  0.00    -0.284 C  
HETATM    7  H   UNL     1     -10.575   6.505  69.230  1.00  0.00     0.000 HD 
HETATM    8  O   UNL     1     -12.965   6.776  71.892  1.00  0.00    -0.480 OA 
HETATM    9  C   UNL     1     -11.623   7.902  70.233  1.00  0.00    -0.011 C  
HETATM   10  C   UNL     1     -11.626   7.153  71.566  1.00  0.00    -0.278 C  
HETATM   11  H   UNL     1     -13.298   6.143  71.267  1.00  0.00     0.000 HD 
HETATM   12  O   UNL     1     -10.488   7.418  69.481  1.00  0.00    -0.221 OA 
BRANCH   6  13
HETATM   13  O   UNL     1     -10.796  10.079  69.570  1.00  0.00    -0.225 OA 
BRANCH  13  14
HETATM   14  C   UNL     1     -11.631  10.473  68.472  1.00  0.00    -0.148 C  
HETATM   15  C   UNL     1     -11.188  12.788  68.824  1.00  0.00    -0.283 C  
HETATM   16  O   UNL     1     -12.195  11.769  68.681  1.00  0.00    -0.405 OA 
HETATM   17  H   UNL     1      -9.752   9.183  66.088  1.00  0.00     0.000 HD 
HETATM   18  C   UNL     1     -10.386  12.930  67.536  1.00  0.00    -0.223 C  
HETATM   19  O   UNL     1     -10.243   9.185  66.901  1.00  0.00    -0.237 OA 
HETATM   20  O   UNL     1      -9.348  13.911  67.649  1.00  0.00    -0.193 OA 
HETATM   21  C   UNL     1      -9.766  11.578  67.151  1.00  0.00    -0.183 C  
HETATM   22  H   UNL     1      -8.848  14.000  66.845  1.00  0.00     0.000 HD 
HETATM   23  O   UNL     1      -9.154  11.709  65.858  1.00  0.00    -0.258 OA 
HETATM   24  C   UNL     1     -10.829  10.470  67.144  1.00  0.00    -0.259 C  
HETATM   25  H   UNL     1      -8.771  10.873  65.620  1.00  0.00     0.000 HD 
BRANCH  15  26
HETATM   26  C   UNL     1     -11.899  14.084  69.222  1.00  0.00    -0.344 C  
HETATM   27  O   UNL     1     -12.280  14.798  68.042  1.00  0.00    -0.581 OA 
HETATM   28  H   UNL     1     -12.722  15.602  68.288  1.00  0.00     0.000 HD 
ENDBRANCH  15  26
ENDBRANCH  13  14
ENDBRANCH   6  13
BRANCH   6  29
HETATM   29  C   UNL     1     -12.857  10.016  71.016  1.00  0.00    -0.365 C  
HETATM   30  H   UNL     1     -13.566  11.545  72.076  1.00  0.00     0.000 HD 
HETATM   31  O   UNL     1     -12.726  11.164  71.847  1.00  0.00    -0.346 OA 
ENDBRANCH   6  29
ENDBRANCH   2   4
TORSDOF 5
ENDMDL
MODEL       60
REMARK 921   NORMALIZED FREE ENERGY PREDICTED BY IDOCK:   -4.89 KCAL/MOL
REMARK 922        TOTAL FREE ENERGY PREDICTED BY IDOCK:   -7.32 KCAL/MOL
REMARK 923 INTER-LIGAND FREE ENERGY PREDICTED BY IDOCK:   -6.74 KCAL/MOL
REMARK 924 INTRA-LIGAND FREE ENERGY PREDICTED BY IDOCK:   -0.58 KCAL/MOL
REMARK 927      BINDING AFFINITY PREDICTED BY RF-SCORE:    0.00 PKD
ROOT
HETATM    1  O   UNL     1      -6.752  10.738  69.798  1.00  0.00    -0.109 OA 
HETATM    2  C   UNL     1      -7.309   9.506  69.363  1.00  0.00    -0.084 C  
HETATM    3  H   UNL     1      -5.825  10.782  69.594  1.00  0.00     0.000 HD 
ENDROOT
BRANCH   2   4
HETATM    4  C   UNL     1      -8.799   9.435  69.690  1.00  0.00    -0.172 C  
HETATM    5  O   UNL     1      -9.450  10.626  69.210  1.00  0.00    -0.197 OA 
HETATM    6  C   UNL     1     -10.831  10.293  68.977  1.00  0.00    -0.230 C  
HETATM    7  H   UNL     1     -10.400   7.999  66.589  1.00  0.00     0.000 HD 
HETATM    8  O   UNL     1      -9.997   7.350  70.095  1.00  0.00    -0.183 OA 
HETATM    9  C   UNL     1     -10.746   8.865  68.374  1.00  0.00    -0.076 C  
HETATM   10  C   UNL     1      -9.540   8.240  69.076  1.00  0.00    -0.156 C  
HETATM   11  H   UNL     1     -10.456   6.610  69.714  1.00  0.00     0.000 HD 
HETATM   12  O   UNL     1     -10.452   8.873  66.959  1.00  0.00    -0.274 OA 
BRANCH   6  13
HETATM   13  O   UNL     1     -11.413  11.159  67.976  1.00  0.00    -0.328 OA 
BRANCH  13  14
HETATM   14  C   UNL     1     -10.486  12.037  67.322  1.00  0.00    -0.218 C  
HETATM   15  C   UNL     1     -11.947  12.375  65.470  1.00  0.00    -0.391 C  
HETATM   16  O   UNL     1     -10.631  11.986  65.901  1.00  0.00    -0.249 OA 
HETATM   17  H   UNL     1     -10.664  14.485  69.524  1.00  0.00     0.000 HD 
HETATM   18  C   UNL     1     -12.215  13.834  65.822  1.00  0.00    -0.462 C  
HETATM   19  O   UNL     1     -10.545  13.591  69.229  1.00  0.00    -0.095 OA 
HETATM   20  O   UNL     1     -13.532  14.251  65.442  1.00  0.00    -0.599 OA 
HETATM   21  C   UNL     1     -12.031  14.051  67.333  1.00  0.00    -0.404 C  
HETATM   22  H   UNL     1     -13.699  15.160  65.662  1.00  0.00     0.000 HD 
HETATM   23  O   UNL     1     -12.134  15.458  67.606  1.00  0.00    -0.283 OA 
HETATM   24  C   UNL     1     -10.680  13.499  67.805  1.00  0.00    -0.252 C  
HETATM   25  H   UNL     1     -12.020  15.592  68.540  1.00  0.00     0.000 HD 
BRANCH  15  26
HETATM   26  C   UNL     1     -12.037  12.107  63.965  1.00  0.00    -0.443 C  
HETATM   27  O   UNL     1     -12.174  13.349  63.269  1.00  0.00    -0.847 OA 
HETATM   28  H   UNL     1     -12.229  13.183  62.335  1.00  0.00     0.000 HD 
ENDBRANCH  15  26
ENDBRANCH  13  14
ENDBRANCH   6  13
BRANCH   6  29
HETATM   29  C   UNL     1     -11.591  10.296  70.334  1.00  0.00    -0.328 C  
HETATM   30  H   UNL     1     -12.625  11.567  71.465  1.00  0.00     0.000 HD 
HETATM   31  O   UNL     1     -12.161  11.565  70.636  1.00  0.00    -0.363 OA 
ENDBRANCH   6  29
ENDBRANCH   2   4
TORSDOF 5
ENDMDL
MODEL       61
REMARK 921   NORMALIZED FREE ENERGY PREDICTED BY IDOCK:   -4.89 KCAL/MOL
REMARK 922        TOTAL FREE ENERGY PREDICTED BY IDOCK:   -7.32 KCAL/MOL
REMARK 923 INTER-LIGAND FREE ENERGY PREDICTED BY IDOCK:   -6.38 KCAL/MOL
REMARK 924 INTRA-LIGAND FREE ENERGY PREDICTED BY IDOCK:   -0.94 KCAL/MOL
REMARK 927      BINDING AFFINITY PREDICTED BY RF-SCORE:    0.00 PKD
ROOT
HETATM    1  O   UNL     1     -13.272   7.090  71.291  1.00  0.00    -0.393 OA 
HETATM    2  C   UNL     1     -12.250   6.740  70.369  1.00  0.00    -0.120 C  
HETATM    3  H   UNL     1     -14.070   6.608  71.113  1.00  0.00     0.000 HD 
ENDROOT
BRANCH   2   4
HETATM    4  C   UNL     1     -10.966   7.516  70.656  1.00  0.00    -0.249 C  
HETATM    5  O   UNL     1     -10.571   8.235  69.473  1.00  0.00    -0.227 OA 
HETATM    6  C   UNL     1      -9.787   9.363  69.903  1.00  0.00    -0.210 C  
HETATM    7  H   UNL     1     -12.126  10.961  71.671  1.00  0.00     0.000 HD 
HETATM    8  O   UNL     1     -10.245   8.161  72.894  1.00  0.00    -0.307 OA 
HETATM    9  C   UNL     1     -10.529   9.835  71.181  1.00  0.00    -0.079 C  
HETATM   10  C   UNL     1     -11.069   8.542  71.791  1.00  0.00    -0.307 C  
HETATM   11  H   UNL     1     -10.309   8.796  73.597  1.00  0.00     0.000 HD 
HETATM   12  O   UNL     1     -11.671  10.672  70.888  1.00  0.00    -0.328 OA 
BRANCH   6  13
HETATM   13  O   UNL     1      -9.848  10.438  68.937  1.00  0.00    -0.181 OA 
BRANCH  13  14
HETATM   14  C   UNL     1     -10.695  10.189  67.807  1.00  0.00    -0.277 C  
HETATM   15  C   UNL     1     -10.987  12.514  67.376  1.00  0.00    -0.259 C  
HETATM   16  O   UNL     1     -11.632  11.249  67.610  1.00  0.00    -0.490 OA 
HETATM   17  H   UNL     1      -8.378   8.838  65.887  1.00  0.00     0.000 HD 
HETATM   18  C   UNL     1     -10.189  12.474  66.078  1.00  0.00    -0.251 C  
HETATM   19  O   UNL     1      -8.894   8.950  66.676  1.00  0.00    -0.123 OA 
HETATM   20  O   UNL     1      -9.500  13.704  65.826  1.00  0.00    -0.495 OA 
HETATM   21  C   UNL     1      -9.171  11.323  66.123  1.00  0.00    -0.206 C  
HETATM   22  H   UNL     1      -9.002  13.679  65.016  1.00  0.00     0.000 HD 
HETATM   23  O   UNL     1      -8.550  11.213  64.832  1.00  0.00    -0.373 OA 
HETATM   24  C   UNL     1      -9.851  10.005  66.517  1.00  0.00    -0.210 C  
HETATM   25  H   UNL     1      -7.921  10.503  64.860  1.00  0.00     0.000 HD 
BRANCH  15  26
HETATM   26  C   UNL     1     -12.075  13.591  67.365  1.00  0.00    -0.318 C  
HETATM   27  O   UNL     1     -12.361  13.990  68.709  1.00  0.00    -0.522 OA 
HETATM   28  H   UNL     1     -13.036  14.658  68.702  1.00  0.00     0.000 HD 
ENDBRANCH  15  26
ENDBRANCH  13  14
ENDBRANCH   6  13
BRANCH   6  29
HETATM   29  C   UNL     1      -8.342   8.885  70.224  1.00  0.00    -0.147 C  
HETATM   30  H   UNL     1      -6.981   9.100  71.662  1.00  0.00     0.000 HD 
HETATM   31  O   UNL     1      -7.864   9.392  71.466  1.00  0.00    -0.308 OA 
ENDBRANCH   6  29
ENDBRANCH   2   4
TORSDOF 5
ENDMDL
MODEL       62
REMARK 921   NORMALIZED FREE ENERGY PREDICTED BY IDOCK:   -4.87 KCAL/MOL
REMARK 922        TOTAL FREE ENERGY PREDICTED BY IDOCK:   -7.30 KCAL/MOL
REMARK 923 INTER-LIGAND FREE ENERGY PREDICTED BY IDOCK:   -6.22 KCAL/MOL
REMARK 924 INTRA-LIGAND FREE ENERGY PREDICTED BY IDOCK:   -1.09 KCAL/MOL
REMARK 927      BINDING AFFINITY PREDICTED BY RF-SCORE:    0.00 PKD
ROOT
HETATM    1  O   UNL     1     -10.909  19.782  66.345  1.00  0.00    -0.440 OA 
HETATM    2  C   UNL     1      -9.849  20.350  67.100  1.00  0.00    -0.461 C  
HETATM    3  H   UNL     1     -11.534  20.447  66.084  1.00  0.00     0.000 HD 
ENDROOT
BRANCH   2   4
HETATM    4  C   UNL     1      -8.843  19.281  67.521  1.00  0.00    -0.299 C  
HETATM    5  O   UNL     1      -9.546  18.170  68.106  1.00  0.00    -0.283 OA 
HETATM    6  C   UNL     1      -8.720  17.004  67.933  1.00  0.00    -0.216 C  
HETATM    7  H   UNL     1      -8.683  16.902  64.596  1.00  0.00     0.000 HD 
HETATM    8  O   UNL     1      -6.611  19.072  66.563  1.00  0.00    -0.188 OA 
HETATM    9  C   UNL     1      -8.134  17.202  66.510  1.00  0.00    -0.283 C  
HETATM   10  C   UNL     1      -7.983  18.718  66.382  1.00  0.00    -0.282 C  
HETATM   11  H   UNL     1      -6.078  18.723  65.858  1.00  0.00     0.000 HD 
HETATM   12  O   UNL     1      -9.042  16.780  65.468  1.00  0.00    -0.414 OA 
BRANCH   6  13
HETATM   13  O   UNL     1      -9.519  15.798  67.916  1.00  0.00    -0.210 OA 
BRANCH  13  14
HETATM   14  C   UNL     1      -9.152  14.815  68.893  1.00  0.00    -0.168 C  
HETATM   15  C   UNL     1     -11.388  14.015  69.088  1.00  0.00    -0.281 C  
HETATM   16  O   UNL     1     -10.234  14.527  69.779  1.00  0.00     0.019 OA 
HETATM   17  H   UNL     1      -7.322  12.948  66.881  1.00  0.00     0.000 HD 
HETATM   18  C   UNL     1     -11.070  12.674  68.437  1.00  0.00    -0.265 C  
HETATM   19  O   UNL     1      -7.605  13.751  67.302  1.00  0.00    -0.155 OA 
HETATM   20  O   UNL     1     -12.183  12.148  67.705  1.00  0.00    -0.451 OA 
HETATM   21  C   UNL     1      -9.867  12.822  67.492  1.00  0.00    -0.211 C  
HETATM   22  H   UNL     1     -11.985  11.312  67.300  1.00  0.00     0.000 HD 
HETATM   23  O   UNL     1      -9.495  11.517  67.021  1.00  0.00    -0.179 OA 
HETATM   24  C   UNL     1      -8.690  13.503  68.204  1.00  0.00    -0.174 C  
HETATM   25  H   UNL     1      -8.752  11.608  66.436  1.00  0.00     0.000 HD 
BRANCH  15  26
HETATM   26  C   UNL     1     -12.530  13.921  70.103  1.00  0.00    -0.292 C  
HETATM   27  O   UNL     1     -13.168  15.196  70.220  1.00  0.00    -0.648 OA 
HETATM   28  H   UNL     1     -13.877  15.138  70.849  1.00  0.00     0.000 HD 
ENDBRANCH  15  26
ENDBRANCH  13  14
ENDBRANCH   6  13
BRANCH   6  29
HETATM   29  C   UNL     1      -7.604  17.006  69.017  1.00  0.00    -0.194 C  
HETATM   30  H   UNL     1      -5.630  16.772  69.130  1.00  0.00     0.000 HD 
HETATM   31  O   UNL     1      -6.312  16.771  68.468  1.00  0.00    -0.142 OA 
ENDBRANCH   6  29
ENDBRANCH   2   4
TORSDOF 5
ENDMDL
MODEL       63
REMARK 921   NORMALIZED FREE ENERGY PREDICTED BY IDOCK:   -4.85 KCAL/MOL
REMARK 922        TOTAL FREE ENERGY PREDICTED BY IDOCK:   -7.27 KCAL/MOL
REMARK 923 INTER-LIGAND FREE ENERGY PREDICTED BY IDOCK:   -7.56 KCAL/MOL
REMARK 924 INTRA-LIGAND FREE ENERGY PREDICTED BY IDOCK:    0.29 KCAL/MOL
REMARK 927      BINDING AFFINITY PREDICTED BY RF-SCORE:    0.00 PKD
ROOT
HETATM    1  O   UNL     1     -11.181   7.074  67.947  1.00  0.00    -0.520 OA 
HETATM    2  C   UNL     1     -10.292   7.564  66.954  1.00  0.00    -0.309 C  
HETATM    3  H   UNL     1     -11.547   6.236  67.691  1.00  0.00     0.000 HD 
ENDROOT
BRANCH   2   4
HETATM    4  C   UNL     1      -9.703   8.912  67.366  1.00  0.00    -0.176 C  
HETATM    5  O   UNL     1      -9.866   9.852  66.288  1.00  0.00    -0.212 OA 
HETATM    6  C   UNL     1      -9.880  11.168  66.869  1.00  0.00    -0.194 C  
HETATM    7  H   UNL     1     -12.623  10.861  68.748  1.00  0.00     0.000 HD 
HETATM    8  O   UNL     1      -9.395   9.603  69.683  1.00  0.00    -0.181 OA 
HETATM    9  C   UNL     1     -10.695  10.963  68.174  1.00  0.00    -0.214 C  
HETATM   10  C   UNL     1     -10.337   9.543  68.611  1.00  0.00    -0.205 C  
HETATM   11  H   UNL     1      -9.788   9.994  70.455  1.00  0.00     0.000 HD 
HETATM   12  O   UNL     1     -12.123  10.987  67.950  1.00  0.00    -0.600 OA 
BRANCH   6  13
HETATM   13  O   UNL     1     -10.610  12.097  66.035  1.00  0.00    -0.243 OA 
BRANCH  13  14
HETATM   14  C   UNL     1     -11.553  12.924  66.731  1.00  0.00    -0.360 C  
HETATM   15  C   UNL     1     -10.104  14.814  66.672  1.00  0.00    -0.264 C  
HETATM   16  O   UNL     1     -10.898  13.939  67.494  1.00  0.00    -0.261 OA 
HETATM   17  H   UNL     1     -13.822  13.006  64.339  1.00  0.00     0.000 HD 
HETATM   18  C   UNL     1     -10.991  15.587  65.703  1.00  0.00    -0.303 C  
HETATM   19  O   UNL     1     -13.218  12.600  64.948  1.00  0.00    -0.819 OA 
HETATM   20  O   UNL     1     -10.235  16.444  64.841  1.00  0.00    -0.509 OA 
HETATM   21  C   UNL     1     -11.814  14.608  64.850  1.00  0.00    -0.403 C  
HETATM   22  H   UNL     1     -10.788  16.926  64.236  1.00  0.00     0.000 HD 
HETATM   23  O   UNL     1     -12.750  15.364  64.065  1.00  0.00    -0.673 OA 
HETATM   24  C   UNL     1     -12.541  13.588  65.736  1.00  0.00    -0.434 C  
HETATM   25  H   UNL     1     -13.258  14.759  63.537  1.00  0.00     0.000 HD 
BRANCH  15  26
HETATM   26  C   UNL     1      -9.314  15.733  67.608  1.00  0.00    -0.216 C  
HETATM   27  O   UNL     1      -8.208  15.012  68.158  1.00  0.00    -0.132 OA 
HETATM   28  H   UNL     1      -7.717  15.582  68.739  1.00  0.00     0.000 HD 
ENDBRANCH  15  26
ENDBRANCH  13  14
ENDBRANCH   6  13
BRANCH   6  29
HETATM   29  C   UNL     1      -8.418  11.606  67.172  1.00  0.00    -0.162 C  
HETATM   30  H   UNL     1      -7.402  12.527  68.616  1.00  0.00     0.000 HD 
HETATM   31  O   UNL     1      -8.295  12.259  68.431  1.00  0.00    -0.167 OA 
ENDBRANCH   6  29
ENDBRANCH   2   4
TORSDOF 5
ENDMDL
MODEL       64
REMARK 921   NORMALIZED FREE ENERGY PREDICTED BY IDOCK:   -4.84 KCAL/MOL
REMARK 922        TOTAL FREE ENERGY PREDICTED BY IDOCK:   -7.27 KCAL/MOL
REMARK 923 INTER-LIGAND FREE ENERGY PREDICTED BY IDOCK:   -7.48 KCAL/MOL
REMARK 924 INTRA-LIGAND FREE ENERGY PREDICTED BY IDOCK:    0.21 KCAL/MOL
REMARK 927      BINDING AFFINITY PREDICTED BY RF-SCORE:    0.00 PKD
ROOT
HETATM    1  O   UNL     1     -12.463  13.730  63.085  1.00  0.00    -1.089 OA 
HETATM    2  C   UNL     1     -11.968  12.467  63.505  1.00  0.00    -0.543 C  
HETATM    3  H   UNL     1     -12.961  13.649  62.280  1.00  0.00     0.000 HD 
ENDROOT
BRANCH   2   4
HETATM    4  C   UNL     1     -11.168  12.597  64.800  1.00  0.00    -0.302 C  
HETATM    5  O   UNL     1     -10.203  13.657  64.659  1.00  0.00    -0.404 OA 
HETATM    6  C   UNL     1      -9.916  14.149  65.981  1.00  0.00    -0.322 C  
HETATM    7  H   UNL     1     -12.961  15.263  66.779  1.00  0.00     0.000 HD 
HETATM    8  O   UNL     1     -11.968  11.821  66.968  1.00  0.00    -0.610 OA 
HETATM    9  C   UNL     1     -11.306  14.121  66.672  1.00  0.00    -0.344 C  
HETATM   10  C   UNL     1     -12.003  12.912  66.047  1.00  0.00    -0.446 C  
HETATM   11  H   UNL     1     -12.485  12.016  67.740  1.00  0.00     0.000 HD 
HETATM   12  O   UNL     1     -12.110  15.280  66.356  1.00  0.00     0.153 OA 
BRANCH   6  13
HETATM   13  O   UNL     1      -9.473  15.524  65.939  1.00  0.00    -0.331 OA 
BRANCH  13  14
HETATM   14  C   UNL     1     -10.029  16.371  66.954  1.00  0.00    -0.271 C  
HETATM   15  C   UNL     1      -7.907  16.718  67.981  1.00  0.00    -0.176 C  
HETATM   16  O   UNL     1      -9.273  16.305  68.164  1.00  0.00    -0.194 OA 
HETATM   17  H   UNL     1     -10.875  18.853  64.953  1.00  0.00     0.000 HD 
HETATM   18  C   UNL     1      -7.842  18.187  67.579  1.00  0.00    -0.222 C  
HETATM   19  O   UNL     1     -10.838  17.952  65.251  1.00  0.00    -0.614 OA 
HETATM   20  O   UNL     1      -6.499  18.628  67.350  1.00  0.00    -0.190 OA 
HETATM   21  C   UNL     1      -8.676  18.421  66.309  1.00  0.00    -0.191 C  
HETATM   22  H   UNL     1      -6.459  19.544  67.100  1.00  0.00     0.000 HD 
HETATM   23  O   UNL     1      -8.724  19.833  66.050  1.00  0.00    -0.367 OA 
HETATM   24  C   UNL     1     -10.089  17.844  66.468  1.00  0.00    -0.370 C  
HETATM   25  H   UNL     1      -9.239  19.977  65.265  1.00  0.00     0.000 HD 
BRANCH  15  26
HETATM   26  C   UNL     1      -7.160  16.431  69.286  1.00  0.00    -0.222 C  
HETATM   27  O   UNL     1      -6.105  15.497  69.034  1.00  0.00    -0.102 OA 
HETATM   28  H   UNL     1      -5.641  15.319  69.844  1.00  0.00     0.000 HD 
ENDBRANCH  15  26
ENDBRANCH  13  14
ENDBRANCH   6  13
BRANCH   6  29
HETATM   29  C   UNL     1      -8.913  13.183  66.676  1.00  0.00    -0.125 C  
HETATM   30  H   UNL     1      -8.621  12.369  68.470  1.00  0.00     0.000 HD 
HETATM   31  O   UNL     1      -9.234  12.958  68.045  1.00  0.00    -0.199 OA 
ENDBRANCH   6  29
ENDBRANCH   2   4
TORSDOF 5
ENDMDL
MODEL       65
REMARK 921   NORMALIZED FREE ENERGY PREDICTED BY IDOCK:   -4.84 KCAL/MOL
REMARK 922        TOTAL FREE ENERGY PREDICTED BY IDOCK:   -7.26 KCAL/MOL
REMARK 923 INTER-LIGAND FREE ENERGY PREDICTED BY IDOCK:   -6.39 KCAL/MOL
REMARK 924 INTRA-LIGAND FREE ENERGY PREDICTED BY IDOCK:   -0.88 KCAL/MOL
REMARK 927      BINDING AFFINITY PREDICTED BY RF-SCORE:    0.00 PKD
ROOT
HETATM    1  O   UNL     1      -5.571  19.065  66.429  1.00  0.00    -0.156 OA 
HETATM    2  C   UNL     1      -6.283  17.997  65.820  1.00  0.00    -0.242 C  
HETATM    3  H   UNL     1      -4.956  19.454  65.819  1.00  0.00     0.000 HD 
ENDROOT
BRANCH   2   4
HETATM    4  C   UNL     1      -7.272  17.371  66.800  1.00  0.00    -0.219 C  
HETATM    5  O   UNL     1      -8.145  16.474  66.087  1.00  0.00    -0.323 OA 
HETATM    6  C   UNL     1      -8.615  15.497  67.033  1.00  0.00    -0.233 C  
HETATM    7  H   UNL     1      -5.685  14.103  67.818  1.00  0.00     0.000 HD 
HETATM    8  O   UNL     1      -6.873  17.193  69.199  1.00  0.00    -0.227 OA 
HETATM    9  C   UNL     1      -7.358  15.220  67.900  1.00  0.00    -0.141 C  
HETATM   10  C   UNL     1      -6.634  16.565  67.938  1.00  0.00    -0.141 C  
HETATM   11  H   UNL     1      -6.477  16.695  69.904  1.00  0.00     0.000 HD 
HETATM   12  O   UNL     1      -6.455  14.272  67.288  1.00  0.00    -0.291 OA 
BRANCH   6  13
HETATM   13  O   UNL     1      -8.974  14.262  66.371  1.00  0.00    -0.188 OA 
BRANCH  13  14
HETATM   14  C   UNL     1     -10.079  13.560  66.954  1.00  0.00    -0.256 C  
HETATM   15  C   UNL     1     -11.272  13.503  64.892  1.00  0.00    -0.342 C  
HETATM   16  O   UNL     1     -11.305  13.863  66.285  1.00  0.00    -0.312 OA 
HETATM   17  H   UNL     1      -8.468  10.745  67.550  1.00  0.00     0.000 HD 
HETATM   18  C   UNL     1     -11.122  11.995  64.734  1.00  0.00    -0.317 C  
HETATM   19  O   UNL     1      -8.615  11.683  67.575  1.00  0.00    -0.140 OA 
HETATM   20  O   UNL     1     -11.048  11.598  63.359  1.00  0.00    -0.544 OA 
HETATM   21  C   UNL     1      -9.861  11.513  65.469  1.00  0.00    -0.234 C  
HETATM   22  H   UNL     1     -10.954  10.657  63.261  1.00  0.00     0.000 HD 
HETATM   23  O   UNL     1      -9.835  10.077  65.436  1.00  0.00    -0.281 OA 
HETATM   24  C   UNL     1      -9.840  12.028  66.914  1.00  0.00    -0.204 C  
HETATM   25  H   UNL     1      -9.056   9.779  65.889  1.00  0.00     0.000 HD 
BRANCH  15  26
HETATM   26  C   UNL     1     -12.554  14.038  64.248  1.00  0.00    -0.126 C  
HETATM   27  O   UNL     1     -12.493  13.838  62.833  1.00  0.00    -1.009 OA 
HETATM   28  H   UNL     1     -13.289  14.169  62.433  1.00  0.00     0.000 HD 
ENDBRANCH  15  26
ENDBRANCH  13  14
ENDBRANCH   6  13
BRANCH   6  29
HETATM   29  C   UNL     1      -9.766  16.118  67.877  1.00  0.00    -0.225 C  
HETATM   30  H   UNL     1     -10.352  16.194  69.778  1.00  0.00     0.000 HD 
HETATM   31  O   UNL     1      -9.649  15.815  69.263  1.00  0.00    -0.236 OA 
ENDBRANCH   6  29
ENDBRANCH   2   4
TORSDOF 5
ENDMDL
MODEL       66
REMARK 921   NORMALIZED FREE ENERGY PREDICTED BY IDOCK:   -4.81 KCAL/MOL
REMARK 922        TOTAL FREE ENERGY PREDICTED BY IDOCK:   -7.23 KCAL/MOL
REMARK 923 INTER-LIGAND FREE ENERGY PREDICTED BY IDOCK:   -6.25 KCAL/MOL
REMARK 924 INTRA-LIGAND FREE ENERGY PREDICTED BY IDOCK:   -0.98 KCAL/MOL
REMARK 927      BINDING AFFINITY PREDICTED BY RF-SCORE:    0.00 PKD
ROOT
HETATM    1  O   UNL     1      -7.640  20.543  65.601  1.00  0.00    -0.525 OA 
HETATM    2  C   UNL     1      -7.328  20.419  66.981  1.00  0.00    -0.301 C  
HETATM    3  H   UNL     1      -7.829  21.446  65.375  1.00  0.00     0.000 HD 
ENDROOT
BRANCH   2   4
HETATM    4  C   UNL     1      -7.024  18.968  67.345  1.00  0.00    -0.204 C  
HETATM    5  O   UNL     1      -8.041  18.478  68.239  1.00  0.00    -0.284 OA 
HETATM    6  C   UNL     1      -8.091  17.048  68.085  1.00  0.00    -0.212 C  
HETATM    7  H   UNL     1      -9.011  16.917  64.878  1.00  0.00     0.000 HD 
HETATM    8  O   UNL     1      -5.646  17.491  65.980  1.00  0.00    -0.193 OA 
HETATM    9  C   UNL     1      -7.900  16.857  66.556  1.00  0.00    -0.294 C  
HETATM   10  C   UNL     1      -6.968  18.000  66.156  1.00  0.00    -0.289 C  
HETATM   11  H   UNL     1      -5.611  16.892  65.244  1.00  0.00     0.000 HD 
HETATM   12  O   UNL     1      -9.127  17.034  65.813  1.00  0.00    -0.530 OA 
BRANCH   6  13
HETATM   13  O   UNL     1      -9.396  16.532  68.433  1.00  0.00    -0.208 OA 
BRANCH  13  14
HETATM   14  C   UNL     1      -9.386  15.282  69.135  1.00  0.00    -0.236 C  
HETATM   15  C   UNL     1     -11.236  15.908  70.500  1.00  0.00    -0.377 C  
HETATM   16  O   UNL     1      -9.881  15.424  70.468  1.00  0.00     0.069 OA 
HETATM   17  H   UNL     1     -10.291  13.405  66.578  1.00  0.00     0.000 HD 
HETATM   18  C   UNL     1     -12.179  14.899  69.856  1.00  0.00    -0.309 C  
HETATM   19  O   UNL     1      -9.771  14.053  67.038  1.00  0.00    -0.241 OA 
HETATM   20  O   UNL     1     -13.535  15.360  69.834  1.00  0.00    -0.293 OA 
HETATM   21  C   UNL     1     -11.723  14.598  68.419  1.00  0.00    -0.320 C  
HETATM   22  H   UNL     1     -14.123  14.730  69.432  1.00  0.00     0.000 HD 
HETATM   23  O   UNL     1     -12.533  13.531  67.899  1.00  0.00    -0.238 OA 
HETATM   24  C   UNL     1     -10.236  14.223  68.383  1.00  0.00    -0.245 C  
HETATM   25  H   UNL     1     -12.252  13.345  67.010  1.00  0.00     0.000 HD 
BRANCH  15  26
HETATM   26  C   UNL     1     -11.589  16.194  71.962  1.00  0.00    -0.383 C  
HETATM   27  O   UNL     1     -11.551  14.972  72.706  1.00  0.00    -0.337 OA 
HETATM   28  H   UNL     1     -11.770  15.149  73.614  1.00  0.00     0.000 HD 
ENDBRANCH  15  26
ENDBRANCH  13  14
ENDBRANCH   6  13
BRANCH   6  29
HETATM   29  C   UNL     1      -6.923  16.409  68.890  1.00  0.00    -0.186 C  
HETATM   30  H   UNL     1      -5.460  15.089  68.608  1.00  0.00     0.000 HD 
HETATM   31  O   UNL     1      -6.172  15.479  68.116  1.00  0.00    -0.110 OA 
ENDBRANCH   6  29
ENDBRANCH   2   4
TORSDOF 5
ENDMDL
MODEL       67
REMARK 921   NORMALIZED FREE ENERGY PREDICTED BY IDOCK:   -4.81 KCAL/MOL
REMARK 922        TOTAL FREE ENERGY PREDICTED BY IDOCK:   -7.23 KCAL/MOL
REMARK 923 INTER-LIGAND FREE ENERGY PREDICTED BY IDOCK:   -6.83 KCAL/MOL
REMARK 924 INTRA-LIGAND FREE ENERGY PREDICTED BY IDOCK:   -0.40 KCAL/MOL
REMARK 927      BINDING AFFINITY PREDICTED BY RF-SCORE:    0.00 PKD
ROOT
HETATM    1  O   UNL     1     -11.650   4.473  65.107  1.00  0.00    -1.102 OA 
HETATM    2  C   UNL     1     -10.404   4.546  65.784  1.00  0.00    -0.258 C  
HETATM    3  H   UNL     1     -11.828   3.586  64.818  1.00  0.00     0.000 HD 
ENDROOT
BRANCH   2   4
HETATM    4  C   UNL     1     -10.116   5.972  66.248  1.00  0.00    -0.011 C  
HETATM    5  O   UNL     1     -10.976   6.294  67.357  1.00  0.00    -0.325 OA 
HETATM    6  C   UNL     1     -10.316   7.317  68.125  1.00  0.00    -0.194 C  
HETATM    7  H   UNL     1      -7.609   5.591  69.042  1.00  0.00     0.000 HD 
HETATM    8  O   UNL     1      -8.015   7.135  65.829  1.00  0.00    -0.108 OA 
HETATM    9  C   UNL     1      -8.829   6.875  68.084  1.00  0.00    -0.125 C  
HETATM   10  C   UNL     1      -8.676   6.225  66.710  1.00  0.00    -0.117 C  
HETATM   11  H   UNL     1      -7.122   7.291  66.114  1.00  0.00     0.000 HD 
HETATM   12  O   UNL     1      -8.519   5.861  69.067  1.00  0.00    -0.105 OA 
BRANCH   6  13
HETATM   13  O   UNL     1     -10.746   7.289  69.506  1.00  0.00    -0.233 OA 
BRANCH  13  14
HETATM   14  C   UNL     1     -10.082   8.224  70.366  1.00  0.00    -0.190 C  
HETATM   15  C   UNL     1     -12.129   9.273  70.987  1.00  0.00    -0.280 C  
HETATM   16  O   UNL     1     -10.803   9.454  70.459  1.00  0.00    -0.235 OA 
HETATM   17  H   UNL     1      -9.068   6.026  72.606  1.00  0.00     0.000 HD 
HETATM   18  C   UNL     1     -12.068   8.765  72.423  1.00  0.00    -0.309 C  
HETATM   19  O   UNL     1      -9.180   6.390  71.736  1.00  0.00    -0.144 OA 
HETATM   20  O   UNL     1     -13.370   8.536  72.974  1.00  0.00    -0.725 OA 
HETATM   21  C   UNL     1     -11.255   7.462  72.484  1.00  0.00    -0.317 C  
HETATM   22  H   UNL     1     -13.331   8.220  73.869  1.00  0.00     0.000 HD 
HETATM   23  O   UNL     1     -11.082   7.098  73.863  1.00  0.00    -0.499 OA 
HETATM   24  C   UNL     1      -9.898   7.629  71.787  1.00  0.00    -0.165 C  
HETATM   25  H   UNL     1     -10.580   6.292  73.901  1.00  0.00     0.000 HD 
BRANCH  15  26
HETATM   26  C   UNL     1     -12.859  10.613  70.867  1.00  0.00    -0.382 C  
HETATM   27  O   UNL     1     -13.162  11.107  72.175  1.00  0.00    -0.586 OA 
HETATM   28  H   UNL     1     -13.615  11.939  72.101  1.00  0.00     0.000 HD 
ENDBRANCH  15  26
ENDBRANCH  13  14
ENDBRANCH   6  13
BRANCH   6  29
HETATM   29  C   UNL     1     -10.524   8.691  67.427  1.00  0.00    -0.281 C  
HETATM   30  H   UNL     1      -9.422  10.204  66.748  1.00  0.00     0.000 HD 
HETATM   31  O   UNL     1      -9.295   9.365  67.174  1.00  0.00    -0.135 OA 
ENDBRANCH   6  29
ENDBRANCH   2   4
TORSDOF 5
ENDMDL
MODEL       68
REMARK 921   NORMALIZED FREE ENERGY PREDICTED BY IDOCK:   -4.81 KCAL/MOL
REMARK 922        TOTAL FREE ENERGY PREDICTED BY IDOCK:   -7.22 KCAL/MOL
REMARK 923 INTER-LIGAND FREE ENERGY PREDICTED BY IDOCK:   -6.14 KCAL/MOL
REMARK 924 INTRA-LIGAND FREE ENERGY PREDICTED BY IDOCK:   -1.08 KCAL/MOL
REMARK 927      BINDING AFFINITY PREDICTED BY RF-SCORE:    0.00 PKD
ROOT
HETATM    1  O   UNL     1      -9.126  15.746  67.424  1.00  0.00    -0.192 OA 
HETATM    2  C   UNL     1     -10.516  15.458  67.393  1.00  0.00    -0.277 C  
HETATM    3  H   UNL     1      -8.909  16.301  68.163  1.00  0.00     0.000 HD 
ENDROOT
BRANCH   2   4
HETATM    4  C   UNL     1     -10.864  14.565  66.204  1.00  0.00    -0.317 C  
HETATM    5  O   UNL     1      -9.825  13.586  66.023  1.00  0.00    -0.288 OA 
HETATM    6  C   UNL     1     -10.417  12.454  65.361  1.00  0.00    -0.277 C  
HETATM    7  H   UNL     1     -12.620  11.587  67.715  1.00  0.00     0.000 HD 
HETATM    8  O   UNL     1     -13.133  14.251  65.367  1.00  0.00    -0.685 OA 
HETATM    9  C   UNL     1     -11.811  12.347  66.035  1.00  0.00    -0.395 C  
HETATM   10  C   UNL     1     -12.186  13.798  66.336  1.00  0.00    -0.436 C  
HETATM   11  H   UNL     1     -13.951  13.776  65.449  1.00  0.00     0.000 HD 
HETATM   12  O   UNL     1     -11.767  11.652  67.302  1.00  0.00    -0.568 OA 
BRANCH   6  13
HETATM   13  O   UNL     1      -9.690  11.239  65.657  1.00  0.00    -0.212 OA 
BRANCH  13  14
HETATM   14  C   UNL     1      -8.440  11.431  66.333  1.00  0.00    -0.160 C  
HETATM   15  C   UNL     1      -9.058   9.978  68.118  1.00  0.00    -0.121 C  
HETATM   16  O   UNL     1      -8.581  11.285  67.747  1.00  0.00    -0.122 OA 
HETATM   17  H   UNL     1      -6.558   9.924  64.083  1.00  0.00     0.000 HD 
HETATM   18  C   UNL     1      -8.043   8.909  67.730  1.00  0.00    -0.106 C  
HETATM   19  O   UNL     1      -7.209  10.540  64.398  1.00  0.00    -0.045 OA 
HETATM   20  O   UNL     1      -8.497   7.589  68.049  1.00  0.00    -0.123 OA 
HETATM   21  C   UNL     1      -7.744   8.992  66.225  1.00  0.00    -0.095 C  
HETATM   22  H   UNL     1      -7.865   6.922  67.807  1.00  0.00     0.000 HD 
HETATM   23  O   UNL     1      -6.673   8.084  65.923  1.00  0.00    -0.048 OA 
HETATM   24  C   UNL     1      -7.377  10.426  65.817  1.00  0.00    -0.147 C  
HETATM   25  H   UNL     1      -6.488   8.134  64.992  1.00  0.00     0.000 HD 
BRANCH  15  26
HETATM   26  C   UNL     1      -9.342  10.002  69.623  1.00  0.00    -0.220 C  
HETATM   27  O   UNL     1     -10.401  10.925  69.891  1.00  0.00    -0.441 OA 
HETATM   28  H   UNL     1     -10.578  10.940  70.824  1.00  0.00     0.000 HD 
ENDBRANCH  15  26
ENDBRANCH  13  14
ENDBRANCH   6  13
BRANCH   6  29
HETATM   29  C   UNL     1     -10.540  12.761  63.841  1.00  0.00    -0.395 C  
HETATM   30  H   UNL     1     -11.883  12.577  62.382  1.00  0.00     0.000 HD 
HETATM   31  O   UNL     1     -11.808  12.390  63.311  1.00  0.00    -0.466 OA 
ENDBRANCH   6  29
ENDBRANCH   2   4
TORSDOF 5
ENDMDL
MODEL       69
REMARK 921   NORMALIZED FREE ENERGY PREDICTED BY IDOCK:   -4.80 KCAL/MOL
REMARK 922        TOTAL FREE ENERGY PREDICTED BY IDOCK:   -7.21 KCAL/MOL
REMARK 923 INTER-LIGAND FREE ENERGY PREDICTED BY IDOCK:   -6.13 KCAL/MOL
REMARK 924 INTRA-LIGAND FREE ENERGY PREDICTED BY IDOCK:   -1.08 KCAL/MOL
REMARK 927      BINDING AFFINITY PREDICTED BY RF-SCORE:    0.00 PKD
ROOT
HETATM    1  O   UNL     1     -13.803  15.277  70.500  1.00  0.00    -0.693 OA 
HETATM    2  C   UNL     1     -12.629  15.771  71.129  1.00  0.00    -0.431 C  
HETATM    3  H   UNL     1     -14.558  15.373  71.067  1.00  0.00     0.000 HD 
ENDROOT
BRANCH   2   4
HETATM    4  C   UNL     1     -11.414  15.617  70.218  1.00  0.00    -0.349 C  
HETATM    5  O   UNL     1     -11.056  14.225  70.133  1.00  0.00    -0.120 OA 
HETATM    6  C   UNL     1     -10.367  14.038  68.882  1.00  0.00    -0.176 C  
HETATM    7  H   UNL     1     -12.851  14.867  66.810  1.00  0.00     0.000 HD 
HETATM    8  O   UNL     1     -10.782  17.248  68.519  1.00  0.00    -0.353 OA 
HETATM    9  C   UNL     1     -11.165  14.946  67.908  1.00  0.00    -0.315 C  
HETATM   10  C   UNL     1     -11.614  16.117  68.782  1.00  0.00    -0.297 C  
HETATM   11  H   UNL     1     -10.906  17.558  67.630  1.00  0.00     0.000 HD 
HETATM   12  O   UNL     1     -12.363  14.311  67.407  1.00  0.00    -0.311 OA 
BRANCH   6  13
HETATM   13  O   UNL     1     -10.495  12.675  68.417  1.00  0.00    -0.228 OA 
BRANCH  13  14
HETATM   14  C   UNL     1      -9.259  12.034  68.074  1.00  0.00    -0.192 C  
HETATM   15  C   UNL     1      -9.987   9.932  68.929  1.00  0.00    -0.181 C  
HETATM   16  O   UNL     1      -8.969  10.948  68.958  1.00  0.00    -0.158 OA 
HETATM   17  H   UNL     1      -9.615  12.250  64.803  1.00  0.00     0.000 HD 
HETATM   18  C   UNL     1     -10.057   9.285  67.551  1.00  0.00    -0.218 C  
HETATM   19  O   UNL     1      -9.591  12.570  65.696  1.00  0.00    -0.203 OA 
HETATM   20  O   UNL     1     -11.085   8.291  67.470  1.00  0.00    -0.471 OA 
HETATM   21  C   UNL     1     -10.305  10.358  66.479  1.00  0.00    -0.224 C  
HETATM   22  H   UNL     1     -11.129   7.887  66.610  1.00  0.00     0.000 HD 
HETATM   23  O   UNL     1     -10.206   9.741  65.186  1.00  0.00    -0.324 OA 
HETATM   24  C   UNL     1      -9.299  11.510  66.615  1.00  0.00    -0.189 C  
HETATM   25  H   UNL     1     -10.360  10.405  64.523  1.00  0.00     0.000 HD 
BRANCH  15  26
HETATM   26  C   UNL     1      -9.663   8.925  70.036  1.00  0.00    -0.174 C  
HETATM   27  O   UNL     1      -8.982   9.594  71.102  1.00  0.00    -0.340 OA 
HETATM   28  H   UNL     1      -8.781   8.970  71.789  1.00  0.00     0.000 HD 
ENDBRANCH  15  26
ENDBRANCH  13  14
ENDBRANCH   6  13
BRANCH   6  29
HETATM   29  C   UNL     1      -8.895  14.518  69.035  1.00  0.00    -0.039 C  
HETATM   30  H   UNL     1      -7.592  15.673  68.069  1.00  0.00     0.000 HD 
HETATM   31  O   UNL     1      -8.491  15.380  67.976  1.00  0.00    -0.144 OA 
ENDBRANCH   6  29
ENDBRANCH   2   4
TORSDOF 5
ENDMDL
MODEL       70
REMARK 921   NORMALIZED FREE ENERGY PREDICTED BY IDOCK:   -4.78 KCAL/MOL
REMARK 922        TOTAL FREE ENERGY PREDICTED BY IDOCK:   -7.18 KCAL/MOL
REMARK 923 INTER-LIGAND FREE ENERGY PREDICTED BY IDOCK:   -6.19 KCAL/MOL
REMARK 924 INTRA-LIGAND FREE ENERGY PREDICTED BY IDOCK:   -0.99 KCAL/MOL
REMARK 927      BINDING AFFINITY PREDICTED BY RF-SCORE:    0.00 PKD
ROOT
HETATM    1  O   UNL     1     -12.484  14.222  69.329  1.00  0.00    -0.531 OA 
HETATM    2  C   UNL     1     -12.000  14.421  68.009  1.00  0.00    -0.291 C  
HETATM    3  H   UNL     1     -13.336  14.624  69.443  1.00  0.00     0.000 HD 
ENDROOT
BRANCH   2   4
HETATM    4  C   UNL     1     -10.629  13.774  67.825  1.00  0.00    -0.246 C  
HETATM    5  O   UNL     1     -10.554  12.580  68.627  1.00  0.00    -0.228 OA 
HETATM    6  C   UNL     1      -9.583  11.714  68.012  1.00  0.00    -0.184 C  
HETATM    7  H   UNL     1     -11.124  11.220  65.092  1.00  0.00     0.000 HD 
HETATM    8  O   UNL     1      -9.206  14.147  65.881  1.00  0.00    -0.512 OA 
HETATM    9  C   UNL     1      -9.856  11.907  66.497  1.00  0.00    -0.206 C  
HETATM   10  C   UNL     1     -10.292  13.368  66.385  1.00  0.00    -0.288 C  
HETATM   11  H   UNL     1      -8.998  13.896  64.989  1.00  0.00     0.000 HD 
HETATM   12  O   UNL     1     -10.957  11.102  66.020  1.00  0.00    -0.227 OA 
BRANCH   6  13
HETATM   13  O   UNL     1      -9.845  10.329  68.333  1.00  0.00    -0.149 OA 
BRANCH  13  14
HETATM   14  C   UNL     1      -9.248   9.866  69.552  1.00  0.00    -0.223 C  
HETATM   15  C   UNL     1     -11.314   8.998  70.362  1.00  0.00    -0.210 C  
HETATM   16  O   UNL     1     -10.190   9.856  70.626  1.00  0.00    -0.266 OA 
HETATM   17  H   UNL     1      -7.356   7.535  68.186  1.00  0.00     0.000 HD 
HETATM   18  C   UNL     1     -10.862   7.547  70.247  1.00  0.00    -0.246 C  
HETATM   19  O   UNL     1      -7.714   8.408  68.298  1.00  0.00    -0.102 OA 
HETATM   20  O   UNL     1     -11.948   6.662  69.946  1.00  0.00    -0.652 OA 
HETATM   21  C   UNL     1      -9.786   7.417  69.157  1.00  0.00    -0.168 C  
HETATM   22  H   UNL     1     -11.666   5.757  69.875  1.00  0.00     0.000 HD 
HETATM   23  O   UNL     1      -9.270   6.077  69.183  1.00  0.00    -0.125 OA 
HETATM   24  C   UNL     1      -8.663   8.440  69.371  1.00  0.00    -0.137 C  
HETATM   25  H   UNL     1      -8.606   5.996  68.509  1.00  0.00     0.000 HD 
BRANCH  15  26
HETATM   26  C   UNL     1     -12.331   9.210  71.487  1.00  0.00    -0.347 C  
HETATM   27  O   UNL     1     -13.552   9.711  70.934  1.00  0.00    -0.570 OA 
HETATM   28  H   UNL     1     -14.183   9.843  71.632  1.00  0.00     0.000 HD 
ENDBRANCH  15  26
ENDBRANCH  13  14
ENDBRANCH   6  13
BRANCH   6  29
HETATM   29  C   UNL     1      -8.155  12.194  68.401  1.00  0.00    -0.149 C  
HETATM   30  H   UNL     1      -6.376  12.441  67.543  1.00  0.00     0.000 HD 
HETATM   31  O   UNL     1      -7.248  12.149  67.305  1.00  0.00    -0.135 OA 
ENDBRANCH   6  29
ENDBRANCH   2   4
TORSDOF 5
ENDMDL
MODEL       71
REMARK 921   NORMALIZED FREE ENERGY PREDICTED BY IDOCK:   -4.78 KCAL/MOL
REMARK 922        TOTAL FREE ENERGY PREDICTED BY IDOCK:   -7.18 KCAL/MOL
REMARK 923 INTER-LIGAND FREE ENERGY PREDICTED BY IDOCK:   -6.24 KCAL/MOL
REMARK 924 INTRA-LIGAND FREE ENERGY PREDICTED BY IDOCK:   -0.94 KCAL/MOL
REMARK 927      BINDING AFFINITY PREDICTED BY RF-SCORE:    0.00 PKD
ROOT
HETATM    1  O   UNL     1      -6.793  13.441  67.066  1.00  0.00    -0.425 OA 
HETATM    2  C   UNL     1      -8.178  13.352  67.364  1.00  0.00    -0.183 C  
HETATM    3  H   UNL     1      -6.388  14.156  67.541  1.00  0.00     0.000 HD 
ENDROOT
BRANCH   2   4
HETATM    4  C   UNL     1      -8.830  12.202  66.600  1.00  0.00    -0.182 C  
HETATM    5  O   UNL     1      -9.095  11.117  67.509  1.00  0.00    -0.144 OA 
HETATM    6  C   UNL     1     -10.188  10.358  66.959  1.00  0.00    -0.225 C  
HETATM    7  H   UNL     1     -12.540  12.726  67.045  1.00  0.00     0.000 HD 
HETATM    8  O   UNL     1     -10.028  12.482  64.496  1.00  0.00    -0.472 OA 
HETATM    9  C   UNL     1     -11.121  11.459  66.387  1.00  0.00    -0.240 C  
HETATM   10  C   UNL     1     -10.158  12.549  65.916  1.00  0.00    -0.254 C  
HETATM   11  H   UNL     1     -10.850  12.698  64.072  1.00  0.00     0.000 HD 
HETATM   12  O   UNL     1     -11.969  12.053  67.395  1.00  0.00    -0.583 OA 
BRANCH   6  13
HETATM   13  O   UNL     1     -10.913   9.663  67.998  1.00  0.00    -0.227 OA 
BRANCH  13  14
HETATM   14  C   UNL     1     -10.264   9.637  69.277  1.00  0.00    -0.205 C  
HETATM   15  C   UNL     1     -12.260  10.251  70.425  1.00  0.00    -0.261 C  
HETATM   16  O   UNL     1     -10.871  10.551  70.192  1.00  0.00    -0.283 OA 
HETATM   17  H   UNL     1      -9.719   6.385  69.358  1.00  0.00     0.000 HD 
HETATM   18  C   UNL     1     -12.407   8.892  71.099  1.00  0.00    -0.235 C  
HETATM   19  O   UNL     1      -9.699   7.260  68.989  1.00  0.00    -0.150 OA 
HETATM   20  O   UNL     1     -13.779   8.539  71.314  1.00  0.00    -0.539 OA 
HETATM   21  C   UNL     1     -11.733   7.807  70.244  1.00  0.00     0.047 C  
HETATM   22  H   UNL     1     -13.871   7.692  71.735  1.00  0.00     0.000 HD 
HETATM   23  O   UNL     1     -11.751   6.573  70.979  1.00  0.00    -0.330 OA 
HETATM   24  C   UNL     1     -10.297   8.208  69.881  1.00  0.00    -0.214 C  
HETATM   25  H   UNL     1     -11.335   5.901  70.450  1.00  0.00     0.000 HD 
BRANCH  15  26
HETATM   26  C   UNL     1     -12.842  11.391  71.265  1.00  0.00    -0.379 C  
HETATM   27  O   UNL     1     -12.321  12.639  70.797  1.00  0.00    -0.371 OA 
HETATM   28  H   UNL     1     -12.683  13.347  71.318  1.00  0.00     0.000 HD 
ENDBRANCH  15  26
ENDBRANCH  13  14
ENDBRANCH   6  13
BRANCH   6  29
HETATM   29  C   UNL     1      -9.646   9.428  65.836  1.00  0.00    -0.270 C  
HETATM   30  H   UNL     1      -8.144   8.154  65.545  1.00  0.00     0.000 HD 
HETATM   31  O   UNL     1      -8.475   8.722  66.232  1.00  0.00    -0.115 OA 
ENDBRANCH   6  29
ENDBRANCH   2   4
TORSDOF 5
ENDMDL
MODEL       72
REMARK 921   NORMALIZED FREE ENERGY PREDICTED BY IDOCK:   -4.77 KCAL/MOL
REMARK 922        TOTAL FREE ENERGY PREDICTED BY IDOCK:   -7.17 KCAL/MOL
REMARK 923 INTER-LIGAND FREE ENERGY PREDICTED BY IDOCK:   -6.94 KCAL/MOL
REMARK 924 INTRA-LIGAND FREE ENERGY PREDICTED BY IDOCK:   -0.23 KCAL/MOL
REMARK 927      BINDING AFFINITY PREDICTED BY RF-SCORE:    0.00 PKD
ROOT
HETATM    1  O   UNL     1      -7.387  14.837  69.937  1.00  0.00    -0.346 OA 
HETATM    2  C   UNL     1      -7.918  16.087  69.522  1.00  0.00    -0.043 C  
HETATM    3  H   UNL     1      -6.610  14.958  70.470  1.00  0.00     0.000 HD 
ENDROOT
BRANCH   2   4
HETATM    4  C   UNL     1      -9.167  15.893  68.665  1.00  0.00    -0.209 C  
HETATM    5  O   UNL     1      -8.843  15.069  67.530  1.00  0.00    -0.172 OA 
HETATM    6  C   UNL     1     -10.060  14.425  67.110  1.00  0.00    -0.253 C  
HETATM    7  H   UNL     1     -10.670  12.648  69.871  1.00  0.00     0.000 HD 
HETATM    8  O   UNL     1     -11.440  16.134  69.514  1.00  0.00    -0.326 OA 
HETATM    9  C   UNL     1     -10.752  14.079  68.456  1.00  0.00    -0.256 C  
HETATM   10  C   UNL     1     -10.346  15.224  69.383  1.00  0.00    -0.254 C  
HETATM   11  H   UNL     1     -12.170  15.720  69.959  1.00  0.00     0.000 HD 
HETATM   12  O   UNL     1     -10.246  12.860  69.047  1.00  0.00    -0.054 OA 
BRANCH   6  13
HETATM   13  O   UNL     1      -9.781  13.181  66.426  1.00  0.00    -0.261 OA 
BRANCH  13  14
HETATM   14  C   UNL     1     -10.825  12.202  66.500  1.00  0.00    -0.270 C  
HETATM   15  C   UNL     1     -11.288  12.359  64.168  1.00  0.00    -0.379 C  
HETATM   16  O   UNL     1     -11.823  12.423  65.503  1.00  0.00    -0.397 OA 
HETATM   17  H   UNL     1      -8.884   9.634  67.224  1.00  0.00     0.000 HD 
HETATM   18  C   UNL     1     -10.763  10.960  63.870  1.00  0.00    -0.116 C  
HETATM   19  O   UNL     1      -9.238  10.510  67.323  1.00  0.00    -0.143 OA 
HETATM   20  O   UNL     1     -10.186  10.865  62.562  1.00  0.00    -0.704 OA 
HETATM   21  C   UNL     1      -9.712  10.559  64.917  1.00  0.00    -0.300 C  
HETATM   22  H   UNL     1      -9.859   9.992  62.375  1.00  0.00     0.000 HD 
HETATM   23  O   UNL     1      -9.356   9.184  64.702  1.00  0.00    -0.438 OA 
HETATM   24  C   UNL     1     -10.248  10.770  66.339  1.00  0.00    -0.240 C  
HETATM   25  H   UNL     1      -8.706   8.936  65.349  1.00  0.00     0.000 HD 
BRANCH  15  26
HETATM   26  C   UNL     1     -12.398  12.790  63.206  1.00  0.00    -0.341 C  
HETATM   27  O   UNL     1     -13.121  11.635  62.769  1.00  0.00    -0.725 OA 
HETATM   28  H   UNL     1     -13.810  11.902  62.172  1.00  0.00     0.000 HD 
ENDBRANCH  15  26
ENDBRANCH  13  14
ENDBRANCH   6  13
BRANCH   6  29
HETATM   29  C   UNL     1     -10.905  15.429  66.275  1.00  0.00    -0.301 C  
HETATM   30  H   UNL     1     -10.877  16.265  64.468  1.00  0.00     0.000 HD 
HETATM   31  O   UNL     1     -10.361  15.651  64.978  1.00  0.00    -0.413 OA 
ENDBRANCH   6  29
ENDBRANCH   2   4
TORSDOF 5
ENDMDL
MODEL       73
REMARK 921   NORMALIZED FREE ENERGY PREDICTED BY IDOCK:   -4.75 KCAL/MOL
REMARK 922        TOTAL FREE ENERGY PREDICTED BY IDOCK:   -7.15 KCAL/MOL
REMARK 923 INTER-LIGAND FREE ENERGY PREDICTED BY IDOCK:   -6.37 KCAL/MOL
REMARK 924 INTRA-LIGAND FREE ENERGY PREDICTED BY IDOCK:   -0.78 KCAL/MOL
REMARK 927      BINDING AFFINITY PREDICTED BY RF-SCORE:    0.00 PKD
ROOT
HETATM    1  O   UNL     1      -9.248  16.120  65.477  1.00  0.00    -0.377 OA 
HETATM    2  C   UNL     1     -10.639  16.079  65.757  1.00  0.00    -0.353 C  
HETATM    3  H   UNL     1      -8.872  16.949  65.746  1.00  0.00     0.000 HD 
ENDROOT
BRANCH   2   4
HETATM    4  C   UNL     1     -11.245  14.745  65.326  1.00  0.00    -0.366 C  
HETATM    5  O   UNL     1     -10.208  13.748  65.265  1.00  0.00    -0.332 OA 
HETATM    6  C   UNL     1     -10.836  12.468  65.459  1.00  0.00    -0.278 C  
HETATM    7  H   UNL     1     -12.001  12.940  68.552  1.00  0.00     0.000 HD 
HETATM    8  O   UNL     1     -13.602  14.180  65.591  1.00  0.00    -0.671 OA 
HETATM    9  C   UNL     1     -11.900  12.765  66.549  1.00  0.00    -0.405 C  
HETATM   10  C   UNL     1     -12.337  14.200  66.255  1.00  0.00    -0.422 C  
HETATM   11  H   UNL     1     -14.278  13.843  66.166  1.00  0.00     0.000 HD 
HETATM   12  O   UNL     1     -11.349  12.758  67.885  1.00  0.00    -0.256 OA 
BRANCH   6  13
HETATM   13  O   UNL     1      -9.902  11.508  66.006  1.00  0.00    -0.210 OA 
BRANCH  13  14
HETATM   14  C   UNL     1     -10.025  10.178  65.485  1.00  0.00    -0.293 C  
HETATM   15  C   UNL     1      -7.702  10.049  64.968  1.00  0.00    -0.138 C  
HETATM   16  O   UNL     1      -9.048   9.919  64.475  1.00  0.00    -0.215 OA 
HETATM   17  H   UNL     1     -10.757   8.715  68.349  1.00  0.00     0.000 HD 
HETATM   18  C   UNL     1      -7.422   9.002  66.038  1.00  0.00    -0.094 C  
HETATM   19  O   UNL     1     -10.845   9.357  67.655  1.00  0.00    -0.267 OA 
HETATM   20  O   UNL     1      -6.102   9.121  66.583  1.00  0.00    -0.061 OA 
HETATM   21  C   UNL     1      -8.451   9.123  67.174  1.00  0.00    -0.120 C  
HETATM   22  H   UNL     1      -5.927   8.468  67.250  1.00  0.00     0.000 HD 
HETATM   23  O   UNL     1      -8.258   8.027  68.082  1.00  0.00    -0.123 OA 
HETATM   24  C   UNL     1      -9.881   9.128  66.618  1.00  0.00    -0.240 C  
HETATM   25  H   UNL     1      -8.894   8.102  68.784  1.00  0.00     0.000 HD 
BRANCH  15  26
HETATM   26  C   UNL     1      -6.759   9.932  63.767  1.00  0.00    -0.125 C  
HETATM   27  O   UNL     1      -5.700  10.885  63.901  1.00  0.00    -0.370 OA 
HETATM   28  H   UNL     1      -5.115  10.813  63.157  1.00  0.00     0.000 HD 
ENDBRANCH  15  26
ENDBRANCH  13  14
ENDBRANCH   6  13
BRANCH   6  29
HETATM   29  C   UNL     1     -11.495  12.017  64.124  1.00  0.00    -0.383 C  
HETATM   30  H   UNL     1     -11.098  12.058  62.173  1.00  0.00     0.000 HD 
HETATM   31  O   UNL     1     -10.696  12.333  62.989  1.00  0.00    -0.266 OA 
ENDBRANCH   6  29
ENDBRANCH   2   4
TORSDOF 5
ENDMDL
MODEL       74
REMARK 921   NORMALIZED FREE ENERGY PREDICTED BY IDOCK:   -4.75 KCAL/MOL
REMARK 922        TOTAL FREE ENERGY PREDICTED BY IDOCK:   -7.14 KCAL/MOL
REMARK 923 INTER-LIGAND FREE ENERGY PREDICTED BY IDOCK:   -6.28 KCAL/MOL
REMARK 924 INTRA-LIGAND FREE ENERGY PREDICTED BY IDOCK:   -0.86 KCAL/MOL
REMARK 927      BINDING AFFINITY PREDICTED BY RF-SCORE:    0.00 PKD
ROOT
HETATM    1  O   UNL     1      -9.004  10.505  69.757  1.00  0.00    -0.400 OA 
HETATM    2  C   UNL     1      -8.713   9.188  69.311  1.00  0.00    -0.139 C  
HETATM    3  H   UNL     1      -9.128  10.525  70.698  1.00  0.00     0.000 HD 
ENDROOT
BRANCH   2   4
HETATM    4  C   UNL     1      -8.515   9.154  67.797  1.00  0.00    -0.117 C  
HETATM    5  O   UNL     1      -9.564   9.908  67.162  1.00  0.00    -0.154 OA 
HETATM    6  C   UNL     1      -9.056  10.361  65.894  1.00  0.00    -0.165 C  
HETATM    7  H   UNL     1      -6.567  12.289  67.009  1.00  0.00     0.000 HD 
HETATM    8  O   UNL     1      -6.369   8.718  66.724  1.00  0.00    -0.058 OA 
HETATM    9  C   UNL     1      -7.587  10.739  66.225  1.00  0.00    -0.142 C  
HETATM   10  C   UNL     1      -7.184   9.737  67.306  1.00  0.00    -0.086 C  
HETATM   11  H   UNL     1      -5.545   9.079  66.420  1.00  0.00     0.000 HD 
HETATM   12  O   UNL     1      -7.466  12.057  66.806  1.00  0.00    -0.092 OA 
BRANCH   6  13
HETATM   13  O   UNL     1      -9.733  11.564  65.462  1.00  0.00    -0.220 OA 
BRANCH  13  14
HETATM   14  C   UNL     1     -11.061  11.729  65.976  1.00  0.00    -0.312 C  
HETATM   15  C   UNL     1     -10.514  13.793  67.033  1.00  0.00    -0.274 C  
HETATM   16  O   UNL     1     -11.063  12.473  67.196  1.00  0.00    -0.253 OA 
HETATM   17  H   UNL     1     -12.544  12.164  63.063  1.00  0.00     0.000 HD 
HETATM   18  C   UNL     1     -11.379  14.619  66.089  1.00  0.00    -0.350 C  
HETATM   19  O   UNL     1     -11.990  11.727  63.698  1.00  0.00    -0.453 OA 
HETATM   20  O   UNL     1     -10.846  15.930  65.870  1.00  0.00    -0.305 OA 
HETATM   21  C   UNL     1     -11.520  13.897  64.739  1.00  0.00    -0.362 C  
HETATM   22  H   UNL     1     -11.386  16.445  65.281  1.00  0.00     0.000 HD 
HETATM   23  O   UNL     1     -12.465  14.618  63.933  1.00  0.00    -0.979 OA 
HETATM   24  C   UNL     1     -11.967  12.443  64.939  1.00  0.00    -0.398 C  
HETATM   25  H   UNL     1     -12.551  14.173  63.098  1.00  0.00     0.000 HD 
BRANCH  15  26
HETATM   26  C   UNL     1     -10.398  14.420  68.425  1.00  0.00    -0.244 C  
HETATM   27  O   UNL     1     -10.652  13.420  69.417  1.00  0.00    -0.441 OA 
HETATM   28  H   UNL     1     -10.580  13.809  70.281  1.00  0.00     0.000 HD 
ENDBRANCH  15  26
ENDBRANCH  13  14
ENDBRANCH   6  13
BRANCH   6  29
HETATM   29  C   UNL     1      -9.128   9.193  64.870  1.00  0.00    -0.132 C  
HETATM   30  H   UNL     1      -9.418   8.933  62.917  1.00  0.00     0.000 HD 
HETATM   31  O   UNL     1      -9.373   9.647  63.543  1.00  0.00    -0.206 OA 
ENDBRANCH   6  29
ENDBRANCH   2   4
TORSDOF 5
ENDMDL
MODEL       75
REMARK 921   NORMALIZED FREE ENERGY PREDICTED BY IDOCK:   -4.75 KCAL/MOL
REMARK 922        TOTAL FREE ENERGY PREDICTED BY IDOCK:   -7.14 KCAL/MOL
REMARK 923 INTER-LIGAND FREE ENERGY PREDICTED BY IDOCK:   -6.32 KCAL/MOL
REMARK 924 INTRA-LIGAND FREE ENERGY PREDICTED BY IDOCK:   -0.82 KCAL/MOL
REMARK 927      BINDING AFFINITY PREDICTED BY RF-SCORE:    0.00 PKD
ROOT
HETATM    1  O   UNL     1     -12.173   7.114  70.098  1.00  0.00    -0.586 OA 
HETATM    2  C   UNL     1     -11.182   6.461  69.317  1.00  0.00    -0.375 C  
HETATM    3  H   UNL     1     -12.875   6.517  70.323  1.00  0.00     0.000 HD 
ENDROOT
BRANCH   2   4
HETATM    4  C   UNL     1     -10.051   7.422  68.954  1.00  0.00    -0.186 C  
HETATM    5  O   UNL     1     -10.608   8.700  68.598  1.00  0.00    -0.204 OA 
HETATM    6  C   UNL     1      -9.596   9.692  68.851  1.00  0.00    -0.161 C  
HETATM    7  H   UNL     1      -9.301   9.281  72.151  1.00  0.00     0.000 HD 
HETATM    8  O   UNL     1      -7.750   7.152  69.715  1.00  0.00    -0.103 OA 
HETATM    9  C   UNL     1      -8.947   9.196  70.170  1.00  0.00    -0.198 C  
HETATM   10  C   UNL     1      -9.031   7.673  70.072  1.00  0.00    -0.143 C  
HETATM   11  H   UNL     1      -7.119   7.307  70.408  1.00  0.00     0.000 HD 
HETATM   12  O   UNL     1      -9.698   9.584  71.343  1.00  0.00    -0.198 OA 
BRANCH   6  13
HETATM   13  O   UNL     1     -10.188  10.985  69.110  1.00  0.00    -0.210 OA 
BRANCH  13  14
HETATM   14  C   UNL     1     -11.535  11.139  68.644  1.00  0.00    -0.298 C  
HETATM   15  C   UNL     1     -12.267  12.041  70.725  1.00  0.00    -0.286 C  
HETATM   16  O   UNL     1     -12.475  11.037  69.715  1.00  0.00    -0.293 OA 
HETATM   17  H   UNL     1     -10.899  13.484  66.413  1.00  0.00     0.000 HD 
HETATM   18  C   UNL     1     -12.504  13.433  70.150  1.00  0.00    -0.174 C  
HETATM   19  O   UNL     1     -10.788  12.647  66.850  1.00  0.00    -0.246 OA 
HETATM   20  O   UNL     1     -12.270  14.466  71.115  1.00  0.00    -0.317 OA 
HETATM   21  C   UNL     1     -11.592  13.661  68.933  1.00  0.00    -0.322 C  
HETATM   22  H   UNL     1     -12.418  15.334  70.756  1.00  0.00     0.000 HD 
HETATM   23  O   UNL     1     -11.951  14.910  68.323  1.00  0.00    -0.491 OA 
HETATM   24  C   UNL     1     -11.717  12.505  67.931  1.00  0.00    -0.359 C  
HETATM   25  H   UNL     1     -11.387  15.051  67.571  1.00  0.00     0.000 HD 
BRANCH  15  26
HETATM   26  C   UNL     1     -13.202  11.720  71.894  1.00  0.00    -0.362 C  
HETATM   27  O   UNL     1     -13.446  12.912  72.647  1.00  0.00    -0.529 OA 
HETATM   28  H   UNL     1     -14.027  12.713  73.372  1.00  0.00     0.000 HD 
ENDBRANCH  15  26
ENDBRANCH  13  14
ENDBRANCH   6  13
BRANCH   6  29
HETATM   29  C   UNL     1      -8.576   9.688  67.676  1.00  0.00    -0.126 C  
HETATM   30  H   UNL     1      -8.589   9.726  65.685  1.00  0.00     0.000 HD 
HETATM   31  O   UNL     1      -9.212   9.728  66.403  1.00  0.00    -0.149 OA 
ENDBRANCH   6  29
ENDBRANCH   2   4
TORSDOF 5
ENDMDL
MODEL       76
REMARK 921   NORMALIZED FREE ENERGY PREDICTED BY IDOCK:   -4.74 KCAL/MOL
REMARK 922        TOTAL FREE ENERGY PREDICTED BY IDOCK:   -7.14 KCAL/MOL
REMARK 923 INTER-LIGAND FREE ENERGY PREDICTED BY IDOCK:   -6.14 KCAL/MOL
REMARK 924 INTRA-LIGAND FREE ENERGY PREDICTED BY IDOCK:   -0.99 KCAL/MOL
REMARK 927      BINDING AFFINITY PREDICTED BY RF-SCORE:    0.00 PKD
ROOT
HETATM    1  O   UNL     1      -9.923   8.931  72.125  1.00  0.00    -0.322 OA 
HETATM    2  C   UNL     1     -11.028   8.685  71.268  1.00  0.00    -0.267 C  
HETATM    3  H   UNL     1     -10.213   9.108  73.011  1.00  0.00     0.000 HD 
ENDROOT
BRANCH   2   4
HETATM    4  C   UNL     1     -10.561   8.399  69.842  1.00  0.00    -0.228 C  
HETATM    5  O   UNL     1     -10.953   9.488  68.986  1.00  0.00    -0.194 OA 
HETATM    6  C   UNL     1     -10.037   9.507  67.875  1.00  0.00    -0.191 C  
HETATM    7  H   UNL     1      -7.219  10.129  69.556  1.00  0.00     0.000 HD 
HETATM    8  O   UNL     1      -8.730   6.885  69.296  1.00  0.00    -0.134 OA 
HETATM    9  C   UNL     1      -8.676   9.175  68.543  1.00  0.00    -0.129 C  
HETATM   10  C   UNL     1      -9.046   8.224  69.680  1.00  0.00    -0.154 C  
HETATM   11  H   UNL     1      -7.792   6.776  69.196  1.00  0.00     0.000 HD 
HETATM   12  O   UNL     1      -8.053  10.331  69.147  1.00  0.00    -0.116 OA 
BRANCH   6  13
HETATM   13  O   UNL     1      -9.937  10.833  67.307  1.00  0.00    -0.178 OA 
BRANCH  13  14
HETATM   14  C   UNL     1     -11.183  11.414  66.902  1.00  0.00    -0.264 C  
HETATM   15  C   UNL     1     -10.643  13.521  67.876  1.00  0.00    -0.248 C  
HETATM   16  O   UNL     1     -11.597  12.446  67.799  1.00  0.00    -0.311 OA 
HETATM   17  H   UNL     1     -10.598  11.344  63.657  1.00  0.00     0.000 HD 
HETATM   18  C   UNL     1     -10.520  14.223  66.528  1.00  0.00    -0.287 C  
HETATM   19  O   UNL     1     -10.662  10.989  64.535  1.00  0.00    -0.341 OA 
HETATM   20  O   UNL     1      -9.551  15.277  66.552  1.00  0.00    -0.239 OA 
HETATM   21  C   UNL     1     -10.137  13.207  65.440  1.00  0.00    -0.248 C  
HETATM   22  H   UNL     1      -9.474  15.715  65.712  1.00  0.00     0.000 HD 
HETATM   23  O   UNL     1     -10.186  13.866  64.165  1.00  0.00    -0.671 OA 
HETATM   24  C   UNL     1     -11.079  11.995  65.467  1.00  0.00    -0.313 C  
HETATM   25  H   UNL     1      -9.949  13.238  63.492  1.00  0.00     0.000 HD 
BRANCH  15  26
HETATM   26  C   UNL     1     -11.100  14.464  68.992  1.00  0.00    -0.261 C  
HETATM   27  O   UNL     1     -12.381  15.008  68.659  1.00  0.00    -0.585 OA 
HETATM   28  H   UNL     1     -12.665  15.592  69.351  1.00  0.00     0.000 HD 
ENDBRANCH  15  26
ENDBRANCH  13  14
ENDBRANCH   6  13
BRANCH   6  29
HETATM   29  C   UNL     1     -10.455   8.411  66.853  1.00  0.00    -0.289 C  
HETATM   30  H   UNL     1      -9.590   7.048  65.687  1.00  0.00     0.000 HD 
HETATM   31  O   UNL     1      -9.336   7.717  66.312  1.00  0.00    -0.176 OA 
ENDBRANCH   6  29
ENDBRANCH   2   4
TORSDOF 5
ENDMDL
MODEL       77
REMARK 921   NORMALIZED FREE ENERGY PREDICTED BY IDOCK:   -4.74 KCAL/MOL
REMARK 922        TOTAL FREE ENERGY PREDICTED BY IDOCK:   -7.12 KCAL/MOL
REMARK 923 INTER-LIGAND FREE ENERGY PREDICTED BY IDOCK:   -7.20 KCAL/MOL
REMARK 924 INTRA-LIGAND FREE ENERGY PREDICTED BY IDOCK:    0.07 KCAL/MOL
REMARK 927      BINDING AFFINITY PREDICTED BY RF-SCORE:    0.00 PKD
ROOT
HETATM    1  O   UNL     1     -11.825  15.881  63.799  1.00  0.00    -1.221 OA 
HETATM    2  C   UNL     1     -12.256  14.643  64.343  1.00  0.00    -0.452 C  
HETATM    3  H   UNL     1     -12.262  16.061  62.975  1.00  0.00     0.000 HD 
ENDROOT
BRANCH   2   4
HETATM    4  C   UNL     1     -11.554  14.354  65.668  1.00  0.00    -0.347 C  
HETATM    5  O   UNL     1     -11.992  13.078  66.171  1.00  0.00    -0.395 OA 
HETATM    6  C   UNL     1     -10.944  12.572  67.019  1.00  0.00    -0.267 C  
HETATM    7  H   UNL     1      -8.528  12.304  64.730  1.00  0.00     0.000 HD 
HETATM    8  O   UNL     1      -9.444  15.380  66.333  1.00  0.00    -0.252 OA 
HETATM    9  C   UNL     1      -9.655  12.978  66.257  1.00  0.00    -0.238 C  
HETATM   10  C   UNL     1     -10.023  14.305  65.592  1.00  0.00    -0.320 C  
HETATM   11  H   UNL     1      -8.496  15.349  66.285  1.00  0.00     0.000 HD 
HETATM   12  O   UNL     1      -9.318  12.055  65.197  1.00  0.00    -0.064 OA 
BRANCH   6  13
HETATM   13  O   UNL     1     -10.980  11.128  67.084  1.00  0.00    -0.265 OA 
BRANCH  13  14
HETATM   14  C   UNL     1      -9.721  10.503  67.367  1.00  0.00    -0.164 C  
HETATM   15  C   UNL     1     -10.566   9.435  69.322  1.00  0.00    -0.225 C  
HETATM   16  O   UNL     1      -9.546  10.285  68.768  1.00  0.00    -0.160 OA 
HETATM   17  H   UNL     1      -9.701   8.495  64.750  1.00  0.00     0.000 HD 
HETATM   18  C   UNL     1     -10.487   8.040  68.714  1.00  0.00    -0.173 C  
HETATM   19  O   UNL     1      -9.774   9.324  65.207  1.00  0.00    -0.216 OA 
HETATM   20  O   UNL     1     -11.511   7.171  69.213  1.00  0.00    -0.487 OA 
HETATM   21  C   UNL     1     -10.598   8.127  67.183  1.00  0.00    -0.285 C  
HETATM   22  H   UNL     1     -11.461   6.301  68.834  1.00  0.00     0.000 HD 
HETATM   23  O   UNL     1     -10.361   6.821  66.634  1.00  0.00    -0.382 OA 
HETATM   24  C   UNL     1      -9.601   9.148  66.619  1.00  0.00    -0.203 C  
HETATM   25  H   UNL     1     -10.430   6.875  65.688  1.00  0.00     0.000 HD 
BRANCH  15  26
HETATM   26  C   UNL     1     -10.382   9.426  70.842  1.00  0.00    -0.310 C  
HETATM   27  O   UNL     1     -11.612   9.045  71.467  1.00  0.00    -0.292 OA 
HETATM   28  H   UNL     1     -11.498   9.039  72.410  1.00  0.00     0.000 HD 
ENDBRANCH  15  26
ENDBRANCH  13  14
ENDBRANCH   6  13
BRANCH   6  29
HETATM   29  C   UNL     1     -11.032  13.270  68.407  1.00  0.00    -0.264 C  
HETATM   30  H   UNL     1      -9.893  14.400  69.586  1.00  0.00     0.000 HD 
HETATM   31  O   UNL     1      -9.840  13.974  68.738  1.00  0.00    -0.213 OA 
ENDBRANCH   6  29
ENDBRANCH   2   4
TORSDOF 5
ENDMDL
MODEL       78
REMARK 921   NORMALIZED FREE ENERGY PREDICTED BY IDOCK:   -4.72 KCAL/MOL
REMARK 922        TOTAL FREE ENERGY PREDICTED BY IDOCK:   -7.10 KCAL/MOL
REMARK 923 INTER-LIGAND FREE ENERGY PREDICTED BY IDOCK:   -6.14 KCAL/MOL
REMARK 924 INTRA-LIGAND FREE ENERGY PREDICTED BY IDOCK:   -0.97 KCAL/MOL
REMARK 927      BINDING AFFINITY PREDICTED BY RF-SCORE:    0.00 PKD
ROOT
HETATM    1  O   UNL     1     -12.716  15.133  63.934  1.00  0.00    -0.840 OA 
HETATM    2  C   UNL     1     -12.045  13.883  63.984  1.00  0.00    -0.396 C  
HETATM    3  H   UNL     1     -12.747  15.467  63.046  1.00  0.00     0.000 HD 
ENDROOT
BRANCH   2   4
HETATM    4  C   UNL     1     -11.994  13.346  65.413  1.00  0.00    -0.387 C  
HETATM    5  O   UNL     1     -11.186  12.155  65.446  1.00  0.00    -0.314 OA 
HETATM    6  C   UNL     1     -10.669  12.028  66.783  1.00  0.00    -0.243 C  
HETATM    7  H   UNL     1      -8.856  14.830  66.892  1.00  0.00     0.000 HD 
HETATM    8  O   UNL     1     -12.407  14.715  67.388  1.00  0.00    -0.573 OA 
HETATM    9  C   UNL     1     -10.338  13.495  67.168  1.00  0.00    -0.250 C  
HETATM   10  C   UNL     1     -11.409  14.315  66.448  1.00  0.00    -0.343 C  
HETATM   11  H   UNL     1     -12.044  15.315  68.029  1.00  0.00     0.000 HD 
HETATM   12  O   UNL     1      -9.059  13.932  66.656  1.00  0.00    -0.247 OA 
BRANCH   6  13
HETATM   13  O   UNL     1      -9.431  11.281  66.793  1.00  0.00    -0.174 OA 
BRANCH  13  14
HETATM   14  C   UNL     1      -9.575   9.867  66.599  1.00  0.00    -0.184 C  
HETATM   15  C   UNL     1      -8.668   9.967  64.397  1.00  0.00    -0.199 C  
HETATM   16  O   UNL     1      -9.771   9.545  65.220  1.00  0.00    -0.293 OA 
HETATM   17  H   UNL     1      -7.336   8.946  68.839  1.00  0.00     0.000 HD 
HETATM   18  C   UNL     1      -7.398   9.218  64.781  1.00  0.00    -0.103 C  
HETATM   19  O   UNL     1      -8.099   9.410  68.513  1.00  0.00    -0.103 OA 
HETATM   20  O   UNL     1      -6.266   9.637  64.009  1.00  0.00    -0.096 OA 
HETATM   21  C   UNL     1      -7.097   9.425  66.274  1.00  0.00    -0.088 C  
HETATM   22  H   UNL     1      -5.474   9.170  64.248  1.00  0.00     0.000 HD 
HETATM   23  O   UNL     1      -5.991   8.583  66.637  1.00  0.00    -0.050 OA 
HETATM   24  C   UNL     1      -8.330   9.109  67.131  1.00  0.00    -0.117 C  
HETATM   25  H   UNL     1      -5.805   8.711  67.560  1.00  0.00     0.000 HD 
BRANCH  15  26
HETATM   26  C   UNL     1      -9.069   9.738  62.938  1.00  0.00    -0.254 C  
HETATM   27  O   UNL     1      -8.707   8.410  62.549  1.00  0.00    -0.409 OA 
HETATM   28  H   UNL     1      -8.956   8.267  61.644  1.00  0.00     0.000 HD 
ENDBRANCH  15  26
ENDBRANCH  13  14
ENDBRANCH   6  13
BRANCH   6  29
HETATM   29  C   UNL     1     -11.774  11.432  67.701  1.00  0.00    -0.168 C  
HETATM   30  H   UNL     1     -12.537  11.739  69.515  1.00  0.00     0.000 HD 
HETATM   31  O   UNL     1     -11.862  12.103  68.954  1.00  0.00    -0.303 OA 
ENDBRANCH   6  29
ENDBRANCH   2   4
TORSDOF 5
ENDMDL
MODEL       79
REMARK 921   NORMALIZED FREE ENERGY PREDICTED BY IDOCK:   -4.70 KCAL/MOL
REMARK 922        TOTAL FREE ENERGY PREDICTED BY IDOCK:   -7.07 KCAL/MOL
REMARK 923 INTER-LIGAND FREE ENERGY PREDICTED BY IDOCK:   -6.48 KCAL/MOL
REMARK 924 INTRA-LIGAND FREE ENERGY PREDICTED BY IDOCK:   -0.60 KCAL/MOL
REMARK 927      BINDING AFFINITY PREDICTED BY RF-SCORE:    0.00 PKD
ROOT
HETATM    1  O   UNL     1     -11.662   6.749  69.597  1.00  0.00    -0.609 OA 
HETATM    2  C   UNL     1     -11.094   6.337  68.363  1.00  0.00    -0.279 C  
HETATM    3  H   UNL     1     -12.347   6.153  69.872  1.00  0.00     0.000 HD 
ENDROOT
BRANCH   2   4
HETATM    4  C   UNL     1      -9.991   7.296  67.921  1.00  0.00    -0.158 C  
HETATM    5  O   UNL     1     -10.587   8.479  67.357  1.00  0.00    -0.277 OA 
HETATM    6  C   UNL     1      -9.638   9.550  67.513  1.00  0.00    -0.144 C  
HETATM    7  H   UNL     1      -9.507   9.627  70.849  1.00  0.00     0.000 HD 
HETATM    8  O   UNL     1      -7.726   7.262  68.822  1.00  0.00    -0.114 OA 
HETATM    9  C   UNL     1      -9.040   9.282  68.920  1.00  0.00    -0.139 C  
HETATM   10  C   UNL     1      -9.048   7.758  69.038  1.00  0.00    -0.144 C  
HETATM   11  H   UNL     1      -7.142   7.548  69.514  1.00  0.00     0.000 HD 
HETATM   12  O   UNL     1      -9.872   9.791  69.987  1.00  0.00    -0.227 OA 
BRANCH   6  13
HETATM   13  O   UNL     1     -10.303  10.833  67.555  1.00  0.00    -0.187 OA 
BRANCH  13  14
HETATM   14  C   UNL     1      -9.617  11.894  66.878  1.00  0.00    -0.200 C  
HETATM   15  C   UNL     1     -11.625  13.139  66.563  1.00  0.00    -0.356 C  
HETATM   16  O   UNL     1     -10.468  12.554  65.938  1.00  0.00    -0.255 OA 
HETATM   17  H   UNL     1      -7.883  12.945  69.480  1.00  0.00     0.000 HD 
HETATM   18  C   UNL     1     -11.208  14.242  67.530  1.00  0.00    -0.307 C  
HETATM   19  O   UNL     1      -8.216  12.309  68.857  1.00  0.00     0.020 OA 
HETATM   20  O   UNL     1     -12.330  14.826  68.202  1.00  0.00    -0.593 OA 
HETATM   21  C   UNL     1     -10.228  13.682  68.573  1.00  0.00    -0.234 C  
HETATM   22  H   UNL     1     -12.071  15.514  68.805  1.00  0.00     0.000 HD 
HETATM   23  O   UNL     1      -9.735  14.774  69.366  1.00  0.00    -0.382 OA 
HETATM   24  C   UNL     1      -9.073  12.934  67.894  1.00  0.00    -0.201 C  
HETATM   25  H   UNL     1      -9.129  14.429  70.011  1.00  0.00     0.000 HD 
BRANCH  15  26
HETATM   26  C   UNL     1     -12.542  13.649  65.449  1.00  0.00    -0.491 C  
HETATM   27  O   UNL     1     -13.158  12.535  64.795  1.00  0.00    -0.853 OA 
HETATM   28  H   UNL     1     -13.727  12.851  64.103  1.00  0.00     0.000 HD 
ENDBRANCH  15  26
ENDBRANCH  13  14
ENDBRANCH   6  13
BRANCH   6  29
HETATM   29  C   UNL     1      -8.555   9.436  66.401  1.00  0.00    -0.134 C  
HETATM   30  H   UNL     1      -8.453   9.069  64.447  1.00  0.00     0.000 HD 
HETATM   31  O   UNL     1      -9.114   9.139  65.126  1.00  0.00    -0.213 OA 
ENDBRANCH   6  29
ENDBRANCH   2   4
TORSDOF 5
ENDMDL
MODEL       80
REMARK 921   NORMALIZED FREE ENERGY PREDICTED BY IDOCK:   -4.68 KCAL/MOL
REMARK 922        TOTAL FREE ENERGY PREDICTED BY IDOCK:   -7.06 KCAL/MOL
REMARK 923 INTER-LIGAND FREE ENERGY PREDICTED BY IDOCK:   -6.22 KCAL/MOL
REMARK 924 INTRA-LIGAND FREE ENERGY PREDICTED BY IDOCK:   -0.84 KCAL/MOL
REMARK 927      BINDING AFFINITY PREDICTED BY RF-SCORE:    0.00 PKD
ROOT
HETATM    1  O   UNL     1     -11.025  17.511  64.732  1.00  0.00    -0.950 OA 
HETATM    2  C   UNL     1     -10.177  17.977  65.770  1.00  0.00    -0.109 C  
HETATM    3  H   UNL     1     -10.709  17.793  63.882  1.00  0.00     0.000 HD 
ENDROOT
BRANCH   2   4
HETATM    4  C   UNL     1     -10.685  17.524  67.137  1.00  0.00    -0.191 C  
HETATM    5  O   UNL     1     -10.845  16.093  67.135  1.00  0.00    -0.302 OA 
HETATM    6  C   UNL     1     -10.726  15.649  68.499  1.00  0.00    -0.264 C  
HETATM    7  H   UNL     1      -7.576  16.600  69.065  1.00  0.00     0.000 HD 
HETATM    8  O   UNL     1     -10.395  18.815  69.185  1.00  0.00    -0.506 OA 
HETATM    9  C   UNL     1      -9.589  16.546  69.057  1.00  0.00    -0.255 C  
HETATM   10  C   UNL     1      -9.767  17.871  68.316  1.00  0.00    -0.327 C  
HETATM   11  H   UNL     1      -9.827  19.030  69.915  1.00  0.00     0.000 HD 
HETATM   12  O   UNL     1      -8.272  16.051  68.723  1.00  0.00    -0.183 OA 
BRANCH   6  13
HETATM   13  O   UNL     1     -10.275  14.277  68.561  1.00  0.00    -0.234 OA 
BRANCH  13  14
HETATM   14  C   UNL     1     -10.143  13.624  67.291  1.00  0.00    -0.239 C  
HETATM   15  C   UNL     1      -8.482  12.125  68.111  1.00  0.00    -0.175 C  
HETATM   16  O   UNL     1      -8.828  13.096  67.107  1.00  0.00    -0.207 OA 
HETATM   17  H   UNL     1     -13.148  12.266  67.248  1.00  0.00     0.000 HD 
HETATM   18  C   UNL     1      -9.392  10.907  68.012  1.00  0.00    -0.160 C  
HETATM   19  O   UNL     1     -12.514  12.968  67.333  1.00  0.00    -0.177 OA 
HETATM   20  O   UNL     1      -9.104   9.931  69.020  1.00  0.00    -0.146 OA 
HETATM   21  C   UNL     1     -10.863  11.339  68.130  1.00  0.00    -0.217 C  
HETATM   22  H   UNL     1      -9.672   9.171  68.958  1.00  0.00     0.000 HD 
HETATM   23  O   UNL     1     -11.695  10.197  67.874  1.00  0.00    -0.646 OA 
HETATM   24  C   UNL     1     -11.179  12.478  67.152  1.00  0.00    -0.300 C  
HETATM   25  H   UNL     1     -12.604  10.463  67.948  1.00  0.00     0.000 HD 
BRANCH  15  26
HETATM   26  C   UNL     1      -7.004  11.774  67.922  1.00  0.00    -0.085 C  
HETATM   27  O   UNL     1      -6.208  12.585  68.791  1.00  0.00    -0.065 OA 
HETATM   28  H   UNL     1      -5.291  12.366  68.674  1.00  0.00     0.000 HD 
ENDBRANCH  15  26
ENDBRANCH  13  14
ENDBRANCH   6  13
BRANCH   6  29
HETATM   29  C   UNL     1     -12.071  15.906  69.237  1.00  0.00    -0.151 C  
HETATM   30  H   UNL     1     -13.274  14.973  70.520  1.00  0.00     0.000 HD 
HETATM   31  O   UNL     1     -12.452  14.816  70.069  1.00  0.00    -0.324 OA 
ENDBRANCH   6  29
ENDBRANCH   2   4
TORSDOF 5
ENDMDL
MODEL       81
REMARK 921   NORMALIZED FREE ENERGY PREDICTED BY IDOCK:   -4.67 KCAL/MOL
REMARK 922        TOTAL FREE ENERGY PREDICTED BY IDOCK:   -7.03 KCAL/MOL
REMARK 923 INTER-LIGAND FREE ENERGY PREDICTED BY IDOCK:   -6.94 KCAL/MOL
REMARK 924 INTRA-LIGAND FREE ENERGY PREDICTED BY IDOCK:   -0.10 KCAL/MOL
REMARK 927      BINDING AFFINITY PREDICTED BY RF-SCORE:    0.00 PKD
ROOT
HETATM    1  O   UNL     1      -6.563   9.627  69.634  1.00  0.00    -0.043 OA 
HETATM    2  C   UNL     1      -7.083   9.775  68.321  1.00  0.00    -0.077 C  
HETATM    3  H   UNL     1      -5.614   9.588  69.621  1.00  0.00     0.000 HD 
ENDROOT
BRANCH   2   4
HETATM    4  C   UNL     1      -8.608   9.838  68.340  1.00  0.00    -0.119 C  
HETATM    5  O   UNL     1      -9.035  11.162  67.970  1.00  0.00    -0.139 OA 
HETATM    6  C   UNL     1     -10.362  11.044  67.423  1.00  0.00    -0.207 C  
HETATM    7  H   UNL     1      -9.649   9.127  64.783  1.00  0.00     0.000 HD 
HETATM    8  O   UNL     1     -10.045   7.880  68.124  1.00  0.00    -0.178 OA 
HETATM    9  C   UNL     1     -10.281   9.732  66.597  1.00  0.00    -0.226 C  
HETATM   10  C   UNL     1      -9.308   8.858  67.389  1.00  0.00    -0.136 C  
HETATM   11  H   UNL     1     -10.478   7.273  67.535  1.00  0.00     0.000 HD 
HETATM   12  O   UNL     1      -9.699   9.930  65.289  1.00  0.00    -0.281 OA 
BRANCH   6  13
HETATM   13  O   UNL     1     -10.643  12.125  66.505  1.00  0.00    -0.227 OA 
BRANCH  13  14
HETATM   14  C   UNL     1     -11.914  12.762  66.689  1.00  0.00    -0.341 C  
HETATM   15  C   UNL     1     -10.958  14.943  66.598  1.00  0.00    -0.325 C  
HETATM   16  O   UNL     1     -11.778  14.025  67.344  1.00  0.00    -0.345 OA 
HETATM   17  H   UNL     1     -13.221  11.843  63.804  1.00  0.00     0.000 HD 
HETATM   18  C   UNL     1     -11.612  15.281  65.264  1.00  0.00    -0.139 C  
HETATM   19  O   UNL     1     -12.783  11.718  64.638  1.00  0.00    -0.195 OA 
HETATM   20  O   UNL     1     -10.809  16.165  64.474  1.00  0.00    -0.857 OA 
HETATM   21  C   UNL     1     -11.880  13.992  64.469  1.00  0.00    -0.434 C  
HETATM   22  H   UNL     1     -11.217  16.375  63.642  1.00  0.00     0.000 HD 
HETATM   23  O   UNL     1     -12.637  14.330  63.296  1.00  0.00    -1.069 OA 
HETATM   24  C   UNL     1     -12.630  12.965  65.328  1.00  0.00    -0.439 C  
HETATM   25  H   UNL     1     -12.802  13.534  62.805  1.00  0.00     0.000 HD 
BRANCH  15  26
HETATM   26  C   UNL     1     -10.735  16.178  67.475  1.00  0.00    -0.304 C  
HETATM   27  O   UNL     1     -11.760  16.244  68.472  1.00  0.00    -0.302 OA 
HETATM   28  H   UNL     1     -11.622  17.010  69.016  1.00  0.00     0.000 HD 
ENDBRANCH  15  26
ENDBRANCH  13  14
ENDBRANCH   6  13
BRANCH   6  29
HETATM   29  C   UNL     1     -11.384  10.924  68.589  1.00  0.00    -0.295 C  
HETATM   30  H   UNL     1     -11.404  10.412  70.513  1.00  0.00     0.000 HD 
HETATM   31  O   UNL     1     -10.779  10.486  69.801  1.00  0.00    -0.258 OA 
ENDBRANCH   6  29
ENDBRANCH   2   4
TORSDOF 5
ENDMDL
MODEL       82
REMARK 921   NORMALIZED FREE ENERGY PREDICTED BY IDOCK:   -4.66 KCAL/MOL
REMARK 922        TOTAL FREE ENERGY PREDICTED BY IDOCK:   -7.02 KCAL/MOL
REMARK 923 INTER-LIGAND FREE ENERGY PREDICTED BY IDOCK:   -6.13 KCAL/MOL
REMARK 924 INTRA-LIGAND FREE ENERGY PREDICTED BY IDOCK:   -0.89 KCAL/MOL
REMARK 927      BINDING AFFINITY PREDICTED BY RF-SCORE:    0.00 PKD
ROOT
HETATM    1  O   UNL     1     -13.308  12.576  64.691  1.00  0.00    -0.804 OA 
HETATM    2  C   UNL     1     -12.385  13.554  65.147  1.00  0.00    -0.449 C  
HETATM    3  H   UNL     1     -13.586  12.759  63.802  1.00  0.00     0.000 HD 
ENDROOT
BRANCH   2   4
HETATM    4  C   UNL     1     -11.938  13.259  66.577  1.00  0.00    -0.391 C  
HETATM    5  O   UNL     1     -11.661  11.853  66.709  1.00  0.00    -0.548 OA 
HETATM    6  C   UNL     1     -10.717  11.704  67.786  1.00  0.00    -0.204 C  
HETATM    7  H   UNL     1      -8.169  13.408  66.460  1.00  0.00     0.000 HD 
HETATM    8  O   UNL     1     -10.987  14.937  68.070  1.00  0.00    -0.262 OA 
HETATM    9  C   UNL     1      -9.766  12.914  67.583  1.00  0.00    -0.212 C  
HETATM   10  C   UNL     1     -10.678  14.009  67.028  1.00  0.00    -0.284 C  
HETATM   11  H   UNL     1     -10.207  15.401  68.349  1.00  0.00     0.000 HD 
HETATM   12  O   UNL     1      -8.751  12.667  66.584  1.00  0.00    -0.179 OA 
BRANCH   6  13
HETATM   13  O   UNL     1      -9.934  10.499  67.627  1.00  0.00    -0.166 OA 
BRANCH  13  14
HETATM   14  C   UNL     1     -10.520   9.502  66.779  1.00  0.00    -0.193 C  
HETATM   15  C   UNL     1      -8.584   9.384  65.395  1.00  0.00    -0.156 C  
HETATM   16  O   UNL     1     -10.008   9.581  65.447  1.00  0.00    -0.284 OA 
HETATM   17  H   UNL     1     -10.605   7.092  69.028  1.00  0.00     0.000 HD 
HETATM   18  C   UNL     1      -8.222   7.977  65.854  1.00  0.00    -0.127 C  
HETATM   19  O   UNL     1     -10.762   7.962  68.683  1.00  0.00    -0.152 OA 
HETATM   20  O   UNL     1      -6.807   7.752  65.852  1.00  0.00    -0.055 OA 
HETATM   21  C   UNL     1      -8.773   7.727  67.267  1.00  0.00    -0.128 C  
HETATM   22  H   UNL     1      -6.581   6.875  66.138  1.00  0.00     0.000 HD 
HETATM   23  O   UNL     1      -8.554   6.348  67.604  1.00  0.00    -0.116 OA 
HETATM   24  C   UNL     1     -10.264   8.080  67.344  1.00  0.00    -0.261 C  
HETATM   25  H   UNL     1      -8.894   6.193  68.477  1.00  0.00     0.000 HD 
BRANCH  15  26
HETATM   26  C   UNL     1      -8.132   9.671  63.961  1.00  0.00    -0.152 C  
HETATM   27  O   UNL     1      -8.059  11.086  63.760  1.00  0.00    -0.354 OA 
HETATM   28  H   UNL     1      -7.778  11.264  62.870  1.00  0.00     0.000 HD 
ENDBRANCH  15  26
ENDBRANCH  13  14
ENDBRANCH   6  13
BRANCH   6  29
HETATM   29  C   UNL     1     -11.473  11.792  69.142  1.00  0.00    -0.297 C  
HETATM   30  H   UNL     1     -12.971  10.875  70.081  1.00  0.00     0.000 HD 
HETATM   31  O   UNL     1     -12.508  10.821  69.252  1.00  0.00    -0.356 OA 
ENDBRANCH   6  29
ENDBRANCH   2   4
TORSDOF 5
ENDMDL
MODEL       83
REMARK 921   NORMALIZED FREE ENERGY PREDICTED BY IDOCK:   -4.63 KCAL/MOL
REMARK 922        TOTAL FREE ENERGY PREDICTED BY IDOCK:   -6.98 KCAL/MOL
REMARK 923 INTER-LIGAND FREE ENERGY PREDICTED BY IDOCK:   -6.03 KCAL/MOL
REMARK 924 INTRA-LIGAND FREE ENERGY PREDICTED BY IDOCK:   -0.95 KCAL/MOL
REMARK 927      BINDING AFFINITY PREDICTED BY RF-SCORE:    0.00 PKD
ROOT
HETATM    1  O   UNL     1      -8.059  17.438  69.017  1.00  0.00    -0.212 OA 
HETATM    2  C   UNL     1      -7.675  16.757  67.832  1.00  0.00    -0.171 C  
HETATM    3  H   UNL     1      -7.301  17.658  69.544  1.00  0.00     0.000 HD 
ENDROOT
BRANCH   2   4
HETATM    4  C   UNL     1      -8.895  16.404  66.984  1.00  0.00    -0.199 C  
HETATM    5  O   UNL     1      -9.304  15.055  67.276  1.00  0.00    -0.194 OA 
HETATM    6  C   UNL     1     -10.708  14.960  66.970  1.00  0.00    -0.307 C  
HETATM    7  H   UNL     1     -11.859  17.173  69.189  1.00  0.00     0.000 HD 
HETATM    8  O   UNL     1     -10.407  18.063  66.031  1.00  0.00    -0.467 OA 
HETATM    9  C   UNL     1     -11.263  16.322  67.464  1.00  0.00    -0.054 C  
HETATM   10  C   UNL     1     -10.119  17.302  67.205  1.00  0.00    -0.300 C  
HETATM   11  H   UNL     1     -11.164  18.619  66.169  1.00  0.00     0.000 HD 
HETATM   12  O   UNL     1     -11.519  16.339  68.886  1.00  0.00    -0.340 OA 
BRANCH   6  13
HETATM   13  O   UNL     1     -11.340  13.918  67.749  1.00  0.00    -0.281 OA 
BRANCH  13  14
HETATM   14  C   UNL     1     -10.482  13.262  68.693  1.00  0.00    -0.228 C  
HETATM   15  C   UNL     1     -12.314  12.616  70.074  1.00  0.00    -0.094 C  
HETATM   16  O   UNL     1     -11.039  13.281  70.008  1.00  0.00     0.102 OA 
HETATM   17  H   UNL     1      -9.503  10.832  66.688  1.00  0.00     0.000 HD 
HETATM   18  C   UNL     1     -12.160  11.134  69.752  1.00  0.00    -0.344 C  
HETATM   19  O   UNL     1      -9.663  11.731  66.949  1.00  0.00    -0.193 OA 
HETATM   20  O   UNL     1     -13.415  10.443  69.770  1.00  0.00    -0.377 OA 
HETATM   21  C   UNL     1     -11.506  10.961  68.372  1.00  0.00    -0.304 C  
HETATM   22  H   UNL     1     -13.319   9.518  69.570  1.00  0.00     0.000 HD 
HETATM   23  O   UNL     1     -11.232   9.566  68.171  1.00  0.00    -0.510 OA 
HETATM   24  C   UNL     1     -10.220  11.793  68.268  1.00  0.00    -0.205 C  
HETATM   25  H   UNL     1     -10.828   9.459  67.317  1.00  0.00     0.000 HD 
BRANCH  15  26
HETATM   26  C   UNL     1     -12.889  12.860  71.472  1.00  0.00    -0.282 C  
HETATM   27  O   UNL     1     -13.011  11.610  72.158  1.00  0.00    -0.379 OA 
HETATM   28  H   UNL     1     -13.368  11.761  73.026  1.00  0.00     0.000 HD 
ENDBRANCH  15  26
ENDBRANCH  13  14
ENDBRANCH   6  13
BRANCH   6  29
HETATM   29  C   UNL     1     -10.883  14.794  65.433  1.00  0.00    -0.363 C  
HETATM   30  H   UNL     1     -11.905  13.654  64.160  1.00  0.00     0.000 HD 
HETATM   31  O   UNL     1     -11.798  13.755  65.099  1.00  0.00    -0.326 OA 
ENDBRANCH   6  29
ENDBRANCH   2   4
TORSDOF 5
ENDMDL
MODEL       84
REMARK 921   NORMALIZED FREE ENERGY PREDICTED BY IDOCK:   -4.61 KCAL/MOL
REMARK 922        TOTAL FREE ENERGY PREDICTED BY IDOCK:   -6.97 KCAL/MOL
REMARK 923 INTER-LIGAND FREE ENERGY PREDICTED BY IDOCK:   -6.00 KCAL/MOL
REMARK 924 INTRA-LIGAND FREE ENERGY PREDICTED BY IDOCK:   -0.97 KCAL/MOL
REMARK 927      BINDING AFFINITY PREDICTED BY RF-SCORE:    0.00 PKD
ROOT
HETATM    1  O   UNL     1     -11.446   4.515  65.067  1.00  0.00    -1.101 OA 
HETATM    2  C   UNL     1     -10.135   4.010  65.275  1.00  0.00    -0.167 C  
HETATM    3  H   UNL     1     -11.961   3.917  64.538  1.00  0.00     0.000 HD 
ENDROOT
BRANCH   2   4
HETATM    4  C   UNL     1      -9.308   4.971  66.126  1.00  0.00    -0.153 C  
HETATM    5  O   UNL     1      -9.574   6.324  65.713  1.00  0.00     0.056 OA 
HETATM    6  C   UNL     1      -9.299   7.175  66.840  1.00  0.00    -0.155 C  
HETATM    7  H   UNL     1     -11.602   5.984  68.945  1.00  0.00     0.000 HD 
HETATM    8  O   UNL     1      -8.435   4.413  68.333  1.00  0.00    -0.091 OA 
HETATM    9  C   UNL     1      -9.841   6.350  68.038  1.00  0.00    -0.123 C  
HETATM   10  C   UNL     1      -9.581   4.899  67.633  1.00  0.00    -0.151 C  
HETATM   11  H   UNL     1      -8.604   4.369  69.267  1.00  0.00     0.000 HD 
HETATM   12  O   UNL     1     -11.269   6.489  68.212  1.00  0.00    -0.277 OA 
BRANCH   6  13
HETATM   13  O   UNL     1     -10.066   8.399  66.766  1.00  0.00    -0.255 OA 
BRANCH  13  14
HETATM   14  C   UNL     1      -9.332   9.593  67.069  1.00  0.00    -0.147 C  
HETATM   15  C   UNL     1     -10.349  10.802  65.286  1.00  0.00    -0.258 C  
HETATM   16  O   UNL     1      -9.116  10.387  65.901  1.00  0.00    -0.155 OA 
HETATM   17  H   UNL     1     -10.770  10.196  69.976  1.00  0.00     0.000 HD 
HETATM   18  C   UNL     1     -11.131  11.717  66.221  1.00  0.00    -0.290 C  
HETATM   19  O   UNL     1     -10.314   9.677  69.324  1.00  0.00    -0.190 OA 
HETATM   20  O   UNL     1     -12.385  12.123  65.660  1.00  0.00    -0.560 OA 
HETATM   21  C   UNL     1     -11.382  11.006  67.561  1.00  0.00    -0.257 C  
HETATM   22  H   UNL     1     -12.872  12.693  66.243  1.00  0.00     0.000 HD 
HETATM   23  O   UNL     1     -11.977  11.946  68.470  1.00  0.00    -0.367 OA 
HETATM   24  C   UNL     1     -10.076  10.441  68.134  1.00  0.00    -0.155 C  
HETATM   25  H   UNL     1     -12.133  11.507  69.298  1.00  0.00     0.000 HD 
BRANCH  15  26
HETATM   26  C   UNL     1      -9.997  11.479  63.959  1.00  0.00    -0.303 C  
HETATM   27  O   UNL     1     -11.148  11.489  63.110  1.00  0.00    -0.728 OA 
HETATM   28  H   UNL     1     -10.930  11.909  62.287  1.00  0.00     0.000 HD 
ENDBRANCH  15  26
ENDBRANCH  13  14
ENDBRANCH   6  13
BRANCH   6  29
HETATM   29  C   UNL     1      -7.763   7.397  66.948  1.00  0.00    -0.110 C  
HETATM   30  H   UNL     1      -6.165   7.387  65.760  1.00  0.00     0.000 HD 
HETATM   31  O   UNL     1      -7.104   7.252  65.694  1.00  0.00    -0.062 OA 
ENDBRANCH   6  29
ENDBRANCH   2   4
TORSDOF 5
ENDMDL
MODEL       85
REMARK 921   NORMALIZED FREE ENERGY PREDICTED BY IDOCK:   -4.61 KCAL/MOL
REMARK 922        TOTAL FREE ENERGY PREDICTED BY IDOCK:   -6.96 KCAL/MOL
REMARK 923 INTER-LIGAND FREE ENERGY PREDICTED BY IDOCK:   -5.73 KCAL/MOL
REMARK 924 INTRA-LIGAND FREE ENERGY PREDICTED BY IDOCK:   -1.24 KCAL/MOL
REMARK 927      BINDING AFFINITY PREDICTED BY RF-SCORE:    0.00 PKD
ROOT
HETATM    1  O   UNL     1      -8.903   4.289  70.687  1.00  0.00    -0.083 OA 
HETATM    2  C   UNL     1      -8.567   5.214  71.711  1.00  0.00    -0.130 C  
HETATM    3  H   UNL     1      -8.204   3.659  70.555  1.00  0.00     0.000 HD 
ENDROOT
BRANCH   2   4
HETATM    4  C   UNL     1      -9.690   6.226  71.924  1.00  0.00    -0.152 C  
HETATM    5  O   UNL     1      -9.467   7.369  71.076  1.00  0.00    -0.158 OA 
HETATM    6  C   UNL     1     -10.750   7.977  70.836  1.00  0.00    -0.221 C  
HETATM    7  H   UNL     1     -12.219   5.442  69.236  1.00  0.00     0.000 HD 
HETATM    8  O   UNL     1     -11.888   5.644  72.802  1.00  0.00    -0.489 OA 
HETATM    9  C   UNL     1     -11.689   6.752  70.670  1.00  0.00    -0.386 C  
HETATM   10  C   UNL     1     -11.098   5.705  71.614  1.00  0.00    -0.181 C  
HETATM   11  H   UNL     1     -12.760   5.321  72.610  1.00  0.00     0.000 HD 
HETATM   12  O   UNL     1     -11.644   6.191  69.338  1.00  0.00    -0.372 OA 
BRANCH   6  13
HETATM   13  O   UNL     1     -10.753   8.707  69.588  1.00  0.00    -0.229 OA 
BRANCH  13  14
HETATM   14  C   UNL     1     -10.255  10.049  69.670  1.00  0.00    -0.239 C  
HETATM   15  C   UNL     1      -8.876   9.771  67.746  1.00  0.00    -0.129 C  
HETATM   16  O   UNL     1      -8.935  10.152  69.133  1.00  0.00    -0.154 OA 
HETATM   17  H   UNL     1     -13.103  11.555  68.966  1.00  0.00     0.000 HD 
HETATM   18  C   UNL     1      -9.703  10.727  66.895  1.00  0.00    -0.178 C  
HETATM   19  O   UNL     1     -12.529  10.955  69.427  1.00  0.00    -0.352 OA 
HETATM   20  O   UNL     1      -9.701  10.360  65.510  1.00  0.00    -0.212 OA 
HETATM   21  C   UNL     1     -11.152  10.767  67.406  1.00  0.00    -0.296 C  
HETATM   22  H   UNL     1     -10.217  10.956  64.979  1.00  0.00     0.000 HD 
HETATM   23  O   UNL     1     -11.860  11.790  66.689  1.00  0.00    -0.569 OA 
HETATM   24  C   UNL     1     -11.192  11.031  68.918  1.00  0.00    -0.265 C  
HETATM   25  H   UNL     1     -12.756  11.814  67.004  1.00  0.00     0.000 HD 
BRANCH  15  26
HETATM   26  C   UNL     1      -7.401   9.744  67.338  1.00  0.00    -0.090 C  
HETATM   27  O   UNL     1      -7.274   9.119  66.057  1.00  0.00    -0.091 OA 
HETATM   28  H   UNL     1      -6.359   9.102  65.803  1.00  0.00     0.000 HD 
ENDBRANCH  15  26
ENDBRANCH  13  14
ENDBRANCH   6  13
BRANCH   6  29
HETATM   29  C   UNL     1     -11.144   8.836  72.072  1.00  0.00    -0.371 C  
HETATM   30  H   UNL     1     -12.758   9.213  73.176  1.00  0.00     0.000 HD 
HETATM   31  O   UNL     1     -12.516   8.688  72.422  1.00  0.00    -0.382 OA 
ENDBRANCH   6  29
ENDBRANCH   2   4
TORSDOF 5
ENDMDL
MODEL       86
REMARK 921   NORMALIZED FREE ENERGY PREDICTED BY IDOCK:   -4.59 KCAL/MOL
REMARK 922        TOTAL FREE ENERGY PREDICTED BY IDOCK:   -6.94 KCAL/MOL
REMARK 923 INTER-LIGAND FREE ENERGY PREDICTED BY IDOCK:   -5.91 KCAL/MOL
REMARK 924 INTRA-LIGAND FREE ENERGY PREDICTED BY IDOCK:   -1.03 KCAL/MOL
REMARK 927      BINDING AFFINITY PREDICTED BY RF-SCORE:    0.00 PKD
ROOT
HETATM    1  O   UNL     1     -11.480  16.483  63.885  1.00  0.00    -1.608 OA 
HETATM    2  C   UNL     1     -11.467  15.156  64.392  1.00  0.00    -0.235 C  
HETATM    3  H   UNL     1     -11.673  16.489  62.956  1.00  0.00     0.000 HD 
ENDROOT
BRANCH   2   4
HETATM    4  C   UNL     1     -11.158  15.145  65.888  1.00  0.00    -0.319 C  
HETATM    5  O   UNL     1     -10.465  13.929  66.222  1.00  0.00    -0.278 OA 
HETATM    6  C   UNL     1      -9.687  14.193  67.404  1.00  0.00    -0.232 C  
HETATM    7  H   UNL     1      -7.661  16.538  66.162  1.00  0.00     0.000 HD 
HETATM    8  O   UNL     1     -11.021  17.159  67.256  1.00  0.00    -0.177 OA 
HETATM    9  C   UNL     1      -9.158  15.631  67.158  1.00  0.00    -0.210 C  
HETATM   10  C   UNL     1     -10.285  16.308  66.377  1.00  0.00    -0.313 C  
HETATM   11  H   UNL     1     -10.481  17.879  67.558  1.00  0.00     0.000 HD 
HETATM   12  O   UNL     1      -7.985  15.658  66.313  1.00  0.00    -0.071 OA 
BRANCH   6  13
HETATM   13  O   UNL     1      -8.543  13.311  67.482  1.00  0.00    -0.176 OA 
BRANCH  13  14
HETATM   14  C   UNL     1      -8.764  12.096  68.211  1.00  0.00    -0.178 C  
HETATM   15  C   UNL     1      -8.886  10.794  66.218  1.00  0.00    -0.173 C  
HETATM   16  O   UNL     1      -9.532  11.160  67.451  1.00  0.00    -0.163 OA 
HETATM   17  H   UNL     1      -5.786  11.955  69.622  1.00  0.00     0.000 HD 
HETATM   18  C   UNL     1      -7.576  10.065  66.498  1.00  0.00    -0.106 C  
HETATM   19  O   UNL     1      -6.612  12.354  69.376  1.00  0.00    -0.108 OA 
HETATM   20  O   UNL     1      -6.882   9.716  65.294  1.00  0.00    -0.087 OA 
HETATM   21  C   UNL     1      -6.664  10.940  67.372  1.00  0.00    -0.078 C  
HETATM   22  H   UNL     1      -6.066   9.261  65.468  1.00  0.00     0.000 HD 
HETATM   23  O   UNL     1      -5.514  10.166  67.747  1.00  0.00    -0.041 OA 
HETATM   24  C   UNL     1      -7.414  11.444  68.613  1.00  0.00    -0.119 C  
HETATM   25  H   UNL     1      -4.950  10.707  68.288  1.00  0.00     0.000 HD 
BRANCH  15  26
HETATM   26  C   UNL     1      -9.873   9.944  65.415  1.00  0.00    -0.313 C  
HETATM   27  O   UNL     1      -9.362   8.613  65.291  1.00  0.00    -0.432 OA 
HETATM   28  H   UNL     1      -9.975   8.085  64.793  1.00  0.00     0.000 HD 
ENDBRANCH  15  26
ENDBRANCH  13  14
ENDBRANCH   6  13
BRANCH   6  29
HETATM   29  C   UNL     1     -10.617  14.132  68.650  1.00  0.00    -0.249 C  
HETATM   30  H   UNL     1     -10.898  15.120  70.356  1.00  0.00     0.000 HD 
HETATM   31  O   UNL     1     -10.330  15.157  69.595  1.00  0.00    -0.239 OA 
ENDBRANCH   6  29
ENDBRANCH   2   4
TORSDOF 5
ENDMDL
MODEL       87
REMARK 921   NORMALIZED FREE ENERGY PREDICTED BY IDOCK:   -4.56 KCAL/MOL
REMARK 922        TOTAL FREE ENERGY PREDICTED BY IDOCK:   -6.89 KCAL/MOL
REMARK 923 INTER-LIGAND FREE ENERGY PREDICTED BY IDOCK:   -5.75 KCAL/MOL
REMARK 924 INTRA-LIGAND FREE ENERGY PREDICTED BY IDOCK:   -1.14 KCAL/MOL
REMARK 927      BINDING AFFINITY PREDICTED BY RF-SCORE:    0.00 PKD
ROOT
HETATM    1  O   UNL     1     -12.342   7.121  70.121  1.00  0.00    -0.565 OA 
HETATM    2  C   UNL     1     -11.381   6.169  69.687  1.00  0.00    -0.372 C  
HETATM    3  H   UNL     1     -13.146   6.694  70.390  1.00  0.00     0.000 HD 
ENDROOT
BRANCH   2   4
HETATM    4  C   UNL     1     -10.087   6.856  69.256  1.00  0.00    -0.170 C  
HETATM    5  O   UNL     1     -10.404   7.995  68.434  1.00  0.00    -0.204 OA 
HETATM    6  C   UNL     1      -9.307   8.921  68.549  1.00  0.00    -0.140 C  
HETATM    7  H   UNL     1      -9.537   9.574  71.815  1.00  0.00     0.000 HD 
HETATM    8  O   UNL     1      -7.977   6.643  70.458  1.00  0.00    -0.107 OA 
HETATM    9  C   UNL     1      -8.926   8.822  70.050  1.00  0.00    -0.158 C  
HETATM   10  C   UNL     1      -9.209   7.363  70.407  1.00  0.00    -0.158 C  
HETATM   11  H   UNL     1      -7.433   6.957  71.170  1.00  0.00     0.000 HD 
HETATM   12  O   UNL     1      -9.771   9.634  70.896  1.00  0.00    -0.225 OA 
BRANCH   6  13
HETATM   13  O   UNL     1      -9.742  10.276  68.293  1.00  0.00    -0.139 OA 
BRANCH  13  14
HETATM   14  C   UNL     1     -11.073  10.397  67.773  1.00  0.00    -0.299 C  
HETATM   15  C   UNL     1     -11.502  12.374  69.033  1.00  0.00    -0.300 C  
HETATM   16  O   UNL     1     -11.943  11.044  68.705  1.00  0.00    -0.496 OA 
HETATM   17  H   UNL     1     -10.206  11.057  64.660  1.00  0.00     0.000 HD 
HETATM   18  C   UNL     1     -11.541  13.269  67.800  1.00  0.00    -0.342 C  
HETATM   19  O   UNL     1     -10.207  10.572  65.477  1.00  0.00    -0.272 OA 
HETATM   20  O   UNL     1     -11.073  14.595  68.077  1.00  0.00    -0.262 OA 
HETATM   21  C   UNL     1     -10.688  12.655  66.679  1.00  0.00    -0.253 C  
HETATM   22  H   UNL     1     -11.097  15.153  67.309  1.00  0.00     0.000 HD 
HETATM   23  O   UNL     1     -10.873  13.435  65.487  1.00  0.00    -0.283 OA 
HETATM   24  C   UNL     1     -11.072  11.189  66.439  1.00  0.00    -0.138 C  
HETATM   25  H   UNL     1     -10.345  13.056  64.794  1.00  0.00     0.000 HD 
BRANCH  15  26
HETATM   26  C   UNL     1     -12.397  12.889  70.164  1.00  0.00    -0.179 C  
HETATM   27  O   UNL     1     -11.805  14.056  70.743  1.00  0.00    -0.438 OA 
HETATM   28  H   UNL     1     -12.360  14.376  71.444  1.00  0.00     0.000 HD 
ENDBRANCH  15  26
ENDBRANCH  13  14
ENDBRANCH   6  13
BRANCH   6  29
HETATM   29  C   UNL     1      -8.144   8.447  67.631  1.00  0.00    -0.118 C  
HETATM   30  H   UNL     1      -7.899   7.607  65.842  1.00  0.00     0.000 HD 
HETATM   31  O   UNL     1      -8.609   7.897  66.403  1.00  0.00    -0.132 OA 
ENDBRANCH   6  29
ENDBRANCH   2   4
TORSDOF 5
ENDMDL
MODEL       88
REMARK 921   NORMALIZED FREE ENERGY PREDICTED BY IDOCK:   -4.54 KCAL/MOL
REMARK 922        TOTAL FREE ENERGY PREDICTED BY IDOCK:   -6.88 KCAL/MOL
REMARK 923 INTER-LIGAND FREE ENERGY PREDICTED BY IDOCK:   -5.75 KCAL/MOL
REMARK 924 INTRA-LIGAND FREE ENERGY PREDICTED BY IDOCK:   -1.13 KCAL/MOL
REMARK 927      BINDING AFFINITY PREDICTED BY RF-SCORE:    0.00 PKD
ROOT
HETATM    1  O   UNL     1     -11.383   4.899  65.817  1.00  0.00    -0.849 OA 
HETATM    2  C   UNL     1     -10.076   4.385  65.613  1.00  0.00    -0.241 C  
HETATM    3  H   UNL     1     -11.998   4.517  65.203  1.00  0.00     0.000 HD 
ENDROOT
BRANCH   2   4
HETATM    4  C   UNL     1      -9.086   4.999  66.600  1.00  0.00    -0.119 C  
HETATM    5  O   UNL     1      -9.745   6.033  67.354  1.00  0.00    -0.109 OA 
HETATM    6  C   UNL     1      -9.047   6.159  68.606  1.00  0.00    -0.125 C  
HETATM    7  H   UNL     1      -9.629   3.102  69.817  1.00  0.00     0.000 HD 
HETATM    8  O   UNL     1      -7.087   3.855  67.400  1.00  0.00    -0.061 OA 
HETATM    9  C   UNL     1      -8.719   4.686  68.969  1.00  0.00    -0.085 C  
HETATM   10  C   UNL     1      -8.490   4.015  67.615  1.00  0.00    -0.098 C  
HETATM   11  H   UNL     1      -6.718   3.246  68.028  1.00  0.00     0.000 HD 
HETATM   12  O   UNL     1      -9.830   4.004  69.594  1.00  0.00    -0.210 OA 
BRANCH   6  13
HETATM   13  O   UNL     1      -9.916   6.683  69.636  1.00  0.00    -0.171 OA 
BRANCH  13  14
HETATM   14  C   UNL     1      -9.299   7.614  70.534  1.00  0.00    -0.163 C  
HETATM   15  C   UNL     1     -11.310   8.866  70.793  1.00  0.00    -0.278 C  
HETATM   16  O   UNL     1      -9.911   8.903  70.457  1.00  0.00    -0.177 OA 
HETATM   17  H   UNL     1      -8.816   5.489  73.010  1.00  0.00     0.000 HD 
HETATM   18  C   UNL     1     -11.498   8.449  72.247  1.00  0.00    -0.384 C  
HETATM   19  O   UNL     1      -8.770   5.804  72.115  1.00  0.00    -0.132 OA 
HETATM   20  O   UNL     1     -12.881   8.363  72.612  1.00  0.00    -0.592 OA 
HETATM   21  C   UNL     1     -10.824   7.089  72.494  1.00  0.00    -0.252 C  
HETATM   22  H   UNL     1     -12.999   8.103  73.518  1.00  0.00     0.000 HD 
HETATM   23  O   UNL     1     -10.882   6.802  73.900  1.00  0.00    -0.502 OA 
HETATM   24  C   UNL     1      -9.373   7.099  71.996  1.00  0.00    -0.137 C  
HETATM   25  H   UNL     1     -10.466   5.962  74.054  1.00  0.00     0.000 HD 
BRANCH  15  26
HETATM   26  C   UNL     1     -11.891  10.251  70.498  1.00  0.00    -0.329 C  
HETATM   27  O   UNL     1     -13.320  10.174  70.489  1.00  0.00    -0.573 OA 
HETATM   28  H   UNL     1     -13.680  11.034  70.307  1.00  0.00     0.000 HD 
ENDBRANCH  15  26
ENDBRANCH  13  14
ENDBRANCH   6  13
BRANCH   6  29
HETATM   29  C   UNL     1      -7.753   6.995  68.386  1.00  0.00    -0.120 C  
HETATM   30  H   UNL     1      -5.813   6.888  68.819  1.00  0.00     0.000 HD 
HETATM   31  O   UNL     1      -6.603   6.377  68.953  1.00  0.00    -0.044 OA 
ENDBRANCH   6  29
ENDBRANCH   2   4
TORSDOF 5
ENDMDL
MODEL       89
REMARK 921   NORMALIZED FREE ENERGY PREDICTED BY IDOCK:   -4.54 KCAL/MOL
REMARK 922        TOTAL FREE ENERGY PREDICTED BY IDOCK:   -6.87 KCAL/MOL
REMARK 923 INTER-LIGAND FREE ENERGY PREDICTED BY IDOCK:   -5.85 KCAL/MOL
REMARK 924 INTRA-LIGAND FREE ENERGY PREDICTED BY IDOCK:   -1.02 KCAL/MOL
REMARK 927      BINDING AFFINITY PREDICTED BY RF-SCORE:    0.00 PKD
ROOT
HETATM    1  O   UNL     1      -9.861   6.037  72.951  1.00  0.00    -0.165 OA 
HETATM    2  C   UNL     1      -9.821   7.343  73.508  1.00  0.00    -0.312 C  
HETATM    3  H   UNL     1      -9.323   5.437  73.454  1.00  0.00     0.000 HD 
ENDROOT
BRANCH   2   4
HETATM    4  C   UNL     1     -10.685   8.308  72.700  1.00  0.00    -0.314 C  
HETATM    5  O   UNL     1     -10.028   8.608  71.455  1.00  0.00    -0.220 OA 
HETATM    6  C   UNL     1     -11.051   8.981  70.513  1.00  0.00    -0.254 C  
HETATM    7  H   UNL     1     -12.736   6.100  70.429  1.00  0.00     0.000 HD 
HETATM    8  O   UNL     1     -13.090   8.559  73.017  1.00  0.00    -0.729 OA 
HETATM    9  C   UNL     1     -12.204   7.997  70.845  1.00  0.00    -0.109 C  
HETATM   10  C   UNL     1     -12.086   7.788  72.355  1.00  0.00    -0.250 C  
HETATM   11  H   UNL     1     -13.957   8.237  72.803  1.00  0.00     0.000 HD 
HETATM   12  O   UNL     1     -12.030   6.703  70.226  1.00  0.00    -0.387 OA 
BRANCH   6  13
HETATM   13  O   UNL     1     -10.627   8.721  69.155  1.00  0.00    -0.224 OA 
BRANCH  13  14
HETATM   14  C   UNL     1      -9.544   9.537  68.692  1.00  0.00    -0.146 C  
HETATM   15  C   UNL     1      -8.466   7.696  67.630  1.00  0.00    -0.117 C  
HETATM   16  O   UNL     1      -8.337   8.783  68.563  1.00  0.00    -0.126 OA 
HETATM   17  H   UNL     1     -11.312  11.347  66.576  1.00  0.00     0.000 HD 
HETATM   18  C   UNL     1      -8.728   8.226  66.225  1.00  0.00    -0.151 C  
HETATM   19  O   UNL     1     -11.099  10.950  67.412  1.00  0.00    -0.293 OA 
HETATM   20  O   UNL     1      -8.901   7.172  65.271  1.00  0.00    -0.367 OA 
HETATM   21  C   UNL     1      -9.979   9.119  66.226  1.00  0.00    -0.282 C  
HETATM   22  H   UNL     1      -9.064   7.503  64.395  1.00  0.00     0.000 HD 
HETATM   23  O   UNL     1     -10.105   9.727  64.931  1.00  0.00    -0.386 OA 
HETATM   24  C   UNL     1      -9.890  10.186  67.325  1.00  0.00    -0.183 C  
HETATM   25  H   UNL     1     -10.879  10.278  64.931  1.00  0.00     0.000 HD 
BRANCH  15  26
HETATM   26  C   UNL     1      -7.186   6.860  67.715  1.00  0.00    -0.091 C  
HETATM   27  O   UNL     1      -6.108   7.581  67.110  1.00  0.00    -0.047 OA 
HETATM   28  H   UNL     1      -5.314   7.063  67.163  1.00  0.00     0.000 HD 
ENDBRANCH  15  26
ENDBRANCH  13  14
ENDBRANCH   6  13
BRANCH   6  29
HETATM   29  C   UNL     1     -11.467  10.458  70.772  1.00  0.00    -0.332 C  
HETATM   30  H   UNL     1     -13.134  11.523  70.999  1.00  0.00     0.000 HD 
HETATM   31  O   UNL     1     -12.880  10.621  70.841  1.00  0.00    -0.363 OA 
ENDBRANCH   6  29
ENDBRANCH   2   4
TORSDOF 5
ENDMDL
MODEL       90
REMARK 921   NORMALIZED FREE ENERGY PREDICTED BY IDOCK:   -4.53 KCAL/MOL
REMARK 922        TOTAL FREE ENERGY PREDICTED BY IDOCK:   -6.86 KCAL/MOL
REMARK 923 INTER-LIGAND FREE ENERGY PREDICTED BY IDOCK:   -5.59 KCAL/MOL
REMARK 924 INTRA-LIGAND FREE ENERGY PREDICTED BY IDOCK:   -1.27 KCAL/MOL
REMARK 927      BINDING AFFINITY PREDICTED BY RF-SCORE:    0.00 PKD
ROOT
HETATM    1  O   UNL     1      -6.157   8.551  70.363  1.00  0.00    -0.031 OA 
HETATM    2  C   UNL     1      -5.845   7.368  69.642  1.00  0.00    -0.023 C  
HETATM    3  H   UNL     1      -5.471   9.200  70.264  1.00  0.00     0.000 HD 
ENDROOT
BRANCH   2   4
HETATM    4  C   UNL     1      -6.948   6.323  69.802  1.00  0.00    -0.070 C  
HETATM    5  O   UNL     1      -7.973   6.842  70.668  1.00  0.00    -0.106 OA 
HETATM    6  C   UNL     1      -9.198   6.164  70.332  1.00  0.00    -0.153 C  
HETATM    7  H   UNL     1      -9.509   7.215  67.178  1.00  0.00     0.000 HD 
HETATM    8  O   UNL     1      -7.357   4.532  68.199  1.00  0.00    -0.064 OA 
HETATM    9  C   UNL     1      -9.126   6.063  68.785  1.00  0.00    -0.124 C  
HETATM   10  C   UNL     1      -7.634   5.902  68.496  1.00  0.00    -0.090 C  
HETATM   11  H   UNL     1      -7.781   4.271  67.390  1.00  0.00     0.000 HD 
HETATM   12  O   UNL     1      -9.553   7.276  68.126  1.00  0.00    -0.139 OA 
BRANCH   6  13
HETATM   13  O   UNL     1     -10.349   6.972  70.668  1.00  0.00    -0.205 OA 
BRANCH  13  14
HETATM   14  C   UNL     1     -10.092   8.040  71.589  1.00  0.00    -0.184 C  
HETATM   15  C   UNL     1     -11.268   9.624  70.253  1.00  0.00    -0.271 C  
HETATM   16  O   UNL     1     -10.037   9.304  70.925  1.00  0.00    -0.258 OA 
HETATM   17  H   UNL     1     -11.936   6.863  74.057  1.00  0.00     0.000 HD 
HETATM   18  C   UNL     1     -12.402   9.778  71.259  1.00  0.00    -0.371 C  
HETATM   19  O   UNL     1     -11.269   6.834  73.382  1.00  0.00    -0.143 OA 
HETATM   20  O   UNL     1     -13.656  10.060  70.626  1.00  0.00    -0.526 OA 
HETATM   21  C   UNL     1     -12.536   8.498  72.100  1.00  0.00    -0.377 C  
HETATM   22  H   UNL     1     -14.363  10.156  71.254  1.00  0.00     0.000 HD 
HETATM   23  O   UNL     1     -13.500   8.733  73.138  1.00  0.00    -0.953 OA 
HETATM   24  C   UNL     1     -11.181   8.088  72.693  1.00  0.00    -0.397 C  
HETATM   25  H   UNL     1     -13.583   7.942  73.657  1.00  0.00     0.000 HD 
BRANCH  15  26
HETATM   26  C   UNL     1     -11.030  10.896  69.435  1.00  0.00    -0.252 C  
HETATM   27  O   UNL     1     -11.501  12.028  70.171  1.00  0.00    -0.511 OA 
HETATM   28  H   UNL     1     -11.352  12.818  69.664  1.00  0.00     0.000 HD 
ENDBRANCH  15  26
ENDBRANCH  13  14
ENDBRANCH   6  13
BRANCH   6  29
HETATM   29  C   UNL     1      -9.199   4.757  70.997  1.00  0.00    -0.141 C  
HETATM   30  H   UNL     1      -9.695   2.886  70.534  1.00  0.00     0.000 HD 
HETATM   31  O   UNL     1      -9.694   3.745  70.128  1.00  0.00    -0.196 OA 
ENDBRANCH   6  29
ENDBRANCH   2   4
TORSDOF 5
ENDMDL
MODEL       91
REMARK 921   NORMALIZED FREE ENERGY PREDICTED BY IDOCK:   -4.52 KCAL/MOL
REMARK 922        TOTAL FREE ENERGY PREDICTED BY IDOCK:   -6.84 KCAL/MOL
REMARK 923 INTER-LIGAND FREE ENERGY PREDICTED BY IDOCK:   -5.92 KCAL/MOL
REMARK 924 INTRA-LIGAND FREE ENERGY PREDICTED BY IDOCK:   -0.92 KCAL/MOL
REMARK 927      BINDING AFFINITY PREDICTED BY RF-SCORE:    0.00 PKD
ROOT
HETATM    1  O   UNL     1     -12.990  10.148  70.620  1.00  0.00    -0.501 OA 
HETATM    2  C   UNL     1     -11.947  11.087  70.400  1.00  0.00    -0.368 C  
HETATM    3  H   UNL     1     -13.258  10.145  71.531  1.00  0.00     0.000 HD 
ENDROOT
BRANCH   2   4
HETATM    4  C   UNL     1     -11.516  11.092  68.935  1.00  0.00    -0.296 C  
HETATM    5  O   UNL     1     -11.152  12.430  68.550  1.00  0.00    -0.227 OA 
HETATM    6  C   UNL     1     -10.226  12.321  67.454  1.00  0.00    -0.203 C  
HETATM    7  H   UNL     1      -7.763  10.711  69.033  1.00  0.00     0.000 HD 
HETATM    8  O   UNL     1     -10.711   9.116  67.755  1.00  0.00    -0.374 OA 
HETATM    9  C   UNL     1      -9.351  11.105  67.858  1.00  0.00    -0.161 C  
HETATM   10  C   UNL     1     -10.318  10.190  68.610  1.00  0.00    -0.188 C  
HETATM   11  H   UNL     1      -9.970   8.557  67.554  1.00  0.00     0.000 HD 
HETATM   12  O   UNL     1      -8.299  11.456  68.784  1.00  0.00    -0.150 OA 
BRANCH   6  13
HETATM   13  O   UNL     1      -9.363  13.480  67.385  1.00  0.00    -0.211 OA 
BRANCH  13  14
HETATM   14  C   UNL     1      -9.858  14.645  68.059  1.00  0.00    -0.216 C  
HETATM   15  C   UNL     1      -7.662  15.471  68.475  1.00  0.00    -0.132 C  
HETATM   16  O   UNL     1      -8.934  15.113  69.043  1.00  0.00    -0.197 OA 
HETATM   17  H   UNL     1     -11.249  16.048  65.418  1.00  0.00     0.000 HD 
HETATM   18  C   UNL     1      -7.817  16.647  67.517  1.00  0.00    -0.171 C  
HETATM   19  O   UNL     1     -11.071  15.351  66.038  1.00  0.00    -0.313 OA 
HETATM   20  O   UNL     1      -6.577  17.011  66.900  1.00  0.00    -0.174 OA 
HETATM   21  C   UNL     1      -8.844  16.303  66.426  1.00  0.00    -0.311 C  
HETATM   22  H   UNL     1      -6.674  17.745  66.303  1.00  0.00     0.000 HD 
HETATM   23  O   UNL     1      -9.084  17.481  65.640  1.00  0.00    -0.428 OA 
HETATM   24  C   UNL     1     -10.148  15.784  67.046  1.00  0.00    -0.261 C  
HETATM   25  H   UNL     1      -9.719  17.269  64.965  1.00  0.00     0.000 HD 
BRANCH  15  26
HETATM   26  C   UNL     1      -6.709  15.777  69.633  1.00  0.00    -0.176 C  
HETATM   27  O   UNL     1      -6.727  14.689  70.562  1.00  0.00    -0.294 OA 
HETATM   28  H   UNL     1      -6.135  14.878  71.281  1.00  0.00     0.000 HD 
ENDBRANCH  15  26
ENDBRANCH  13  14
ENDBRANCH   6  13
BRANCH   6  29
HETATM   29  C   UNL     1     -11.018  12.045  66.143  1.00  0.00    -0.302 C  
HETATM   30  H   UNL     1     -10.880  10.888  64.529  1.00  0.00     0.000 HD 
HETATM   31  O   UNL     1     -10.396  11.056  65.330  1.00  0.00    -0.264 OA 
ENDBRANCH   6  29
ENDBRANCH   2   4
TORSDOF 5
ENDMDL
MODEL       92
REMARK 921   NORMALIZED FREE ENERGY PREDICTED BY IDOCK:   -4.51 KCAL/MOL
REMARK 922        TOTAL FREE ENERGY PREDICTED BY IDOCK:   -6.83 KCAL/MOL
REMARK 923 INTER-LIGAND FREE ENERGY PREDICTED BY IDOCK:   -5.78 KCAL/MOL
REMARK 924 INTRA-LIGAND FREE ENERGY PREDICTED BY IDOCK:   -1.05 KCAL/MOL
REMARK 927      BINDING AFFINITY PREDICTED BY RF-SCORE:    0.00 PKD
ROOT
HETATM    1  O   UNL     1     -14.410   7.627  70.775  1.00  0.00    -0.569 OA 
HETATM    2  C   UNL     1     -13.713   7.708  72.009  1.00  0.00    -0.165 C  
HETATM    3  H   UNL     1     -15.275   8.013  70.847  1.00  0.00     0.000 HD 
ENDROOT
BRANCH   2   4
HETATM    4  C   UNL     1     -12.322   7.088  71.893  1.00  0.00    -0.323 C  
HETATM    5  O   UNL     1     -11.863   7.200  70.534  1.00  0.00    -0.299 OA 
HETATM    6  C   UNL     1     -10.423   7.187  70.568  1.00  0.00    -0.212 C  
HETATM    7  H   UNL     1      -9.936   9.978  72.335  1.00  0.00     0.000 HD 
HETATM    8  O   UNL     1     -10.803   6.810  73.780  1.00  0.00    -0.503 OA 
HETATM    9  C   UNL     1     -10.099   8.036  71.826  1.00  0.00    -0.191 C  
HETATM   10  C   UNL     1     -11.251   7.730  72.784  1.00  0.00    -0.398 C  
HETATM   11  H   UNL     1     -10.140   7.208  74.332  1.00  0.00     0.000 HD 
HETATM   12  O   UNL     1     -10.135   9.458  71.565  1.00  0.00    -0.288 OA 
BRANCH   6  13
HETATM   13  O   UNL     1      -9.870   7.871  69.421  1.00  0.00    -0.175 OA 
BRANCH  13  14
HETATM   14  C   UNL     1     -10.834   8.315  68.457  1.00  0.00     0.093 C  
HETATM   15  C   UNL     1      -9.732  10.406  68.156  1.00  0.00    -0.151 C  
HETATM   16  O   UNL     1     -10.968   9.738  68.466  1.00  0.00    -0.215 OA 
HETATM   17  H   UNL     1     -10.054   6.135  66.108  1.00  0.00     0.000 HD 
HETATM   18  C   UNL     1      -9.291  10.080  66.733  1.00  0.00    -0.160 C  
HETATM   19  O   UNL     1     -10.295   6.422  66.981  1.00  0.00    -0.188 OA 
HETATM   20  O   UNL     1      -8.043  10.698  66.397  1.00  0.00    -0.136 OA 
HETATM   21  C   UNL     1      -9.167   8.558  66.558  1.00  0.00    -0.190 C  
HETATM   22  H   UNL     1      -7.768  10.494  65.510  1.00  0.00     0.000 HD 
HETATM   23  O   UNL     1      -8.907   8.279  65.173  1.00  0.00    -0.363 OA 
HETATM   24  C   UNL     1     -10.442   7.847  67.031  1.00  0.00    -0.349 C  
HETATM   25  H   UNL     1      -8.830   7.338  65.065  1.00  0.00     0.000 HD 
BRANCH  15  26
HETATM   26  C   UNL     1      -9.951  11.905  68.375  1.00  0.00    -0.203 C  
HETATM   27  O   UNL     1      -8.709  12.519  68.733  1.00  0.00    -0.375 OA 
HETATM   28  H   UNL     1      -8.845  13.449  68.869  1.00  0.00     0.000 HD 
ENDBRANCH  15  26
ENDBRANCH  13  14
ENDBRANCH   6  13
BRANCH   6  29
HETATM   29  C   UNL     1      -9.931   5.720  70.727  1.00  0.00    -0.193 C  
HETATM   30  H   UNL     1     -10.164   3.960  69.825  1.00  0.00     0.000 HD 
HETATM   31  O   UNL     1     -10.464   4.856  69.728  1.00  0.00    -0.232 OA 
ENDBRANCH   6  29
ENDBRANCH   2   4
TORSDOF 5
ENDMDL
MODEL       93
REMARK 921   NORMALIZED FREE ENERGY PREDICTED BY IDOCK:   -4.51 KCAL/MOL
REMARK 922        TOTAL FREE ENERGY PREDICTED BY IDOCK:   -6.83 KCAL/MOL
REMARK 923 INTER-LIGAND FREE ENERGY PREDICTED BY IDOCK:   -5.67 KCAL/MOL
REMARK 924 INTRA-LIGAND FREE ENERGY PREDICTED BY IDOCK:   -1.16 KCAL/MOL
REMARK 927      BINDING AFFINITY PREDICTED BY RF-SCORE:    0.00 PKD
ROOT
HETATM    1  O   UNL     1     -12.655  14.160  63.632  1.00  0.00    -0.952 OA 
HETATM    2  C   UNL     1     -12.764  12.945  64.360  1.00  0.00    -0.245 C  
HETATM    3  H   UNL     1     -13.049  14.078  62.773  1.00  0.00     0.000 HD 
ENDROOT
BRANCH   2   4
HETATM    4  C   UNL     1     -12.131  13.076  65.743  1.00  0.00    -0.454 C  
HETATM    5  O   UNL     1     -11.882  11.764  66.279  1.00  0.00    -0.501 OA 
HETATM    6  C   UNL     1     -10.801  11.888  67.223  1.00  0.00    -0.247 C  
HETATM    7  H   UNL     1      -8.413  12.907  65.124  1.00  0.00     0.000 HD 
HETATM    8  O   UNL     1     -10.931  15.060  66.499  1.00  0.00    -0.321 OA 
HETATM    9  C   UNL     1      -9.852  12.903  66.532  1.00  0.00    -0.254 C  
HETATM   10  C   UNL     1     -10.799  13.835  65.775  1.00  0.00    -0.277 C  
HETATM   11  H   UNL     1     -10.106  15.530  66.519  1.00  0.00     0.000 HD 
HETATM   12  O   UNL     1      -8.994  12.285  65.547  1.00  0.00     0.160 OA 
BRANCH   6  13
HETATM   13  O   UNL     1     -10.085  10.639  67.360  1.00  0.00    -0.182 OA 
BRANCH  13  14
HETATM   14  C   UNL     1     -10.285   9.960  68.606  1.00  0.00    -0.178 C  
HETATM   15  C   UNL     1     -10.252   7.815  67.568  1.00  0.00    -0.235 C  
HETATM   16  O   UNL     1     -10.972   8.720  68.424  1.00  0.00    -0.025 OA 
HETATM   17  H   UNL     1      -7.375  10.753  69.941  1.00  0.00     0.000 HD 
HETATM   18  C   UNL     1      -8.926   7.418  68.206  1.00  0.00    -0.130 C  
HETATM   19  O   UNL     1      -8.206  10.915  69.510  1.00  0.00    -0.040 OA 
HETATM   20  O   UNL     1      -8.160   6.545  67.368  1.00  0.00    -0.118 OA 
HETATM   21  C   UNL     1      -8.098   8.674  68.521  1.00  0.00    -0.117 C  
HETATM   22  H   UNL     1      -7.334   6.297  67.766  1.00  0.00     0.000 HD 
HETATM   23  O   UNL     1      -6.933   8.277  69.262  1.00  0.00    -0.056 OA 
HETATM   24  C   UNL     1      -8.928   9.694  69.311  1.00  0.00    -0.172 C  
HETATM   25  H   UNL     1      -6.421   9.053  69.456  1.00  0.00     0.000 HD 
BRANCH  15  26
HETATM   26  C   UNL     1     -11.161   6.612  67.301  1.00  0.00    -0.345 C  
HETATM   27  O   UNL     1     -10.665   5.884  66.173  1.00  0.00    -0.485 OA 
HETATM   28  H   UNL     1     -11.228   5.137  66.008  1.00  0.00     0.000 HD 
ENDBRANCH  15  26
ENDBRANCH  13  14
ENDBRANCH   6  13
BRANCH   6  29
HETATM   29  C   UNL     1     -11.358  12.447  68.563  1.00  0.00    -0.293 C  
HETATM   30  H   UNL     1     -10.978  13.929  69.838  1.00  0.00     0.000 HD 
HETATM   31  O   UNL     1     -10.638  13.587  69.019  1.00  0.00    -0.200 OA 
ENDBRANCH   6  29
ENDBRANCH   2   4
TORSDOF 5
ENDMDL
MODEL       94
REMARK 921   NORMALIZED FREE ENERGY PREDICTED BY IDOCK:   -4.47 KCAL/MOL
REMARK 922        TOTAL FREE ENERGY PREDICTED BY IDOCK:   -6.78 KCAL/MOL
REMARK 923 INTER-LIGAND FREE ENERGY PREDICTED BY IDOCK:   -6.25 KCAL/MOL
REMARK 924 INTRA-LIGAND FREE ENERGY PREDICTED BY IDOCK:   -0.52 KCAL/MOL
REMARK 927      BINDING AFFINITY PREDICTED BY RF-SCORE:    0.00 PKD
ROOT
HETATM    1  O   UNL     1      -7.144  16.645  68.885  1.00  0.00    -0.180 OA 
HETATM    2  C   UNL     1      -7.297  16.263  67.526  1.00  0.00    -0.151 C  
HETATM    3  H   UNL     1      -6.234  16.598  69.151  1.00  0.00     0.000 HD 
ENDROOT
BRANCH   2   4
HETATM    4  C   UNL     1      -8.762  16.340  67.098  1.00  0.00    -0.191 C  
HETATM    5  O   UNL     1      -9.549  15.478  67.941  1.00  0.00    -0.205 OA 
HETATM    6  C   UNL     1     -10.892  15.997  67.943  1.00  0.00    -0.333 C  
HETATM    7  H   UNL     1     -10.284  18.970  69.334  1.00  0.00     0.000 HD 
HETATM    8  O   UNL     1      -9.717  18.218  65.872  1.00  0.00    -0.516 OA 
HETATM    9  C   UNL     1     -10.672  17.532  67.978  1.00  0.00    -0.341 C  
HETATM   10  C   UNL     1      -9.386  17.738  67.177  1.00  0.00    -0.264 C  
HETATM   11  H   UNL     1     -10.103  19.084  65.921  1.00  0.00     0.000 HD 
HETATM   12  O   UNL     1     -10.420  18.030  69.312  1.00  0.00    -0.180 OA 
BRANCH   6  13
HETATM   13  O   UNL     1     -11.592  15.624  69.152  1.00  0.00    -0.337 OA 
BRANCH  13  14
HETATM   14  C   UNL     1     -10.772  15.031  70.168  1.00  0.00    -0.156 C  
HETATM   15  C   UNL     1     -12.318  15.588  71.894  1.00  0.00    -0.395 C  
HETATM   16  O   UNL     1     -10.958  15.672  71.432  1.00  0.00    -0.287 OA 
HETATM   17  H   UNL     1     -11.099  11.912  69.147  1.00  0.00     0.000 HD 
HETATM   18  C   UNL     1     -12.707  14.136  72.149  1.00  0.00    -0.294 C  
HETATM   19  O   UNL     1     -10.909  12.839  69.060  1.00  0.00    -0.225 OA 
HETATM   20  O   UNL     1     -14.068  14.006  72.576  1.00  0.00    -0.629 OA 
HETATM   21  C   UNL     1     -12.493  13.304  70.874  1.00  0.00    -0.342 C  
HETATM   22  H   UNL     1     -14.310  13.101  72.735  1.00  0.00     0.000 HD 
HETATM   23  O   UNL     1     -12.715  11.921  71.191  1.00  0.00    -0.371 OA 
HETATM   24  C   UNL     1     -11.082  13.518  70.311  1.00  0.00     0.566 C  
HETATM   25  H   UNL     1     -12.583  11.406  70.403  1.00  0.00     0.000 HD 
BRANCH  15  26
HETATM   26  C   UNL     1     -12.433  16.457  73.149  1.00  0.00    -0.368 C  
HETATM   27  O   UNL     1     -13.722  16.270  73.740  1.00  0.00    -0.896 OA 
HETATM   28  H   UNL     1     -13.794  16.809  74.519  1.00  0.00     0.000 HD 
ENDBRANCH  15  26
ENDBRANCH  13  14
ENDBRANCH   6  13
BRANCH   6  29
HETATM   29  C   UNL     1     -11.610  15.553  66.636  1.00  0.00     0.163 C  
HETATM   30  H   UNL     1     -11.779  13.924  65.503  1.00  0.00     0.000 HD 
HETATM   31  O   UNL     1     -11.341  14.195  66.301  1.00  0.00    -0.322 OA 
ENDBRANCH   6  29
ENDBRANCH   2   4
TORSDOF 5
ENDMDL
MODEL       95
REMARK 921   NORMALIZED FREE ENERGY PREDICTED BY IDOCK:   -4.46 KCAL/MOL
REMARK 922        TOTAL FREE ENERGY PREDICTED BY IDOCK:   -6.77 KCAL/MOL
REMARK 923 INTER-LIGAND FREE ENERGY PREDICTED BY IDOCK:   -5.83 KCAL/MOL
REMARK 924 INTRA-LIGAND FREE ENERGY PREDICTED BY IDOCK:   -0.94 KCAL/MOL
REMARK 927      BINDING AFFINITY PREDICTED BY RF-SCORE:    0.00 PKD
ROOT
HETATM    1  O   UNL     1      -9.999  20.108  66.495  1.00  0.00    -0.432 OA 
HETATM    2  C   UNL     1     -10.776  19.023  66.978  1.00  0.00    -0.432 C  
HETATM    3  H   UNL     1     -10.511  20.664  65.920  1.00  0.00     0.000 HD 
ENDROOT
BRANCH   2   4
HETATM    4  C   UNL     1      -9.953  18.129  67.904  1.00  0.00    -0.333 C  
HETATM    5  O   UNL     1     -10.355  16.759  67.723  1.00  0.00    -0.295 OA 
HETATM    6  C   UNL     1      -9.236  15.934  68.099  1.00  0.00    -0.190 C  
HETATM    7  H   UNL     1      -7.055  16.961  65.789  1.00  0.00     0.000 HD 
HETATM    8  O   UNL     1      -7.778  18.758  68.808  1.00  0.00    -0.326 OA 
HETATM    9  C   UNL     1      -8.022  16.722  67.539  1.00  0.00    -0.172 C  
HETATM   10  C   UNL     1      -8.437  18.186  67.678  1.00  0.00    -0.244 C  
HETATM   11  H   UNL     1      -6.839  18.793  68.668  1.00  0.00     0.000 HD 
HETATM   12  O   UNL     1      -7.798  16.479  66.132  1.00  0.00    -0.291 OA 
BRANCH   6  13
HETATM   13  O   UNL     1      -9.282  14.657  67.423  1.00  0.00    -0.187 OA 
BRANCH  13  14
HETATM   14  C   UNL     1      -8.909  13.531  68.228  1.00  0.00    -0.179 C  
HETATM   15  C   UNL     1     -10.721  12.212  67.420  1.00  0.00    -0.234 C  
HETATM   16  O   UNL     1     -10.043  12.736  68.576  1.00  0.00    -0.229 OA 
HETATM   17  H   UNL     1      -6.079  12.870  66.667  1.00  0.00     0.000 HD 
HETATM   18  C   UNL     1      -9.812  11.256  66.656  1.00  0.00    -0.205 C  
HETATM   19  O   UNL     1      -6.715  13.411  67.120  1.00  0.00    -0.165 OA 
HETATM   20  O   UNL     1     -10.437  10.740  65.475  1.00  0.00    -0.252 OA 
HETATM   21  C   UNL     1      -8.507  11.969  66.269  1.00  0.00     0.089 C  
HETATM   22  H   UNL     1      -9.870  10.144  64.999  1.00  0.00     0.000 HD 
HETATM   23  O   UNL     1      -7.613  11.002  65.695  1.00  0.00    -0.349 OA 
HETATM   24  C   UNL     1      -7.870  12.647  67.489  1.00  0.00    -0.175 C  
HETATM   25  H   UNL     1      -6.806  11.442  65.455  1.00  0.00     0.000 HD 
BRANCH  15  26
HETATM   26  C   UNL     1     -12.008  11.540  67.905  1.00  0.00    -0.073 C  
HETATM   27  O   UNL     1     -11.775  10.140  68.083  1.00  0.00    -0.694 OA 
HETATM   28  H   UNL     1     -12.573   9.723  68.384  1.00  0.00     0.000 HD 
ENDBRANCH  15  26
ENDBRANCH  13  14
ENDBRANCH   6  13
BRANCH   6  29
HETATM   29  C   UNL     1      -9.182  15.826  69.650  1.00  0.00    -0.144 C  
HETATM   30  H   UNL     1     -10.439  15.600  71.177  1.00  0.00     0.000 HD 
HETATM   31  O   UNL     1     -10.472  15.666  70.230  1.00  0.00    -0.315 OA 
ENDBRANCH   6  29
ENDBRANCH   2   4
TORSDOF 5
ENDMDL
MODEL       96
REMARK 921   NORMALIZED FREE ENERGY PREDICTED BY IDOCK:   -4.44 KCAL/MOL
REMARK 922        TOTAL FREE ENERGY PREDICTED BY IDOCK:   -6.74 KCAL/MOL
REMARK 923 INTER-LIGAND FREE ENERGY PREDICTED BY IDOCK:   -5.76 KCAL/MOL
REMARK 924 INTRA-LIGAND FREE ENERGY PREDICTED BY IDOCK:   -0.99 KCAL/MOL
REMARK 927      BINDING AFFINITY PREDICTED BY RF-SCORE:    0.00 PKD
ROOT
HETATM    1  O   UNL     1     -10.257  14.705  69.791  1.00  0.00    -0.431 OA 
HETATM    2  C   UNL     1     -10.275  14.890  68.383  1.00  0.00    -0.231 C  
HETATM    3  H   UNL     1     -10.634  15.454  70.237  1.00  0.00     0.000 HD 
ENDROOT
BRANCH   2   4
HETATM    4  C   UNL     1      -9.670  13.686  67.665  1.00  0.00    -0.228 C  
HETATM    5  O   UNL     1      -9.423  12.637  68.620  1.00  0.00    -0.128 OA 
HETATM    6  C   UNL     1      -9.445  11.391  67.899  1.00  0.00    -0.174 C  
HETATM    7  H   UNL     1     -12.613  11.470  66.848  1.00  0.00     0.000 HD 
HETATM    8  O   UNL     1      -9.930  13.262  65.278  1.00  0.00    -0.449 OA 
HETATM    9  C   UNL     1     -10.603  11.596  66.887  1.00  0.00    -0.241 C  
HETATM   10  C   UNL     1     -10.544  13.087  66.556  1.00  0.00    -0.282 C  
HETATM   11  H   UNL     1     -10.472  12.891  64.592  1.00  0.00     0.000 HD 
HETATM   12  O   UNL     1     -11.903  11.345  67.468  1.00  0.00    -0.614 OA 
BRANCH   6  13
HETATM   13  O   UNL     1      -9.808  10.294  68.768  1.00  0.00    -0.165 OA 
BRANCH  13  14
HETATM   14  C   UNL     1      -9.035   9.099  68.591  1.00  0.00    -0.136 C  
HETATM   15  C   UNL     1      -9.176   8.535  70.902  1.00  0.00    -0.175 C  
HETATM   16  O   UNL     1      -8.310   8.764  69.776  1.00  0.00    -0.119 OA 
HETATM   17  H   UNL     1     -11.253   7.479  66.766  1.00  0.00     0.000 HD 
HETATM   18  C   UNL     1     -10.067   7.324  70.653  1.00  0.00    -0.194 C  
HETATM   19  O   UNL     1     -10.694   8.208  67.009  1.00  0.00    -0.321 OA 
HETATM   20  O   UNL     1     -10.972   7.085  71.737  1.00  0.00    -0.229 OA 
HETATM   21  C   UNL     1     -10.870   7.521  69.357  1.00  0.00    -0.150 C  
HETATM   22  H   UNL     1     -11.528   6.329  71.582  1.00  0.00     0.000 HD 
HETATM   23  O   UNL     1     -11.575   6.304  69.068  1.00  0.00    -0.532 OA 
HETATM   24  C   UNL     1      -9.946   7.908  68.194  1.00  0.00    -0.180 C  
HETATM   25  H   UNL     1     -12.072   6.426  68.268  1.00  0.00     0.000 HD 
BRANCH  15  26
HETATM   26  C   UNL     1      -8.289   8.369  72.139  1.00  0.00    -0.164 C  
HETATM   27  O   UNL     1      -7.202   9.297  72.072  1.00  0.00    -0.317 OA 
HETATM   28  H   UNL     1      -6.652   9.195  72.840  1.00  0.00     0.000 HD 
ENDBRANCH  15  26
ENDBRANCH  13  14
ENDBRANCH   6  13
BRANCH   6  29
HETATM   29  C   UNL     1      -8.081  11.199  67.176  1.00  0.00    -0.138 C  
HETATM   30  H   UNL     1      -7.404  10.719  65.366  1.00  0.00     0.000 HD 
HETATM   31  O   UNL     1      -8.237  10.837  65.808  1.00  0.00    -0.162 OA 
ENDBRANCH   6  29
ENDBRANCH   2   4
TORSDOF 5
ENDMDL
MODEL       97
REMARK 921   NORMALIZED FREE ENERGY PREDICTED BY IDOCK:   -4.40 KCAL/MOL
REMARK 922        TOTAL FREE ENERGY PREDICTED BY IDOCK:   -6.69 KCAL/MOL
REMARK 923 INTER-LIGAND FREE ENERGY PREDICTED BY IDOCK:   -6.10 KCAL/MOL
REMARK 924 INTRA-LIGAND FREE ENERGY PREDICTED BY IDOCK:   -0.58 KCAL/MOL
REMARK 927      BINDING AFFINITY PREDICTED BY RF-SCORE:    0.00 PKD
ROOT
HETATM    1  O   UNL     1     -11.550   4.775  65.390  1.00  0.00    -1.002 OA 
HETATM    2  C   UNL     1     -10.192   4.372  65.294  1.00  0.00    -0.210 C  
HETATM    3  H   UNL     1     -12.100   4.251  64.820  1.00  0.00     0.000 HD 
ENDROOT
BRANCH   2   4
HETATM    4  C   UNL     1      -9.307   5.213  66.211  1.00  0.00    -0.151 C  
HETATM    5  O   UNL     1     -10.085   6.287  66.771  1.00  0.00    -0.166 OA 
HETATM    6  C   UNL     1      -9.463   6.661  68.015  1.00  0.00    -0.118 C  
HETATM    7  H   UNL     1      -9.852   3.781  69.660  1.00  0.00     0.000 HD 
HETATM    8  O   UNL     1      -7.262   4.385  67.251  1.00  0.00    -0.067 OA 
HETATM    9  C   UNL     1      -9.034   5.294  68.612  1.00  0.00    -0.107 C  
HETATM   10  C   UNL     1      -8.683   4.450  67.387  1.00  0.00    -0.105 C  
HETATM   11  H   UNL     1      -6.876   3.912  67.979  1.00  0.00     0.000 HD 
HETATM   12  O   UNL     1     -10.114   4.618  69.294  1.00  0.00    -0.193 OA 
BRANCH   6  13
HETATM   13  O   UNL     1     -10.423   7.254  68.918  1.00  0.00    -0.201 OA 
BRANCH  13  14
HETATM   14  C   UNL     1      -9.857   8.076  69.949  1.00  0.00    -0.186 C  
HETATM   15  C   UNL     1     -11.402   9.843  69.539  1.00  0.00    -0.124 C  
HETATM   16  O   UNL     1     -10.019   9.465  69.659  1.00  0.00    -0.177 OA 
HETATM   17  H   UNL     1     -10.766   6.177  72.488  1.00  0.00     0.000 HD 
HETATM   18  C   UNL     1     -12.125   9.651  70.867  1.00  0.00    -0.300 C  
HETATM   19  O   UNL     1     -10.369   6.371  71.648  1.00  0.00    -0.201 OA 
HETATM   20  O   UNL     1     -13.517   9.981  70.780  1.00  0.00    -0.553 OA 
HETATM   21  C   UNL     1     -11.979   8.195  71.338  1.00  0.00    -0.298 C  
HETATM   22  H   UNL     1     -13.968   9.861  71.608  1.00  0.00     0.000 HD 
HETATM   23  O   UNL     1     -12.531   8.087  72.660  1.00  0.00    -0.575 OA 
HETATM   24  C   UNL     1     -10.507   7.760  71.322  1.00  0.00    -0.206 C  
HETATM   25  H   UNL     1     -12.441   7.187  72.951  1.00  0.00     0.000 HD 
BRANCH  15  26
HETATM   26  C   UNL     1     -11.443  11.294  69.051  1.00  0.00    -0.302 C  
HETATM   27  O   UNL     1     -11.984  11.334  67.727  1.00  0.00    -0.637 OA 
HETATM   28  H   UNL     1     -12.010  12.234  67.424  1.00  0.00     0.000 HD 
ENDBRANCH  15  26
ENDBRANCH  13  14
ENDBRANCH   6  13
BRANCH   6  29
HETATM   29  C   UNL     1      -8.233   7.565  67.716  1.00  0.00    -0.119 C  
HETATM   30  H   UNL     1      -7.775   9.140  66.586  1.00  0.00     0.000 HD 
HETATM   31  O   UNL     1      -8.526   8.587  66.769  1.00  0.00    -0.107 OA 
ENDBRANCH   6  29
ENDBRANCH   2   4
TORSDOF 5
ENDMDL
MODEL       98
REMARK 921   NORMALIZED FREE ENERGY PREDICTED BY IDOCK:   -4.39 KCAL/MOL
REMARK 922        TOTAL FREE ENERGY PREDICTED BY IDOCK:   -6.68 KCAL/MOL
REMARK 923 INTER-LIGAND FREE ENERGY PREDICTED BY IDOCK:   -6.50 KCAL/MOL
REMARK 924 INTRA-LIGAND FREE ENERGY PREDICTED BY IDOCK:   -0.18 KCAL/MOL
REMARK 927      BINDING AFFINITY PREDICTED BY RF-SCORE:    0.00 PKD
ROOT
HETATM    1  O   UNL     1     -11.290   9.038  71.534  1.00  0.00    -0.292 OA 
HETATM    2  C   UNL     1     -11.458  10.289  70.883  1.00  0.00    -0.339 C  
HETATM    3  H   UNL     1     -11.517   9.100  72.454  1.00  0.00     0.000 HD 
ENDROOT
BRANCH   2   4
HETATM    4  C   UNL     1     -11.093  10.189  69.404  1.00  0.00    -0.243 C  
HETATM    5  O   UNL     1     -11.574  11.358  68.715  1.00  0.00    -0.257 OA 
HETATM    6  C   UNL     1     -10.745  11.538  67.552  1.00  0.00    -0.223 C  
HETATM    7  H   UNL     1      -7.824  12.047  69.088  1.00  0.00     0.000 HD 
HETATM    8  O   UNL     1      -9.273   8.809  68.549  1.00  0.00    -0.141 OA 
HETATM    9  C   UNL     1      -9.330  11.173  68.075  1.00  0.00    -0.166 C  
HETATM   10  C   UNL     1      -9.591  10.082  69.114  1.00  0.00    -0.210 C  
HETATM   11  H   UNL     1      -8.343   8.743  68.370  1.00  0.00     0.000 HD 
HETATM   12  O   UNL     1      -8.690  12.269  68.768  1.00  0.00    -0.024 OA 
BRANCH   6  13
HETATM   13  O   UNL     1     -10.719  12.924  67.142  1.00  0.00    -0.249 OA 
BRANCH  13  14
HETATM   14  C   UNL     1      -9.758  13.237  66.125  1.00  0.00    -0.250 C  
HETATM   15  C   UNL     1     -11.425  13.334  64.425  1.00  0.00    -0.379 C  
HETATM   16  O   UNL     1     -10.175  12.759  64.844  1.00  0.00    -0.295 OA 
HETATM   17  H   UNL     1      -8.956  16.225  67.268  1.00  0.00     0.000 HD 
HETATM   18  C   UNL     1     -11.284  14.839  64.235  1.00  0.00    -0.012 C  
HETATM   19  O   UNL     1      -9.101  15.288  67.315  1.00  0.00    -0.186 OA 
HETATM   20  O   UNL     1     -12.519  15.456  63.853  1.00  0.00    -0.921 OA 
HETATM   21  C   UNL     1     -10.774  15.487  65.532  1.00  0.00    -0.381 C  
HETATM   22  H   UNL     1     -12.430  16.395  63.734  1.00  0.00     0.000 HD 
HETATM   23  O   UNL     1     -10.501  16.873  65.272  1.00  0.00    -0.638 OA 
HETATM   24  C   UNL     1      -9.519  14.768  66.046  1.00  0.00    -0.264 C  
HETATM   25  H   UNL     1     -10.186  17.273  66.074  1.00  0.00     0.000 HD 
BRANCH  15  26
HETATM   26  C   UNL     1     -11.856  12.616  63.143  1.00  0.00    -0.261 C  
HETATM   27  O   UNL     1     -11.206  11.343  63.071  1.00  0.00    -0.821 OA 
HETATM   28  H   UNL     1     -11.473  10.897  62.276  1.00  0.00     0.000 HD 
ENDBRANCH  15  26
ENDBRANCH  13  14
ENDBRANCH   6  13
BRANCH   6  29
HETATM   29  C   UNL     1     -11.212  10.558  66.438  1.00  0.00     0.340 C  
HETATM   30  H   UNL     1     -10.410   9.279  65.140  1.00  0.00     0.000 HD 
HETATM   31  O   UNL     1     -10.125   9.877  65.821  1.00  0.00    -0.284 OA 
ENDBRANCH   6  29
ENDBRANCH   2   4
TORSDOF 5
ENDMDL
MODEL       99
REMARK 921   NORMALIZED FREE ENERGY PREDICTED BY IDOCK:   -4.39 KCAL/MOL
REMARK 922        TOTAL FREE ENERGY PREDICTED BY IDOCK:   -6.68 KCAL/MOL
REMARK 923 INTER-LIGAND FREE ENERGY PREDICTED BY IDOCK:   -5.48 KCAL/MOL
REMARK 924 INTRA-LIGAND FREE ENERGY PREDICTED BY IDOCK:   -1.20 KCAL/MOL
REMARK 927      BINDING AFFINITY PREDICTED BY RF-SCORE:    0.00 PKD
ROOT
HETATM    1  O   UNL     1      -7.705  18.643  67.938  1.00  0.00    -0.247 OA 
HETATM    2  C   UNL     1      -7.379  17.337  67.487  1.00  0.00    -0.166 C  
HETATM    3  H   UNL     1      -6.954  19.060  68.343  1.00  0.00     0.000 HD 
ENDROOT
BRANCH   2   4
HETATM    4  C   UNL     1      -8.587  16.667  66.835  1.00  0.00    -0.211 C  
HETATM    5  O   UNL     1      -8.282  15.284  66.577  1.00  0.00    -0.192 OA 
HETATM    6  C   UNL     1      -9.532  14.570  66.550  1.00  0.00    -0.289 C  
HETATM    7  H   UNL     1     -10.494  15.119  69.700  1.00  0.00     0.000 HD 
HETATM    8  O   UNL     1     -10.870  17.498  67.040  1.00  0.00    -0.215 OA 
HETATM    9  C   UNL     1     -10.338  15.238  67.696  1.00  0.00    -0.250 C  
HETATM   10  C   UNL     1      -9.872  16.694  67.672  1.00  0.00    -0.256 C  
HETATM   11  H   UNL     1     -11.665  17.515  67.559  1.00  0.00     0.000 HD 
HETATM   12  O   UNL     1     -10.001  14.710  68.998  1.00  0.00    -0.226 OA 
BRANCH   6  13
HETATM   13  O   UNL     1      -9.343  13.179  66.898  1.00  0.00    -0.232 OA 
BRANCH  13  14
HETATM   14  C   UNL     1      -9.899  12.241  65.967  1.00  0.00    -0.248 C  
HETATM   15  C   UNL     1      -8.163  10.656  66.361  1.00  0.00    -0.146 C  
HETATM   16  O   UNL     1      -8.885  11.422  65.380  1.00  0.00    -0.114 OA 
HETATM   17  H   UNL     1     -12.629  11.567  67.690  1.00  0.00     0.000 HD 
HETATM   18  C   UNL     1      -9.092   9.665  67.053  1.00  0.00    -0.135 C  
HETATM   19  O   UNL     1     -11.985  12.121  67.265  1.00  0.00    -0.573 OA 
HETATM   20  O   UNL     1      -8.418   8.907  68.065  1.00  0.00    -0.124 OA 
HETATM   21  C   UNL     1     -10.279  10.410  67.684  1.00  0.00    -0.201 C  
HETATM   22  H   UNL     1      -8.997   8.288  68.496  1.00  0.00     0.000 HD 
HETATM   23  O   UNL     1     -11.211   9.439  68.186  1.00  0.00    -0.507 OA 
HETATM   24  C   UNL     1     -10.951  11.335  66.660  1.00  0.00    -0.268 C  
HETATM   25  H   UNL     1     -11.945   9.899  68.576  1.00  0.00     0.000 HD 
BRANCH  15  26
HETATM   26  C   UNL     1      -6.998   9.970  65.643  1.00  0.00    -0.115 C  
HETATM   27  O   UNL     1      -7.335   8.602  65.392  1.00  0.00    -0.082 OA 
HETATM   28  H   UNL     1      -6.613   8.176  64.947  1.00  0.00     0.000 HD 
ENDBRANCH  15  26
ENDBRANCH  13  14
ENDBRANCH   6  13
BRANCH   6  29
HETATM   29  C   UNL     1     -10.213  14.788  65.169  1.00  0.00    -0.377 C  
HETATM   30  H   UNL     1     -11.984  15.343  64.447  1.00  0.00     0.000 HD 
HETATM   31  O   UNL     1     -11.567  15.210  65.291  1.00  0.00    -0.306 OA 
ENDBRANCH   6  29
ENDBRANCH   2   4
TORSDOF 5
ENDMDL
MODEL      100
REMARK 921   NORMALIZED FREE ENERGY PREDICTED BY IDOCK:   -4.39 KCAL/MOL
REMARK 922        TOTAL FREE ENERGY PREDICTED BY IDOCK:   -6.68 KCAL/MOL
REMARK 923 INTER-LIGAND FREE ENERGY PREDICTED BY IDOCK:   -5.80 KCAL/MOL
REMARK 924 INTRA-LIGAND FREE ENERGY PREDICTED BY IDOCK:   -0.87 KCAL/MOL
REMARK 927      BINDING AFFINITY PREDICTED BY RF-SCORE:    0.00 PKD
ROOT
HETATM    1  O   UNL     1     -10.629   5.656  73.601  1.00  0.00    -0.246 OA 
HETATM    2  C   UNL     1     -10.235   7.017  73.696  1.00  0.00    -0.358 C  
HETATM    3  H   UNL     1     -10.134   5.117  74.205  1.00  0.00     0.000 HD 
ENDROOT
BRANCH   2   4
HETATM    4  C   UNL     1     -11.031   7.886  72.724  1.00  0.00    -0.393 C  
HETATM    5  O   UNL     1     -10.155   8.367  71.688  1.00  0.00    -0.199 OA 
HETATM    6  C   UNL     1     -10.970   8.636  70.532  1.00  0.00    -0.238 C  
HETATM    7  H   UNL     1     -12.074   5.537  69.961  1.00  0.00     0.000 HD 
HETATM    8  O   UNL     1     -13.448   7.734  72.442  1.00  0.00    -0.506 OA 
HETATM    9  C   UNL     1     -11.986   7.463  70.543  1.00  0.00    -0.108 C  
HETATM   10  C   UNL     1     -12.200   7.176  72.029  1.00  0.00    -0.278 C  
HETATM   11  H   UNL     1     -14.172   7.294  72.012  1.00  0.00     0.000 HD 
HETATM   12  O   UNL     1     -11.452   6.255  69.954  1.00  0.00    -0.422 OA 
BRANCH   6  13
HETATM   13  O   UNL     1     -10.195   8.535  69.315  1.00  0.00    -0.198 OA 
BRANCH  13  14
HETATM   14  C   UNL     1     -10.750   9.222  68.185  1.00  0.00    -0.151 C  
HETATM   15  C   UNL     1      -8.720  10.398  67.766  1.00  0.00    -0.122 C  
HETATM   16  O   UNL     1     -10.137  10.499  67.995  1.00  0.00    -0.158 OA 
HETATM   17  H   UNL     1     -11.085   6.568  66.256  1.00  0.00     0.000 HD 
HETATM   18  C   UNL     1      -8.441   9.651  66.466  1.00  0.00    -0.123 C  
HETATM   19  O   UNL     1     -11.186   7.085  67.046  1.00  0.00    -0.328 OA 
HETATM   20  O   UNL     1      -7.039   9.496  66.219  1.00  0.00    -0.089 OA 
HETATM   21  C   UNL     1      -9.105   8.265  66.505  1.00  0.00    -0.178 C  
HETATM   22  H   UNL     1      -6.865   9.030  65.409  1.00  0.00     0.000 HD 
HETATM   23  O   UNL     1      -8.960   7.655  65.212  1.00  0.00    -0.373 OA 
HETATM   24  C   UNL     1     -10.585   8.378  66.894  1.00  0.00    -0.215 C  
HETATM   25  H   UNL     1      -9.370   6.798  65.236  1.00  0.00     0.000 HD 
BRANCH  15  26
HETATM   26  C   UNL     1      -8.151  11.819  67.761  1.00  0.00    -0.143 C  
HETATM   27  O   UNL     1      -7.968  12.253  66.410  1.00  0.00    -0.387 OA 
HETATM   28  H   UNL     1      -7.616  13.135  66.407  1.00  0.00     0.000 HD 
ENDBRANCH  15  26
ENDBRANCH  13  14
ENDBRANCH   6  13
BRANCH   6  29
HETATM   29  C   UNL     1     -11.679  10.008  70.718  1.00  0.00    -0.350 C  
HETATM   30  H   UNL     1     -13.529  10.743  70.742  1.00  0.00     0.000 HD 
HETATM   31  O   UNL     1     -13.096   9.904  70.629  1.00  0.00    -0.242 OA 
ENDBRANCH   6  29
ENDBRANCH   2   4
TORSDOF 5
ENDMDL
MODEL      101
REMARK 921   NORMALIZED FREE ENERGY PREDICTED BY IDOCK:   -4.34 KCAL/MOL
REMARK 922        TOTAL FREE ENERGY PREDICTED BY IDOCK:   -6.61 KCAL/MOL
REMARK 923 INTER-LIGAND FREE ENERGY PREDICTED BY IDOCK:   -5.48 KCAL/MOL
REMARK 924 INTRA-LIGAND FREE ENERGY PREDICTED BY IDOCK:   -1.13 KCAL/MOL
REMARK 927      BINDING AFFINITY PREDICTED BY RF-SCORE:    0.00 PKD
ROOT
HETATM    1  O   UNL     1     -11.592   4.344  64.817  1.00  0.00    -1.000 OA 
HETATM    2  C   UNL     1     -10.405   4.497  65.582  1.00  0.00    -0.247 C  
HETATM    3  H   UNL     1     -11.719   3.439  64.563  1.00  0.00     0.000 HD 
ENDROOT
BRANCH   2   4
HETATM    4  C   UNL     1     -10.201   5.954  65.991  1.00  0.00     0.178 C  
HETATM    5  O   UNL     1     -10.791   6.172  67.286  1.00  0.00    -0.296 OA 
HETATM    6  C   UNL     1     -10.100   7.282  67.887  1.00  0.00    -0.177 C  
HETATM    7  H   UNL     1      -7.046   5.943  68.061  1.00  0.00     0.000 HD 
HETATM    8  O   UNL     1      -8.443   7.380  65.086  1.00  0.00    -0.268 OA 
HETATM    9  C   UNL     1      -8.625   7.042  67.467  1.00  0.00    -0.121 C  
HETATM   10  C   UNL     1      -8.737   6.401  66.084  1.00  0.00    -0.146 C  
HETATM   11  H   UNL     1      -7.536   7.657  65.143  1.00  0.00     0.000 HD 
HETATM   12  O   UNL     1      -7.949   6.090  68.319  1.00  0.00    -0.104 OA 
BRANCH   6  13
HETATM   13  O   UNL     1     -10.163   7.214  69.330  1.00  0.00    -0.179 OA 
BRANCH  13  14
HETATM   14  C   UNL     1     -11.273   6.475  69.854  1.00  0.00    -0.395 C  
HETATM   15  C   UNL     1      -9.864   5.092  71.189  1.00  0.00    -0.186 C  
HETATM   16  O   UNL     1     -10.900   5.137  70.192  1.00  0.00    -0.173 OA 
HETATM   17  H   UNL     1     -12.599   8.953  71.580  1.00  0.00     0.000 HD 
HETATM   18  C   UNL     1     -10.361   5.686  72.502  1.00  0.00    -0.201 C  
HETATM   19  O   UNL     1     -12.242   8.524  70.812  1.00  0.00    -0.172 OA 
HETATM   20  O   UNL     1      -9.345   5.694  73.512  1.00  0.00    -0.138 OA 
HETATM   21  C   UNL     1     -10.860   7.121  72.274  1.00  0.00    -0.232 C  
HETATM   22  H   UNL     1      -9.655   6.064  74.331  1.00  0.00     0.000 HD 
HETATM   23  O   UNL     1     -11.465   7.591  73.489  1.00  0.00    -0.608 OA 
HETATM   24  C   UNL     1     -11.858   7.176  71.109  1.00  0.00    -0.325 C  
HETATM   25  H   UNL     1     -11.773   8.479  73.349  1.00  0.00     0.000 HD 
BRANCH  15  26
HETATM   26  C   UNL     1      -9.424   3.633  71.331  1.00  0.00    -0.157 C  
HETATM   27  O   UNL     1     -10.017   3.071  72.506  1.00  0.00    -0.141 OA 
HETATM   28  H   UNL     1      -9.745   2.165  72.594  1.00  0.00     0.000 HD 
ENDBRANCH  15  26
ENDBRANCH  13  14
ENDBRANCH   6  13
BRANCH   6  29
HETATM   29  C   UNL     1     -10.655   8.609  67.293  1.00  0.00    -0.238 C  
HETATM   30  H   UNL     1      -9.961  10.342  66.602  1.00  0.00     0.000 HD 
HETATM   31  O   UNL     1      -9.622   9.532  66.964  1.00  0.00    -0.151 OA 
ENDBRANCH   6  29
ENDBRANCH   2   4
TORSDOF 5
ENDMDL
MODEL      102
REMARK 921   NORMALIZED FREE ENERGY PREDICTED BY IDOCK:   -4.32 KCAL/MOL
REMARK 922        TOTAL FREE ENERGY PREDICTED BY IDOCK:   -6.59 KCAL/MOL
REMARK 923 INTER-LIGAND FREE ENERGY PREDICTED BY IDOCK:   -6.22 KCAL/MOL
REMARK 924 INTRA-LIGAND FREE ENERGY PREDICTED BY IDOCK:   -0.37 KCAL/MOL
REMARK 927      BINDING AFFINITY PREDICTED BY RF-SCORE:    0.00 PKD
ROOT
HETATM    1  O   UNL     1     -13.255  12.524  64.622  1.00  0.00    -0.848 OA 
HETATM    2  C   UNL     1     -12.479  13.617  65.093  1.00  0.00    -0.449 C  
HETATM    3  H   UNL     1     -13.488  12.642  63.709  1.00  0.00     0.000 HD 
ENDROOT
BRANCH   2   4
HETATM    4  C   UNL     1     -12.105  13.428  66.562  1.00  0.00    -0.388 C  
HETATM    5  O   UNL     1     -11.789  12.044  66.799  1.00  0.00    -0.581 OA 
HETATM    6  C   UNL     1     -10.903  11.997  67.933  1.00  0.00    -0.215 C  
HETATM    7  H   UNL     1      -8.343  13.709  66.643  1.00  0.00     0.000 HD 
HETATM    8  O   UNL     1     -11.298  15.229  67.994  1.00  0.00    -0.318 OA 
HETATM    9  C   UNL     1      -9.984  13.227  67.705  1.00  0.00    -0.223 C  
HETATM   10  C   UNL     1     -10.899  14.251  67.033  1.00  0.00    -0.297 C  
HETATM   11  H   UNL     1     -10.551  15.739  68.285  1.00  0.00     0.000 HD 
HETATM   12  O   UNL     1      -8.906  12.956  66.782  1.00  0.00    -0.209 OA 
BRANCH   6  13
HETATM   13  O   UNL     1     -10.073  10.814  67.895  1.00  0.00    -0.166 OA 
BRANCH  13  14
HETATM   14  C   UNL     1      -9.233  10.627  69.042  1.00  0.00    -0.167 C  
HETATM   15  C   UNL     1     -10.437   8.693  69.743  1.00  0.00    -0.220 C  
HETATM   16  O   UNL     1      -9.939   9.992  70.110  1.00  0.00    -0.252 OA 
HETATM   17  H   UNL     1      -6.488   9.864  67.382  1.00  0.00     0.000 HD 
HETATM   18  C   UNL     1      -9.282   7.745  69.441  1.00  0.00    -0.149 C  
HETATM   19  O   UNL     1      -7.251  10.383  67.605  1.00  0.00    -0.085 OA 
HETATM   20  O   UNL     1      -9.736   6.449  69.034  1.00  0.00    -0.134 OA 
HETATM   21  C   UNL     1      -8.390   8.338  68.339  1.00  0.00    -0.132 C  
HETATM   22  H   UNL     1      -9.016   5.857  68.846  1.00  0.00     0.000 HD 
HETATM   23  O   UNL     1      -7.231   7.502  68.191  1.00  0.00    -0.085 OA 
HETATM   24  C   UNL     1      -7.986   9.779  68.678  1.00  0.00    -0.089 C  
HETATM   25  H   UNL     1      -6.680   7.868  67.510  1.00  0.00     0.000 HD 
BRANCH  15  26
HETATM   26  C   UNL     1     -11.321   8.197  70.890  1.00  0.00    -0.268 C  
HETATM   27  O   UNL     1     -11.399   9.207  71.900  1.00  0.00    -0.365 OA 
HETATM   28  H   UNL     1     -11.948   8.900  72.611  1.00  0.00     0.000 HD 
ENDBRANCH  15  26
ENDBRANCH  13  14
ENDBRANCH   6  13
BRANCH   6  29
HETATM   29  C   UNL     1     -11.739  12.142  69.237  1.00  0.00    -0.328 C  
HETATM   30  H   UNL     1     -13.293  11.266  70.121  1.00  0.00     0.000 HD 
HETATM   31  O   UNL     1     -12.783  11.178  69.324  1.00  0.00    -0.252 OA 
ENDBRANCH   6  29
ENDBRANCH   2   4
TORSDOF 5
ENDMDL
MODEL      103
REMARK 921   NORMALIZED FREE ENERGY PREDICTED BY IDOCK:   -4.32 KCAL/MOL
REMARK 922        TOTAL FREE ENERGY PREDICTED BY IDOCK:   -6.58 KCAL/MOL
REMARK 923 INTER-LIGAND FREE ENERGY PREDICTED BY IDOCK:   -5.42 KCAL/MOL
REMARK 924 INTRA-LIGAND FREE ENERGY PREDICTED BY IDOCK:   -1.16 KCAL/MOL
REMARK 927      BINDING AFFINITY PREDICTED BY RF-SCORE:    0.00 PKD
ROOT
HETATM    1  O   UNL     1     -11.247   8.629  68.377  1.00  0.00    -0.342 OA 
HETATM    2  C   UNL     1     -10.145   8.325  67.535  1.00  0.00    -0.225 C  
HETATM    3  H   UNL     1     -11.251   8.074  69.147  1.00  0.00     0.000 HD 
ENDROOT
BRANCH   2   4
HETATM    4  C   UNL     1     -10.139   9.218  66.297  1.00  0.00    -0.252 C  
HETATM    5  O   UNL     1     -10.473  10.565  66.679  1.00  0.00    -0.241 OA 
HETATM    6  C   UNL     1      -9.894  11.443  65.696  1.00  0.00    -0.235 C  
HETATM    7  H   UNL     1      -6.675  10.712  66.200  1.00  0.00     0.000 HD 
HETATM    8  O   UNL     1      -8.913   8.692  64.256  1.00  0.00    -0.418 OA 
HETATM    9  C   UNL     1      -8.523  10.778  65.402  1.00  0.00    -0.132 C  
HETATM   10  C   UNL     1      -8.800   9.282  65.551  1.00  0.00    -0.187 C  
HETATM   11  H   UNL     1      -8.084   8.732  63.794  1.00  0.00     0.000 HD 
HETATM   12  O   UNL     1      -7.515  11.119  66.380  1.00  0.00    -0.144 OA 
BRANCH   6  13
HETATM   13  O   UNL     1      -9.638  12.752  66.255  1.00  0.00    -0.257 OA 
BRANCH  13  14
HETATM   14  C   UNL     1     -10.058  12.923  67.615  1.00  0.00    -0.221 C  
HETATM   15  C   UNL     1      -8.193  14.313  68.132  1.00  0.00    -0.146 C  
HETATM   16  O   UNL     1      -8.946  13.138  68.485  1.00  0.00    -0.149 OA 
HETATM   17  H   UNL     1     -12.779  14.666  66.954  1.00  0.00     0.000 HD 
HETATM   18  C   UNL     1      -9.048  15.564  68.299  1.00  0.00    -0.186 C  
HETATM   19  O   UNL     1     -12.176  13.937  66.878  1.00  0.00    -0.424 OA 
HETATM   20  O   UNL     1      -8.346  16.755  67.921  1.00  0.00    -0.189 OA 
HETATM   21  C   UNL     1     -10.328  15.442  67.457  1.00  0.00    -0.264 C  
HETATM   22  H   UNL     1      -8.879  17.535  68.025  1.00  0.00     0.000 HD 
HETATM   23  O   UNL     1     -11.180  16.558  67.759  1.00  0.00    -0.239 OA 
HETATM   24  C   UNL     1     -11.044  14.115  67.740  1.00  0.00    -0.276 C  
HETATM   25  H   UNL     1     -11.971  16.483  67.239  1.00  0.00     0.000 HD 
BRANCH  15  26
HETATM   26  C   UNL     1      -6.937  14.336  69.007  1.00  0.00    -0.112 C  
HETATM   27  O   UNL     1      -5.993  15.260  68.457  1.00  0.00    -0.088 OA 
HETATM   28  H   UNL     1      -5.214  15.275  69.000  1.00  0.00     0.000 HD 
ENDBRANCH  15  26
ENDBRANCH  13  14
ENDBRANCH   6  13
BRANCH   6  29
HETATM   29  C   UNL     1     -10.803  11.462  64.434  1.00  0.00    -0.330 C  
HETATM   30  H   UNL     1     -10.609  11.562  62.455  1.00  0.00     0.000 HD 
HETATM   31  O   UNL     1     -10.054  11.550  63.226  1.00  0.00    -0.365 OA 
ENDBRANCH   6  29
ENDBRANCH   2   4
TORSDOF 5
ENDMDL
MODEL      104
REMARK 921   NORMALIZED FREE ENERGY PREDICTED BY IDOCK:   -4.29 KCAL/MOL
REMARK 922        TOTAL FREE ENERGY PREDICTED BY IDOCK:   -6.55 KCAL/MOL
REMARK 923 INTER-LIGAND FREE ENERGY PREDICTED BY IDOCK:   -5.45 KCAL/MOL
REMARK 924 INTRA-LIGAND FREE ENERGY PREDICTED BY IDOCK:   -1.09 KCAL/MOL
REMARK 927      BINDING AFFINITY PREDICTED BY RF-SCORE:    0.00 PKD
ROOT
HETATM    1  O   UNL     1     -11.059  11.564  63.236  1.00  0.00    -0.674 OA 
HETATM    2  C   UNL     1      -9.937  10.773  62.874  1.00  0.00    -0.185 C  
HETATM    3  H   UNL     1     -11.598  11.756  62.479  1.00  0.00     0.000 HD 
ENDROOT
BRANCH   2   4
HETATM    4  C   UNL     1      -9.070  10.463  64.092  1.00  0.00    -0.242 C  
HETATM    5  O   UNL     1      -8.996  11.629  64.933  1.00  0.00     0.071 OA 
HETATM    6  C   UNL     1      -8.727  11.172  66.271  1.00  0.00    -0.182 C  
HETATM    7  H   UNL     1     -11.506   9.388  66.765  1.00  0.00     0.000 HD 
HETATM    8  O   UNL     1      -8.662   8.208  64.924  1.00  0.00    -0.373 OA 
HETATM    9  C   UNL     1      -9.594   9.889  66.381  1.00  0.00    -0.200 C  
HETATM   10  C   UNL     1      -9.572   9.308  64.967  1.00  0.00     0.050 C  
HETATM   11  H   UNL     1      -8.973   7.493  65.466  1.00  0.00     0.000 HD 
HETATM   12  O   UNL     1     -10.975  10.173  66.698  1.00  0.00    -0.083 OA 
BRANCH   6  13
HETATM   13  O   UNL     1      -9.213  12.117  67.251  1.00  0.00    -0.175 OA 
BRANCH  13  14
HETATM   14  C   UNL     1      -9.096  13.495  66.874  1.00  0.00    -0.239 C  
HETATM   15  C   UNL     1     -11.442  13.862  67.073  1.00  0.00    -0.346 C  
HETATM   16  O   UNL     1     -10.282  13.965  66.229  1.00  0.00    -0.282 OA 
HETATM   17  H   UNL     1      -7.440  14.481  69.550  1.00  0.00     0.000 HD 
HETATM   18  C   UNL     1     -11.297  14.765  68.293  1.00  0.00    -0.301 C  
HETATM   19  O   UNL     1      -7.620  13.939  68.791  1.00  0.00    -0.129 OA 
HETATM   20  O   UNL     1     -12.418  14.664  69.179  1.00  0.00    -0.567 OA 
HETATM   21  C   UNL     1     -10.012  14.410  69.058  1.00  0.00    -0.129 C  
HETATM   22  H   UNL     1     -12.327  15.227  69.940  1.00  0.00     0.000 HD 
HETATM   23  O   UNL     1      -9.823  15.377  70.103  1.00  0.00    -0.433 OA 
HETATM   24  C   UNL     1      -8.803  14.381  68.113  1.00  0.00    -0.180 C  
HETATM   25  H   UNL     1      -9.029  15.158  70.576  1.00  0.00     0.000 HD 
BRANCH  15  26
HETATM   26  C   UNL     1     -12.664  14.216  66.221  1.00  0.00    -0.125 C  
HETATM   27  O   UNL     1     -12.417  13.849  64.860  1.00  0.00    -0.506 OA 
HETATM   28  H   UNL     1     -13.175  14.068  64.332  1.00  0.00     0.000 HD 
ENDBRANCH  15  26
ENDBRANCH  13  14
ENDBRANCH   6  13
BRANCH   6  29
HETATM   29  C   UNL     1      -7.210  10.850  66.403  1.00  0.00    -0.140 C  
HETATM   30  H   UNL     1      -6.045   9.440  67.189  1.00  0.00     0.000 HD 
HETATM   31  O   UNL     1      -6.971   9.636  67.108  1.00  0.00    -0.083 OA 
ENDBRANCH   6  29
ENDBRANCH   2   4
TORSDOF 5
ENDMDL
MODEL      105
REMARK 921   NORMALIZED FREE ENERGY PREDICTED BY IDOCK:   -4.27 KCAL/MOL
REMARK 922        TOTAL FREE ENERGY PREDICTED BY IDOCK:   -6.52 KCAL/MOL
REMARK 923 INTER-LIGAND FREE ENERGY PREDICTED BY IDOCK:   -5.44 KCAL/MOL
REMARK 924 INTRA-LIGAND FREE ENERGY PREDICTED BY IDOCK:   -1.08 KCAL/MOL
REMARK 927      BINDING AFFINITY PREDICTED BY RF-SCORE:    0.00 PKD
ROOT
HETATM    1  O   UNL     1     -12.399  15.563  68.923  1.00  0.00    -0.602 OA 
HETATM    2  C   UNL     1     -12.140  14.193  69.190  1.00  0.00    -0.325 C  
HETATM    3  H   UNL     1     -13.220  15.837  69.314  1.00  0.00     0.000 HD 
ENDROOT
BRANCH   2   4
HETATM    4  C   UNL     1     -10.820  13.753  68.562  1.00  0.00    -0.263 C  
HETATM    5  O   UNL     1     -10.650  12.336  68.754  1.00  0.00    -0.230 OA 
HETATM    6  C   UNL     1      -9.790  11.864  67.701  1.00  0.00    -0.187 C  
HETATM    7  H   UNL     1     -11.742  12.593  65.091  1.00  0.00     0.000 HD 
HETATM    8  O   UNL     1      -9.685  14.990  66.794  1.00  0.00    -0.226 OA 
HETATM    9  C   UNL     1     -10.274  12.674  66.468  1.00  0.00    -0.243 C  
HETATM   10  C   UNL     1     -10.699  14.019  67.056  1.00  0.00    -0.284 C  
HETATM   11  H   UNL     1      -9.610  15.155  65.861  1.00  0.00     0.000 HD 
HETATM   12  O   UNL     1     -11.445  12.098  65.846  1.00  0.00    -0.345 OA 
BRANCH   6  13
HETATM   13  O   UNL     1     -10.025  10.464  67.427  1.00  0.00    -0.176 OA 
BRANCH  13  14
HETATM   14  C   UNL     1      -8.945   9.588  67.779  1.00  0.00    -0.122 C  
HETATM   15  C   UNL     1     -10.430   7.841  68.430  1.00  0.00    -0.166 C  
HETATM   16  O   UNL     1      -9.324   8.679  68.814  1.00  0.00    -0.142 OA 
HETATM   17  H   UNL     1      -7.781   9.172  64.722  1.00  0.00     0.000 HD 
HETATM   18  C   UNL     1     -10.038   6.941  67.264  1.00  0.00    -0.198 C  
HETATM   19  O   UNL     1      -8.076   9.664  65.479  1.00  0.00    -0.116 OA 
HETATM   20  O   UNL     1     -11.124   6.116  66.826  1.00  0.00    -0.607 OA 
HETATM   21  C   UNL     1      -9.542   7.794  66.085  1.00  0.00    -0.034 C  
HETATM   22  H   UNL     1     -10.879   5.555  66.099  1.00  0.00     0.000 HD 
HETATM   23  O   UNL     1      -9.033   6.915  65.070  1.00  0.00    -0.344 OA 
HETATM   24  C   UNL     1      -8.463   8.785  66.542  1.00  0.00    -0.116 C  
HETATM   25  H   UNL     1      -8.727   7.442  64.341  1.00  0.00     0.000 HD 
BRANCH  15  26
HETATM   26  C   UNL     1     -10.860   7.049  69.667  1.00  0.00    -0.247 C  
HETATM   27  O   UNL     1     -10.527   5.669  69.487  1.00  0.00    -0.248 OA 
HETATM   28  H   UNL     1     -10.794   5.178  70.254  1.00  0.00     0.000 HD 
ENDBRANCH  15  26
ENDBRANCH  13  14
ENDBRANCH   6  13
BRANCH   6  29
HETATM   29  C   UNL     1      -8.314  12.198  68.060  1.00  0.00    -0.167 C  
HETATM   30  H   UNL     1      -6.629  12.712  67.132  1.00  0.00     0.000 HD 
HETATM   31  O   UNL     1      -7.531  12.508  66.912  1.00  0.00    -0.054 OA 
ENDBRANCH   6  29
ENDBRANCH   2   4
TORSDOF 5
ENDMDL
MODEL      106
REMARK 921   NORMALIZED FREE ENERGY PREDICTED BY IDOCK:   -4.26 KCAL/MOL
REMARK 922        TOTAL FREE ENERGY PREDICTED BY IDOCK:   -6.52 KCAL/MOL
REMARK 923 INTER-LIGAND FREE ENERGY PREDICTED BY IDOCK:   -5.50 KCAL/MOL
REMARK 924 INTRA-LIGAND FREE ENERGY PREDICTED BY IDOCK:   -1.02 KCAL/MOL
REMARK 927      BINDING AFFINITY PREDICTED BY RF-SCORE:    0.00 PKD
ROOT
HETATM    1  O   UNL     1     -13.341  15.259  70.374  1.00  0.00    -0.682 OA 
HETATM    2  C   UNL     1     -12.363  14.285  70.041  1.00  0.00    -0.346 C  
HETATM    3  H   UNL     1     -14.128  14.849  70.711  1.00  0.00     0.000 HD 
ENDROOT
BRANCH   2   4
HETATM    4  C   UNL     1     -11.097  14.944  69.499  1.00  0.00    -0.281 C  
HETATM    5  O   UNL     1     -10.179  13.925  69.062  1.00  0.00    -0.179 OA 
HETATM    6  C   UNL     1      -9.332  14.517  68.059  1.00  0.00    -0.201 C  
HETATM    7  H   UNL     1     -11.668  15.222  65.779  1.00  0.00     0.000 HD 
HETATM    8  O   UNL     1     -11.012  17.237  68.674  1.00  0.00    -0.260 OA 
HETATM    9  C   UNL     1     -10.315  15.413  67.260  1.00  0.00    -0.271 C  
HETATM   10  C   UNL     1     -11.317  15.890  68.312  1.00  0.00    -0.342 C  
HETATM   11  H   UNL     1     -11.149  17.823  67.939  1.00  0.00     0.000 HD 
HETATM   12  O   UNL     1     -11.065  14.674  66.269  1.00  0.00    -0.325 OA 
BRANCH   6  13
HETATM   13  O   UNL     1      -8.818  13.512  67.155  1.00  0.00    -0.212 OA 
BRANCH  13  14
HETATM   14  C   UNL     1      -9.210  12.167  67.458  1.00  0.00    -0.182 C  
HETATM   15  C   UNL     1      -9.201  11.531  65.161  1.00  0.00    -0.051 C  
HETATM   16  O   UNL     1      -9.954  11.584  66.386  1.00  0.00    -0.200 OA 
HETATM   17  H   UNL     1      -6.432  11.302  69.011  1.00  0.00     0.000 HD 
HETATM   18  C   UNL     1      -7.990  10.618  65.317  1.00  0.00    -0.060 C  
HETATM   19  O   UNL     1      -7.192  11.840  68.828  1.00  0.00    -0.102 OA 
HETATM   20  O   UNL     1      -7.192  10.568  64.129  1.00  0.00    -0.329 OA 
HETATM   21  C   UNL     1      -7.121  11.095  66.492  1.00  0.00    -0.124 C  
HETATM   22  H   UNL     1      -6.437   9.998  64.227  1.00  0.00     0.000 HD 
HETATM   23  O   UNL     1      -6.083  10.127  66.712  1.00  0.00    -0.057 OA 
HETATM   24  C   UNL     1      -7.968  11.286  67.758  1.00  0.00    -0.117 C  
HETATM   25  H   UNL     1      -5.545  10.422  67.438  1.00  0.00     0.000 HD 
BRANCH  15  26
HETATM   26  C   UNL     1     -10.151  11.065  64.055  1.00  0.00    -0.350 C  
HETATM   27  O   UNL     1     -10.669  12.205  63.362  1.00  0.00    -0.482 OA 
HETATM   28  H   UNL     1     -11.258  11.916  62.676  1.00  0.00     0.000 HD 
ENDBRANCH  15  26
ENDBRANCH  13  14
ENDBRANCH   6  13
BRANCH   6  29
HETATM   29  C   UNL     1      -8.229  15.361  68.758  1.00  0.00    -0.172 C  
HETATM   30  H   UNL     1      -7.368  17.147  68.568  1.00  0.00     0.000 HD 
HETATM   31  O   UNL     1      -8.042  16.631  68.141  1.00  0.00    -0.176 OA 
ENDBRANCH   6  29
ENDBRANCH   2   4
TORSDOF 5
ENDMDL
MODEL      107
REMARK 921   NORMALIZED FREE ENERGY PREDICTED BY IDOCK:   -4.26 KCAL/MOL
REMARK 922        TOTAL FREE ENERGY PREDICTED BY IDOCK:   -6.51 KCAL/MOL
REMARK 923 INTER-LIGAND FREE ENERGY PREDICTED BY IDOCK:   -5.57 KCAL/MOL
REMARK 924 INTRA-LIGAND FREE ENERGY PREDICTED BY IDOCK:   -0.94 KCAL/MOL
REMARK 927      BINDING AFFINITY PREDICTED BY RF-SCORE:    0.00 PKD
ROOT
HETATM    1  O   UNL     1     -11.433   4.461  65.185  1.00  0.00    -1.069 OA 
HETATM    2  C   UNL     1     -10.081   4.141  64.889  1.00  0.00    -0.202 C  
HETATM    3  H   UNL     1     -12.026   4.004  64.601  1.00  0.00     0.000 HD 
ENDROOT
BRANCH   2   4
HETATM    4  C   UNL     1      -9.127   4.875  65.829  1.00  0.00    -0.148 C  
HETATM    5  O   UNL     1      -9.631   6.200  66.079  1.00  0.00    -0.090 OA 
HETATM    6  C   UNL     1      -9.107   6.622  67.352  1.00  0.00    -0.120 C  
HETATM    7  H   UNL     1     -10.539   4.303  69.281  1.00  0.00     0.000 HD 
HETATM    8  O   UNL     1      -7.576   3.748  67.335  1.00  0.00    -0.074 OA 
HETATM    9  C   UNL     1      -9.180   5.326  68.203  1.00  0.00    -0.113 C  
HETATM   10  C   UNL     1      -8.921   4.208  67.194  1.00  0.00    -0.128 C  
HETATM   11  H   UNL     1      -7.449   3.334  68.180  1.00  0.00     0.000 HD 
HETATM   12  O   UNL     1     -10.494   5.096  68.759  1.00  0.00    -0.148 OA 
BRANCH   6  13
HETATM   13  O   UNL     1      -9.970   7.604  67.970  1.00  0.00    -0.162 OA 
BRANCH  13  14
HETATM   14  C   UNL     1      -9.291   8.625  68.713  1.00  0.00    -0.142 C  
HETATM   15  C   UNL     1     -10.766  10.326  67.931  1.00  0.00    -0.264 C  
HETATM   16  O   UNL     1      -9.399   9.898  68.073  1.00  0.00    -0.131 OA 
HETATM   17  H   UNL     1     -10.117   7.527  71.711  1.00  0.00     0.000 HD 
HETATM   18  C   UNL     1     -11.403  10.539  69.300  1.00  0.00    -0.262 C  
HETATM   19  O   UNL     1      -9.770   7.466  70.829  1.00  0.00    -0.171 OA 
HETATM   20  O   UNL     1     -12.777  10.930  69.203  1.00  0.00    -0.605 OA 
HETATM   21  C   UNL     1     -11.300   9.252  70.133  1.00  0.00    -0.164 C  
HETATM   22  H   UNL     1     -13.174  11.063  70.057  1.00  0.00     0.000 HD 
HETATM   23  O   UNL     1     -11.762   9.532  71.463  1.00  0.00    -0.355 OA 
HETATM   24  C   UNL     1      -9.858   8.726  70.153  1.00  0.00    -0.176 C  
HETATM   25  H   UNL     1     -11.699   8.736  71.978  1.00  0.00     0.000 HD 
BRANCH  15  26
HETATM   26  C   UNL     1     -10.765  11.597  67.078  1.00  0.00    -0.253 C  
HETATM   27  O   UNL     1     -12.114  11.982  66.798  1.00  0.00    -0.613 OA 
HETATM   28  H   UNL     1     -12.114  12.771  66.269  1.00  0.00     0.000 HD 
ENDBRANCH  15  26
ENDBRANCH  13  14
ENDBRANCH   6  13
BRANCH   6  29
HETATM   29  C   UNL     1      -7.639   7.100  67.164  1.00  0.00    -0.103 C  
HETATM   30  H   UNL     1      -6.539   8.048  65.801  1.00  0.00     0.000 HD 
HETATM   31  O   UNL     1      -7.436   7.756  65.916  1.00  0.00    -0.077 OA 
ENDBRANCH   6  29
ENDBRANCH   2   4
TORSDOF 5
ENDMDL
MODEL      108
REMARK 921   NORMALIZED FREE ENERGY PREDICTED BY IDOCK:   -4.26 KCAL/MOL
REMARK 922        TOTAL FREE ENERGY PREDICTED BY IDOCK:   -6.51 KCAL/MOL
REMARK 923 INTER-LIGAND FREE ENERGY PREDICTED BY IDOCK:   -6.11 KCAL/MOL
REMARK 924 INTRA-LIGAND FREE ENERGY PREDICTED BY IDOCK:   -0.39 KCAL/MOL
REMARK 927      BINDING AFFINITY PREDICTED BY RF-SCORE:    0.00 PKD
ROOT
HETATM    1  O   UNL     1      -5.523   7.709  67.031  1.00  0.00    -0.029 OA 
HETATM    2  C   UNL     1      -6.175   8.965  67.158  1.00  0.00    -0.059 C  
HETATM    3  H   UNL     1      -4.581   7.807  67.096  1.00  0.00     0.000 HD 
ENDROOT
BRANCH   2   4
HETATM    4  C   UNL     1      -7.690   8.807  67.054  1.00  0.00    -0.095 C  
HETATM    5  O   UNL     1      -8.328   9.998  67.552  1.00  0.00    -0.117 OA 
HETATM    6  C   UNL     1      -9.617  10.088  66.917  1.00  0.00    -0.175 C  
HETATM    7  H   UNL     1      -8.600  10.388  63.750  1.00  0.00     0.000 HD 
HETATM    8  O   UNL     1      -8.788   7.269  65.513  1.00  0.00    -0.337 OA 
HETATM    9  C   UNL     1      -9.322   9.620  65.466  1.00  0.00    -0.248 C  
HETATM   10  C   UNL     1      -8.220   8.574  65.634  1.00  0.00    -0.130 C  
HETATM   11  H   UNL     1      -9.116   7.125  64.634  1.00  0.00     0.000 HD 
HETATM   12  O   UNL     1      -8.780  10.674  64.638  1.00  0.00    -0.184 OA 
BRANCH   6  13
HETATM   13  O   UNL     1     -10.070  11.460  66.853  1.00  0.00    -0.206 OA 
BRANCH  13  14
HETATM   14  C   UNL     1     -11.491  11.624  66.760  1.00  0.00    -0.225 C  
HETATM   15  C   UNL     1     -11.512  13.338  68.415  1.00  0.00    -0.314 C  
HETATM   16  O   UNL     1     -12.050  12.071  67.997  1.00  0.00    -0.514 OA 
HETATM   17  H   UNL     1     -11.532  12.840  63.694  1.00  0.00     0.000 HD 
HETATM   18  C   UNL     1     -11.883  14.431  67.420  1.00  0.00    -0.400 C  
HETATM   19  O   UNL     1     -11.309  12.222  64.380  1.00  0.00    -0.307 OA 
HETATM   20  O   UNL     1     -11.334  15.704  67.782  1.00  0.00    -0.326 OA 
HETATM   21  C   UNL     1     -11.394  14.049  66.014  1.00  0.00    -0.328 C  
HETATM   22  H   UNL     1     -11.566  16.385  67.161  1.00  0.00     0.000 HD 
HETATM   23  O   UNL     1     -11.897  15.016  65.079  1.00  0.00    -0.329 OA 
HETATM   24  C   UNL     1     -11.856  12.634  65.639  1.00  0.00    -0.437 C  
HETATM   25  H   UNL     1     -11.594  14.781  64.210  1.00  0.00     0.000 HD 
BRANCH  15  26
HETATM   26  C   UNL     1     -12.040  13.620  69.825  1.00  0.00    -0.334 C  
HETATM   27  O   UNL     1     -11.093  14.424  70.534  1.00  0.00    -0.490 OA 
HETATM   28  H   UNL     1     -11.420  14.600  71.408  1.00  0.00     0.000 HD 
ENDBRANCH  15  26
ENDBRANCH  13  14
ENDBRANCH   6  13
BRANCH   6  29
HETATM   29  C   UNL     1     -10.607   9.128  67.637  1.00  0.00    -0.242 C  
HETATM   30  H   UNL     1     -11.482   7.369  67.317  1.00  0.00     0.000 HD 
HETATM   31  O   UNL     1     -10.877   7.955  66.877  1.00  0.00    -0.288 OA 
ENDBRANCH   6  29
ENDBRANCH   2   4
TORSDOF 5
ENDMDL
MODEL      109
REMARK 921   NORMALIZED FREE ENERGY PREDICTED BY IDOCK:   -4.25 KCAL/MOL
REMARK 922        TOTAL FREE ENERGY PREDICTED BY IDOCK:   -6.49 KCAL/MOL
REMARK 923 INTER-LIGAND FREE ENERGY PREDICTED BY IDOCK:   -6.04 KCAL/MOL
REMARK 924 INTRA-LIGAND FREE ENERGY PREDICTED BY IDOCK:   -0.45 KCAL/MOL
REMARK 927      BINDING AFFINITY PREDICTED BY RF-SCORE:    0.00 PKD
ROOT
HETATM    1  O   UNL     1      -6.917  19.057  69.144  1.00  0.00    -0.316 OA 
HETATM    2  C   UNL     1      -7.016  17.641  69.203  1.00  0.00    -0.217 C  
HETATM    3  H   UNL     1      -6.175  19.367  69.648  1.00  0.00     0.000 HD 
ENDROOT
BRANCH   2   4
HETATM    4  C   UNL     1      -8.209  17.142  68.392  1.00  0.00    -0.253 C  
HETATM    5  O   UNL     1      -8.640  15.870  68.912  1.00  0.00    -0.191 OA 
HETATM    6  C   UNL     1     -10.033  15.724  68.580  1.00  0.00    -0.208 C  
HETATM    7  H   UNL     1     -11.239  18.311  70.312  1.00  0.00     0.000 HD 
HETATM    8  O   UNL     1      -9.672  18.601  67.098  1.00  0.00    -0.289 OA 
HETATM    9  C   UNL     1     -10.593  17.155  68.795  1.00  0.00    -0.336 C  
HETATM   10  C   UNL     1      -9.431  18.068  68.401  1.00  0.00    -0.308 C  
HETATM   11  H   UNL     1     -10.429  19.175  67.104  1.00  0.00     0.000 HD 
HETATM   12  O   UNL     1     -10.896  17.434  70.180  1.00  0.00     0.292 OA 
BRANCH   6  13
HETATM   13  O   UNL     1     -10.700  14.845  69.514  1.00  0.00    -0.245 OA 
BRANCH  13  14
HETATM   14  C   UNL     1     -12.060  14.531  69.184  1.00  0.00    -0.264 C  
HETATM   15  C   UNL     1     -11.545  12.241  68.772  1.00  0.00    -0.330 C  
HETATM   16  O   UNL     1     -12.137  13.447  68.256  1.00  0.00    -0.343 OA 
HETATM   17  H   UNL     1     -13.303  15.015  72.200  1.00  0.00     0.000 HD 
HETATM   18  C   UNL     1     -12.316  11.747  69.991  1.00  0.00    -0.160 C  
HETATM   19  O   UNL     1     -12.810  15.235  71.419  1.00  0.00    -0.347 OA 
HETATM   20  O   UNL     1     -11.735  10.566  70.558  1.00  0.00    -0.298 OA 
HETATM   21  C   UNL     1     -12.369  12.849  71.061  1.00  0.00    -0.225 C  
HETATM   22  H   UNL     1     -12.216  10.258  71.318  1.00  0.00     0.000 HD 
HETATM   23  O   UNL     1     -13.232  12.412  72.122  1.00  0.00    -0.491 OA 
HETATM   24  C   UNL     1     -12.866  14.171  70.460  1.00  0.00    -0.247 C  
HETATM   25  H   UNL     1     -13.265  13.093  72.784  1.00  0.00     0.000 HD 
BRANCH  15  26
HETATM   26  C   UNL     1     -11.522  11.216  67.635  1.00  0.00    -0.250 C  
HETATM   27  O   UNL     1     -11.976  11.836  66.428  1.00  0.00    -0.515 OA 
HETATM   28  H   UNL     1     -11.961  11.201  65.722  1.00  0.00     0.000 HD 
ENDBRANCH  15  26
ENDBRANCH  13  14
ENDBRANCH   6  13
BRANCH   6  29
HETATM   29  C   UNL     1     -10.157  15.279  67.094  1.00  0.00    -0.240 C  
HETATM   30  H   UNL     1      -9.378  13.912  65.873  1.00  0.00     0.000 HD 
HETATM   31  O   UNL     1      -9.303  14.184  66.781  1.00  0.00    -0.261 OA 
ENDBRANCH   6  29
ENDBRANCH   2   4
TORSDOF 5
ENDMDL
MODEL      110
REMARK 921   NORMALIZED FREE ENERGY PREDICTED BY IDOCK:   -4.23 KCAL/MOL
REMARK 922        TOTAL FREE ENERGY PREDICTED BY IDOCK:   -6.47 KCAL/MOL
REMARK 923 INTER-LIGAND FREE ENERGY PREDICTED BY IDOCK:   -5.40 KCAL/MOL
REMARK 924 INTRA-LIGAND FREE ENERGY PREDICTED BY IDOCK:   -1.07 KCAL/MOL
REMARK 927      BINDING AFFINITY PREDICTED BY RF-SCORE:    0.00 PKD
ROOT
HETATM    1  O   UNL     1     -11.525  11.771  68.529  1.00  0.00    -0.245 OA 
HETATM    2  C   UNL     1     -10.310  12.119  67.882  1.00  0.00    -0.206 C  
HETATM    3  H   UNL     1     -12.211  12.392  68.320  1.00  0.00     0.000 HD 
ENDROOT
BRANCH   2   4
HETATM    4  C   UNL     1      -9.205  11.120  68.218  1.00  0.00    -0.169 C  
HETATM    5  O   UNL     1      -9.451  10.559  69.521  1.00  0.00    -0.179 OA 
HETATM    6  C   UNL     1      -8.813   9.269  69.556  1.00  0.00    -0.151 C  
HETATM    7  H   UNL     1     -10.573   7.771  67.146  1.00  0.00     0.000 HD 
HETATM    8  O   UNL     1      -7.832  10.005  66.540  1.00  0.00    -0.109 OA 
HETATM    9  C   UNL     1      -9.090   8.706  68.136  1.00  0.00    -0.141 C  
HETATM   10  C   UNL     1      -9.075   9.945  67.241  1.00  0.00    -0.135 C  
HETATM   11  H   UNL     1      -7.752   9.278  65.934  1.00  0.00     0.000 HD 
HETATM   12  O   UNL     1     -10.403   8.115  68.015  1.00  0.00    -0.208 OA 
BRANCH   6  13
HETATM   13  O   UNL     1      -9.461   8.395  70.509  1.00  0.00    -0.163 OA 
BRANCH  13  14
HETATM   14  C   UNL     1     -10.152   9.064  71.572  1.00  0.00    -0.339 C  
HETATM   15  C   UNL     1     -12.001   7.564  71.460  1.00  0.00    -0.307 C  
HETATM   16  O   UNL     1     -11.569   8.936  71.437  1.00  0.00    -0.270 OA 
HETATM   17  H   UNL     1      -8.030   8.265  73.967  1.00  0.00     0.000 HD 
HETATM   18  C   UNL     1     -11.694   6.930  72.812  1.00  0.00    -0.007 C  
HETATM   19  O   UNL     1      -8.297   8.609  73.123  1.00  0.00    -0.405 OA 
HETATM   20  O   UNL     1     -12.075   5.550  72.863  1.00  0.00    -0.542 OA 
HETATM   21  C   UNL     1     -10.193   7.053  73.121  1.00  0.00    -0.255 C  
HETATM   22  H   UNL     1     -11.884   5.155  73.706  1.00  0.00     0.000 HD 
HETATM   23  O   UNL     1      -9.966   6.593  74.463  1.00  0.00    -0.349 OA 
HETATM   24  C   UNL     1      -9.716   8.502  72.951  1.00  0.00    -0.091 C  
HETATM   25  H   UNL     1      -9.038   6.669  74.654  1.00  0.00     0.000 HD 
BRANCH  15  26
HETATM   26  C   UNL     1     -13.495   7.545  71.126  1.00  0.00    -0.153 C  
HETATM   27  O   UNL     1     -14.228   7.073  72.260  1.00  0.00    -0.596 OA 
HETATM   28  H   UNL     1     -15.155   7.061  72.053  1.00  0.00     0.000 HD 
ENDBRANCH  15  26
ENDBRANCH  13  14
ENDBRANCH   6  13
BRANCH   6  29
HETATM   29  C   UNL     1      -7.290   9.460  69.808  1.00  0.00    -0.083 C  
HETATM   30  H   UNL     1      -6.086  10.665  70.839  1.00  0.00     0.000 HD 
HETATM   31  O   UNL     1      -7.016  10.548  70.686  1.00  0.00    -0.300 OA 
ENDBRANCH   6  29
ENDBRANCH   2   4
TORSDOF 5
ENDMDL
MODEL      111
REMARK 921   NORMALIZED FREE ENERGY PREDICTED BY IDOCK:   -4.20 KCAL/MOL
REMARK 922        TOTAL FREE ENERGY PREDICTED BY IDOCK:   -6.43 KCAL/MOL
REMARK 923 INTER-LIGAND FREE ENERGY PREDICTED BY IDOCK:   -6.17 KCAL/MOL
REMARK 924 INTRA-LIGAND FREE ENERGY PREDICTED BY IDOCK:   -0.26 KCAL/MOL
REMARK 927      BINDING AFFINITY PREDICTED BY RF-SCORE:    0.00 PKD
ROOT
HETATM    1  O   UNL     1      -5.736  20.307  66.097  1.00  0.00    -0.171 OA 
HETATM    2  C   UNL     1      -6.593  19.438  65.372  1.00  0.00    -0.278 C  
HETATM    3  H   UNL     1      -5.008  20.594  65.559  1.00  0.00     0.000 HD 
ENDROOT
BRANCH   2   4
HETATM    4  C   UNL     1      -7.763  18.976  66.237  1.00  0.00    -0.278 C  
HETATM    5  O   UNL     1      -8.148  17.645  65.846  1.00  0.00    -0.535 OA 
HETATM    6  C   UNL     1      -8.776  17.031  66.987  1.00  0.00    -0.221 C  
HETATM    7  H   UNL     1      -6.172  17.067  69.076  1.00  0.00     0.000 HD 
HETATM    8  O   UNL     1      -8.271  19.905  68.433  1.00  0.00    -0.286 OA 
HETATM    9  C   UNL     1      -7.910  17.535  68.172  1.00  0.00    -0.244 C  
HETATM   10  C   UNL     1      -7.479  18.937  67.743  1.00  0.00    -0.239 C  
HETATM   11  H   UNL     1      -8.095  19.881  69.366  1.00  0.00     0.000 HD 
HETATM   12  O   UNL     1      -6.703  16.760  68.350  1.00  0.00    -0.145 OA 
BRANCH   6  13
HETATM   13  O   UNL     1      -8.656  15.591  66.934  1.00  0.00    -0.213 OA 
BRANCH  13  14
HETATM   14  C   UNL     1      -9.325  14.888  67.989  1.00  0.00    -0.193 C  
HETATM   15  C   UNL     1     -10.992  14.037  66.514  1.00  0.00    -0.306 C  
HETATM   16  O   UNL     1     -10.724  14.760  67.729  1.00  0.00    -0.260 OA 
HETATM   17  H   UNL     1      -6.925  12.701  68.568  1.00  0.00     0.000 HD 
HETATM   18  C   UNL     1     -10.498  12.600  66.628  1.00  0.00    -0.245 C  
HETATM   19  O   UNL     1      -7.302  13.564  68.447  1.00  0.00    -0.098 OA 
HETATM   20  O   UNL     1     -10.712  11.855  65.423  1.00  0.00    -0.267 OA 
HETATM   21  C   UNL     1      -9.000  12.585  66.973  1.00  0.00    -0.211 C  
HETATM   22  H   UNL     1     -10.405  10.959  65.494  1.00  0.00     0.000 HD 
HETATM   23  O   UNL     1      -8.606  11.227  67.229  1.00  0.00    -0.137 OA 
HETATM   24  C   UNL     1      -8.709  13.478  68.187  1.00  0.00    -0.174 C  
HETATM   25  H   UNL     1      -7.680  11.218  67.442  1.00  0.00     0.000 HD 
BRANCH  15  26
HETATM   26  C   UNL     1     -12.497  14.124  66.249  1.00  0.00    -0.362 C  
HETATM   27  O   UNL     1     -12.764  13.731  64.899  1.00  0.00    -0.637 OA 
HETATM   28  H   UNL     1     -13.698  13.785  64.734  1.00  0.00     0.000 HD 
ENDBRANCH  15  26
ENDBRANCH  13  14
ENDBRANCH   6  13
BRANCH   6  29
HETATM   29  C   UNL     1     -10.243  17.539  67.095  1.00  0.00    -0.323 C  
HETATM   30  H   UNL     1     -11.618  18.393  65.935  1.00  0.00     0.000 HD 
HETATM   31  O   UNL     1     -10.722  18.082  65.869  1.00  0.00    -0.349 OA 
ENDBRANCH   6  29
ENDBRANCH   2   4
TORSDOF 5
ENDMDL
MODEL      112
REMARK 921   NORMALIZED FREE ENERGY PREDICTED BY IDOCK:   -4.20 KCAL/MOL
REMARK 922        TOTAL FREE ENERGY PREDICTED BY IDOCK:   -6.43 KCAL/MOL
REMARK 923 INTER-LIGAND FREE ENERGY PREDICTED BY IDOCK:   -5.93 KCAL/MOL
REMARK 924 INTRA-LIGAND FREE ENERGY PREDICTED BY IDOCK:   -0.50 KCAL/MOL
REMARK 927      BINDING AFFINITY PREDICTED BY RF-SCORE:    0.00 PKD
ROOT
HETATM    1  O   UNL     1     -10.529  20.394  66.321  1.00  0.00    -0.298 OA 
HETATM    2  C   UNL     1      -9.298  20.517  67.020  1.00  0.00    -0.345 C  
HETATM    3  H   UNL     1     -10.904  21.247  66.142  1.00  0.00     0.000 HD 
ENDROOT
BRANCH   2   4
HETATM    4  C   UNL     1      -8.694  19.144  67.309  1.00  0.00    -0.286 C  
HETATM    5  O   UNL     1      -9.397  18.536  68.408  1.00  0.00    -0.312 OA 
HETATM    6  C   UNL     1      -9.251  17.111  68.271  1.00  0.00    -0.262 C  
HETATM    7  H   UNL     1     -10.822  16.721  65.350  1.00  0.00     0.000 HD 
HETATM    8  O   UNL     1      -7.432  17.850  65.672  1.00  0.00    -0.544 OA 
HETATM    9  C   UNL     1      -9.374  16.895  66.739  1.00  0.00    -0.251 C  
HETATM   10  C   UNL     1      -8.748  18.154  66.139  1.00  0.00    -0.090 C  
HETATM   11  H   UNL     1      -7.466  17.237  64.948  1.00  0.00     0.000 HD 
HETATM   12  O   UNL     1     -10.747  16.852  66.289  1.00  0.00    -0.229 OA 
BRANCH   6  13
HETATM   13  O   UNL     1     -10.348  16.412  68.903  1.00  0.00    -0.236 OA 
BRANCH  13  14
HETATM   14  C   UNL     1      -9.961  15.371  69.810  1.00  0.00    -0.241 C  
HETATM   15  C   UNL     1     -12.030  15.479  70.987  1.00  0.00    -0.381 C  
HETATM   16  O   UNL     1     -10.595  15.522  71.082  1.00  0.00    -0.124 OA 
HETATM   17  H   UNL     1      -9.906  12.933  67.589  1.00  0.00     0.000 HD 
HETATM   18  C   UNL     1     -12.492  14.111  70.498  1.00  0.00    -0.361 C  
HETATM   19  O   UNL     1      -9.693  13.787  67.947  1.00  0.00    -0.215 OA 
HETATM   20  O   UNL     1     -13.916  14.039  70.355  1.00  0.00     0.234 OA 
HETATM   21  C   UNL     1     -11.830  13.785  69.150  1.00  0.00    -0.354 C  
HETATM   22  H   UNL     1     -14.204  13.186  70.050  1.00  0.00     0.000 HD 
HETATM   23  O   UNL     1     -12.159  12.432  68.798  1.00  0.00    -0.269 OA 
HETATM   24  C   UNL     1     -10.309  13.976  69.227  1.00  0.00     0.038 C  
HETATM   25  H   UNL     1     -11.750  12.230  67.964  1.00  0.00     0.000 HD 
BRANCH  15  26
HETATM   26  C   UNL     1     -12.593  15.833  72.367  1.00  0.00    -0.453 C  
HETATM   27  O   UNL     1     -14.023  15.822  72.312  1.00  0.00    -0.495 OA 
HETATM   28  H   UNL     1     -14.373  16.041  73.168  1.00  0.00     0.000 HD 
ENDBRANCH  15  26
ENDBRANCH  13  14
ENDBRANCH   6  13
BRANCH   6  29
HETATM   29  C   UNL     1      -7.848  16.690  68.796  1.00  0.00    -0.238 C  
HETATM   30  H   UNL     1      -6.253  17.534  69.637  1.00  0.00     0.000 HD 
HETATM   31  O   UNL     1      -7.110  17.791  69.316  1.00  0.00    -0.220 OA 
ENDBRANCH   6  29
ENDBRANCH   2   4
TORSDOF 5
ENDMDL
MODEL      113
REMARK 921   NORMALIZED FREE ENERGY PREDICTED BY IDOCK:   -4.16 KCAL/MOL
REMARK 922        TOTAL FREE ENERGY PREDICTED BY IDOCK:   -6.38 KCAL/MOL
REMARK 923 INTER-LIGAND FREE ENERGY PREDICTED BY IDOCK:   -5.70 KCAL/MOL
REMARK 924 INTRA-LIGAND FREE ENERGY PREDICTED BY IDOCK:   -0.68 KCAL/MOL
REMARK 927      BINDING AFFINITY PREDICTED BY RF-SCORE:    0.00 PKD
ROOT
HETATM    1  O   UNL     1      -7.509  15.322  66.560  1.00  0.00    -0.231 OA 
HETATM    2  C   UNL     1      -8.558  15.322  67.517  1.00  0.00    -0.177 C  
HETATM    3  H   UNL     1      -6.850  15.970  66.778  1.00  0.00     0.000 HD 
ENDROOT
BRANCH   2   4
HETATM    4  C   UNL     1      -9.618  14.280  67.166  1.00  0.00    -0.245 C  
HETATM    5  O   UNL     1      -9.271  13.024  67.779  1.00  0.00    -0.183 OA 
HETATM    6  C   UNL     1     -10.494  12.284  67.954  1.00  0.00    -0.213 C  
HETATM    7  H   UNL     1     -12.047  14.366  70.052  1.00  0.00     0.000 HD 
HETATM    8  O   UNL     1     -11.895  14.838  66.499  1.00  0.00    -0.332 OA 
HETATM    9  C   UNL     1     -11.505  13.381  68.381  1.00  0.00    -0.316 C  
HETATM   10  C   UNL     1     -11.041  14.625  67.623  1.00  0.00    -0.304 C  
HETATM   11  H   UNL     1     -12.776  15.051  66.782  1.00  0.00     0.000 HD 
HETATM   12  O   UNL     1     -11.428  13.694  69.790  1.00  0.00    -0.251 OA 
BRANCH   6  13
HETATM   13  O   UNL     1     -10.379  11.342  69.045  1.00  0.00    -0.205 OA 
BRANCH  13  14
HETATM   14  C   UNL     1     -11.325  10.264  69.017  1.00  0.00    -0.180 C  
HETATM   15  C   UNL     1      -9.608   8.617  68.880  1.00  0.00    -0.159 C  
HETATM   16  O   UNL     1     -10.816   9.139  68.298  1.00  0.00    -0.163 OA 
HETATM   17  H   UNL     1     -12.442  10.660  72.095  1.00  0.00     0.000 HD 
HETATM   18  C   UNL     1      -9.880   8.076  70.279  1.00  0.00    -0.184 C  
HETATM   19  O   UNL     1     -12.213  10.929  71.214  1.00  0.00    -0.341 OA 
HETATM   20  O   UNL     1      -8.693   7.580  70.909  1.00  0.00    -0.139 OA 
HETATM   21  C   UNL     1     -10.498   9.176  71.157  1.00  0.00    -0.315 C  
HETATM   22  H   UNL     1      -8.863   7.242  71.781  1.00  0.00     0.000 HD 
HETATM   23  O   UNL     1     -10.887   8.594  72.410  1.00  0.00    -0.343 OA 
HETATM   24  C   UNL     1     -11.700   9.825  70.457  1.00  0.00    -0.268 C  
HETATM   25  H   UNL     1     -11.268   9.274  72.953  1.00  0.00     0.000 HD 
BRANCH  15  26
HETATM   26  C   UNL     1      -9.064   7.547  67.930  1.00  0.00    -0.130 C  
HETATM   27  O   UNL     1      -9.446   6.252  68.405  1.00  0.00    -0.120 OA 
HETATM   28  H   UNL     1      -9.109   5.588  67.816  1.00  0.00     0.000 HD 
ENDBRANCH  15  26
ENDBRANCH  13  14
ENDBRANCH   6  13
BRANCH   6  29
HETATM   29  C   UNL     1     -10.894  11.634  66.598  1.00  0.00    -0.283 C  
HETATM   30  H   UNL     1     -12.384  11.722  65.281  1.00  0.00     0.000 HD 
HETATM   31  O   UNL     1     -12.140  12.119  66.109  1.00  0.00    -0.621 OA 
ENDBRANCH   6  29
ENDBRANCH   2   4
TORSDOF 5
ENDMDL
MODEL      114
REMARK 921   NORMALIZED FREE ENERGY PREDICTED BY IDOCK:   -4.13 KCAL/MOL
REMARK 922        TOTAL FREE ENERGY PREDICTED BY IDOCK:   -6.35 KCAL/MOL
REMARK 923 INTER-LIGAND FREE ENERGY PREDICTED BY IDOCK:   -5.44 KCAL/MOL
REMARK 924 INTRA-LIGAND FREE ENERGY PREDICTED BY IDOCK:   -0.91 KCAL/MOL
REMARK 927      BINDING AFFINITY PREDICTED BY RF-SCORE:    0.00 PKD
ROOT
HETATM    1  O   UNL     1      -7.252  16.727  68.251  1.00  0.00    -0.162 OA 
HETATM    2  C   UNL     1      -7.658  16.978  66.914  1.00  0.00    -0.209 C  
HETATM    3  H   UNL     1      -6.336  16.946  68.375  1.00  0.00     0.000 HD 
ENDROOT
BRANCH   2   4
HETATM    4  C   UNL     1      -9.131  16.625  66.715  1.00  0.00    -0.237 C  
HETATM    5  O   UNL     1      -9.240  15.245  66.322  1.00  0.00    -0.281 OA 
HETATM    6  C   UNL     1     -10.547  14.791  66.719  1.00  0.00    -0.302 C  
HETATM    7  H   UNL     1     -10.233  15.179  70.021  1.00  0.00     0.000 HD 
HETATM    8  O   UNL     1     -10.968  17.853  67.745  1.00  0.00    -0.307 OA 
HETATM    9  C   UNL     1     -10.748  15.477  68.097  1.00  0.00    -0.282 C  
HETATM   10  C   UNL     1     -10.014  16.811  67.954  1.00  0.00    -0.268 C  
HETATM   11  H   UNL     1     -11.515  17.968  68.513  1.00  0.00     0.000 HD 
HETATM   12  O   UNL     1     -10.111  14.759  69.177  1.00  0.00    -0.224 OA 
BRANCH   6  13
HETATM   13  O   UNL     1     -10.558  13.361  66.934  1.00  0.00    -0.270 OA 
BRANCH  13  14
HETATM   14  C   UNL     1      -9.289  12.715  66.774  1.00  0.00    -0.232 C  
HETATM   15  C   UNL     1      -9.842  11.001  68.335  1.00  0.00    -0.182 C  
HETATM   16  O   UNL     1      -8.899  12.023  67.962  1.00  0.00    -0.165 OA 
HETATM   17  H   UNL     1      -9.739  11.760  63.649  1.00  0.00     0.000 HD 
HETATM   18  C   UNL     1      -9.899   9.913  67.269  1.00  0.00    -0.182 C  
HETATM   19  O   UNL     1      -9.716  12.372  64.376  1.00  0.00    -0.114 OA 
HETATM   20  O   UNL     1     -10.855   8.894  67.585  1.00  0.00    -0.468 OA 
HETATM   21  C   UNL     1     -10.250  10.531  65.906  1.00  0.00    -0.245 C  
HETATM   22  H   UNL     1     -10.891   8.215  66.920  1.00  0.00     0.000 HD 
HETATM   23  O   UNL     1     -10.139   9.511  64.901  1.00  0.00    -0.318 OA 
HETATM   24  C   UNL     1      -9.326  11.715  65.588  1.00  0.00    -0.180 C  
HETATM   25  H   UNL     1     -10.356   9.893  64.059  1.00  0.00     0.000 HD 
BRANCH  15  26
HETATM   26  C   UNL     1      -9.420  10.462  69.704  1.00  0.00    -0.086 C  
HETATM   27  O   UNL     1     -10.583  10.253  70.511  1.00  0.00    -0.409 OA 
HETATM   28  H   UNL     1     -10.321   9.919  71.361  1.00  0.00     0.000 HD 
ENDBRANCH  15  26
ENDBRANCH  13  14
ENDBRANCH   6  13
BRANCH   6  29
HETATM   29  C   UNL     1     -11.594  15.282  65.678  1.00  0.00    -0.039 C  
HETATM   30  H   UNL     1     -11.733  15.549  63.710  1.00  0.00     0.000 HD 
HETATM   31  O   UNL     1     -11.093  15.249  64.346  1.00  0.00    -0.277 OA 
ENDBRANCH   6  29
ENDBRANCH   2   4
TORSDOF 5
ENDMDL
MODEL      115
REMARK 921   NORMALIZED FREE ENERGY PREDICTED BY IDOCK:   -4.10 KCAL/MOL
REMARK 922        TOTAL FREE ENERGY PREDICTED BY IDOCK:   -6.30 KCAL/MOL
REMARK 923 INTER-LIGAND FREE ENERGY PREDICTED BY IDOCK:   -5.31 KCAL/MOL
REMARK 924 INTRA-LIGAND FREE ENERGY PREDICTED BY IDOCK:   -0.99 KCAL/MOL
REMARK 927      BINDING AFFINITY PREDICTED BY RF-SCORE:    0.00 PKD
ROOT
HETATM    1  O   UNL     1     -12.403  14.623  67.411  1.00  0.00    -0.573 OA 
HETATM    2  C   UNL     1     -11.785  13.647  68.237  1.00  0.00    -0.363 C  
HETATM    3  H   UNL     1     -13.268  14.843  67.735  1.00  0.00     0.000 HD 
ENDROOT
BRANCH   2   4
HETATM    4  C   UNL     1     -10.394  13.293  67.717  1.00  0.00    -0.233 C  
HETATM    5  O   UNL     1      -9.901  12.139  68.424  1.00  0.00    -0.209 OA 
HETATM    6  C   UNL     1      -8.946  11.489  67.564  1.00  0.00    -0.159 C  
HETATM    7  H   UNL     1     -10.993  10.692  65.049  1.00  0.00     0.000 HD 
HETATM    8  O   UNL     1      -9.563  13.948  65.521  1.00  0.00    -0.517 OA 
HETATM    9  C   UNL     1      -9.596  11.623  66.161  1.00  0.00    -0.232 C  
HETATM   10  C   UNL     1     -10.326  12.965  66.220  1.00  0.00    -0.268 C  
HETATM   11  H   UNL     1      -9.521  13.745  64.594  1.00  0.00     0.000 HD 
HETATM   12  O   UNL     1     -10.595  10.610  65.908  1.00  0.00    -0.199 OA 
BRANCH   6  13
HETATM   13  O   UNL     1      -8.847  10.079  67.870  1.00  0.00    -0.125 OA 
BRANCH  13  14
HETATM   14  C   UNL     1      -9.695   9.630  68.936  1.00  0.00    -0.162 C  
HETATM   15  C   UNL     1     -10.017   7.496  67.926  1.00  0.00    -0.165 C  
HETATM   16  O   UNL     1     -10.646   8.666  68.479  1.00  0.00    -0.196 OA 
HETATM   17  H   UNL     1      -7.367   9.573  71.273  1.00  0.00     0.000 HD 
HETATM   18  C   UNL     1      -9.223   6.759  68.998  1.00  0.00    -0.136 C  
HETATM   19  O   UNL     1      -7.883   9.950  70.570  1.00  0.00    -0.246 OA 
HETATM   20  O   UNL     1      -8.550   5.606  68.478  1.00  0.00    -0.107 OA 
HETATM   21  C   UNL     1      -8.190   7.706  69.630  1.00  0.00    -0.128 C  
HETATM   22  H   UNL     1      -8.055   5.146  69.147  1.00  0.00     0.000 HD 
HETATM   23  O   UNL     1      -7.573   7.032  70.738  1.00  0.00    -0.087 OA 
HETATM   24  C   UNL     1      -8.853   9.013  70.085  1.00  0.00    -0.182 C  
HETATM   25  H   UNL     1      -6.934   7.617  71.128  1.00  0.00     0.000 HD 
BRANCH  15  26
HETATM   26  C   UNL     1     -11.119   6.630  67.309  1.00  0.00    -0.345 C  
HETATM   27  O   UNL     1     -10.564   5.836  66.255  1.00  0.00    -0.447 OA 
HETATM   28  H   UNL     1     -11.247   5.298  65.873  1.00  0.00     0.000 HD 
ENDBRANCH  15  26
ENDBRANCH  13  14
ENDBRANCH   6  13
BRANCH   6  29
HETATM   29  C   UNL     1      -7.591  12.249  67.642  1.00  0.00    -0.144 C  
HETATM   30  H   UNL     1      -6.482  13.191  69.001  1.00  0.00     0.000 HD 
HETATM   31  O   UNL     1      -7.309  12.726  68.954  1.00  0.00    -0.089 OA 
ENDBRANCH   6  29
ENDBRANCH   2   4
TORSDOF 5
ENDMDL
MODEL      116
REMARK 921   NORMALIZED FREE ENERGY PREDICTED BY IDOCK:   -4.06 KCAL/MOL
REMARK 922        TOTAL FREE ENERGY PREDICTED BY IDOCK:   -6.26 KCAL/MOL
REMARK 923 INTER-LIGAND FREE ENERGY PREDICTED BY IDOCK:   -5.38 KCAL/MOL
REMARK 924 INTRA-LIGAND FREE ENERGY PREDICTED BY IDOCK:   -0.87 KCAL/MOL
REMARK 927      BINDING AFFINITY PREDICTED BY RF-SCORE:    0.00 PKD
ROOT
HETATM    1  O   UNL     1     -10.361   5.434  73.438  1.00  0.00    -0.185 OA 
HETATM    2  C   UNL     1     -10.297   6.848  73.546  1.00  0.00    -0.338 C  
HETATM    3  H   UNL     1      -9.676   5.023  73.951  1.00  0.00     0.000 HD 
ENDROOT
BRANCH   2   4
HETATM    4  C   UNL     1     -11.399   7.510  72.721  1.00  0.00    -0.336 C  
HETATM    5  O   UNL     1     -10.810   8.474  71.827  1.00  0.00    -0.258 OA 
HETATM    6  C   UNL     1     -11.706   8.620  70.709  1.00  0.00    -0.210 C  
HETATM    7  H   UNL     1     -11.557   5.499  69.532  1.00  0.00     0.000 HD 
HETATM    8  O   UNL     1     -13.581   6.500  72.320  1.00  0.00    -0.509 OA 
HETATM    9  C   UNL     1     -12.193   7.167  70.463  1.00  0.00    -0.127 C  
HETATM   10  C   UNL     1     -12.229   6.549  71.861  1.00  0.00    -0.324 C  
HETATM   11  H   UNL     1     -14.095   5.905  71.787  1.00  0.00     0.000 HD 
HETATM   12  O   UNL     1     -11.259   6.388  69.683  1.00  0.00    -0.358 OA 
BRANCH   6  13
HETATM   13  O   UNL     1     -10.994   9.052  69.527  1.00  0.00    -0.207 OA 
BRANCH  13  14
HETATM   14  C   UNL     1     -10.419  10.362  69.611  1.00  0.00    -0.243 C  
HETATM   15  C   UNL     1      -8.221   9.542  69.190  1.00  0.00    -0.111 C  
HETATM   16  O   UNL     1      -9.065  10.312  70.065  1.00  0.00    -0.088 OA 
HETATM   17  H   UNL     1     -11.846  11.578  66.897  1.00  0.00     0.000 HD 
HETATM   18  C   UNL     1      -8.132  10.202  67.819  1.00  0.00    -0.109 C  
HETATM   19  O   UNL     1     -11.815  11.142  67.740  1.00  0.00    -0.608 OA 
HETATM   20  O   UNL     1      -7.329   9.446  66.904  1.00  0.00    -0.089 OA 
HETATM   21  C   UNL     1      -9.540  10.380  67.229  1.00  0.00    -0.156 C  
HETATM   22  H   UNL     1      -7.273   9.858  66.049  1.00  0.00     0.000 HD 
HETATM   23  O   UNL     1      -9.433  11.144  66.017  1.00  0.00    -0.193 OA 
HETATM   24  C   UNL     1     -10.470  11.074  68.233  1.00  0.00    -0.186 C  
HETATM   25  H   UNL     1     -10.303  11.254  65.652  1.00  0.00     0.000 HD 
BRANCH  15  26
HETATM   26  C   UNL     1      -6.855   9.407  69.868  1.00  0.00    -0.061 C  
HETATM   27  O   UNL     1      -6.981   9.728  71.257  1.00  0.00    -0.330 OA 
HETATM   28  H   UNL     1      -6.134   9.643  71.678  1.00  0.00     0.000 HD 
ENDBRANCH  15  26
ENDBRANCH  13  14
ENDBRANCH   6  13
BRANCH   6  29
HETATM   29  C   UNL     1     -12.880   9.555  71.117  1.00  0.00    -0.284 C  
HETATM   30  H   UNL     1     -14.871   9.553  71.092  1.00  0.00     0.000 HD 
HETATM   31  O   UNL     1     -14.153   8.981  70.844  1.00  0.00    -0.073 OA 
ENDBRANCH   6  29
ENDBRANCH   2   4
TORSDOF 5
ENDMDL
MODEL      117
REMARK 921   NORMALIZED FREE ENERGY PREDICTED BY IDOCK:   -4.06 KCAL/MOL
REMARK 922        TOTAL FREE ENERGY PREDICTED BY IDOCK:   -6.25 KCAL/MOL
REMARK 923 INTER-LIGAND FREE ENERGY PREDICTED BY IDOCK:   -5.38 KCAL/MOL
REMARK 924 INTRA-LIGAND FREE ENERGY PREDICTED BY IDOCK:   -0.88 KCAL/MOL
REMARK 927      BINDING AFFINITY PREDICTED BY RF-SCORE:    0.00 PKD
ROOT
HETATM    1  O   UNL     1     -10.355  12.521  63.052  1.00  0.00    -0.502 OA 
HETATM    2  C   UNL     1     -11.116  11.609  63.831  1.00  0.00    -0.401 C  
HETATM    3  H   UNL     1     -10.170  12.162  62.193  1.00  0.00     0.000 HD 
ENDROOT
BRANCH   2   4
HETATM    4  C   UNL     1     -11.412  12.184  65.214  1.00  0.00    -0.336 C  
HETATM    5  O   UNL     1     -10.777  11.369  66.215  1.00  0.00    -0.259 OA 
HETATM    6  C   UNL     1     -10.553  12.205  67.365  1.00  0.00    -0.226 C  
HETATM    7  H   UNL     1      -8.469  14.417  65.982  1.00  0.00     0.000 HD 
HETATM    8  O   UNL     1     -12.036  14.509  65.606  1.00  0.00    -0.357 OA 
HETATM    9  C   UNL     1     -10.128  13.557  66.734  1.00  0.00    -0.268 C  
HETATM   10  C   UNL     1     -10.929  13.623  65.433  1.00  0.00    -0.298 C  
HETATM   11  H   UNL     1     -11.736  15.400  65.741  1.00  0.00     0.000 HD 
HETATM   12  O   UNL     1      -8.730  13.589  66.369  1.00  0.00     0.020 OA 
BRANCH   6  13
HETATM   13  O   UNL     1      -9.441  11.719  68.153  1.00  0.00    -0.181 OA 
BRANCH  13  14
HETATM   14  C   UNL     1      -9.139  10.328  67.979  1.00  0.00    -0.132 C  
HETATM   15  C   UNL     1      -6.841  10.771  67.531  1.00  0.00    -0.079 C  
HETATM   16  O   UNL     1      -8.049  10.137  67.075  1.00  0.00    -0.116 OA 
HETATM   17  H   UNL     1      -9.657   9.434  71.112  1.00  0.00     0.000 HD 
HETATM   18  C   UNL     1      -6.363  10.137  68.833  1.00  0.00    -0.044 C  
HETATM   19  O   UNL     1      -9.867   9.839  70.279  1.00  0.00    -0.250 OA 
HETATM   20  O   UNL     1      -5.181  10.766  69.341  1.00  0.00    -0.038 OA 
HETATM   21  C   UNL     1      -7.474  10.214  69.893  1.00  0.00    -0.170 C  
HETATM   22  H   UNL     1      -4.883  10.371  70.152  1.00  0.00     0.000 HD 
HETATM   23  O   UNL     1      -7.053   9.472  71.048  1.00  0.00    -0.250 OA 
HETATM   24  C   UNL     1      -8.797   9.666  69.341  1.00  0.00    -0.180 C  
HETATM   25  H   UNL     1      -7.739   9.520  71.703  1.00  0.00     0.000 HD 
BRANCH  15  26
HETATM   26  C   UNL     1      -5.808  10.657  66.407  1.00  0.00    -0.092 C  
HETATM   27  O   UNL     1      -6.398  11.084  65.175  1.00  0.00    -0.368 OA 
HETATM   28  H   UNL     1      -5.757  11.014  64.478  1.00  0.00     0.000 HD 
ENDBRANCH  15  26
ENDBRANCH  13  14
ENDBRANCH   6  13
BRANCH   6  29
HETATM   29  C   UNL     1     -11.881  12.339  68.164  1.00  0.00    -0.311 C  
HETATM   30  H   UNL     1     -13.193  11.163  69.091  1.00  0.00     0.000 HD 
HETATM   31  O   UNL     1     -12.382  11.081  68.603  1.00  0.00    -0.539 OA 
ENDBRANCH   6  29
ENDBRANCH   2   4
TORSDOF 5
ENDMDL
MODEL      118
REMARK 921   NORMALIZED FREE ENERGY PREDICTED BY IDOCK:   -4.04 KCAL/MOL
REMARK 922        TOTAL FREE ENERGY PREDICTED BY IDOCK:   -6.23 KCAL/MOL
REMARK 923 INTER-LIGAND FREE ENERGY PREDICTED BY IDOCK:   -5.26 KCAL/MOL
REMARK 924 INTRA-LIGAND FREE ENERGY PREDICTED BY IDOCK:   -0.97 KCAL/MOL
REMARK 927      BINDING AFFINITY PREDICTED BY RF-SCORE:    0.00 PKD
ROOT
HETATM    1  O   UNL     1      -6.755  10.829  63.559  1.00  0.00    -0.355 OA 
HETATM    2  C   UNL     1      -6.382   9.959  64.618  1.00  0.00    -0.117 C  
HETATM    3  H   UNL     1      -6.025  10.983  62.972  1.00  0.00     0.000 HD 
ENDROOT
BRANCH   2   4
HETATM    4  C   UNL     1      -7.556   9.711  65.562  1.00  0.00    -0.109 C  
HETATM    5  O   UNL     1      -7.822  10.908  66.317  1.00  0.00    -0.155 OA 
HETATM    6  C   UNL     1      -9.207  10.867  66.707  1.00  0.00    -0.158 C  
HETATM    7  H   UNL     1     -10.589  10.916  63.668  1.00  0.00     0.000 HD 
HETATM    8  O   UNL     1      -9.231   7.975  65.211  1.00  0.00    -0.383 OA 
HETATM    9  C   UNL     1      -9.904  10.279  65.452  1.00  0.00    -0.296 C  
HETATM   10  C   UNL     1      -8.868   9.314  64.874  1.00  0.00    -0.193 C  
HETATM   11  H   UNL     1     -10.044   7.729  64.784  1.00  0.00     0.000 HD 
HETATM   12  O   UNL     1     -10.163  11.276  64.437  1.00  0.00    -0.270 OA 
BRANCH   6  13
HETATM   13  O   UNL     1      -9.728  12.200  66.916  1.00  0.00    -0.199 OA 
BRANCH  13  14
HETATM   14  C   UNL     1      -8.774  13.257  66.747  1.00  0.00    -0.080 C  
HETATM   15  C   UNL     1     -10.478  14.897  66.462  1.00  0.00    -0.297 C  
HETATM   16  O   UNL     1      -9.288  14.300  65.917  1.00  0.00    -0.181 OA 
HETATM   17  H   UNL     1      -7.591  13.196  69.826  1.00  0.00     0.000 HD 
HETATM   18  C   UNL     1     -10.170  15.589  67.786  1.00  0.00    -0.243 C  
HETATM   19  O   UNL     1      -7.843  12.832  68.985  1.00  0.00     0.071 OA 
HETATM   20  O   UNL     1     -11.338  16.166  68.381  1.00  0.00    -0.366 OA 
HETATM   21  C   UNL     1      -9.543  14.586  68.768  1.00  0.00    -0.193 C  
HETATM   22  H   UNL     1     -11.146  16.597  69.206  1.00  0.00     0.000 HD 
HETATM   23  O   UNL     1      -9.121  15.301  69.940  1.00  0.00    -0.423 OA 
HETATM   24  C   UNL     1      -8.362  13.851  68.120  1.00  0.00    -0.163 C  
HETATM   25  H   UNL     1      -8.734  14.682  70.548  1.00  0.00     0.000 HD 
BRANCH  15  26
HETATM   26  C   UNL     1     -11.034  15.861  65.410  1.00  0.00    -0.285 C  
HETATM   27  O   UNL     1     -10.520  17.174  65.650  1.00  0.00    -0.541 OA 
HETATM   28  H   UNL     1     -10.864  17.772  64.998  1.00  0.00     0.000 HD 
ENDBRANCH  15  26
ENDBRANCH  13  14
ENDBRANCH   6  13
BRANCH   6  29
HETATM   29  C   UNL     1      -9.360   9.929  67.939  1.00  0.00    -0.137 C  
HETATM   30  H   UNL     1     -10.414   9.837  69.626  1.00  0.00     0.000 HD 
HETATM   31  O   UNL     1     -10.320  10.410  68.873  1.00  0.00    -0.186 OA 
ENDBRANCH   6  29
ENDBRANCH   2   4
TORSDOF 5
ENDMDL
MODEL      119
REMARK 921   NORMALIZED FREE ENERGY PREDICTED BY IDOCK:   -4.04 KCAL/MOL
REMARK 922        TOTAL FREE ENERGY PREDICTED BY IDOCK:   -6.23 KCAL/MOL
REMARK 923 INTER-LIGAND FREE ENERGY PREDICTED BY IDOCK:   -5.40 KCAL/MOL
REMARK 924 INTRA-LIGAND FREE ENERGY PREDICTED BY IDOCK:   -0.83 KCAL/MOL
REMARK 927      BINDING AFFINITY PREDICTED BY RF-SCORE:    0.00 PKD
ROOT
HETATM    1  O   UNL     1      -9.968   3.561  66.605  1.00  0.00    -0.397 OA 
HETATM    2  C   UNL     1     -10.270   4.943  66.481  1.00  0.00    -0.270 C  
HETATM    3  H   UNL     1     -10.755   3.034  66.544  1.00  0.00     0.000 HD 
ENDROOT
BRANCH   2   4
HETATM    4  C   UNL     1      -9.004   5.791  66.579  1.00  0.00    -0.128 C  
HETATM    5  O   UNL     1      -9.258   7.092  66.019  1.00  0.00    -0.127 OA 
HETATM    6  C   UNL     1      -8.336   8.009  66.637  1.00  0.00    -0.120 C  
HETATM    7  H   UNL     1      -9.386   7.729  69.794  1.00  0.00     0.000 HD 
HETATM    8  O   UNL     1      -7.215   5.371  68.182  1.00  0.00    -0.069 OA 
HETATM    9  C   UNL     1      -8.300   7.524  68.110  1.00  0.00    -0.125 C  
HETATM   10  C   UNL     1      -8.480   6.010  68.004  1.00  0.00    -0.115 C  
HETATM   11  H   UNL     1      -6.891   5.507  69.064  1.00  0.00     0.000 HD 
HETATM   12  O   UNL     1      -9.408   8.026  68.891  1.00  0.00    -0.150 OA 
BRANCH   6  13
HETATM   13  O   UNL     1      -8.860   9.357  66.630  1.00  0.00    -0.131 OA 
BRANCH  13  14
HETATM   14  C   UNL     1     -10.160   9.498  66.042  1.00  0.00    -0.249 C  
HETATM   15  C   UNL     1     -10.696  11.372  67.414  1.00  0.00    -0.232 C  
HETATM   16  O   UNL     1     -11.094  10.064  66.965  1.00  0.00    -0.139 OA 
HETATM   17  H   UNL     1      -9.126  10.394  63.041  1.00  0.00     0.000 HD 
HETATM   18  C   UNL     1     -10.679  12.354  66.248  1.00  0.00    -0.256 C  
HETATM   19  O   UNL     1      -9.166   9.851  63.820  1.00  0.00    -0.256 OA 
HETATM   20  O   UNL     1     -10.252  13.662  66.647  1.00  0.00    -0.266 OA 
HETATM   21  C   UNL     1      -9.752  11.835  65.138  1.00  0.00    -0.203 C  
HETATM   22  H   UNL     1     -10.241  14.275  65.920  1.00  0.00     0.000 HD 
HETATM   23  O   UNL     1      -9.881  12.697  63.996  1.00  0.00    -0.606 OA 
HETATM   24  C   UNL     1     -10.096  10.385  64.771  1.00  0.00    -0.317 C  
HETATM   25  H   UNL     1      -9.308  12.377  63.310  1.00  0.00     0.000 HD 
BRANCH  15  26
HETATM   26  C   UNL     1     -11.664  11.792  68.524  1.00  0.00    -0.330 C  
HETATM   27  O   UNL     1     -12.439  10.660  68.930  1.00  0.00    -0.791 OA 
HETATM   28  H   UNL     1     -13.039  10.920  69.619  1.00  0.00     0.000 HD 
ENDBRANCH  15  26
ENDBRANCH  13  14
ENDBRANCH   6  13
BRANCH   6  29
HETATM   29  C   UNL     1      -6.945   7.869  65.954  1.00  0.00    -0.057 C  
HETATM   30  H   UNL     1      -5.567   9.037  65.117  1.00  0.00     0.000 HD 
HETATM   31  O   UNL     1      -6.416   9.122  65.534  1.00  0.00    -0.066 OA 
ENDBRANCH   6  29
ENDBRANCH   2   4
TORSDOF 5
ENDMDL
MODEL      120
REMARK 921   NORMALIZED FREE ENERGY PREDICTED BY IDOCK:   -4.03 KCAL/MOL
REMARK 922        TOTAL FREE ENERGY PREDICTED BY IDOCK:   -6.21 KCAL/MOL
REMARK 923 INTER-LIGAND FREE ENERGY PREDICTED BY IDOCK:   -5.10 KCAL/MOL
REMARK 924 INTRA-LIGAND FREE ENERGY PREDICTED BY IDOCK:   -1.11 KCAL/MOL
REMARK 927      BINDING AFFINITY PREDICTED BY RF-SCORE:    0.00 PKD
ROOT
HETATM    1  O   UNL     1      -9.773   2.270  67.589  1.00  0.00    -0.395 OA 
HETATM    2  C   UNL     1      -9.579   3.583  67.082  1.00  0.00    -0.118 C  
HETATM    3  H   UNL     1     -10.105   1.691  66.914  1.00  0.00     0.000 HD 
ENDROOT
BRANCH   2   4
HETATM    4  C   UNL     1      -9.045   4.515  68.168  1.00  0.00    -0.124 C  
HETATM    5  O   UNL     1      -9.084   5.872  67.691  1.00  0.00    -0.109 OA 
HETATM    6  C   UNL     1      -9.169   6.727  68.847  1.00  0.00    -0.131 C  
HETATM    7  H   UNL     1     -12.111   5.683  70.031  1.00  0.00     0.000 HD 
HETATM    8  O   UNL     1      -9.012   3.950  70.540  1.00  0.00    -0.082 OA 
HETATM    9  C   UNL     1     -10.130   5.948  69.784  1.00  0.00    -0.197 C  
HETATM   10  C   UNL     1      -9.822   4.480  69.490  1.00  0.00    -0.207 C  
HETATM   11  H   UNL     1      -9.493   3.928  71.358  1.00  0.00     0.000 HD 
HETATM   12  O   UNL     1     -11.522   6.160  69.457  1.00  0.00    -0.429 OA 
BRANCH   6  13
HETATM   13  O   UNL     1      -9.799   7.986  68.517  1.00  0.00    -0.165 OA 
BRANCH  13  14
HETATM   14  C   UNL     1      -8.981   9.145  68.720  1.00  0.00    -0.136 C  
HETATM   15  C   UNL     1      -9.865  10.241  66.798  1.00  0.00    -0.197 C  
HETATM   16  O   UNL     1      -8.681   9.798  67.485  1.00  0.00    -0.125 OA 
HETATM   17  H   UNL     1     -10.425  10.145  71.512  1.00  0.00     0.000 HD 
HETATM   18  C   UNL     1     -10.592  11.302  67.616  1.00  0.00    -0.213 C  
HETATM   19  O   UNL     1      -9.998   9.530  70.927  1.00  0.00    -0.284 OA 
HETATM   20  O   UNL     1     -11.799  11.743  66.983  1.00  0.00    -0.599 OA 
HETATM   21  C   UNL     1     -10.924  10.752  69.013  1.00  0.00    -0.240 C  
HETATM   22  H   UNL     1     -12.252  12.405  67.494  1.00  0.00     0.000 HD 
HETATM   23  O   UNL     1     -11.462  11.821  69.807  1.00  0.00    -0.365 OA 
HETATM   24  C   UNL     1      -9.678  10.150  69.675  1.00  0.00    -0.221 C  
HETATM   25  H   UNL     1     -11.668  11.480  70.670  1.00  0.00     0.000 HD 
BRANCH  15  26
HETATM   26  C   UNL     1      -9.434  10.752  65.421  1.00  0.00    -0.214 C  
HETATM   27  O   UNL     1     -10.339  10.260  64.428  1.00  0.00    -0.353 OA 
HETATM   28  H   UNL     1     -10.073  10.578  63.573  1.00  0.00     0.000 HD 
ENDBRANCH  15  26
ENDBRANCH  13  14
ENDBRANCH   6  13
BRANCH   6  29
HETATM   29  C   UNL     1      -7.754   6.875  69.475  1.00  0.00    -0.104 C  
HETATM   30  H   UNL     1      -6.904   6.818  71.275  1.00  0.00     0.000 HD 
HETATM   31  O   UNL     1      -7.769   6.727  70.891  1.00  0.00    -0.090 OA 
ENDBRANCH   6  29
ENDBRANCH   2   4
TORSDOF 5
ENDMDL
MODEL      121
REMARK 921   NORMALIZED FREE ENERGY PREDICTED BY IDOCK:   -4.02 KCAL/MOL
REMARK 922        TOTAL FREE ENERGY PREDICTED BY IDOCK:   -6.20 KCAL/MOL
REMARK 923 INTER-LIGAND FREE ENERGY PREDICTED BY IDOCK:   -5.49 KCAL/MOL
REMARK 924 INTRA-LIGAND FREE ENERGY PREDICTED BY IDOCK:   -0.71 KCAL/MOL
REMARK 927      BINDING AFFINITY PREDICTED BY RF-SCORE:    0.00 PKD
ROOT
HETATM    1  O   UNL     1     -12.225  13.128  65.977  1.00  0.00    -0.426 OA 
HETATM    2  C   UNL     1     -11.236  14.145  65.904  1.00  0.00    -0.313 C  
HETATM    3  H   UNL     1     -12.833  13.194  65.251  1.00  0.00     0.000 HD 
ENDROOT
BRANCH   2   4
HETATM    4  C   UNL     1     -10.256  14.040  67.071  1.00  0.00    -0.261 C  
HETATM    5  O   UNL     1      -9.206  15.009  66.900  1.00  0.00    -0.218 OA 
HETATM    6  C   UNL     1      -8.685  15.308  68.208  1.00  0.00    -0.165 C  
HETATM    7  H   UNL     1     -11.444  16.610  69.565  1.00  0.00     0.000 HD 
HETATM    8  O   UNL     1     -10.833  13.090  69.241  1.00  0.00    -0.421 OA 
HETATM    9  C   UNL     1      -9.961  15.333  69.092  1.00  0.00    -0.238 C  
HETATM   10  C   UNL     1     -10.870  14.282  68.455  1.00  0.00    -0.253 C  
HETATM   11  H   UNL     1     -11.214  13.240  70.098  1.00  0.00     0.000 HD 
HETATM   12  O   UNL     1     -10.663  16.594  69.024  1.00  0.00    -0.312 OA 
BRANCH   6  13
HETATM   13  O   UNL     1      -8.099  16.629  68.245  1.00  0.00    -0.183 OA 
BRANCH  13  14
HETATM   14  C   UNL     1      -6.700  16.680  67.931  1.00  0.00    -0.142 C  
HETATM   15  C   UNL     1      -6.948  18.673  66.649  1.00  0.00    -0.209 C  
HETATM   16  O   UNL     1      -6.468  17.317  66.674  1.00  0.00    -0.186 OA 
HETATM   17  H   UNL     1      -5.647  17.284  70.998  1.00  0.00     0.000 HD 
HETATM   18  C   UNL     1      -6.183  19.530  67.650  1.00  0.00    -0.203 C  
HETATM   19  O   UNL     1      -6.127  16.824  70.320  1.00  0.00    -0.150 OA 
HETATM   20  O   UNL     1      -6.657  20.881  67.683  1.00  0.00    -0.310 OA 
HETATM   21  C   UNL     1      -6.294  18.919  69.056  1.00  0.00    -0.267 C  
HETATM   22  H   UNL     1      -6.179  21.415  68.307  1.00  0.00     0.000 HD 
HETATM   23  O   UNL     1      -5.435  19.656  69.942  1.00  0.00    -0.214 OA 
HETATM   24  C   UNL     1      -5.916  17.432  69.039  1.00  0.00    -0.198 C  
HETATM   25  H   UNL     1      -5.504  19.279  70.811  1.00  0.00     0.000 HD 
BRANCH  15  26
HETATM   26  C   UNL     1      -6.813  19.183  65.212  1.00  0.00    -0.126 C  
HETATM   27  O   UNL     1      -7.649  20.331  65.035  1.00  0.00    -0.400 OA 
HETATM   28  H   UNL     1      -7.565  20.648  64.143  1.00  0.00     0.000 HD 
ENDBRANCH  15  26
ENDBRANCH  13  14
ENDBRANCH   6  13
BRANCH   6  29
HETATM   29  C   UNL     1      -7.713  14.173  68.640  1.00  0.00    -0.135 C  
HETATM   30  H   UNL     1      -6.489  12.851  67.792  1.00  0.00     0.000 HD 
HETATM   31  O   UNL     1      -7.082  13.545  67.529  1.00  0.00    -0.161 OA 
ENDBRANCH   6  29
ENDBRANCH   2   4
TORSDOF 5
ENDMDL
MODEL      122
REMARK 921   NORMALIZED FREE ENERGY PREDICTED BY IDOCK:   -3.98 KCAL/MOL
REMARK 922        TOTAL FREE ENERGY PREDICTED BY IDOCK:   -6.14 KCAL/MOL
REMARK 923 INTER-LIGAND FREE ENERGY PREDICTED BY IDOCK:   -5.15 KCAL/MOL
REMARK 924 INTRA-LIGAND FREE ENERGY PREDICTED BY IDOCK:   -0.99 KCAL/MOL
REMARK 927      BINDING AFFINITY PREDICTED BY RF-SCORE:    0.00 PKD
ROOT
HETATM    1  O   UNL     1      -6.486  19.956  65.519  1.00  0.00    -0.220 OA 
HETATM    2  C   UNL     1      -6.813  18.585  65.691  1.00  0.00    -0.244 C  
HETATM    3  H   UNL     1      -5.693  20.054  65.007  1.00  0.00     0.000 HD 
ENDROOT
BRANCH   2   4
HETATM    4  C   UNL     1      -8.090  18.426  66.514  1.00  0.00    -0.269 C  
HETATM    5  O   UNL     1      -8.585  17.082  66.370  1.00  0.00    -0.245 OA 
HETATM    6  C   UNL     1      -9.361  16.786  67.546  1.00  0.00    -0.231 C  
HETATM    7  H   UNL     1      -6.937  17.037  69.827  1.00  0.00     0.000 HD 
HETATM    8  O   UNL     1      -8.661  19.846  68.412  1.00  0.00    -0.281 OA 
HETATM    9  C   UNL     1      -8.539  17.452  68.681  1.00  0.00    -0.259 C  
HETATM   10  C   UNL     1      -7.928  18.686  68.017  1.00  0.00    -0.273 C  
HETATM   11  H   UNL     1      -8.561  20.007  69.342  1.00  0.00     0.000 HD 
HETATM   12  O   UNL     1      -7.440  16.629  69.132  1.00  0.00    -0.232 OA 
BRANCH   6  13
HETATM   13  O   UNL     1      -9.394  15.363  67.802  1.00  0.00    -0.194 OA 
BRANCH  13  14
HETATM   14  C   UNL     1      -8.922  14.542  66.726  1.00  0.00    -0.246 C  
HETATM   15  C   UNL     1      -7.958  12.952  68.216  1.00  0.00    -0.151 C  
HETATM   16  O   UNL     1      -7.742  13.824  67.092  1.00  0.00    -0.121 OA 
HETATM   17  H   UNL     1     -11.890  13.604  65.636  1.00  0.00     0.000 HD 
HETATM   18  C   UNL     1      -8.965  11.863  67.861  1.00  0.00    -0.179 C  
HETATM   19  O   UNL     1     -11.220  14.220  65.908  1.00  0.00    -0.309 OA 
HETATM   20  O   UNL     1      -9.237  10.994  68.967  1.00  0.00    -0.296 OA 
HETATM   21  C   UNL     1     -10.279  12.500  67.382  1.00  0.00    -0.213 C  
HETATM   22  H   UNL     1      -9.864  10.315  68.745  1.00  0.00     0.000 HD 
HETATM   23  O   UNL     1     -11.144  11.456  66.907  1.00  0.00    -0.285 OA 
HETATM   24  C   UNL     1     -10.017  13.537  66.281  1.00  0.00    -0.298 C  
HETATM   25  H   UNL     1     -11.957  11.849  66.611  1.00  0.00     0.000 HD 
BRANCH  15  26
HETATM   26  C   UNL     1      -6.597  12.384  68.627  1.00  0.00    -0.079 C  
HETATM   27  O   UNL     1      -6.477  12.425  70.052  1.00  0.00    -0.339 OA 
HETATM   28  H   UNL     1      -5.633  12.072  70.307  1.00  0.00     0.000 HD 
ENDBRANCH  15  26
ENDBRANCH  13  14
ENDBRANCH   6  13
BRANCH   6  29
HETATM   29  C   UNL     1     -10.768  17.434  67.403  1.00  0.00    -0.251 C  
HETATM   30  H   UNL     1     -12.596  17.221  68.163  1.00  0.00     0.000 HD 
HETATM   31  O   UNL     1     -11.736  16.826  68.251  1.00  0.00     0.060 OA 
ENDBRANCH   6  29
ENDBRANCH   2   4
TORSDOF 5
ENDMDL
MODEL      123
REMARK 921   NORMALIZED FREE ENERGY PREDICTED BY IDOCK:   -3.96 KCAL/MOL
REMARK 922        TOTAL FREE ENERGY PREDICTED BY IDOCK:   -6.12 KCAL/MOL
REMARK 923 INTER-LIGAND FREE ENERGY PREDICTED BY IDOCK:   -4.97 KCAL/MOL
REMARK 924 INTRA-LIGAND FREE ENERGY PREDICTED BY IDOCK:   -1.15 KCAL/MOL
REMARK 927      BINDING AFFINITY PREDICTED BY RF-SCORE:    0.00 PKD
ROOT
HETATM    1  O   UNL     1     -11.345   4.643  65.306  1.00  0.00    -0.980 OA 
HETATM    2  C   UNL     1     -10.192   3.915  64.910  1.00  0.00    -0.164 C  
HETATM    3  H   UNL     1     -12.138   4.189  65.050  1.00  0.00     0.000 HD 
ENDROOT
BRANCH   2   4
HETATM    4  C   UNL     1      -8.915   4.645  65.322  1.00  0.00    -0.148 C  
HETATM    5  O   UNL     1      -9.258   5.933  65.867  1.00  0.00    -0.157 OA 
HETATM    6  C   UNL     1      -8.194   6.316  66.758  1.00  0.00    -0.110 C  
HETATM    7  H   UNL     1      -8.486   3.845  68.984  1.00  0.00     0.000 HD 
HETATM    8  O   UNL     1      -6.814   3.517  65.827  1.00  0.00    -0.053 OA 
HETATM    9  C   UNL     1      -7.828   4.979  67.456  1.00  0.00    -0.095 C  
HETATM   10  C   UNL     1      -8.069   3.923  66.377  1.00  0.00    -0.097 C  
HETATM   11  H   UNL     1      -6.290   3.069  66.480  1.00  0.00     0.000 HD 
HETATM   12  O   UNL     1      -8.710   4.664  68.557  1.00  0.00    -0.096 OA 
BRANCH   6  13
HETATM   13  O   UNL     1      -8.669   7.227  67.774  1.00  0.00    -0.126 OA 
BRANCH  13  14
HETATM   14  C   UNL     1      -9.971   7.777  67.534  1.00  0.00    -0.185 C  
HETATM   15  C   UNL     1     -10.622   7.516  69.812  1.00  0.00    -0.241 C  
HETATM   16  O   UNL     1     -10.942   7.241  68.436  1.00  0.00    -0.102 OA 
HETATM   17  H   UNL     1      -8.968  10.846  66.860  1.00  0.00     0.000 HD 
HETATM   18  C   UNL     1     -10.652   9.016  70.078  1.00  0.00    -0.228 C  
HETATM   19  O   UNL     1      -8.982   9.900  66.779  1.00  0.00    -0.137 OA 
HETATM   20  O   UNL     1     -10.302   9.335  71.430  1.00  0.00    -0.321 OA 
HETATM   21  C   UNL     1      -9.689   9.738  69.122  1.00  0.00    -0.184 C  
HETATM   22  H   UNL     1     -10.321  10.270  71.596  1.00  0.00     0.000 HD 
HETATM   23  O   UNL     1      -9.859  11.155  69.288  1.00  0.00    -0.403 OA 
HETATM   24  C   UNL     1      -9.948   9.323  67.667  1.00  0.00    -0.196 C  
HETATM   25  H   UNL     1      -9.264  11.601  68.698  1.00  0.00     0.000 HD 
BRANCH  15  26
HETATM   26  C   UNL     1     -11.619   6.743  70.679  1.00  0.00    -0.370 C  
HETATM   27  O   UNL     1     -12.603   7.648  71.191  1.00  0.00    -0.436 OA 
HETATM   28  H   UNL     1     -13.222   7.169  71.729  1.00  0.00     0.000 HD 
ENDBRANCH  15  26
ENDBRANCH  13  14
ENDBRANCH   6  13
BRANCH   6  29
HETATM   29  C   UNL     1      -7.004   6.868  65.921  1.00  0.00    -0.064 C  
HETATM   30  H   UNL     1      -6.693   8.157  64.436  1.00  0.00     0.000 HD 
HETATM   31  O   UNL     1      -7.419   7.820  64.948  1.00  0.00    -0.082 OA 
ENDBRANCH   6  29
ENDBRANCH   2   4
TORSDOF 5
ENDMDL
MODEL      124
REMARK 921   NORMALIZED FREE ENERGY PREDICTED BY IDOCK:   -3.95 KCAL/MOL
REMARK 922        TOTAL FREE ENERGY PREDICTED BY IDOCK:   -6.11 KCAL/MOL
REMARK 923 INTER-LIGAND FREE ENERGY PREDICTED BY IDOCK:   -5.49 KCAL/MOL
REMARK 924 INTRA-LIGAND FREE ENERGY PREDICTED BY IDOCK:   -0.62 KCAL/MOL
REMARK 927      BINDING AFFINITY PREDICTED BY RF-SCORE:    0.00 PKD
ROOT
HETATM    1  O   UNL     1      -9.363  16.429  65.745  1.00  0.00    -0.468 OA 
HETATM    2  C   UNL     1     -10.616  16.125  66.340  1.00  0.00    -0.269 C  
HETATM    3  H   UNL     1      -9.427  17.201  65.196  1.00  0.00     0.000 HD 
ENDROOT
BRANCH   2   4
HETATM    4  C   UNL     1     -10.516  14.883  67.223  1.00  0.00    -0.263 C  
HETATM    5  O   UNL     1     -10.266  13.731  66.398  1.00  0.00    -0.279 OA 
HETATM    6  C   UNL     1      -9.600  12.754  67.219  1.00  0.00    -0.208 C  
HETATM    7  H   UNL     1      -6.826  14.482  67.907  1.00  0.00     0.000 HD 
HETATM    8  O   UNL     1      -9.957  14.952  69.596  1.00  0.00    -0.392 OA 
HETATM    9  C   UNL     1      -8.639  13.620  68.077  1.00  0.00    -0.175 C  
HETATM   10  C   UNL     1      -9.404  14.928  68.279  1.00  0.00    -0.195 C  
HETATM   11  H   UNL     1      -9.268  14.980  70.249  1.00  0.00     0.000 HD 
HETATM   12  O   UNL     1      -7.415  13.951  67.382  1.00  0.00    -0.177 OA 
BRANCH   6  13
HETATM   13  O   UNL     1      -8.792  11.864  66.416  1.00  0.00    -0.197 OA 
BRANCH  13  14
HETATM   14  C   UNL     1      -8.068  10.870  67.155  1.00  0.00    -0.127 C  
HETATM   15  C   UNL     1      -9.361   9.090  66.240  1.00  0.00    -0.225 C  
HETATM   16  O   UNL     1      -8.881   9.730  67.437  1.00  0.00    -0.131 OA 
HETATM   17  H   UNL     1      -5.188  11.261  65.595  1.00  0.00     0.000 HD 
HETATM   18  C   UNL     1      -8.197   8.530  65.431  1.00  0.00    -0.145 C  
HETATM   19  O   UNL     1      -5.962  11.537  66.072  1.00  0.00    -0.108 OA 
HETATM   20  O   UNL     1      -8.630   7.916  64.211  1.00  0.00    -0.378 OA 
HETATM   21  C   UNL     1      -7.196   9.650  65.107  1.00  0.00    -0.115 C  
HETATM   22  H   UNL     1      -7.904   7.567  63.706  1.00  0.00     0.000 HD 
HETATM   23  O   UNL     1      -6.041   9.063  64.487  1.00  0.00    -0.068 OA 
HETATM   24  C   UNL     1      -6.804  10.419  66.376  1.00  0.00    -0.112 C  
HETATM   25  H   UNL     1      -5.422   9.755  64.286  1.00  0.00     0.000 HD 
BRANCH  15  26
HETATM   26  C   UNL     1     -10.358   8.009  66.664  1.00  0.00    -0.203 C  
HETATM   27  O   UNL     1     -11.078   8.453  67.818  1.00  0.00    -0.481 OA 
HETATM   28  H   UNL     1     -11.697   7.782  68.081  1.00  0.00     0.000 HD 
ENDBRANCH  15  26
ENDBRANCH  13  14
ENDBRANCH   6  13
BRANCH   6  29
HETATM   29  C   UNL     1     -10.655  12.027  68.102  1.00  0.00    -0.210 C  
HETATM   30  H   UNL     1     -12.373  11.047  67.875  1.00  0.00     0.000 HD 
HETATM   31  O   UNL     1     -11.729  11.491  67.336  1.00  0.00    -0.567 OA 
ENDBRANCH   6  29
ENDBRANCH   2   4
TORSDOF 5
ENDMDL
MODEL      125
REMARK 921   NORMALIZED FREE ENERGY PREDICTED BY IDOCK:   -3.94 KCAL/MOL
REMARK 922        TOTAL FREE ENERGY PREDICTED BY IDOCK:   -6.09 KCAL/MOL
REMARK 923 INTER-LIGAND FREE ENERGY PREDICTED BY IDOCK:   -5.92 KCAL/MOL
REMARK 924 INTRA-LIGAND FREE ENERGY PREDICTED BY IDOCK:   -0.17 KCAL/MOL
REMARK 927      BINDING AFFINITY PREDICTED BY RF-SCORE:    0.00 PKD
ROOT
HETATM    1  O   UNL     1     -13.245  15.017  70.089  1.00  0.00    -0.627 OA 
HETATM    2  C   UNL     1     -12.043  15.612  70.557  1.00  0.00    -0.395 C  
HETATM    3  H   UNL     1     -13.994  15.338  70.575  1.00  0.00     0.000 HD 
ENDROOT
BRANCH   2   4
HETATM    4  C   UNL     1     -10.837  15.097  69.776  1.00  0.00    -0.284 C  
HETATM    5  O   UNL     1     -11.245  13.997  68.942  1.00  0.00    -0.247 OA 
HETATM    6  C   UNL     1     -10.324  13.936  67.836  1.00  0.00    -0.240 C  
HETATM    7  H   UNL     1     -10.980  16.912  66.471  1.00  0.00     0.000 HD 
HETATM    8  O   UNL     1      -8.850  16.434  69.318  1.00  0.00    -0.227 OA 
HETATM    9  C   UNL     1     -10.084  15.433  67.503  1.00  0.00    -0.233 C  
HETATM   10  C   UNL     1     -10.169  16.130  68.861  1.00  0.00    -0.245 C  
HETATM   11  H   UNL     1      -8.436  17.074  68.751  1.00  0.00     0.000 HD 
HETATM   12  O   UNL     1     -11.127  15.996  66.675  1.00  0.00    -0.170 OA 
BRANCH   6  13
HETATM   13  O   UNL     1     -10.939  13.321  66.681  1.00  0.00    -0.279 OA 
BRANCH  13  14
HETATM   14  C   UNL     1     -10.328  13.647  65.425  1.00  0.00    -0.332 C  
HETATM   15  C   UNL     1      -9.324  11.494  65.231  1.00  0.00    -0.137 C  
HETATM   16  O   UNL     1      -9.115  12.918  65.227  1.00  0.00     0.472 OA 
HETATM   17  H   UNL     1     -13.126  13.887  63.695  1.00  0.00     0.000 HD 
HETATM   18  C   UNL     1     -10.205  11.081  64.058  1.00  0.00    -0.358 C  
HETATM   19  O   UNL     1     -12.532  14.066  64.414  1.00  0.00    -0.623 OA 
HETATM   20  O   UNL     1     -10.469   9.673  64.048  1.00  0.00     0.275 OA 
HETATM   21  C   UNL     1     -11.538  11.845  64.108  1.00  0.00    -0.351 C  
HETATM   22  H   UNL     1     -11.018   9.415  63.316  1.00  0.00     0.000 HD 
HETATM   23  O   UNL     1     -12.275  11.554  62.910  1.00  0.00    -0.942 OA 
HETATM   24  C   UNL     1     -11.299  13.354  64.250  1.00  0.00    -0.389 C  
HETATM   25  H   UNL     1     -13.099  12.026  62.940  1.00  0.00     0.000 HD 
BRANCH  15  26
HETATM   26  C   UNL     1      -7.947  10.826  65.198  1.00  0.00     0.040 C  
HETATM   27  O   UNL     1      -7.158  11.311  66.288  1.00  0.00    -0.296 OA 
HETATM   28  H   UNL     1      -6.303  10.897  66.268  1.00  0.00     0.000 HD 
ENDBRANCH  15  26
ENDBRANCH  13  14
ENDBRANCH   6  13
BRANCH   6  29
HETATM   29  C   UNL     1      -9.015  13.237  68.302  1.00  0.00    -0.176 C  
HETATM   30  H   UNL     1      -8.429  11.457  68.975  1.00  0.00     0.000 HD 
HETATM   31  O   UNL     1      -9.228  11.884  68.690  1.00  0.00    -0.160 OA 
ENDBRANCH   6  29
ENDBRANCH   2   4
TORSDOF 5
ENDMDL
MODEL      126
REMARK 921   NORMALIZED FREE ENERGY PREDICTED BY IDOCK:   -3.92 KCAL/MOL
REMARK 922        TOTAL FREE ENERGY PREDICTED BY IDOCK:   -6.07 KCAL/MOL
REMARK 923 INTER-LIGAND FREE ENERGY PREDICTED BY IDOCK:   -5.59 KCAL/MOL
REMARK 924 INTRA-LIGAND FREE ENERGY PREDICTED BY IDOCK:   -0.48 KCAL/MOL
REMARK 927      BINDING AFFINITY PREDICTED BY RF-SCORE:    0.00 PKD
ROOT
HETATM    1  O   UNL     1      -9.018  13.853  66.241  1.00  0.00    -0.470 OA 
HETATM    2  C   UNL     1      -8.534  13.124  67.360  1.00  0.00    -0.201 C  
HETATM    3  H   UNL     1      -8.763  14.766  66.294  1.00  0.00     0.000 HD 
ENDROOT
BRANCH   2   4
HETATM    4  C   UNL     1      -8.943  11.655  67.274  1.00  0.00    -0.169 C  
HETATM    5  O   UNL     1      -9.116  11.130  68.603  1.00  0.00    -0.170 OA 
HETATM    6  C   UNL     1     -10.035  10.027  68.509  1.00  0.00    -0.162 C  
HETATM    7  H   UNL     1     -12.713  11.692  67.413  1.00  0.00     0.000 HD 
HETATM    8  O   UNL     1      -9.995  10.656  65.314  1.00  0.00    -0.255 OA 
HETATM    9  C   UNL     1     -11.072  10.527  67.468  1.00  0.00    -0.290 C  
HETATM   10  C   UNL     1     -10.248  11.390  66.513  1.00  0.00    -0.221 C  
HETATM   11  H   UNL     1     -10.803  10.492  64.843  1.00  0.00     0.000 HD 
HETATM   12  O   UNL     1     -12.078  11.386  68.050  1.00  0.00    -0.629 OA 
BRANCH   6  13
HETATM   13  O   UNL     1     -10.731   9.821  69.760  1.00  0.00    -0.225 OA 
BRANCH  13  14
HETATM   14  C   UNL     1     -11.765   8.829  69.722  1.00  0.00     0.486 C  
HETATM   15  C   UNL     1     -10.592   7.392  71.218  1.00  0.00    -0.216 C  
HETATM   16  O   UNL     1     -11.242   7.517  69.940  1.00  0.00    -0.216 OA 
HETATM   17  H   UNL     1     -14.070  10.625  71.253  1.00  0.00     0.000 HD 
HETATM   18  C   UNL     1     -11.596   7.588  72.349  1.00  0.00    -0.309 C  
HETATM   19  O   UNL     1     -13.403  10.441  70.602  1.00  0.00    -0.288 OA 
HETATM   20  O   UNL     1     -10.981   7.508  73.640  1.00  0.00    -0.526 OA 
HETATM   21  C   UNL     1     -12.292   8.951  72.202  1.00  0.00    -0.378 C  
HETATM   22  H   UNL     1     -11.607   7.630  74.345  1.00  0.00     0.000 HD 
HETATM   23  O   UNL     1     -13.337   9.036  73.184  1.00  0.00    -0.902 OA 
HETATM   24  C   UNL     1     -12.854   9.129  70.786  1.00  0.00     0.135 C  
HETATM   25  H   UNL     1     -13.767   9.878  73.094  1.00  0.00     0.000 HD 
BRANCH  15  26
HETATM   26  C   UNL     1      -9.919   6.018  71.260  1.00  0.00    -0.184 C  
HETATM   27  O   UNL     1      -9.492   5.659  69.943  1.00  0.00    -0.148 OA 
HETATM   28  H   UNL     1      -9.074   4.806  69.968  1.00  0.00     0.000 HD 
ENDBRANCH  15  26
ENDBRANCH  13  14
ENDBRANCH   6  13
BRANCH   6  29
HETATM   29  C   UNL     1      -9.272   8.771  67.997  1.00  0.00    -0.139 C  
HETATM   30  H   UNL     1      -7.769   7.598  68.573  1.00  0.00     0.000 HD 
HETATM   31  O   UNL     1      -8.236   8.365  68.885  1.00  0.00    -0.112 OA 
ENDBRANCH   6  29
ENDBRANCH   2   4
TORSDOF 5
ENDMDL
MODEL      127
REMARK 921   NORMALIZED FREE ENERGY PREDICTED BY IDOCK:   -3.89 KCAL/MOL
REMARK 922        TOTAL FREE ENERGY PREDICTED BY IDOCK:   -6.04 KCAL/MOL
REMARK 923 INTER-LIGAND FREE ENERGY PREDICTED BY IDOCK:   -5.42 KCAL/MOL
REMARK 924 INTRA-LIGAND FREE ENERGY PREDICTED BY IDOCK:   -0.62 KCAL/MOL
REMARK 927      BINDING AFFINITY PREDICTED BY RF-SCORE:    0.00 PKD
ROOT
HETATM    1  O   UNL     1      -7.114   9.466  69.578  1.00  0.00    -0.056 OA 
HETATM    2  C   UNL     1      -7.820   8.588  68.713  1.00  0.00    -0.110 C  
HETATM    3  H   UNL     1      -6.242   9.137  69.759  1.00  0.00     0.000 HD 
ENDROOT
BRANCH   2   4
HETATM    4  C   UNL     1      -9.222   9.117  68.421  1.00  0.00    -0.132 C  
HETATM    5  O   UNL     1      -9.370  10.423  69.009  1.00  0.00    -0.175 OA 
HETATM    6  C   UNL     1     -10.381  11.117  68.255  1.00  0.00    -0.180 C  
HETATM    7  H   UNL     1      -8.838  11.195  65.295  1.00  0.00     0.000 HD 
HETATM    8  O   UNL     1     -10.602   8.341  66.567  1.00  0.00    -0.365 OA 
HETATM    9  C   UNL     1     -10.082  10.685  66.795  1.00  0.00    -0.224 C  
HETATM   10  C   UNL     1      -9.565   9.253  66.933  1.00  0.00    -0.174 C  
HETATM   11  H   UNL     1     -10.814   8.426  65.645  1.00  0.00     0.000 HD 
HETATM   12  O   UNL     1      -9.022  11.459  66.189  1.00  0.00    -0.198 OA 
BRANCH   6  13
HETATM   13  O   UNL     1     -10.199  12.549  68.337  1.00  0.00    -0.225 OA 
BRANCH  13  14
HETATM   14  C   UNL     1     -11.242  13.328  67.735  1.00  0.00    -0.280 C  
HETATM   15  C   UNL     1     -11.850  14.320  69.815  1.00  0.00    -0.324 C  
HETATM   16  O   UNL     1     -12.300  13.590  68.659  1.00  0.00    -0.232 OA 
HETATM   17  H   UNL     1      -9.274  15.276  65.943  1.00  0.00     0.000 HD 
HETATM   18  C   UNL     1     -11.352  15.703  69.412  1.00  0.00    -0.330 C  
HETATM   19  O   UNL     1      -9.616  14.453  66.270  1.00  0.00    -0.289 OA 
HETATM   20  O   UNL     1     -10.860  16.450  70.532  1.00  0.00    -0.241 OA 
HETATM   21  C   UNL     1     -10.240  15.576  68.360  1.00  0.00    -0.215 C  
HETATM   22  H   UNL     1     -10.550  17.313  70.280  1.00  0.00     0.000 HD 
HETATM   23  O   UNL     1      -9.906  16.891  67.888  1.00  0.00    -0.251 OA 
HETATM   24  C   UNL     1     -10.684  14.674  67.200  1.00  0.00    -0.292 C  
HETATM   25  H   UNL     1      -9.218  16.812  67.237  1.00  0.00     0.000 HD 
BRANCH  15  26
HETATM   26  C   UNL     1     -13.016  14.378  70.806  1.00  0.00    -0.326 C  
HETATM   27  O   UNL     1     -12.505  14.558  72.130  1.00  0.00    -0.326 OA 
HETATM   28  H   UNL     1     -13.228  14.595  72.745  1.00  0.00     0.000 HD 
ENDBRANCH  15  26
ENDBRANCH  13  14
ENDBRANCH   6  13
BRANCH   6  29
HETATM   29  C   UNL     1     -11.784  10.632  68.719  1.00  0.00    -0.188 C  
HETATM   30  H   UNL     1     -12.801  10.400  70.415  1.00  0.00     0.000 HD 
HETATM   31  O   UNL     1     -11.944  10.697  70.132  1.00  0.00    -0.283 OA 
ENDBRANCH   6  29
ENDBRANCH   2   4
TORSDOF 5
ENDMDL
MODEL      128
REMARK 921   NORMALIZED FREE ENERGY PREDICTED BY IDOCK:   -3.87 KCAL/MOL
REMARK 922        TOTAL FREE ENERGY PREDICTED BY IDOCK:   -6.01 KCAL/MOL
REMARK 923 INTER-LIGAND FREE ENERGY PREDICTED BY IDOCK:   -4.79 KCAL/MOL
REMARK 924 INTRA-LIGAND FREE ENERGY PREDICTED BY IDOCK:   -1.22 KCAL/MOL
REMARK 927      BINDING AFFINITY PREDICTED BY RF-SCORE:    0.00 PKD
ROOT
HETATM    1  O   UNL     1     -12.710   7.130  70.506  1.00  0.00    -0.611 OA 
HETATM    2  C   UNL     1     -11.672   6.221  70.840  1.00  0.00    -0.222 C  
HETATM    3  H   UNL     1     -13.506   6.667  70.276  1.00  0.00     0.000 HD 
ENDROOT
BRANCH   2   4
HETATM    4  C   UNL     1     -10.391   6.965  71.210  1.00  0.00    -0.203 C  
HETATM    5  O   UNL     1      -9.682   7.320  70.008  1.00  0.00    -0.174 OA 
HETATM    6  C   UNL     1      -8.874   8.471  70.314  1.00  0.00    -0.148 C  
HETATM    7  H   UNL     1     -11.320  10.619  71.060  1.00  0.00     0.000 HD 
HETATM    8  O   UNL     1     -10.067   8.135  73.325  1.00  0.00    -0.257 OA 
HETATM    9  C   UNL     1      -9.800   9.309  71.235  1.00  0.00    -0.248 C  
HETATM   10  C   UNL     1     -10.601   8.259  72.006  1.00  0.00    -0.296 C  
HETATM   11  H   UNL     1     -10.198   8.936  73.817  1.00  0.00     0.000 HD 
HETATM   12  O   UNL     1     -10.753  10.106  70.496  1.00  0.00    -0.298 OA 
BRANCH   6  13
HETATM   13  O   UNL     1      -8.612   9.253  69.125  1.00  0.00    -0.127 OA 
BRANCH  13  14
HETATM   14  C   UNL     1      -7.240   9.284  68.712  1.00  0.00    -0.074 C  
HETATM   15  C   UNL     1      -7.804   8.874  66.433  1.00  0.00    -0.103 C  
HETATM   16  O   UNL     1      -7.019   8.460  67.566  1.00  0.00    -0.072 OA 
HETATM   17  H   UNL     1      -6.733  12.485  69.323  1.00  0.00     0.000 HD 
HETATM   18  C   UNL     1      -7.389  10.269  65.977  1.00  0.00    -0.129 C  
HETATM   19  O   UNL     1      -7.005  11.597  69.519  1.00  0.00    -0.092 OA 
HETATM   20  O   UNL     1      -8.174  10.734  64.873  1.00  0.00    -0.329 OA 
HETATM   21  C   UNL     1      -7.517  11.262  67.144  1.00  0.00    -0.130 C  
HETATM   22  H   UNL     1      -7.916  11.604  64.589  1.00  0.00     0.000 HD 
HETATM   23  O   UNL     1      -6.972  12.524  66.729  1.00  0.00    -0.366 OA 
HETATM   24  C   UNL     1      -6.795  10.736  68.392  1.00  0.00    -0.068 C  
HETATM   25  H   UNL     1      -7.051  13.138  67.450  1.00  0.00     0.000 HD 
BRANCH  15  26
HETATM   26  C   UNL     1      -7.624   7.819  65.338  1.00  0.00    -0.089 C  
HETATM   27  O   UNL     1      -8.782   7.807  64.497  1.00  0.00    -0.370 OA 
HETATM   28  H   UNL     1      -8.671   7.153  63.817  1.00  0.00     0.000 HD 
ENDBRANCH  15  26
ENDBRANCH  13  14
ENDBRANCH   6  13
BRANCH   6  29
HETATM   29  C   UNL     1      -7.591   8.008  71.061  1.00  0.00    -0.083 C  
HETATM   30  H   UNL     1      -6.595   8.441  72.730  1.00  0.00     0.000 HD 
HETATM   31  O   UNL     1      -7.379   8.724  72.273  1.00  0.00    -0.299 OA 
ENDBRANCH   6  29
ENDBRANCH   2   4
TORSDOF 5
ENDMDL
MODEL      129
REMARK 921   NORMALIZED FREE ENERGY PREDICTED BY IDOCK:   -3.85 KCAL/MOL
REMARK 922        TOTAL FREE ENERGY PREDICTED BY IDOCK:   -5.98 KCAL/MOL
REMARK 923 INTER-LIGAND FREE ENERGY PREDICTED BY IDOCK:   -5.42 KCAL/MOL
REMARK 924 INTRA-LIGAND FREE ENERGY PREDICTED BY IDOCK:   -0.56 KCAL/MOL
REMARK 927      BINDING AFFINITY PREDICTED BY RF-SCORE:    0.00 PKD
ROOT
HETATM    1  O   UNL     1      -8.365   8.752  69.730  1.00  0.00    -0.119 OA 
HETATM    2  C   UNL     1      -8.010   7.976  68.594  1.00  0.00    -0.123 C  
HETATM    3  H   UNL     1      -8.448   8.206  70.502  1.00  0.00     0.000 HD 
ENDROOT
BRANCH   2   4
HETATM    4  C   UNL     1      -7.875   8.854  67.352  1.00  0.00    -0.097 C  
HETATM    5  O   UNL     1      -9.064   9.653  67.202  1.00  0.00    -0.133 OA 
HETATM    6  C   UNL     1      -8.695  10.830  66.460  1.00  0.00    -0.151 C  
HETATM    7  H   UNL     1      -6.520  12.135  68.632  1.00  0.00     0.000 HD 
HETATM    8  O   UNL     1      -5.736   9.473  66.359  1.00  0.00    -0.051 OA 
HETATM    9  C   UNL     1      -7.298  11.181  67.038  1.00  0.00    -0.128 C  
HETATM   10  C   UNL     1      -6.684   9.820  67.369  1.00  0.00    -0.074 C  
HETATM   11  H   UNL     1      -4.999  10.071  66.369  1.00  0.00     0.000 HD 
HETATM   12  O   UNL     1      -7.376  11.920  68.278  1.00  0.00    -0.080 OA 
BRANCH   6  13
HETATM   13  O   UNL     1      -9.583  11.931  66.757  1.00  0.00    -0.195 OA 
BRANCH  13  14
HETATM   14  C   UNL     1      -9.384  13.103  65.956  1.00  0.00    -0.006 C  
HETATM   15  C   UNL     1     -11.495  12.857  64.877  1.00  0.00    -0.315 C  
HETATM   16  O   UNL     1     -10.074  13.008  64.708  1.00  0.00    -0.286 OA 
HETATM   17  H   UNL     1      -9.487  15.278  68.433  1.00  0.00     0.000 HD 
HETATM   18  C   UNL     1     -12.088  14.094  65.540  1.00  0.00    -0.414 C  
HETATM   19  O   UNL     1      -9.194  14.502  67.971  1.00  0.00    -0.180 OA 
HETATM   20  O   UNL     1     -13.498  13.968  65.760  1.00  0.00    -0.669 OA 
HETATM   21  C   UNL     1     -11.387  14.358  66.882  1.00  0.00    -0.348 C  
HETATM   22  H   UNL     1     -13.868  14.740  66.173  1.00  0.00     0.000 HD 
HETATM   23  O   UNL     1     -11.856  15.613  67.401  1.00  0.00    -0.039 OA 
HETATM   24  C   UNL     1      -9.862  14.372  66.710  1.00  0.00    -0.264 C  
HETATM   25  H   UNL     1     -11.423  15.776  68.231  1.00  0.00     0.000 HD 
BRANCH  15  26
HETATM   26  C   UNL     1     -12.096  12.583  63.496  1.00  0.00    -0.562 C  
HETATM   27  O   UNL     1     -11.325  11.576  62.834  1.00  0.00    -0.776 OA 
HETATM   28  H   UNL     1     -11.698  11.405  61.977  1.00  0.00     0.000 HD 
ENDBRANCH  15  26
ENDBRANCH  13  14
ENDBRANCH   6  13
BRANCH   6  29
HETATM   29  C   UNL     1      -8.614  10.473  64.948  1.00  0.00    -0.172 C  
HETATM   30  H   UNL     1      -9.786   9.719  63.526  1.00  0.00     0.000 HD 
HETATM   31  O   UNL     1      -9.836   9.937  64.450  1.00  0.00    -0.236 OA 
ENDBRANCH   6  29
ENDBRANCH   2   4
TORSDOF 5
ENDMDL
MODEL      130
REMARK 921   NORMALIZED FREE ENERGY PREDICTED BY IDOCK:   -3.85 KCAL/MOL
REMARK 922        TOTAL FREE ENERGY PREDICTED BY IDOCK:   -5.98 KCAL/MOL
REMARK 923 INTER-LIGAND FREE ENERGY PREDICTED BY IDOCK:   -5.44 KCAL/MOL
REMARK 924 INTRA-LIGAND FREE ENERGY PREDICTED BY IDOCK:   -0.54 KCAL/MOL
REMARK 927      BINDING AFFINITY PREDICTED BY RF-SCORE:    0.00 PKD
ROOT
HETATM    1  O   UNL     1     -11.355   8.284  71.210  1.00  0.00    -0.254 OA 
HETATM    2  C   UNL     1     -11.513   9.547  70.580  1.00  0.00    -0.276 C  
HETATM    3  H   UNL     1     -11.737   8.289  72.080  1.00  0.00     0.000 HD 
ENDROOT
BRANCH   2   4
HETATM    4  C   UNL     1     -10.899   9.540  69.181  1.00  0.00    -0.173 C  
HETATM    5  O   UNL     1     -11.333  10.712  68.466  1.00  0.00    -0.268 OA 
HETATM    6  C   UNL     1     -10.334  10.996  67.469  1.00  0.00    -0.198 C  
HETATM    7  H   UNL     1      -7.752  11.598  69.498  1.00  0.00     0.000 HD 
HETATM    8  O   UNL     1      -8.876   8.312  68.597  1.00  0.00    -0.133 OA 
HETATM    9  C   UNL     1      -9.006  10.689  68.211  1.00  0.00    -0.143 C  
HETATM   10  C   UNL     1      -9.366   9.535  69.147  1.00  0.00    -0.163 C  
HETATM   11  H   UNL     1      -7.926   8.309  68.576  1.00  0.00     0.000 HD 
HETATM   12  O   UNL     1      -8.565  11.785  69.043  1.00  0.00     0.046 OA 
BRANCH   6  13
HETATM   13  O   UNL     1     -10.331  12.399  67.122  1.00  0.00    -0.218 OA 
BRANCH  13  14
HETATM   14  C   UNL     1     -11.626  13.009  67.051  1.00  0.00    -0.360 C  
HETATM   15  C   UNL     1     -11.359  14.077  69.164  1.00  0.00    -0.281 C  
HETATM   16  O   UNL     1     -12.179  13.218  68.352  1.00  0.00    -0.271 OA 
HETATM   17  H   UNL     1     -10.957  15.029  64.531  1.00  0.00     0.000 HD 
HETATM   18  C   UNL     1     -11.286  15.474  68.560  1.00  0.00    -0.351 C  
HETATM   19  O   UNL     1     -11.001  14.199  64.990  1.00  0.00    -0.342 OA 
HETATM   20  O   UNL     1     -10.447  16.352  69.320  1.00  0.00    -0.262 OA 
HETATM   21  C   UNL     1     -10.761  15.395  67.117  1.00  0.00    -0.314 C  
HETATM   22  H   UNL     1     -10.402  17.223  68.943  1.00  0.00     0.000 HD 
HETATM   23  O   UNL     1     -10.855  16.701  66.526  1.00  0.00    -0.178 OA 
HETATM   24  C   UNL     1     -11.555  14.366  66.301  1.00  0.00    -0.372 C  
HETATM   25  H   UNL     1     -10.530  16.652  65.634  1.00  0.00     0.000 HD 
BRANCH  15  26
HETATM   26  C   UNL     1     -11.950  14.077  70.577  1.00  0.00    -0.320 C  
HETATM   27  O   UNL     1     -12.450  12.772  70.882  1.00  0.00    -0.367 OA 
HETATM   28  H   UNL     1     -12.816  12.771  71.758  1.00  0.00     0.000 HD 
ENDBRANCH  15  26
ENDBRANCH  13  14
ENDBRANCH   6  13
BRANCH   6  29
HETATM   29  C   UNL     1     -10.543  10.045  66.255  1.00  0.00    -0.044 C  
HETATM   30  H   UNL     1      -9.445   8.933  65.021  1.00  0.00     0.000 HD 
HETATM   31  O   UNL     1      -9.318   9.513  65.763  1.00  0.00    -0.194 OA 
ENDBRANCH   6  29
ENDBRANCH   2   4
TORSDOF 5
ENDMDL
MODEL      131
REMARK 921   NORMALIZED FREE ENERGY PREDICTED BY IDOCK:   -3.82 KCAL/MOL
REMARK 922        TOTAL FREE ENERGY PREDICTED BY IDOCK:   -5.94 KCAL/MOL
REMARK 923 INTER-LIGAND FREE ENERGY PREDICTED BY IDOCK:   -4.94 KCAL/MOL
REMARK 924 INTRA-LIGAND FREE ENERGY PREDICTED BY IDOCK:   -1.00 KCAL/MOL
REMARK 927      BINDING AFFINITY PREDICTED BY RF-SCORE:    0.00 PKD
ROOT
HETATM    1  O   UNL     1     -11.571   5.302  73.295  1.00  0.00    -0.502 OA 
HETATM    2  C   UNL     1     -10.372   5.990  73.621  1.00  0.00    -0.256 C  
HETATM    3  H   UNL     1     -11.871   4.777  74.026  1.00  0.00     0.000 HD 
ENDROOT
BRANCH   2   4
HETATM    4  C   UNL     1      -9.890   6.836  72.445  1.00  0.00    -0.158 C  
HETATM    5  O   UNL     1      -9.361   5.973  71.422  1.00  0.00    -0.146 OA 
HETATM    6  C   UNL     1      -9.484   6.671  70.170  1.00  0.00    -0.158 C  
HETATM    7  H   UNL     1     -12.811   6.928  70.058  1.00  0.00     0.000 HD 
HETATM    8  O   UNL     1     -10.692   9.092  71.982  1.00  0.00    -0.349 OA 
HETATM    9  C   UNL     1     -10.861   7.374  70.298  1.00  0.00    -0.245 C  
HETATM   10  C   UNL     1     -10.969   7.704  71.786  1.00  0.00    -0.239 C  
HETATM   11  H   UNL     1     -11.361   9.629  71.574  1.00  0.00     0.000 HD 
HETATM   12  O   UNL     1     -11.967   6.498  69.980  1.00  0.00    -0.358 OA 
BRANCH   6  13
HETATM   13  O   UNL     1      -9.563   5.744  69.063  1.00  0.00    -0.127 OA 
BRANCH  13  14
HETATM   14  C   UNL     1      -8.761   6.088  67.926  1.00  0.00    -0.112 C  
HETATM   15  C   UNL     1      -8.255   3.807  67.456  1.00  0.00    -0.090 C  
HETATM   16  O   UNL     1      -7.730   5.124  67.701  1.00  0.00    -0.087 OA 
HETATM   17  H   UNL     1     -11.223   7.238  66.057  1.00  0.00     0.000 HD 
HETATM   18  C   UNL     1      -9.072   3.789  66.170  1.00  0.00    -0.151 C  
HETATM   19  O   UNL     1     -10.687   7.165  66.837  1.00  0.00    -0.330 OA 
HETATM   20  O   UNL     1      -9.644   2.502  65.909  1.00  0.00    -0.368 OA 
HETATM   21  C   UNL     1     -10.194   4.836  66.245  1.00  0.00    -0.282 C  
HETATM   22  H   UNL     1     -10.153   2.490  65.106  1.00  0.00     0.000 HD 
HETATM   23  O   UNL     1     -10.841   4.904  64.964  1.00  0.00    -0.465 OA 
HETATM   24  C   UNL     1      -9.636   6.208  66.650  1.00  0.00    -0.152 C  
HETATM   25  H   UNL     1     -11.535   5.551  65.011  1.00  0.00     0.000 HD 
BRANCH  15  26
HETATM   26  C   UNL     1      -7.069   2.839  67.415  1.00  0.00    -0.053 C  
HETATM   27  O   UNL     1      -6.496   2.846  66.104  1.00  0.00    -0.028 OA 
HETATM   28  H   UNL     1      -5.760   2.246  66.079  1.00  0.00     0.000 HD 
ENDBRANCH  15  26
ENDBRANCH  13  14
ENDBRANCH   6  13
BRANCH   6  29
HETATM   29  C   UNL     1      -8.325   7.703  70.047  1.00  0.00    -0.134 C  
HETATM   30  H   UNL     1      -8.084   9.678  69.975  1.00  0.00     0.000 HD 
HETATM   31  O   UNL     1      -8.792   9.048  70.050  1.00  0.00    -0.148 OA 
ENDBRANCH   6  29
ENDBRANCH   2   4
TORSDOF 5
ENDMDL
MODEL      132
REMARK 921   NORMALIZED FREE ENERGY PREDICTED BY IDOCK:   -3.80 KCAL/MOL
REMARK 922        TOTAL FREE ENERGY PREDICTED BY IDOCK:   -5.92 KCAL/MOL
REMARK 923 INTER-LIGAND FREE ENERGY PREDICTED BY IDOCK:   -5.06 KCAL/MOL
REMARK 924 INTRA-LIGAND FREE ENERGY PREDICTED BY IDOCK:   -0.86 KCAL/MOL
REMARK 927      BINDING AFFINITY PREDICTED BY RF-SCORE:    0.00 PKD
ROOT
HETATM    1  O   UNL     1      -9.521   2.643  69.019  1.00  0.00    -0.159 OA 
HETATM    2  C   UNL     1      -8.425   3.436  68.587  1.00  0.00    -0.079 C  
HETATM    3  H   UNL     1      -9.758   2.004  68.358  1.00  0.00     0.000 HD 
ENDROOT
BRANCH   2   4
HETATM    4  C   UNL     1      -8.041   4.464  69.649  1.00  0.00    -0.060 C  
HETATM    5  O   UNL     1      -8.676   5.720  69.346  1.00  0.00    -0.110 OA 
HETATM    6  C   UNL     1      -8.809   6.440  70.586  1.00  0.00    -0.144 C  
HETATM    7  H   UNL     1     -10.832   4.318  72.185  1.00  0.00     0.000 HD 
HETATM    8  O   UNL     1      -7.284   3.875  71.891  1.00  0.00    -0.053 OA 
HETATM    9  C   UNL     1      -9.190   5.324  71.595  1.00  0.00    -0.146 C  
HETATM   10  C   UNL     1      -8.441   4.093  71.083  1.00  0.00    -0.084 C  
HETATM   11  H   UNL     1      -7.531   3.646  72.778  1.00  0.00     0.000 HD 
HETATM   12  O   UNL     1     -10.598   5.001  71.567  1.00  0.00    -0.190 OA 
BRANCH   6  13
HETATM   13  O   UNL     1      -9.910   7.375  70.529  1.00  0.00    -0.180 OA 
BRANCH  13  14
HETATM   14  C   UNL     1      -9.725   8.577  71.288  1.00  0.00    -0.208 C  
HETATM   15  C   UNL     1     -10.363   9.962  69.457  1.00  0.00    -0.229 C  
HETATM   16  O   UNL     1      -9.362   9.676  70.450  1.00  0.00    -0.251 OA 
HETATM   17  H   UNL     1     -12.203   8.074  73.405  1.00  0.00     0.000 HD 
HETATM   18  C   UNL     1     -11.660  10.409  70.121  1.00  0.00    -0.312 C  
HETATM   19  O   UNL     1     -11.414   7.854  72.925  1.00  0.00    -0.403 OA 
HETATM   20  O   UNL     1     -12.697  10.669  69.166  1.00  0.00    -0.685 OA 
HETATM   21  C   UNL     1     -12.141   9.336  71.111  1.00  0.00    -0.316 C  
HETATM   22  H   UNL     1     -13.506  10.948  69.580  1.00  0.00     0.000 HD 
HETATM   23  O   UNL     1     -13.270   9.855  71.831  1.00  0.00    -0.408 OA 
HETATM   24  C   UNL     1     -11.014   8.936  72.073  1.00  0.00    -0.342 C  
HETATM   25  H   UNL     1     -13.567   9.191  72.443  1.00  0.00     0.000 HD 
BRANCH  15  26
HETATM   26  C   UNL     1      -9.788  11.023  68.515  1.00  0.00    -0.192 C  
HETATM   27  O   UNL     1      -8.529  11.476  69.023  1.00  0.00    -0.355 OA 
HETATM   28  H   UNL     1      -8.172  12.134  68.438  1.00  0.00     0.000 HD 
ENDBRANCH  15  26
ENDBRANCH  13  14
ENDBRANCH   6  13
BRANCH   6  29
HETATM   29  C   UNL     1      -7.443   7.093  70.945  1.00  0.00    -0.080 C  
HETATM   30  H   UNL     1      -6.248   7.286  72.525  1.00  0.00     0.000 HD 
HETATM   31  O   UNL     1      -7.082   6.886  72.306  1.00  0.00    -0.072 OA 
ENDBRANCH   6  29
ENDBRANCH   2   4
TORSDOF 5
ENDMDL
MODEL      133
REMARK 921   NORMALIZED FREE ENERGY PREDICTED BY IDOCK:   -3.76 KCAL/MOL
REMARK 922        TOTAL FREE ENERGY PREDICTED BY IDOCK:   -5.86 KCAL/MOL
REMARK 923 INTER-LIGAND FREE ENERGY PREDICTED BY IDOCK:   -4.80 KCAL/MOL
REMARK 924 INTRA-LIGAND FREE ENERGY PREDICTED BY IDOCK:   -1.07 KCAL/MOL
REMARK 927      BINDING AFFINITY PREDICTED BY RF-SCORE:    0.00 PKD
ROOT
HETATM    1  O   UNL     1      -8.000   7.699  72.167  1.00  0.00    -0.096 OA 
HETATM    2  C   UNL     1      -8.760   6.510  72.000  1.00  0.00    -0.132 C  
HETATM    3  H   UNL     1      -7.686   7.778  73.060  1.00  0.00     0.000 HD 
ENDROOT
BRANCH   2   4
HETATM    4  C   UNL     1      -9.266   6.382  70.565  1.00  0.00    -0.158 C  
HETATM    5  O   UNL     1      -9.797   7.648  70.132  1.00  0.00    -0.183 OA 
HETATM    6  C   UNL     1      -9.697   7.684  68.696  1.00  0.00    -0.155 C  
HETATM    7  H   UNL     1      -6.374   7.510  68.419  1.00  0.00     0.000 HD 
HETATM    8  O   UNL     1      -8.492   4.675  69.006  1.00  0.00    -0.080 OA 
HETATM    9  C   UNL     1      -8.325   7.010  68.428  1.00  0.00    -0.124 C  
HETATM   10  C   UNL     1      -8.203   5.968  69.539  1.00  0.00    -0.115 C  
HETATM   11  H   UNL     1      -7.834   4.418  68.371  1.00  0.00     0.000 HD 
HETATM   12  O   UNL     1      -7.214   7.922  68.583  1.00  0.00    -0.077 OA 
BRANCH   6  13
HETATM   13  O   UNL     1      -9.621   9.045  68.215  1.00  0.00    -0.142 OA 
BRANCH  13  14
HETATM   14  C   UNL     1     -10.693   9.443  67.349  1.00  0.00    -0.210 C  
HETATM   15  C   UNL     1     -10.820  11.613  68.324  1.00  0.00    -0.219 C  
HETATM   16  O   UNL     1     -11.535  10.415  67.971  1.00  0.00    -0.356 OA 
HETATM   17  H   UNL     1      -8.947   9.424  64.551  1.00  0.00     0.000 HD 
HETATM   18  C   UNL     1     -10.299  12.313  67.074  1.00  0.00    -0.219 C  
HETATM   19  O   UNL     1      -9.286   9.071  65.365  1.00  0.00    -0.220 OA 
HETATM   20  O   UNL     1      -9.549  13.492  67.385  1.00  0.00    -0.215 OA 
HETATM   21  C   UNL     1      -9.417  11.350  66.263  1.00  0.00    -0.209 C  
HETATM   22  H   UNL     1      -9.224  13.928  66.606  1.00  0.00     0.000 HD 
HETATM   23  O   UNL     1      -9.075  11.983  65.020  1.00  0.00    -0.402 OA 
HETATM   24  C   UNL     1     -10.140  10.019  66.019  1.00  0.00    -0.248 C  
HETATM   25  H   UNL     1      -8.529  11.389  64.519  1.00  0.00     0.000 HD 
BRANCH  15  26
HETATM   26  C   UNL     1     -11.772  12.494  69.138  1.00  0.00    -0.321 C  
HETATM   27  O   UNL     1     -11.670  12.149  70.523  1.00  0.00    -0.513 OA 
HETATM   28  H   UNL     1     -12.260  12.696  71.028  1.00  0.00     0.000 HD 
ENDBRANCH  15  26
ENDBRANCH  13  14
ENDBRANCH   6  13
BRANCH   6  29
HETATM   29  C   UNL     1     -10.867   6.862  68.084  1.00  0.00    -0.194 C  
HETATM   30  H   UNL     1     -11.141   5.449  66.709  1.00  0.00     0.000 HD 
HETATM   31  O   UNL     1     -10.426   5.950  67.083  1.00  0.00    -0.209 OA 
ENDBRANCH   6  29
ENDBRANCH   2   4
TORSDOF 5
ENDMDL
MODEL      134
REMARK 921   NORMALIZED FREE ENERGY PREDICTED BY IDOCK:   -3.75 KCAL/MOL
REMARK 922        TOTAL FREE ENERGY PREDICTED BY IDOCK:   -5.85 KCAL/MOL
REMARK 923 INTER-LIGAND FREE ENERGY PREDICTED BY IDOCK:   -4.93 KCAL/MOL
REMARK 924 INTRA-LIGAND FREE ENERGY PREDICTED BY IDOCK:   -0.92 KCAL/MOL
REMARK 927      BINDING AFFINITY PREDICTED BY RF-SCORE:    0.00 PKD
ROOT
HETATM    1  O   UNL     1     -12.349  14.624  63.886  1.00  0.00    -0.962 OA 
HETATM    2  C   UNL     1     -11.363  13.686  64.291  1.00  0.00    -0.350 C  
HETATM    3  H   UNL     1     -12.209  14.897  62.987  1.00  0.00     0.000 HD 
ENDROOT
BRANCH   2   4
HETATM    4  C   UNL     1     -11.589  13.245  65.736  1.00  0.00    -0.337 C  
HETATM    5  O   UNL     1     -10.712  12.145  66.041  1.00  0.00    -0.256 OA 
HETATM    6  C   UNL     1     -10.498  12.152  67.464  1.00  0.00    -0.209 C  
HETATM    7  H   UNL     1      -8.996  15.122  67.734  1.00  0.00     0.000 HD 
HETATM    8  O   UNL     1     -12.546  14.684  67.456  1.00  0.00    -0.464 OA 
HETATM    9  C   UNL     1     -10.385  13.665  67.790  1.00  0.00    -0.241 C  
HETATM   10  C   UNL     1     -11.333  14.329  66.791  1.00  0.00    -0.348 C  
HETATM   11  H   UNL     1     -12.387  15.356  68.109  1.00  0.00     0.000 HD 
HETATM   12  O   UNL     1      -9.065  14.195  67.535  1.00  0.00    -0.180 OA 
BRANCH   6  13
HETATM   13  O   UNL     1      -9.236  11.533  67.804  1.00  0.00    -0.157 OA 
BRANCH  13  14
HETATM   14  C   UNL     1      -8.432  11.142  66.683  1.00  0.00    -0.164 C  
HETATM   15  C   UNL     1      -6.400  11.520  67.870  1.00  0.00    -0.056 C  
HETATM   16  O   UNL     1      -7.168  11.808  66.687  1.00  0.00    -0.089 OA 
HETATM   17  H   UNL     1      -9.310   7.963  66.678  1.00  0.00     0.000 HD 
HETATM   18  C   UNL     1      -6.044  10.039  67.927  1.00  0.00    -0.053 C  
HETATM   19  O   UNL     1      -9.450   8.902  66.679  1.00  0.00    -0.170 OA 
HETATM   20  O   UNL     1      -5.310   9.704  69.111  1.00  0.00    -0.036 OA 
HETATM   21  C   UNL     1      -7.323   9.189  67.866  1.00  0.00    -0.084 C  
HETATM   22  H   UNL     1      -5.088   8.780  69.147  1.00  0.00     0.000 HD 
HETATM   23  O   UNL     1      -6.946   7.807  67.762  1.00  0.00    -0.076 OA 
HETATM   24  C   UNL     1      -8.203   9.608  66.680  1.00  0.00    -0.120 C  
HETATM   25  H   UNL     1      -7.736   7.281  67.724  1.00  0.00     0.000 HD 
BRANCH  15  26
HETATM   26  C   UNL     1      -5.164  12.423  67.848  1.00  0.00    -0.082 C  
HETATM   27  O   UNL     1      -5.372  13.490  66.917  1.00  0.00     0.054 OA 
HETATM   28  H   UNL     1      -4.605  14.050  66.903  1.00  0.00     0.000 HD 
ENDBRANCH  15  26
ENDBRANCH  13  14
ENDBRANCH   6  13
BRANCH   6  29
HETATM   29  C   UNL     1     -11.727  11.506  68.166  1.00  0.00    -0.287 C  
HETATM   30  H   UNL     1     -12.840  11.791  69.793  1.00  0.00     0.000 HD 
HETATM   31  O   UNL     1     -12.089  12.186  69.364  1.00  0.00    -0.268 OA 
ENDBRANCH   6  29
ENDBRANCH   2   4
TORSDOF 5
ENDMDL
MODEL      135
REMARK 921   NORMALIZED FREE ENERGY PREDICTED BY IDOCK:   -3.75 KCAL/MOL
REMARK 922        TOTAL FREE ENERGY PREDICTED BY IDOCK:   -5.85 KCAL/MOL
REMARK 923 INTER-LIGAND FREE ENERGY PREDICTED BY IDOCK:   -4.63 KCAL/MOL
REMARK 924 INTRA-LIGAND FREE ENERGY PREDICTED BY IDOCK:   -1.23 KCAL/MOL
REMARK 927      BINDING AFFINITY PREDICTED BY RF-SCORE:    0.00 PKD
ROOT
HETATM    1  O   UNL     1     -11.031   5.923  71.264  1.00  0.00    -0.266 OA 
HETATM    2  C   UNL     1     -11.551   6.736  70.222  1.00  0.00    -0.362 C  
HETATM    3  H   UNL     1     -11.687   5.766  71.932  1.00  0.00     0.000 HD 
ENDROOT
BRANCH   2   4
HETATM    4  C   UNL     1     -10.496   6.989  69.147  1.00  0.00    -0.207 C  
HETATM    5  O   UNL     1     -10.665   8.317  68.618  1.00  0.00    -0.150 OA 
HETATM    6  C   UNL     1      -9.387   8.737  68.105  1.00  0.00    -0.140 C  
HETATM    7  H   UNL     1      -7.658   8.690  70.961  1.00  0.00     0.000 HD 
HETATM    8  O   UNL     1      -8.389   5.771  69.007  1.00  0.00    -0.100 OA 
HETATM    9  C   UNL     1      -8.391   8.179  69.157  1.00  0.00    -0.131 C  
HETATM   10  C   UNL     1      -9.044   6.879  69.627  1.00  0.00    -0.143 C  
HETATM   11  H   UNL     1      -7.489   5.703  69.304  1.00  0.00     0.000 HD 
HETATM   12  O   UNL     1      -8.267   9.031  70.317  1.00  0.00    -0.111 OA 
BRANCH   6  13
HETATM   13  O   UNL     1      -9.272  10.179  68.112  1.00  0.00    -0.134 OA 
BRANCH  13  14
HETATM   14  C   UNL     1      -9.369  10.800  66.824  1.00  0.00    -0.161 C  
HETATM   15  C   UNL     1     -10.637  12.627  67.681  1.00  0.00    -0.218 C  
HETATM   16  O   UNL     1     -10.565  11.573  66.704  1.00  0.00    -0.232 OA 
HETATM   17  H   UNL     1      -6.168  11.530  66.512  1.00  0.00     0.000 HD 
HETATM   18  C   UNL     1      -9.515  13.636  67.461  1.00  0.00    -0.222 C  
HETATM   19  O   UNL     1      -6.920  10.972  66.674  1.00  0.00    -0.124 OA 
HETATM   20  O   UNL     1      -9.529  14.684  68.438  1.00  0.00    -0.196 OA 
HETATM   21  C   UNL     1      -8.154  12.924  67.501  1.00  0.00    -0.181 C  
HETATM   22  H   UNL     1      -8.829  15.313  68.301  1.00  0.00     0.000 HD 
HETATM   23  O   UNL     1      -7.135  13.868  67.134  1.00  0.00    -0.366 OA 
HETATM   24  C   UNL     1      -8.142  11.712  66.559  1.00  0.00    -0.075 C  
HETATM   25  H   UNL     1      -6.294  13.428  67.159  1.00  0.00     0.000 HD 
BRANCH  15  26
HETATM   26  C   UNL     1     -12.027  13.260  67.575  1.00  0.00    -0.324 C  
HETATM   27  O   UNL     1     -12.293  14.022  68.756  1.00  0.00    -0.522 OA 
HETATM   28  H   UNL     1     -13.155  14.415  68.691  1.00  0.00     0.000 HD 
ENDBRANCH  15  26
ENDBRANCH  13  14
ENDBRANCH   6  13
BRANCH   6  29
HETATM   29  C   UNL     1      -9.163   8.092  66.707  1.00  0.00    -0.164 C  
HETATM   30  H   UNL     1      -7.709   7.180  65.697  1.00  0.00     0.000 HD 
HETATM   31  O   UNL     1      -7.846   7.574  66.552  1.00  0.00    -0.097 OA 
ENDBRANCH   6  29
ENDBRANCH   2   4
TORSDOF 5
ENDMDL
MODEL      136
REMARK 921   NORMALIZED FREE ENERGY PREDICTED BY IDOCK:   -3.72 KCAL/MOL
REMARK 922        TOTAL FREE ENERGY PREDICTED BY IDOCK:   -5.82 KCAL/MOL
REMARK 923 INTER-LIGAND FREE ENERGY PREDICTED BY IDOCK:   -4.99 KCAL/MOL
REMARK 924 INTRA-LIGAND FREE ENERGY PREDICTED BY IDOCK:   -0.83 KCAL/MOL
REMARK 927      BINDING AFFINITY PREDICTED BY RF-SCORE:    0.00 PKD
ROOT
HETATM    1  O   UNL     1     -10.919  11.004  63.472  1.00  0.00    -0.583 OA 
HETATM    2  C   UNL     1      -9.767  10.252  63.823  1.00  0.00    -0.235 C  
HETATM    3  H   UNL     1     -11.112  10.917  62.546  1.00  0.00     0.000 HD 
ENDROOT
BRANCH   2   4
HETATM    4  C   UNL     1      -9.456  10.391  65.311  1.00  0.00    -0.237 C  
HETATM    5  O   UNL     1      -9.433  11.786  65.665  1.00  0.00    -0.231 OA 
HETATM    6  C   UNL     1      -9.742  11.874  67.069  1.00  0.00    -0.194 C  
HETATM    7  H   UNL     1     -12.831  10.607  66.986  1.00  0.00     0.000 HD 
HETATM    8  O   UNL     1      -9.843   8.622  66.944  1.00  0.00    -0.193 OA 
HETATM    9  C   UNL     1     -10.843  10.795  67.250  1.00  0.00    -0.288 C  
HETATM   10  C   UNL     1     -10.459   9.706  66.248  1.00  0.00    -0.079 C  
HETATM   11  H   UNL     1     -10.464   8.198  67.524  1.00  0.00     0.000 HD 
HETATM   12  O   UNL     1     -12.157  11.268  66.875  1.00  0.00    -0.093 OA 
BRANCH   6  13
HETATM   13  O   UNL     1     -10.326  13.157  67.393  1.00  0.00    -0.236 OA 
BRANCH  13  14
HETATM   14  C   UNL     1      -9.684  13.861  68.464  1.00  0.00    -0.202 C  
HETATM   15  C   UNL     1      -9.098  15.691  67.055  1.00  0.00    -0.219 C  
HETATM   16  O   UNL     1      -8.630  14.697  67.984  1.00  0.00    -0.150 OA 
HETATM   17  H   UNL     1     -12.415  14.452  70.218  1.00  0.00     0.000 HD 
HETATM   18  C   UNL     1     -10.057  16.655  67.743  1.00  0.00    -0.275 C  
HETATM   19  O   UNL     1     -11.787  13.922  69.741  1.00  0.00    -0.289 OA 
HETATM   20  O   UNL     1     -10.576  17.640  66.842  1.00  0.00    -0.317 OA 
HETATM   21  C   UNL     1     -11.225  15.877  68.370  1.00  0.00    -0.368 C  
HETATM   22  H   UNL     1     -11.174  18.242  67.271  1.00  0.00     0.000 HD 
HETATM   23  O   UNL     1     -12.020  16.791  69.141  1.00  0.00     0.059 OA 
HETATM   24  C   UNL     1     -10.709  14.726  69.245  1.00  0.00    -0.256 C  
HETATM   25  H   UNL     1     -12.742  16.310  69.528  1.00  0.00     0.000 HD 
BRANCH  15  26
HETATM   26  C   UNL     1      -7.868  16.396  66.476  1.00  0.00    -0.288 C  
HETATM   27  O   UNL     1      -6.745  15.511  66.529  1.00  0.00    -0.040 OA 
HETATM   28  H   UNL     1      -5.982  15.948  66.170  1.00  0.00     0.000 HD 
ENDBRANCH  15  26
ENDBRANCH  13  14
ENDBRANCH   6  13
BRANCH   6  29
HETATM   29  C   UNL     1      -8.467  11.534  67.893  1.00  0.00    -0.142 C  
HETATM   30  H   UNL     1      -7.930  10.332  69.386  1.00  0.00     0.000 HD 
HETATM   31  O   UNL     1      -8.708  10.540  68.883  1.00  0.00    -0.138 OA 
ENDBRANCH   6  29
ENDBRANCH   2   4
TORSDOF 5
ENDMDL
MODEL      137
REMARK 921   NORMALIZED FREE ENERGY PREDICTED BY IDOCK:   -3.71 KCAL/MOL
REMARK 922        TOTAL FREE ENERGY PREDICTED BY IDOCK:   -5.80 KCAL/MOL
REMARK 923 INTER-LIGAND FREE ENERGY PREDICTED BY IDOCK:   -5.28 KCAL/MOL
REMARK 924 INTRA-LIGAND FREE ENERGY PREDICTED BY IDOCK:   -0.52 KCAL/MOL
REMARK 927      BINDING AFFINITY PREDICTED BY RF-SCORE:    0.00 PKD
ROOT
HETATM    1  O   UNL     1      -9.137   7.773  64.677  1.00  0.00    -0.071 OA 
HETATM    2  C   UNL     1      -8.049   8.362  65.375  1.00  0.00    -0.133 C  
HETATM    3  H   UNL     1      -8.831   7.117  64.062  1.00  0.00     0.000 HD 
ENDROOT
BRANCH   2   4
HETATM    4  C   UNL     1      -8.541   9.416  66.364  1.00  0.00    -0.134 C  
HETATM    5  O   UNL     1      -9.407   8.795  67.332  1.00  0.00    -0.134 OA 
HETATM    6  C   UNL     1      -9.360   9.600  68.524  1.00  0.00    -0.137 C  
HETATM    7  H   UNL     1      -6.122   9.231  69.255  1.00  0.00     0.000 HD 
HETATM    8  O   UNL     1      -7.379  11.517  66.791  1.00  0.00    -0.156 OA 
HETATM    9  C   UNL     1      -7.865  10.008  68.608  1.00  0.00    -0.091 C  
HETATM   10  C   UNL     1      -7.435  10.135  67.147  1.00  0.00    -0.091 C  
HETATM   11  H   UNL     1      -6.693  11.961  67.276  1.00  0.00     0.000 HD 
HETATM   12  O   UNL     1      -7.038   8.982  69.203  1.00  0.00    -0.061 OA 
BRANCH   6  13
HETATM   13  O   UNL     1      -9.667   8.811  69.696  1.00  0.00    -0.168 OA 
BRANCH  13  14
HETATM   14  C   UNL     1      -9.744   9.551  70.922  1.00  0.00    -0.172 C  
HETATM   15  C   UNL     1     -11.990   8.862  71.324  1.00  0.00    -0.307 C  
HETATM   16  O   UNL     1     -11.082   9.972  71.197  1.00  0.00    -0.333 OA 
HETATM   17  H   UNL     1      -7.556   7.739  72.597  1.00  0.00     0.000 HD 
HETATM   18  C   UNL     1     -11.614   7.999  72.523  1.00  0.00    -0.403 C  
HETATM   19  O   UNL     1      -7.877   8.259  71.870  1.00  0.00    -0.105 OA 
HETATM   20  O   UNL     1     -12.472   6.861  72.663  1.00  0.00    -0.447 OA 
HETATM   21  C   UNL     1     -10.158   7.522  72.391  1.00  0.00    -0.203 C  
HETATM   22  H   UNL     1     -12.238   6.323  73.410  1.00  0.00     0.000 HD 
HETATM   23  O   UNL     1      -9.788   6.849  73.604  1.00  0.00    -0.203 OA 
HETATM   24  C   UNL     1      -9.219   8.703  72.110  1.00  0.00    -0.255 C  
HETATM   25  H   UNL     1      -8.888   6.554  73.522  1.00  0.00     0.000 HD 
BRANCH  15  26
HETATM   26  C   UNL     1     -13.405   9.436  71.432  1.00  0.00    -0.346 C  
HETATM   27  O   UNL     1     -13.736   9.626  72.811  1.00  0.00    -0.692 OA 
HETATM   28  H   UNL     1     -14.614   9.982  72.879  1.00  0.00     0.000 HD 
ENDBRANCH  15  26
ENDBRANCH  13  14
ENDBRANCH   6  13
BRANCH   6  29
HETATM   29  C   UNL     1     -10.281  10.840  68.338  1.00  0.00    -0.175 C  
HETATM   30  H   UNL     1     -12.146  11.244  67.769  1.00  0.00     0.000 HD 
HETATM   31  O   UNL     1     -11.583  10.487  67.883  1.00  0.00    -0.461 OA 
ENDBRANCH   6  29
ENDBRANCH   2   4
TORSDOF 5
ENDMDL
MODEL      138
REMARK 921   NORMALIZED FREE ENERGY PREDICTED BY IDOCK:   -3.66 KCAL/MOL
REMARK 922        TOTAL FREE ENERGY PREDICTED BY IDOCK:   -5.74 KCAL/MOL
REMARK 923 INTER-LIGAND FREE ENERGY PREDICTED BY IDOCK:   -4.64 KCAL/MOL
REMARK 924 INTRA-LIGAND FREE ENERGY PREDICTED BY IDOCK:   -1.10 KCAL/MOL
REMARK 927      BINDING AFFINITY PREDICTED BY RF-SCORE:    0.00 PKD
ROOT
HETATM    1  O   UNL     1      -5.453   6.139  67.591  1.00  0.00    -0.004 OA 
HETATM    2  C   UNL     1      -6.344   6.857  68.432  1.00  0.00    -0.035 C  
HETATM    3  H   UNL     1      -4.555   6.237  67.885  1.00  0.00     0.000 HD 
ENDROOT
BRANCH   2   4
HETATM    4  C   UNL     1      -7.788   6.699  67.960  1.00  0.00    -0.113 C  
HETATM    5  O   UNL     1      -8.600   7.723  68.562  1.00  0.00    -0.128 OA 
HETATM    6  C   UNL     1      -9.729   7.937  67.694  1.00  0.00    -0.156 C  
HETATM    7  H   UNL     1      -8.089   9.006  64.989  1.00  0.00     0.000 HD 
HETATM    8  O   UNL     1      -8.421   5.552  65.903  1.00  0.00    -0.120 OA 
HETATM    9  C   UNL     1      -9.101   7.836  66.278  1.00  0.00    -0.178 C  
HETATM   10  C   UNL     1      -7.987   6.802  66.442  1.00  0.00    -0.106 C  
HETATM   11  H   UNL     1      -8.544   5.616  64.963  1.00  0.00     0.000 HD 
HETATM   12  O   UNL     1      -8.474   9.067  65.855  1.00  0.00    -0.127 OA 
BRANCH   6  13
HETATM   13  O   UNL     1     -10.256   9.274  67.847  1.00  0.00    -0.189 OA 
BRANCH  13  14
HETATM   14  C   UNL     1      -9.584  10.083  68.821  1.00  0.00    -0.168 C  
HETATM   15  C   UNL     1      -9.993  12.088  67.600  1.00  0.00    -0.191 C  
HETATM   16  O   UNL     1      -9.008  11.248  68.228  1.00  0.00    -0.158 OA 
HETATM   17  H   UNL     1     -11.761   9.631  71.257  1.00  0.00     0.000 HD 
HETATM   18  C   UNL     1     -10.966  12.637  68.637  1.00  0.00    -0.256 C  
HETATM   19  O   UNL     1     -11.163   9.368  70.567  1.00  0.00    -0.248 OA 
HETATM   20  O   UNL     1     -11.987  13.450  68.046  1.00  0.00    -0.350 OA 
HETATM   21  C   UNL     1     -11.622  11.480  69.407  1.00  0.00    -0.321 C  
HETATM   22  H   UNL     1     -12.593  13.792  68.693  1.00  0.00     0.000 HD 
HETATM   23  O   UNL     1     -12.406  12.031  70.476  1.00  0.00    -0.336 OA 
HETATM   24  C   UNL     1     -10.561  10.512  69.948  1.00  0.00    -0.211 C  
HETATM   25  H   UNL     1     -12.812  11.316  70.952  1.00  0.00     0.000 HD 
BRANCH  15  26
HETATM   26  C   UNL     1      -9.246  13.193  66.850  1.00  0.00    -0.236 C  
HETATM   27  O   UNL     1      -9.843  13.381  65.563  1.00  0.00    -0.443 OA 
HETATM   28  H   UNL     1      -9.379  14.067  65.097  1.00  0.00     0.000 HD 
ENDBRANCH  15  26
ENDBRANCH  13  14
ENDBRANCH   6  13
BRANCH   6  29
HETATM   29  C   UNL     1     -10.777   6.813  67.936  1.00  0.00    -0.256 C  
HETATM   30  H   UNL     1     -11.917   5.578  66.870  1.00  0.00     0.000 HD 
HETATM   31  O   UNL     1     -11.277   6.264  66.722  1.00  0.00    -0.310 OA 
ENDBRANCH   6  29
ENDBRANCH   2   4
TORSDOF 5
ENDMDL
MODEL      139
REMARK 921   NORMALIZED FREE ENERGY PREDICTED BY IDOCK:   -3.65 KCAL/MOL
REMARK 922        TOTAL FREE ENERGY PREDICTED BY IDOCK:   -5.72 KCAL/MOL
REMARK 923 INTER-LIGAND FREE ENERGY PREDICTED BY IDOCK:   -4.99 KCAL/MOL
REMARK 924 INTRA-LIGAND FREE ENERGY PREDICTED BY IDOCK:   -0.73 KCAL/MOL
REMARK 927      BINDING AFFINITY PREDICTED BY RF-SCORE:    0.00 PKD
ROOT
HETATM    1  O   UNL     1     -13.269  15.928  70.348  1.00  0.00    -0.733 OA 
HETATM    2  C   UNL     1     -12.243  14.964  70.164  1.00  0.00    -0.336 C  
HETATM    3  H   UNL     1     -14.006  15.554  70.816  1.00  0.00     0.000 HD 
ENDROOT
BRANCH   2   4
HETATM    4  C   UNL     1     -11.057  15.564  69.412  1.00  0.00    -0.291 C  
HETATM    5  O   UNL     1     -10.128  14.518  69.075  1.00  0.00    -0.227 OA 
HETATM    6  C   UNL     1      -9.393  14.956  67.918  1.00  0.00    -0.191 C  
HETATM    7  H   UNL     1     -11.934  15.176  65.762  1.00  0.00     0.000 HD 
HETATM    8  O   UNL     1     -11.151  17.682  68.207  1.00  0.00    -0.173 OA 
HETATM    9  C   UNL     1     -10.480  15.666  67.066  1.00  0.00    -0.303 C  
HETATM   10  C   UNL     1     -11.417  16.282  68.105  1.00  0.00    -0.173 C  
HETATM   11  H   UNL     1     -11.374  18.127  67.398  1.00  0.00     0.000 HD 
HETATM   12  O   UNL     1     -11.268  14.742  66.283  1.00  0.00    -0.338 OA 
BRANCH   6  13
HETATM   13  O   UNL     1      -8.903  13.830  67.155  1.00  0.00    -0.215 OA 
BRANCH  13  14
HETATM   14  C   UNL     1      -8.430  12.727  67.940  1.00  0.00    -0.173 C  
HETATM   15  C   UNL     1      -9.696  11.148  66.682  1.00  0.00    -0.196 C  
HETATM   16  O   UNL     1      -9.389  11.668  67.988  1.00  0.00    -0.165 OA 
HETATM   17  H   UNL     1      -5.286  12.883  66.958  1.00  0.00     0.000 HD 
HETATM   18  C   UNL     1      -8.462  10.507  66.059  1.00  0.00    -0.156 C  
HETATM   19  O   UNL     1      -6.104  13.216  67.306  1.00  0.00    -0.320 OA 
HETATM   20  O   UNL     1      -8.716  10.008  64.740  1.00  0.00    -0.160 OA 
HETATM   21  C   UNL     1      -7.313  11.527  66.002  1.00  0.00     0.335 C  
HETATM   22  H   UNL     1      -7.946   9.609  64.351  1.00  0.00     0.000 HD 
HETATM   23  O   UNL     1      -6.125  10.851  65.560  1.00  0.00    -0.296 OA 
HETATM   24  C   UNL     1      -7.093  12.181  67.372  1.00  0.00    -0.146 C  
HETATM   25  H   UNL     1      -5.415  11.481  65.524  1.00  0.00     0.000 HD 
BRANCH  15  26
HETATM   26  C   UNL     1     -10.856  10.160  66.841  1.00  0.00    -0.106 C  
HETATM   27  O   UNL     1     -10.548   9.232  67.885  1.00  0.00    -0.256 OA 
HETATM   28  H   UNL     1     -11.268   8.619  67.984  1.00  0.00     0.000 HD 
ENDBRANCH  15  26
ENDBRANCH  13  14
ENDBRANCH   6  13
BRANCH   6  29
HETATM   29  C   UNL     1      -8.281  15.947  68.366  1.00  0.00    -0.161 C  
HETATM   30  H   UNL     1      -6.845  16.059  69.741  1.00  0.00     0.000 HD 
HETATM   31  O   UNL     1      -7.524  15.454  69.466  1.00  0.00    -0.204 OA 
ENDBRANCH   6  29
ENDBRANCH   2   4
TORSDOF 5
ENDMDL
MODEL      140
REMARK 921   NORMALIZED FREE ENERGY PREDICTED BY IDOCK:   -3.64 KCAL/MOL
REMARK 922        TOTAL FREE ENERGY PREDICTED BY IDOCK:   -5.71 KCAL/MOL
REMARK 923 INTER-LIGAND FREE ENERGY PREDICTED BY IDOCK:   -5.36 KCAL/MOL
REMARK 924 INTRA-LIGAND FREE ENERGY PREDICTED BY IDOCK:   -0.35 KCAL/MOL
REMARK 927      BINDING AFFINITY PREDICTED BY RF-SCORE:    0.00 PKD
ROOT
HETATM    1  O   UNL     1     -11.320  13.718  70.187  1.00  0.00    -0.477 OA 
HETATM    2  C   UNL     1     -12.001  12.677  69.503  1.00  0.00    -0.270 C  
HETATM    3  H   UNL     1     -11.422  13.631  71.127  1.00  0.00     0.000 HD 
ENDROOT
BRANCH   2   4
HETATM    4  C   UNL     1     -11.837  12.817  67.991  1.00  0.00    -0.336 C  
HETATM    5  O   UNL     1     -11.653  14.206  67.659  1.00  0.00    -0.323 OA 
HETATM    6  C   UNL     1     -10.929  14.254  66.415  1.00  0.00    -0.311 C  
HETATM    7  H   UNL     1      -8.108  12.775  67.416  1.00  0.00     0.000 HD 
HETATM    8  O   UNL     1     -11.102  11.004  66.536  1.00  0.00    -0.226 OA 
HETATM    9  C   UNL     1      -9.905  13.098  66.565  1.00  0.00    -0.265 C  
HETATM   10  C   UNL     1     -10.649  12.052  67.395  1.00  0.00    -0.223 C  
HETATM   11  H   UNL     1     -10.366  10.530  66.167  1.00  0.00     0.000 HD 
HETATM   12  O   UNL     1      -8.736  13.482  67.324  1.00  0.00    -0.205 OA 
BRANCH   6  13
HETATM   13  O   UNL     1     -10.186  15.488  66.294  1.00  0.00    -0.267 OA 
BRANCH  13  14
HETATM   14  C   UNL     1      -9.814  16.096  67.538  1.00  0.00    -0.237 C  
HETATM   15  C   UNL     1      -7.946  17.207  66.562  1.00  0.00    -0.289 C  
HETATM   16  O   UNL     1      -8.406  16.332  67.607  1.00  0.00    -0.158 OA 
HETATM   17  H   UNL     1     -12.449  18.064  67.800  1.00  0.00     0.000 HD 
HETATM   18  C   UNL     1      -8.565  18.592  66.714  1.00  0.00    -0.284 C  
HETATM   19  O   UNL     1     -11.987  17.243  67.676  1.00  0.00     1.092 OA 
HETATM   20  O   UNL     1      -8.160  19.485  65.669  1.00  0.00    -0.409 OA 
HETATM   21  C   UNL     1     -10.098  18.483  66.721  1.00  0.00    -0.380 C  
HETATM   22  H   UNL     1      -8.546  20.348  65.764  1.00  0.00     0.000 HD 
HETATM   23  O   UNL     1     -10.645  19.776  67.024  1.00  0.00    -0.458 OA 
HETATM   24  C   UNL     1     -10.568  17.437  67.741  1.00  0.00    -0.371 C  
HETATM   25  H   UNL     1     -11.593  19.709  67.028  1.00  0.00     0.000 HD 
BRANCH  15  26
HETATM   26  C   UNL     1      -6.416  17.236  66.626  1.00  0.00    -0.228 C  
HETATM   27  O   UNL     1      -5.895  17.609  65.347  1.00  0.00    -0.021 OA 
HETATM   28  H   UNL     1      -4.946  17.627  65.386  1.00  0.00     0.000 HD 
ENDBRANCH  15  26
ENDBRANCH  13  14
ENDBRANCH   6  13
BRANCH   6  29
HETATM   29  C   UNL     1     -11.917  13.993  65.242  1.00  0.00    -0.379 C  
HETATM   30  H   UNL     1     -12.053  12.827  63.633  1.00  0.00     0.000 HD 
HETATM   31  O   UNL     1     -11.450  12.986  64.351  1.00  0.00    -0.332 OA 
ENDBRANCH   6  29
ENDBRANCH   2   4
TORSDOF 5
ENDMDL
MODEL      141
REMARK 921   NORMALIZED FREE ENERGY PREDICTED BY IDOCK:   -3.64 KCAL/MOL
REMARK 922        TOTAL FREE ENERGY PREDICTED BY IDOCK:   -5.71 KCAL/MOL
REMARK 923 INTER-LIGAND FREE ENERGY PREDICTED BY IDOCK:   -4.64 KCAL/MOL
REMARK 924 INTRA-LIGAND FREE ENERGY PREDICTED BY IDOCK:   -1.06 KCAL/MOL
REMARK 927      BINDING AFFINITY PREDICTED BY RF-SCORE:    0.00 PKD
ROOT
HETATM    1  O   UNL     1     -10.018   3.488  66.653  1.00  0.00    -0.397 OA 
HETATM    2  C   UNL     1     -10.288   4.793  66.164  1.00  0.00    -0.300 C  
HETATM    3  H   UNL     1     -10.794   2.943  66.614  1.00  0.00     0.000 HD 
ENDROOT
BRANCH   2   4
HETATM    4  C   UNL     1      -9.039   5.670  66.227  1.00  0.00    -0.148 C  
HETATM    5  O   UNL     1      -9.426   7.055  66.164  1.00  0.00    -0.117 OA 
HETATM    6  C   UNL     1      -8.388   7.817  66.807  1.00  0.00    -0.125 C  
HETATM    7  H   UNL     1      -8.649   6.534  69.879  1.00  0.00     0.000 HD 
HETATM    8  O   UNL     1      -6.916   4.935  67.175  1.00  0.00    -0.062 OA 
HETATM    9  C   UNL     1      -7.997   6.922  68.013  1.00  0.00    -0.115 C  
HETATM   10  C   UNL     1      -8.190   5.498  67.492  1.00  0.00    -0.101 C  
HETATM   11  H   UNL     1      -6.391   4.828  67.958  1.00  0.00     0.000 HD 
HETATM   12  O   UNL     1      -8.888   7.082  69.140  1.00  0.00    -0.135 OA 
BRANCH   6  13
HETATM   13  O   UNL     1      -8.905   9.061  67.332  1.00  0.00    -0.119 OA 
BRANCH  13  14
HETATM   14  C   UNL     1     -10.299   9.290  67.085  1.00  0.00    -0.260 C  
HETATM   15  C   UNL     1     -10.574  10.490  69.126  1.00  0.00    -0.229 C  
HETATM   16  O   UNL     1     -11.035   9.402  68.305  1.00  0.00    -0.152 OA 
HETATM   17  H   UNL     1      -9.902  11.293  64.495  1.00  0.00     0.000 HD 
HETATM   18  C   UNL     1     -10.806  11.823  68.424  1.00  0.00    -0.223 C  
HETATM   19  O   UNL     1      -9.776  10.505  65.010  1.00  0.00    -0.242 OA 
HETATM   20  O   UNL     1     -10.325  12.932  69.194  1.00  0.00    -0.432 OA 
HETATM   21  C   UNL     1     -10.114  11.822  67.052  1.00  0.00    -0.209 C  
HETATM   22  H   UNL     1     -10.470  13.763  68.757  1.00  0.00     0.000 HD 
HETATM   23  O   UNL     1     -10.482  13.022  66.355  1.00  0.00    -0.269 OA 
HETATM   24  C   UNL     1     -10.504  10.577  66.243  1.00  0.00    -0.183 C  
HETATM   25  H   UNL     1     -10.054  13.022  65.507  1.00  0.00     0.000 HD 
BRANCH  15  26
HETATM   26  C   UNL     1     -11.304  10.396  70.468  1.00  0.00    -0.341 C  
HETATM   27  O   UNL     1     -12.366  11.355  70.499  1.00  0.00    -0.342 OA 
HETATM   28  H   UNL     1     -12.819  11.296  71.332  1.00  0.00     0.000 HD 
ENDBRANCH  15  26
ENDBRANCH  13  14
ENDBRANCH   6  13
BRANCH   6  29
HETATM   29  C   UNL     1      -7.200   7.993  65.818  1.00  0.00    -0.071 C  
HETATM   30  H   UNL     1      -6.030   9.451  65.132  1.00  0.00     0.000 HD 
HETATM   31  O   UNL     1      -6.755   9.343  65.737  1.00  0.00    -0.075 OA 
ENDBRANCH   6  29
ENDBRANCH   2   4
TORSDOF 5
ENDMDL
MODEL      142
REMARK 921   NORMALIZED FREE ENERGY PREDICTED BY IDOCK:   -3.64 KCAL/MOL
REMARK 922        TOTAL FREE ENERGY PREDICTED BY IDOCK:   -5.71 KCAL/MOL
REMARK 923 INTER-LIGAND FREE ENERGY PREDICTED BY IDOCK:   -5.05 KCAL/MOL
REMARK 924 INTRA-LIGAND FREE ENERGY PREDICTED BY IDOCK:   -0.66 KCAL/MOL
REMARK 927      BINDING AFFINITY PREDICTED BY RF-SCORE:    0.00 PKD
ROOT
HETATM    1  O   UNL     1     -12.292  14.080  67.654  1.00  0.00    -0.526 OA 
HETATM    2  C   UNL     1     -11.954  12.750  68.016  1.00  0.00    -0.264 C  
HETATM    3  H   UNL     1     -13.193  14.275  67.881  1.00  0.00     0.000 HD 
ENDROOT
BRANCH   2   4
HETATM    4  C   UNL     1     -10.505  12.435  67.651  1.00  0.00    -0.216 C  
HETATM    5  O   UNL     1      -9.969  11.491  68.596  1.00  0.00    -0.210 OA 
HETATM    6  C   UNL     1      -8.907  10.781  67.934  1.00  0.00    -0.132 C  
HETATM    7  H   UNL     1     -10.698   9.326  65.522  1.00  0.00     0.000 HD 
HETATM    8  O   UNL     1      -9.578  12.732  65.415  1.00  0.00    -0.459 OA 
HETATM    9  C   UNL     1      -9.464  10.581  66.500  1.00  0.00    -0.166 C  
HETATM   10  C   UNL     1     -10.305  11.833  66.254  1.00  0.00    -0.224 C  
HETATM   11  H   UNL     1      -9.454  12.359  64.550  1.00  0.00     0.000 HD 
HETATM   12  O   UNL     1     -10.357   9.448  66.400  1.00  0.00    -0.242 OA 
BRANCH   6  13
HETATM   13  O   UNL     1      -8.713   9.472  68.518  1.00  0.00    -0.122 OA 
BRANCH  13  14
HETATM   14  C   UNL     1      -9.197   9.330  69.860  1.00  0.00    -0.195 C  
HETATM   15  C   UNL     1      -9.680   7.016  69.557  1.00  0.00    -0.160 C  
HETATM   16  O   UNL     1     -10.187   8.303  69.955  1.00  0.00    -0.193 OA 
HETATM   17  H   UNL     1      -6.302   9.821  71.361  1.00  0.00     0.000 HD 
HETATM   18  C   UNL     1      -8.576   6.561  70.503  1.00  0.00    -0.143 C  
HETATM   19  O   UNL     1      -7.015  10.017  70.765  1.00  0.00    -0.305 OA 
HETATM   20  O   UNL     1      -8.018   5.298  70.119  1.00  0.00    -0.078 OA 
HETATM   21  C   UNL     1      -7.458   7.615  70.551  1.00  0.00    -0.079 C  
HETATM   22  H   UNL     1      -7.330   5.014  70.710  1.00  0.00     0.000 HD 
HETATM   23  O   UNL     1      -6.516   7.233  71.566  1.00  0.00    -0.040 OA 
HETATM   24  C   UNL     1      -8.032   9.009  70.833  1.00  0.00    -0.164 C  
HETATM   25  H   UNL     1      -5.824   7.884  71.595  1.00  0.00     0.000 HD 
BRANCH  15  26
HETATM   26  C   UNL     1     -10.864   6.046  69.523  1.00  0.00    -0.369 C  
HETATM   27  O   UNL     1     -12.083   6.778  69.682  1.00  0.00    -0.635 OA 
HETATM   28  H   UNL     1     -12.818   6.177  69.661  1.00  0.00     0.000 HD 
ENDBRANCH  15  26
ENDBRANCH  13  14
ENDBRANCH   6  13
BRANCH   6  29
HETATM   29  C   UNL     1      -7.627  11.666  67.932  1.00  0.00    -0.115 C  
HETATM   30  H   UNL     1      -6.787  13.081  69.053  1.00  0.00     0.000 HD 
HETATM   31  O   UNL     1      -7.568  12.540  69.054  1.00  0.00    -0.011 OA 
ENDBRANCH   6  29
ENDBRANCH   2   4
TORSDOF 5
ENDMDL
MODEL      143
REMARK 921   NORMALIZED FREE ENERGY PREDICTED BY IDOCK:   -3.64 KCAL/MOL
REMARK 922        TOTAL FREE ENERGY PREDICTED BY IDOCK:   -5.71 KCAL/MOL
REMARK 923 INTER-LIGAND FREE ENERGY PREDICTED BY IDOCK:   -4.91 KCAL/MOL
REMARK 924 INTRA-LIGAND FREE ENERGY PREDICTED BY IDOCK:   -0.80 KCAL/MOL
REMARK 927      BINDING AFFINITY PREDICTED BY RF-SCORE:    0.00 PKD
ROOT
HETATM    1  O   UNL     1      -6.223  10.830  69.607  1.00  0.00    -0.057 OA 
HETATM    2  C   UNL     1      -6.037   9.578  68.962  1.00  0.00    -0.042 C  
HETATM    3  H   UNL     1      -5.397  11.288  69.702  1.00  0.00     0.000 HD 
ENDROOT
BRANCH   2   4
HETATM    4  C   UNL     1      -7.365   8.840  68.809  1.00  0.00    -0.083 C  
HETATM    5  O   UNL     1      -8.385   9.773  68.407  1.00  0.00    -0.108 OA 
HETATM    6  C   UNL     1      -9.398   9.023  67.710  1.00  0.00    -0.140 C  
HETATM    7  H   UNL     1      -7.550   7.937  65.149  1.00  0.00     0.000 HD 
HETATM    8  O   UNL     1      -7.541   6.441  68.410  1.00  0.00    -0.096 OA 
HETATM    9  C   UNL     1      -8.568   8.003  66.886  1.00  0.00    -0.128 C  
HETATM   10  C   UNL     1      -7.360   7.707  67.775  1.00  0.00    -0.099 C  
HETATM   11  H   UNL     1      -7.538   5.740  67.770  1.00  0.00     0.000 HD 
HETATM   12  O   UNL     1      -8.058   8.562  65.655  1.00  0.00    -0.106 OA 
BRANCH   6  13
HETATM   13  O   UNL     1     -10.116   9.862  66.777  1.00  0.00    -0.207 OA 
BRANCH  13  14
HETATM   14  C   UNL     1      -9.585  11.184  66.618  1.00  0.00    -0.190 C  
HETATM   15  C   UNL     1     -10.389  11.355  64.381  1.00  0.00    -0.320 C  
HETATM   16  O   UNL     1      -9.250  11.454  65.255  1.00  0.00    -0.205 OA 
HETATM   17  H   UNL     1     -11.583  12.661  68.787  1.00  0.00     0.000 HD 
HETATM   18  C   UNL     1     -11.423  12.419  64.730  1.00  0.00    -0.325 C  
HETATM   19  O   UNL     1     -10.962  12.010  68.482  1.00  0.00    -0.214 OA 
HETATM   20  O   UNL     1     -12.592  12.332  63.906  1.00  0.00    -0.591 OA 
HETATM   21  C   UNL     1     -11.833  12.288  66.206  1.00  0.00    -0.317 C  
HETATM   22  H   UNL     1     -13.237  12.995  64.124  1.00  0.00     0.000 HD 
HETATM   23  O   UNL     1     -12.682  13.397  66.543  1.00  0.00    -0.200 OA 
HETATM   24  C   UNL     1     -10.598  12.248  67.116  1.00  0.00    -0.225 C  
HETATM   25  H   UNL     1     -12.936  13.316  67.455  1.00  0.00     0.000 HD 
BRANCH  15  26
HETATM   26  C   UNL     1      -9.879  11.480  62.943  1.00  0.00    -0.249 C  
HETATM   27  O   UNL     1      -9.664  10.173  62.401  1.00  0.00    -0.621 OA 
HETATM   28  H   UNL     1      -9.348  10.250  61.509  1.00  0.00     0.000 HD 
ENDBRANCH  15  26
ENDBRANCH  13  14
ENDBRANCH   6  13
BRANCH   6  29
HETATM   29  C   UNL     1     -10.309   8.311  68.751  1.00  0.00    -0.205 C  
HETATM   30  H   UNL     1     -10.982   6.479  69.142  1.00  0.00     0.000 HD 
HETATM   31  O   UNL     1     -10.425   6.914  68.506  1.00  0.00    -0.183 OA 
ENDBRANCH   6  29
ENDBRANCH   2   4
TORSDOF 5
ENDMDL
MODEL      144
REMARK 921   NORMALIZED FREE ENERGY PREDICTED BY IDOCK:   -3.63 KCAL/MOL
REMARK 922        TOTAL FREE ENERGY PREDICTED BY IDOCK:   -5.69 KCAL/MOL
REMARK 923 INTER-LIGAND FREE ENERGY PREDICTED BY IDOCK:   -4.84 KCAL/MOL
REMARK 924 INTRA-LIGAND FREE ENERGY PREDICTED BY IDOCK:   -0.86 KCAL/MOL
REMARK 927      BINDING AFFINITY PREDICTED BY RF-SCORE:    0.00 PKD
ROOT
HETATM    1  O   UNL     1     -11.416   5.249  73.756  1.00  0.00    -0.419 OA 
HETATM    2  C   UNL     1     -10.304   6.130  73.820  1.00  0.00    -0.278 C  
HETATM    3  H   UNL     1     -11.327   4.543  74.384  1.00  0.00     0.000 HD 
ENDROOT
BRANCH   2   4
HETATM    4  C   UNL     1     -10.447   7.266  72.810  1.00  0.00    -0.260 C  
HETATM    5  O   UNL     1      -9.539   7.047  71.714  1.00  0.00    -0.156 OA 
HETATM    6  C   UNL     1     -10.086   7.722  70.567  1.00  0.00    -0.192 C  
HETATM    7  H   UNL     1     -12.925   5.990  70.266  1.00  0.00     0.000 HD 
HETATM    8  O   UNL     1     -12.439   8.659  72.614  1.00  0.00    -0.473 OA 
HETATM    9  C   UNL     1     -11.609   7.452  70.698  1.00  0.00    -0.268 C  
HETATM   10  C   UNL     1     -11.849   7.423  72.207  1.00  0.00    -0.268 C  
HETATM   11  H   UNL     1     -13.307   8.756  72.241  1.00  0.00     0.000 HD 
HETATM   12  O   UNL     1     -11.993   6.156  70.186  1.00  0.00    -0.129 OA 
BRANCH   6  13
HETATM   13  O   UNL     1      -9.634   7.108  69.338  1.00  0.00    -0.153 OA 
BRANCH  13  14
HETATM   14  C   UNL     1      -9.594   7.983  68.203  1.00  0.00    -0.153 C  
HETATM   15  C   UNL     1      -7.307   7.480  67.759  1.00  0.00    -0.103 C  
HETATM   16  O   UNL     1      -8.282   8.511  67.995  1.00  0.00    -0.117 OA 
HETATM   17  H   UNL     1     -11.653   6.240  66.306  1.00  0.00     0.000 HD 
HETATM   18  C   UNL     1      -7.620   6.734  66.468  1.00  0.00    -0.089 C  
HETATM   19  O   UNL     1     -11.370   6.694  67.091  1.00  0.00    -0.343 OA 
HETATM   20  O   UNL     1      -6.692   5.672  66.216  1.00  0.00    -0.054 OA 
HETATM   21  C   UNL     1      -9.044   6.158  66.525  1.00  0.00    -0.148 C  
HETATM   22  H   UNL     1      -6.887   5.207  65.410  1.00  0.00     0.000 HD 
HETATM   23  O   UNL     1      -9.363   5.603  65.240  1.00  0.00    -0.361 OA 
HETATM   24  C   UNL     1     -10.057   7.242  66.921  1.00  0.00    -0.247 C  
HETATM   25  H   UNL     1     -10.244   5.247  65.276  1.00  0.00     0.000 HD 
BRANCH  15  26
HETATM   26  C   UNL     1      -5.929   8.146  67.736  1.00  0.00    -0.046 C  
HETATM   27  O   UNL     1      -5.463   8.226  66.385  1.00  0.00    -0.028 OA 
HETATM   28  H   UNL     1      -4.608   8.639  66.370  1.00  0.00     0.000 HD 
ENDBRANCH  15  26
ENDBRANCH  13  14
ENDBRANCH   6  13
BRANCH   6  29
HETATM   29  C   UNL     1      -9.764   9.241  70.669  1.00  0.00    -0.272 C  
HETATM   30  H   UNL     1      -8.248  10.414  71.206  1.00  0.00     0.000 HD 
HETATM   31  O   UNL     1      -8.444   9.487  71.143  1.00  0.00    -0.278 OA 
ENDBRANCH   6  29
ENDBRANCH   2   4
TORSDOF 5
ENDMDL
MODEL      145
REMARK 921   NORMALIZED FREE ENERGY PREDICTED BY IDOCK:   -3.61 KCAL/MOL
REMARK 922        TOTAL FREE ENERGY PREDICTED BY IDOCK:   -5.67 KCAL/MOL
REMARK 923 INTER-LIGAND FREE ENERGY PREDICTED BY IDOCK:   -4.45 KCAL/MOL
REMARK 924 INTRA-LIGAND FREE ENERGY PREDICTED BY IDOCK:   -1.22 KCAL/MOL
REMARK 927      BINDING AFFINITY PREDICTED BY RF-SCORE:    0.00 PKD
ROOT
HETATM    1  O   UNL     1     -11.975  13.453  67.757  1.00  0.00    -0.351 OA 
HETATM    2  C   UNL     1     -11.946  12.294  68.578  1.00  0.00    -0.219 C  
HETATM    3  H   UNL     1     -12.866  13.758  67.633  1.00  0.00     0.000 HD 
ENDROOT
BRANCH   2   4
HETATM    4  C   UNL     1     -10.514  11.803  68.779  1.00  0.00    -0.198 C  
HETATM    5  O   UNL     1     -10.431  10.413  68.415  1.00  0.00    -0.170 OA 
HETATM    6  C   UNL     1      -9.067  10.152  68.036  1.00  0.00    -0.131 C  
HETATM    7  H   UNL     1      -8.875  12.197  65.403  1.00  0.00     0.000 HD 
HETATM    8  O   UNL     1      -8.570  13.275  68.811  1.00  0.00    -0.359 OA 
HETATM    9  C   UNL     1      -8.673  11.435  67.256  1.00  0.00    -0.148 C  
HETATM   10  C   UNL     1      -9.453  12.546  67.957  1.00  0.00    -0.209 C  
HETATM   11  H   UNL     1      -7.914  13.736  68.302  1.00  0.00     0.000 HD 
HETATM   12  O   UNL     1      -9.117  11.411  65.881  1.00  0.00    -0.207 OA 
BRANCH   6  13
HETATM   13  O   UNL     1      -8.987   9.037  67.118  1.00  0.00    -0.128 OA 
BRANCH  13  14
HETATM   14  C   UNL     1      -8.228   7.917  67.592  1.00  0.00    -0.124 C  
HETATM   15  C   UNL     1      -9.506   6.369  66.308  1.00  0.00    -0.095 C  
HETATM   16  O   UNL     1      -9.012   6.723  67.612  1.00  0.00    -0.117 OA 
HETATM   17  H   UNL     1      -5.392   8.730  66.117  1.00  0.00     0.000 HD 
HETATM   18  C   UNL     1      -8.350   6.041  65.370  1.00  0.00    -0.150 C  
HETATM   19  O   UNL     1      -6.160   8.869  66.659  1.00  0.00    -0.058 OA 
HETATM   20  O   UNL     1      -8.798   5.719  64.048  1.00  0.00    -0.348 OA 
HETATM   21  C   UNL     1      -7.378   7.230  65.300  1.00  0.00    -0.080 C  
HETATM   22  H   UNL     1      -8.077   5.515  63.464  1.00  0.00     0.000 HD 
HETATM   23  O   UNL     1      -6.226   6.832  64.540  1.00  0.00    -0.034 OA 
HETATM   24  C   UNL     1      -6.973   7.690  66.707  1.00  0.00    -0.079 C  
HETATM   25  H   UNL     1      -5.625   7.567  64.496  1.00  0.00     0.000 HD 
BRANCH  15  26
HETATM   26  C   UNL     1     -10.472   5.194  66.484  1.00  0.00    -0.294 C  
HETATM   27  O   UNL     1     -11.317   5.098  65.334  1.00  0.00    -0.732 OA 
HETATM   28  H   UNL     1     -11.917   4.369  65.443  1.00  0.00     0.000 HD 
ENDBRANCH  15  26
ENDBRANCH  13  14
ENDBRANCH   6  13
BRANCH   6  29
HETATM   29  C   UNL     1      -8.207   9.976  69.320  1.00  0.00    -0.147 C  
HETATM   30  H   UNL     1      -6.463  10.602  70.048  1.00  0.00     0.000 HD 
HETATM   31  O   UNL     1      -6.988  10.710  69.263  1.00  0.00    -0.073 OA 
ENDBRANCH   6  29
ENDBRANCH   2   4
TORSDOF 5
ENDMDL
MODEL      146
REMARK 921   NORMALIZED FREE ENERGY PREDICTED BY IDOCK:   -3.59 KCAL/MOL
REMARK 922        TOTAL FREE ENERGY PREDICTED BY IDOCK:   -5.65 KCAL/MOL
REMARK 923 INTER-LIGAND FREE ENERGY PREDICTED BY IDOCK:   -4.77 KCAL/MOL
REMARK 924 INTRA-LIGAND FREE ENERGY PREDICTED BY IDOCK:   -0.88 KCAL/MOL
REMARK 927      BINDING AFFINITY PREDICTED BY RF-SCORE:    0.00 PKD
ROOT
HETATM    1  O   UNL     1      -9.535  14.894  69.214  1.00  0.00    -0.312 OA 
HETATM    2  C   UNL     1     -10.353  15.310  68.131  1.00  0.00    -0.242 C  
HETATM    3  H   UNL     1      -9.487  15.568  69.881  1.00  0.00     0.000 HD 
ENDROOT
BRANCH   2   4
HETATM    4  C   UNL     1     -10.432  14.226  67.057  1.00  0.00    -0.271 C  
HETATM    5  O   UNL     1      -9.657  13.087  67.473  1.00  0.00    -0.194 OA 
HETATM    6  C   UNL     1     -10.205  11.933  66.810  1.00  0.00    -0.206 C  
HETATM    7  H   UNL     1     -13.261  11.984  68.154  1.00  0.00     0.000 HD 
HETATM    8  O   UNL     1     -12.234  14.070  65.422  1.00  0.00    -0.393 OA 
HETATM    9  C   UNL     1     -11.734  12.199  66.859  1.00  0.00    -0.301 C  
HETATM   10  C   UNL     1     -11.847  13.719  66.752  1.00  0.00    -0.420 C  
HETATM   11  H   UNL     1     -13.110  13.756  65.233  1.00  0.00     0.000 HD 
HETATM   12  O   UNL     1     -12.326  11.821  68.123  1.00  0.00    -0.389 OA 
BRANCH   6  13
HETATM   13  O   UNL     1      -9.943  10.727  67.563  1.00  0.00    -0.169 OA 
BRANCH  13  14
HETATM   14  C   UNL     1      -8.839   9.945  67.089  1.00  0.00    -0.138 C  
HETATM   15  C   UNL     1      -7.647  10.186  69.138  1.00  0.00    -0.103 C  
HETATM   16  O   UNL     1      -7.613  10.339  67.708  1.00  0.00    -0.089 OA 
HETATM   17  H   UNL     1     -10.457   7.076  66.907  1.00  0.00     0.000 HD 
HETATM   18  C   UNL     1      -7.801   8.717  69.514  1.00  0.00    -0.095 C  
HETATM   19  O   UNL     1     -10.307   8.000  66.747  1.00  0.00    -0.311 OA 
HETATM   20  O   UNL     1      -7.877   8.525  70.932  1.00  0.00    -0.086 OA 
HETATM   21  C   UNL     1      -9.063   8.136  68.856  1.00  0.00    -0.147 C  
HETATM   22  H   UNL     1      -7.973   7.608  71.166  1.00  0.00     0.000 HD 
HETATM   23  O   UNL     1      -9.092   6.720  69.098  1.00  0.00    -0.139 OA 
HETATM   24  C   UNL     1      -9.082   8.435  67.351  1.00  0.00    -0.137 C  
HETATM   25  H   UNL     1      -9.872   6.361  68.691  1.00  0.00     0.000 HD 
BRANCH  15  26
HETATM   26  C   UNL     1      -6.365  10.806  69.699  1.00  0.00    -0.089 C  
HETATM   27  O   UNL     1      -5.619  11.401  68.632  1.00  0.00    -0.043 OA 
HETATM   28  H   UNL     1      -4.824  11.786  68.979  1.00  0.00     0.000 HD 
ENDBRANCH  15  26
ENDBRANCH  13  14
ENDBRANCH   6  13
BRANCH   6  29
HETATM   29  C   UNL     1      -9.680  11.891  65.346  1.00  0.00    -0.207 C  
HETATM   30  H   UNL     1     -10.413  11.857  63.495  1.00  0.00     0.000 HD 
HETATM   31  O   UNL     1     -10.734  11.883  64.389  1.00  0.00    -0.284 OA 
ENDBRANCH   6  29
ENDBRANCH   2   4
TORSDOF 5
ENDMDL
MODEL      147
REMARK 921   NORMALIZED FREE ENERGY PREDICTED BY IDOCK:   -3.59 KCAL/MOL
REMARK 922        TOTAL FREE ENERGY PREDICTED BY IDOCK:   -5.64 KCAL/MOL
REMARK 923 INTER-LIGAND FREE ENERGY PREDICTED BY IDOCK:   -5.44 KCAL/MOL
REMARK 924 INTRA-LIGAND FREE ENERGY PREDICTED BY IDOCK:   -0.20 KCAL/MOL
REMARK 927      BINDING AFFINITY PREDICTED BY RF-SCORE:    0.00 PKD
ROOT
HETATM    1  O   UNL     1     -13.058  13.902  64.787  1.00  0.00    -0.640 OA 
HETATM    2  C   UNL     1     -12.906  12.561  65.229  1.00  0.00     0.214 C  
HETATM    3  H   UNL     1     -13.814  13.989  64.219  1.00  0.00     0.000 HD 
ENDROOT
BRANCH   2   4
HETATM    4  C   UNL     1     -11.690  12.420  66.142  1.00  0.00    -0.400 C  
HETATM    5  O   UNL     1     -11.956  11.415  67.138  1.00  0.00    -0.532 OA 
HETATM    6  C   UNL     1     -10.685  10.887  67.560  1.00  0.00    -0.252 C  
HETATM    7  H   UNL     1      -9.683   9.596  64.649  1.00  0.00     0.000 HD 
HETATM    8  O   UNL     1      -9.431  13.072  65.497  1.00  0.00    -0.473 OA 
HETATM    9  C   UNL     1      -9.880  10.820  66.235  1.00  0.00    -0.215 C  
HETATM   10  C   UNL     1     -10.391  12.017  65.433  1.00  0.00    -0.266 C  
HETATM   11  H   UNL     1      -8.627  12.823  65.058  1.00  0.00     0.000 HD 
HETATM   12  O   UNL     1     -10.176   9.637  65.460  1.00  0.00    -0.228 OA 
BRANCH   6  13
HETATM   13  O   UNL     1     -10.824   9.537  68.060  1.00  0.00    -0.233 OA 
BRANCH  13  14
HETATM   14  C   UNL     1      -9.693   8.687  67.828  1.00  0.00    -0.165 C  
HETATM   15  C   UNL     1      -9.076   8.695  70.129  1.00  0.00    -0.158 C  
HETATM   16  O   UNL     1      -8.651   8.930  68.775  1.00  0.00    -0.133 OA 
HETATM   17  H   UNL     1     -11.408   5.994  66.997  1.00  0.00     0.000 HD 
HETATM   18  C   UNL     1      -9.431   7.227  70.331  1.00  0.00    -0.165 C  
HETATM   19  O   UNL     1     -11.154   6.909  66.957  1.00  0.00    -0.389 OA 
HETATM   20  O   UNL     1      -9.895   6.958  71.659  1.00  0.00    -0.169 OA 
HETATM   21  C   UNL     1     -10.510   6.804  69.321  1.00  0.00    -0.215 C  
HETATM   22  H   UNL     1     -10.117   6.042  71.785  1.00  0.00     0.000 HD 
HETATM   23  O   UNL     1     -10.706   5.385  69.431  1.00  0.00    -0.274 OA 
HETATM   24  C   UNL     1     -10.106   7.193  67.893  1.00  0.00    -0.173 C  
HETATM   25  H   UNL     1     -11.373   5.124  68.808  1.00  0.00     0.000 HD 
BRANCH  15  26
HETATM   26  C   UNL     1      -7.947   9.161  71.053  1.00  0.00    -0.125 C  
HETATM   27  O   UNL     1      -7.190   8.026  71.486  1.00  0.00    -0.062 OA 
HETATM   28  H   UNL     1      -6.490   8.315  72.059  1.00  0.00     0.000 HD 
ENDBRANCH  15  26
ENDBRANCH  13  14
ENDBRANCH   6  13
BRANCH   6  29
HETATM   29  C   UNL     1     -10.037  11.873  68.574  1.00  0.00    -0.206 C  
HETATM   30  H   UNL     1      -8.305  12.819  68.840  1.00  0.00     0.000 HD 
HETATM   31  O   UNL     1      -8.702  12.217  68.220  1.00  0.00    -0.182 OA 
ENDBRANCH   6  29
ENDBRANCH   2   4
TORSDOF 5
ENDMDL
MODEL      148
REMARK 921   NORMALIZED FREE ENERGY PREDICTED BY IDOCK:   -3.59 KCAL/MOL
REMARK 922        TOTAL FREE ENERGY PREDICTED BY IDOCK:   -5.64 KCAL/MOL
REMARK 923 INTER-LIGAND FREE ENERGY PREDICTED BY IDOCK:   -4.92 KCAL/MOL
REMARK 924 INTRA-LIGAND FREE ENERGY PREDICTED BY IDOCK:   -0.72 KCAL/MOL
REMARK 927      BINDING AFFINITY PREDICTED BY RF-SCORE:    0.00 PKD
ROOT
HETATM    1  O   UNL     1      -9.474  13.810  68.127  1.00  0.00    -0.201 OA 
HETATM    2  C   UNL     1      -8.103  13.533  67.878  1.00  0.00    -0.165 C  
HETATM    3  H   UNL     1      -9.614  14.740  68.260  1.00  0.00     0.000 HD 
ENDROOT
BRANCH   2   4
HETATM    4  C   UNL     1      -7.878  12.038  67.664  1.00  0.00    -0.149 C  
HETATM    5  O   UNL     1      -8.190  11.331  68.878  1.00  0.00    -0.141 OA 
HETATM    6  C   UNL     1      -8.552   9.988  68.507  1.00  0.00    -0.119 C  
HETATM    7  H   UNL     1     -11.258  10.683  66.679  1.00  0.00     0.000 HD 
HETATM    8  O   UNL     1      -7.892  10.968  65.473  1.00  0.00    -0.352 OA 
HETATM    9  C   UNL     1      -9.377  10.197  67.210  1.00  0.00    -0.152 C  
HETATM   10  C   UNL     1      -8.722  11.409  66.549  1.00  0.00    -0.181 C  
HETATM   11  H   UNL     1      -8.414  10.579  64.782  1.00  0.00     0.000 HD 
HETATM   12  O   UNL     1     -10.753  10.554  67.473  1.00  0.00    -0.235 OA 
BRANCH   6  13
HETATM   13  O   UNL     1      -9.427   9.394  69.494  1.00  0.00    -0.162 OA 
BRANCH  13  14
HETATM   14  C   UNL     1      -9.255   7.984  69.686  1.00  0.00    -0.152 C  
HETATM   15  C   UNL     1      -9.630   8.147  72.034  1.00  0.00    -0.219 C  
HETATM   16  O   UNL     1      -8.751   7.690  70.990  1.00  0.00    -0.134 OA 
HETATM   17  H   UNL     1     -11.959   7.046  68.046  1.00  0.00     0.000 HD 
HETATM   18  C   UNL     1     -10.962   7.408  71.972  1.00  0.00    -0.236 C  
HETATM   19  O   UNL     1     -11.138   7.506  68.175  1.00  0.00     0.033 OA 
HETATM   20  O   UNL     1     -11.881   7.862  72.973  1.00  0.00    -0.612 OA 
HETATM   21  C   UNL     1     -11.597   7.587  70.583  1.00  0.00    -0.248 C  
HETATM   22  H   UNL     1     -12.711   7.401  72.934  1.00  0.00     0.000 HD 
HETATM   23  O   UNL     1     -12.764   6.753  70.506  1.00  0.00    -0.502 OA 
HETATM   24  C   UNL     1     -10.597   7.233  69.474  1.00  0.00    -0.234 C  
HETATM   25  H   UNL     1     -13.157   6.864  69.648  1.00  0.00     0.000 HD 
BRANCH  15  26
HETATM   26  C   UNL     1      -8.905   7.944  73.367  1.00  0.00    -0.263 C  
HETATM   27  O   UNL     1      -7.852   8.905  73.486  1.00  0.00    -0.377 OA 
HETATM   28  H   UNL     1      -7.403   8.780  74.313  1.00  0.00     0.000 HD 
ENDBRANCH  15  26
ENDBRANCH  13  14
ENDBRANCH   6  13
BRANCH   6  29
HETATM   29  C   UNL     1      -7.258   9.168  68.236  1.00  0.00    -0.078 C  
HETATM   30  H   UNL     1      -5.501   8.818  69.104  1.00  0.00     0.000 HD 
HETATM   31  O   UNL     1      -6.292   9.319  69.270  1.00  0.00    -0.041 OA 
ENDBRANCH   6  29
ENDBRANCH   2   4
TORSDOF 5
ENDMDL
MODEL      149
REMARK 921   NORMALIZED FREE ENERGY PREDICTED BY IDOCK:   -3.58 KCAL/MOL
REMARK 922        TOTAL FREE ENERGY PREDICTED BY IDOCK:   -5.63 KCAL/MOL
REMARK 923 INTER-LIGAND FREE ENERGY PREDICTED BY IDOCK:   -4.75 KCAL/MOL
REMARK 924 INTRA-LIGAND FREE ENERGY PREDICTED BY IDOCK:   -0.88 KCAL/MOL
REMARK 927      BINDING AFFINITY PREDICTED BY RF-SCORE:    0.00 PKD
ROOT
HETATM    1  O   UNL     1      -5.447   8.698  68.660  1.00  0.00    -0.036 OA 
HETATM    2  C   UNL     1      -6.513   9.076  67.802  1.00  0.00    -0.057 C  
HETATM    3  H   UNL     1      -4.910   9.447  68.886  1.00  0.00     0.000 HD 
ENDROOT
BRANCH   2   4
HETATM    4  C   UNL     1      -7.378   7.871  67.439  1.00  0.00    -0.092 C  
HETATM    5  O   UNL     1      -8.138   7.466  68.592  1.00  0.00    -0.121 OA 
HETATM    6  C   UNL     1      -9.316   6.792  68.111  1.00  0.00    -0.122 C  
HETATM    7  H   UNL     1     -10.716   9.337  66.464  1.00  0.00     0.000 HD 
HETATM    8  O   UNL     1      -8.048   7.324  65.159  1.00  0.00    -0.123 OA 
HETATM    9  C   UNL     1      -9.717   7.636  66.872  1.00  0.00    -0.213 C  
HETATM   10  C   UNL     1      -8.380   8.112  66.303  1.00  0.00    -0.119 C  
HETATM   11  H   UNL     1      -8.668   7.474  64.456  1.00  0.00     0.000 HD 
HETATM   12  O   UNL     1     -10.470   8.819  67.222  1.00  0.00    -0.270 OA 
BRANCH   6  13
HETATM   13  O   UNL     1     -10.393   6.879  69.071  1.00  0.00    -0.177 OA 
BRANCH  13  14
HETATM   14  C   UNL     1     -10.025   7.414  70.349  1.00  0.00    -0.188 C  
HETATM   15  C   UNL     1     -11.876   8.915  70.377  1.00  0.00     0.031 C  
HETATM   16  O   UNL     1     -10.448   8.771  70.492  1.00  0.00    -0.195 OA 
HETATM   17  H   UNL     1     -10.604   4.673  72.089  1.00  0.00     0.000 HD 
HETATM   18  C   UNL     1     -12.578   8.181  71.514  1.00  0.00    -0.304 C  
HETATM   19  O   UNL     1     -10.232   5.193  71.387  1.00  0.00    -0.201 OA 
HETATM   20  O   UNL     1     -14.005   8.268  71.416  1.00  0.00    -0.517 OA 
HETATM   21  C   UNL     1     -12.160   6.702  71.522  1.00  0.00    -0.355 C  
HETATM   22  H   UNL     1     -14.443   7.811  72.125  1.00  0.00     0.000 HD 
HETATM   23  O   UNL     1     -12.712   6.079  72.693  1.00  0.00    -0.503 OA 
HETATM   24  C   UNL     1     -10.632   6.565  71.497  1.00  0.00    -0.229 C  
HETATM   25  H   UNL     1     -12.454   5.165  72.698  1.00  0.00     0.000 HD 
BRANCH  15  26
HETATM   26  C   UNL     1     -12.189  10.413  70.361  1.00  0.00    -0.303 C  
HETATM   27  O   UNL     1     -10.975  11.150  70.184  1.00  0.00    -0.470 OA 
HETATM   28  H   UNL     1     -11.169  12.079  70.174  1.00  0.00     0.000 HD 
ENDBRANCH  15  26
ENDBRANCH  13  14
ENDBRANCH   6  13
BRANCH   6  29
HETATM   29  C   UNL     1      -8.941   5.335  67.713  1.00  0.00    -0.109 C  
HETATM   30  H   UNL     1      -7.852   3.826  68.419  1.00  0.00     0.000 HD 
HETATM   31  O   UNL     1      -8.081   4.716  68.663  1.00  0.00    -0.082 OA 
ENDBRANCH   6  29
ENDBRANCH   2   4
TORSDOF 5
ENDMDL
MODEL      150
REMARK 921   NORMALIZED FREE ENERGY PREDICTED BY IDOCK:   -3.56 KCAL/MOL
REMARK 922        TOTAL FREE ENERGY PREDICTED BY IDOCK:   -5.61 KCAL/MOL
REMARK 923 INTER-LIGAND FREE ENERGY PREDICTED BY IDOCK:   -4.58 KCAL/MOL
REMARK 924 INTRA-LIGAND FREE ENERGY PREDICTED BY IDOCK:   -1.03 KCAL/MOL
REMARK 927      BINDING AFFINITY PREDICTED BY RF-SCORE:    0.00 PKD
ROOT
HETATM    1  O   UNL     1      -5.683   7.235  67.725  1.00  0.00    -0.027 OA 
HETATM    2  C   UNL     1      -7.038   7.060  67.339  1.00  0.00    -0.088 C  
HETATM    3  H   UNL     1      -5.096   6.836  67.095  1.00  0.00     0.000 HD 
ENDROOT
BRANCH   2   4
HETATM    4  C   UNL     1      -7.983   7.702  68.353  1.00  0.00    -0.123 C  
HETATM    5  O   UNL     1      -8.103   9.108  68.069  1.00  0.00    -0.104 OA 
HETATM    6  C   UNL     1      -9.374   9.540  68.589  1.00  0.00    -0.142 C  
HETATM    7  H   UNL     1     -11.367   7.655  66.685  1.00  0.00     0.000 HD 
HETATM    8  O   UNL     1      -9.665   6.461  69.609  1.00  0.00    -0.151 OA 
HETATM    9  C   UNL     1     -10.310   8.348  68.253  1.00  0.00    -0.199 C  
HETATM   10  C   UNL     1      -9.403   7.123  68.371  1.00  0.00    -0.135 C  
HETATM   11  H   UNL     1     -10.544   6.103  69.619  1.00  0.00     0.000 HD 
HETATM   12  O   UNL     1     -10.794   8.384  66.891  1.00  0.00    -0.211 OA 
BRANCH   6  13
HETATM   13  O   UNL     1      -9.862  10.698  67.874  1.00  0.00    -0.158 OA 
BRANCH  13  14
HETATM   14  C   UNL     1      -8.872  11.401  67.112  1.00  0.00    -0.156 C  
HETATM   15  C   UNL     1     -10.327  11.643  65.240  1.00  0.00    -0.269 C  
HETATM   16  O   UNL     1      -9.043  11.191  65.709  1.00  0.00    -0.200 OA 
HETATM   17  H   UNL     1      -8.791  14.106  68.998  1.00  0.00     0.000 HD 
HETATM   18  C   UNL     1     -10.457  13.152  65.412  1.00  0.00    -0.296 C  
HETATM   19  O   UNL     1      -8.758  13.175  68.813  1.00  0.00    -0.010 OA 
HETATM   20  O   UNL     1     -11.737  13.638  64.991  1.00  0.00    -0.318 OA 
HETATM   21  C   UNL     1     -10.228  13.534  66.883  1.00  0.00    -0.256 C  
HETATM   22  H   UNL     1     -11.818  14.579  65.098  1.00  0.00     0.000 HD 
HETATM   23  O   UNL     1     -10.199  14.967  66.982  1.00  0.00    -0.252 OA 
HETATM   24  C   UNL     1      -8.924  12.922  67.412  1.00  0.00    -0.199 C  
HETATM   25  H   UNL     1     -10.059  15.203  67.892  1.00  0.00     0.000 HD 
BRANCH  15  26
HETATM   26  C   UNL     1     -10.465  11.203  63.781  1.00  0.00    -0.381 C  
HETATM   27  O   UNL     1      -9.734   9.989  63.579  1.00  0.00    -0.448 OA 
HETATM   28  H   UNL     1      -9.820   9.716  62.674  1.00  0.00     0.000 HD 
ENDBRANCH  15  26
ENDBRANCH  13  14
ENDBRANCH   6  13
BRANCH   6  29
HETATM   29  C   UNL     1      -9.249   9.752  70.125  1.00  0.00    -0.208 C  
HETATM   30  H   UNL     1     -10.332   9.453  71.769  1.00  0.00     0.000 HD 
HETATM   31  O   UNL     1     -10.408   9.322  70.830  1.00  0.00    -0.248 OA 
ENDBRANCH   6  29
ENDBRANCH   2   4
TORSDOF 5
ENDMDL
MODEL      151
REMARK 921   NORMALIZED FREE ENERGY PREDICTED BY IDOCK:   -3.54 KCAL/MOL
REMARK 922        TOTAL FREE ENERGY PREDICTED BY IDOCK:   -5.58 KCAL/MOL
REMARK 923 INTER-LIGAND FREE ENERGY PREDICTED BY IDOCK:   -4.86 KCAL/MOL
REMARK 924 INTRA-LIGAND FREE ENERGY PREDICTED BY IDOCK:   -0.72 KCAL/MOL
REMARK 927      BINDING AFFINITY PREDICTED BY RF-SCORE:    0.00 PKD
ROOT
HETATM    1  O   UNL     1      -5.735   4.408  67.026  1.00  0.00    -0.020 OA 
HETATM    2  C   UNL     1      -6.746   4.600  68.004  1.00  0.00    -0.054 C  
HETATM    3  H   UNL     1      -4.918   4.141  67.429  1.00  0.00     0.000 HD 
ENDROOT
BRANCH   2   4
HETATM    4  C   UNL     1      -8.060   5.029  67.355  1.00  0.00    -0.103 C  
HETATM    5  O   UNL     1      -8.437   6.326  67.855  1.00  0.00    -0.117 OA 
HETATM    6  C   UNL     1      -9.267   6.942  66.853  1.00  0.00    -0.145 C  
HETATM    7  H   UNL     1      -7.035   7.105  64.376  1.00  0.00     0.000 HD 
HETATM    8  O   UNL     1      -8.873   4.145  65.233  1.00  0.00    -0.121 OA 
HETATM    9  C   UNL     1      -8.581   6.521  65.526  1.00  0.00    -0.102 C  
HETATM   10  C   UNL     1      -8.024   5.130  65.826  1.00  0.00    -0.108 C  
HETATM   11  H   UNL     1      -8.850   4.208  64.286  1.00  0.00     0.000 HD 
HETATM   12  O   UNL     1      -7.455   7.362  65.188  1.00  0.00    -0.076 OA 
BRANCH   6  13
HETATM   13  O   UNL     1      -9.205   8.384  66.943  1.00  0.00    -0.142 OA 
BRANCH  13  14
HETATM   14  C   UNL     1     -10.405   9.067  66.556  1.00  0.00    -0.193 C  
HETATM   15  C   UNL     1     -10.406  10.410  68.525  1.00  0.00    -0.176 C  
HETATM   16  O   UNL     1     -11.152   9.501  67.695  1.00  0.00    -0.183 OA 
HETATM   17  H   UNL     1      -9.122  10.647  63.960  1.00  0.00     0.000 HD 
HETATM   18  C   UNL     1     -10.097  11.695  67.767  1.00  0.00    -0.187 C  
HETATM   19  O   UNL     1      -9.324   9.898  64.508  1.00  0.00    -0.258 OA 
HETATM   20  O   UNL     1      -9.322  12.613  68.548  1.00  0.00    -0.337 OA 
HETATM   21  C   UNL     1      -9.341  11.371  66.469  1.00  0.00    -0.189 C  
HETATM   22  H   UNL     1      -9.129  13.415  68.075  1.00  0.00     0.000 HD 
HETATM   23  O   UNL     1      -9.207  12.580  65.705  1.00  0.00    -0.442 OA 
HETATM   24  C   UNL     1     -10.077  10.292  65.662  1.00  0.00    -0.271 C  
HETATM   25  H   UNL     1      -8.739  12.379  64.903  1.00  0.00     0.000 HD 
BRANCH  15  26
HETATM   26  C   UNL     1     -11.229  10.656  69.792  1.00  0.00    -0.297 C  
HETATM   27  O   UNL     1     -12.622  10.590  69.474  1.00  0.00    -0.645 OA 
HETATM   28  H   UNL     1     -13.133  10.743  70.260  1.00  0.00     0.000 HD 
ENDBRANCH  15  26
ENDBRANCH  13  14
ENDBRANCH   6  13
BRANCH   6  29
HETATM   29  C   UNL     1     -10.708   6.364  66.961  1.00  0.00    -0.363 C  
HETATM   30  H   UNL     1     -12.010   5.850  68.376  1.00  0.00     0.000 HD 
HETATM   31  O   UNL     1     -11.131   6.204  68.310  1.00  0.00    -0.333 OA 
ENDBRANCH   6  29
ENDBRANCH   2   4
TORSDOF 5
ENDMDL
MODEL      152
REMARK 921   NORMALIZED FREE ENERGY PREDICTED BY IDOCK:   -3.53 KCAL/MOL
REMARK 922        TOTAL FREE ENERGY PREDICTED BY IDOCK:   -5.57 KCAL/MOL
REMARK 923 INTER-LIGAND FREE ENERGY PREDICTED BY IDOCK:   -5.47 KCAL/MOL
REMARK 924 INTRA-LIGAND FREE ENERGY PREDICTED BY IDOCK:   -0.10 KCAL/MOL
REMARK 927      BINDING AFFINITY PREDICTED BY RF-SCORE:    0.00 PKD
ROOT
HETATM    1  O   UNL     1     -11.502   6.261  68.534  1.00  0.00    -0.481 OA 
HETATM    2  C   UNL     1     -11.609   6.488  69.931  1.00  0.00    -0.368 C  
HETATM    3  H   UNL     1     -12.088   5.568  68.256  1.00  0.00     0.000 HD 
ENDROOT
BRANCH   2   4
HETATM    4  C   UNL     1     -10.666   7.603  70.379  1.00  0.00    -0.236 C  
HETATM    5  O   UNL     1     -10.240   8.356  69.228  1.00  0.00    -0.198 OA 
HETATM    6  C   UNL     1      -9.890   9.674  69.689  1.00  0.00    -0.215 C  
HETATM    7  H   UNL     1     -12.883  10.623  70.824  1.00  0.00     0.000 HD 
HETATM    8  O   UNL     1     -10.622   8.512  72.641  1.00  0.00    -0.304 OA 
HETATM    9  C   UNL     1     -10.979   9.970  70.754  1.00  0.00    -0.305 C  
HETATM   10  C   UNL     1     -11.271   8.603  71.371  1.00  0.00    -0.277 C  
HETATM   11  H   UNL     1     -10.997   9.131  73.255  1.00  0.00     0.000 HD 
HETATM   12  O   UNL     1     -12.216  10.442  70.172  1.00  0.00    -0.273 OA 
BRANCH   6  13
HETATM   13  O   UNL     1     -10.033  10.649  68.630  1.00  0.00    -0.166 OA 
BRANCH  13  14
HETATM   14  C   UNL     1      -8.804  11.065  68.020  1.00  0.00    -0.138 C  
HETATM   15  C   UNL     1      -8.905   9.337  66.382  1.00  0.00    -0.146 C  
HETATM   16  O   UNL     1      -8.122   9.966  67.412  1.00  0.00    -0.112 OA 
HETATM   17  H   UNL     1      -9.911  13.951  66.869  1.00  0.00     0.000 HD 
HETATM   18  C   UNL     1      -9.153  10.306  65.232  1.00  0.00    -0.191 C  
HETATM   19  O   UNL     1      -9.751  13.281  67.522  1.00  0.00    -0.214 OA 
HETATM   20  O   UNL     1      -9.962   9.729  64.201  1.00  0.00    -0.438 OA 
HETATM   21  C   UNL     1      -9.834  11.580  65.757  1.00  0.00    -0.234 C  
HETATM   22  H   UNL     1     -10.116  10.333  63.484  1.00  0.00     0.000 HD 
HETATM   23  O   UNL     1      -9.907  12.532  64.684  1.00  0.00    -0.473 OA 
HETATM   24  C   UNL     1      -9.064  12.160  66.952  1.00  0.00    -0.203 C  
HETATM   25  H   UNL     1     -10.329  13.320  65.008  1.00  0.00     0.000 HD 
BRANCH  15  26
HETATM   26  C   UNL     1      -8.157   8.077  65.940  1.00  0.00    -0.117 C  
HETATM   27  O   UNL     1      -7.905   7.249  67.080  1.00  0.00    -0.108 OA 
HETATM   28  H   UNL     1      -7.441   6.467  66.805  1.00  0.00     0.000 HD 
ENDBRANCH  15  26
ENDBRANCH  13  14
ENDBRANCH   6  13
BRANCH   6  29
HETATM   29  C   UNL     1      -8.469   9.632  70.321  1.00  0.00    -0.188 C  
HETATM   30  H   UNL     1      -6.835   8.496  70.251  1.00  0.00     0.000 HD 
HETATM   31  O   UNL     1      -7.703   8.522  69.865  1.00  0.00    -0.086 OA 
ENDBRANCH   6  29
ENDBRANCH   2   4
TORSDOF 5
ENDMDL
MODEL      153
REMARK 921   NORMALIZED FREE ENERGY PREDICTED BY IDOCK:   -3.52 KCAL/MOL
REMARK 922        TOTAL FREE ENERGY PREDICTED BY IDOCK:   -5.56 KCAL/MOL
REMARK 923 INTER-LIGAND FREE ENERGY PREDICTED BY IDOCK:   -4.53 KCAL/MOL
REMARK 924 INTRA-LIGAND FREE ENERGY PREDICTED BY IDOCK:   -1.02 KCAL/MOL
REMARK 927      BINDING AFFINITY PREDICTED BY RF-SCORE:    0.00 PKD
ROOT
HETATM    1  O   UNL     1      -7.431   3.920  70.158  1.00  0.00    -0.044 OA 
HETATM    2  C   UNL     1      -7.142   3.855  71.547  1.00  0.00    -0.032 C  
HETATM    3  H   UNL     1      -6.835   3.374  69.661  1.00  0.00     0.000 HD 
ENDROOT
BRANCH   2   4
HETATM    4  C   UNL     1      -8.101   4.733  72.347  1.00  0.00    -0.107 C  
HETATM    5  O   UNL     1      -8.098   6.064  71.799  1.00  0.00    -0.112 OA 
HETATM    6  C   UNL     1      -9.365   6.663  72.129  1.00  0.00    -0.141 C  
HETATM    7  H   UNL     1     -11.362   4.575  70.455  1.00  0.00     0.000 HD 
HETATM    8  O   UNL     1      -9.950   3.857  73.673  1.00  0.00    -0.115 OA 
HETATM    9  C   UNL     1     -10.362   5.488  71.946  1.00  0.00    -0.216 C  
HETATM   10  C   UNL     1      -9.558   4.255  72.359  1.00  0.00    -0.141 C  
HETATM   11  H   UNL     1     -10.852   3.561  73.681  1.00  0.00     0.000 HD 
HETATM   12  O   UNL     1     -10.751   5.295  70.567  1.00  0.00    -0.239 OA 
BRANCH   6  13
HETATM   13  O   UNL     1      -9.717   7.692  71.176  1.00  0.00    -0.163 OA 
BRANCH  13  14
HETATM   14  C   UNL     1      -8.771   7.885  70.115  1.00  0.00    -0.136 C  
HETATM   15  C   UNL     1     -10.487   8.054  68.470  1.00  0.00    -0.164 C  
HETATM   16  O   UNL     1      -9.272   7.394  68.871  1.00  0.00    -0.143 OA 
HETATM   17  H   UNL     1      -7.688  10.838  71.107  1.00  0.00     0.000 HD 
HETATM   18  C   UNL     1     -10.230   9.534  68.213  1.00  0.00    -0.193 C  
HETATM   19  O   UNL     1      -7.908   9.919  71.198  1.00  0.00    -0.096 OA 
HETATM   20  O   UNL     1     -11.424  10.236  67.847  1.00  0.00    -0.601 OA 
HETATM   21  C   UNL     1      -9.622  10.187  69.465  1.00  0.00    -0.221 C  
HETATM   22  H   UNL     1     -11.264  11.159  67.686  1.00  0.00     0.000 HD 
HETATM   23  O   UNL     1      -9.247  11.534  69.139  1.00  0.00    -0.401 OA 
HETATM   24  C   UNL     1      -8.412   9.387  69.966  1.00  0.00    -0.190 C  
HETATM   25  H   UNL     1      -8.872  11.938  69.913  1.00  0.00     0.000 HD 
BRANCH  15  26
HETATM   26  C   UNL     1     -11.020   7.325  67.234  1.00  0.00    -0.214 C  
HETATM   27  O   UNL     1     -11.157   5.931  67.526  1.00  0.00    -0.401 OA 
HETATM   28  H   UNL     1     -11.489   5.479  66.760  1.00  0.00     0.000 HD 
ENDBRANCH  15  26
ENDBRANCH  13  14
ENDBRANCH   6  13
BRANCH   6  29
HETATM   29  C   UNL     1      -9.326   7.155  73.604  1.00  0.00    -0.212 C  
HETATM   30  H   UNL     1     -10.602   7.568  75.076  1.00  0.00     0.000 HD 
HETATM   31  O   UNL     1     -10.625   7.266  74.175  1.00  0.00    -0.253 OA 
ENDBRANCH   6  29
ENDBRANCH   2   4
TORSDOF 5
ENDMDL
MODEL      154
REMARK 921   NORMALIZED FREE ENERGY PREDICTED BY IDOCK:   -3.51 KCAL/MOL
REMARK 922        TOTAL FREE ENERGY PREDICTED BY IDOCK:   -5.55 KCAL/MOL
REMARK 923 INTER-LIGAND FREE ENERGY PREDICTED BY IDOCK:   -4.50 KCAL/MOL
REMARK 924 INTRA-LIGAND FREE ENERGY PREDICTED BY IDOCK:   -1.05 KCAL/MOL
REMARK 927      BINDING AFFINITY PREDICTED BY RF-SCORE:    0.00 PKD
ROOT
HETATM    1  O   UNL     1      -9.454   4.302  70.642  1.00  0.00    -0.139 OA 
HETATM    2  C   UNL     1      -9.250   5.269  71.662  1.00  0.00    -0.146 C  
HETATM    3  H   UNL     1      -8.889   3.550  70.769  1.00  0.00     0.000 HD 
ENDROOT
BRANCH   2   4
HETATM    4  C   UNL     1     -10.158   6.479  71.459  1.00  0.00    -0.190 C  
HETATM    5  O   UNL     1      -9.541   7.387  70.528  1.00  0.00    -0.172 OA 
HETATM    6  C   UNL     1     -10.596   8.148  69.912  1.00  0.00    -0.239 C  
HETATM    7  H   UNL     1     -12.211   5.644  68.405  1.00  0.00     0.000 HD 
HETATM    8  O   UNL     1     -12.559   6.454  71.883  1.00  0.00    -0.364 OA 
HETATM    9  C   UNL     1     -11.716   7.092  69.715  1.00  0.00     0.002 C  
HETATM   10  C   UNL     1     -11.554   6.156  70.913  1.00  0.00    -0.189 C  
HETATM   11  H   UNL     1     -13.424   6.254  71.544  1.00  0.00     0.000 HD 
HETATM   12  O   UNL     1     -11.526   6.291  68.526  1.00  0.00    -0.229 OA 
BRANCH   6  13
HETATM   13  O   UNL     1     -10.201   8.621  68.604  1.00  0.00    -0.187 OA 
BRANCH  13  14
HETATM   14  C   UNL     1      -8.796   8.853  68.443  1.00  0.00    -0.134 C  
HETATM   15  C   UNL     1      -8.766   7.846  66.284  1.00  0.00    -0.154 C  
HETATM   16  O   UNL     1      -8.194   7.865  67.604  1.00  0.00    -0.122 OA 
HETATM   17  H   UNL     1      -8.971  12.143  68.291  1.00  0.00     0.000 HD 
HETATM   18  C   UNL     1      -8.496   9.163  65.565  1.00  0.00    -0.147 C  
HETATM   19  O   UNL     1      -9.129  11.281  68.658  1.00  0.00    -0.172 OA 
HETATM   20  O   UNL     1      -9.082   9.198  64.259  1.00  0.00    -0.425 OA 
HETATM   21  C   UNL     1      -9.041  10.335  66.397  1.00  0.00    -0.152 C  
HETATM   22  H   UNL     1      -8.914  10.019  63.811  1.00  0.00     0.000 HD 
HETATM   23  O   UNL     1      -8.632  11.563  65.774  1.00  0.00    -0.368 OA 
HETATM   24  C   UNL     1      -8.537  10.261  67.844  1.00  0.00    -0.118 C  
HETATM   25  H   UNL     1      -8.969  12.288  66.287  1.00  0.00     0.000 HD 
BRANCH  15  26
HETATM   26  C   UNL     1      -8.177   6.641  65.545  1.00  0.00    -0.138 C  
HETATM   27  O   UNL     1      -8.297   5.475  66.367  1.00  0.00    -0.109 OA 
HETATM   28  H   UNL     1      -7.933   4.728  65.908  1.00  0.00     0.000 HD 
ENDBRANCH  15  26
ENDBRANCH  13  14
ENDBRANCH   6  13
BRANCH   6  29
HETATM   29  C   UNL     1     -11.042   9.278  70.884  1.00  0.00    -0.306 C  
HETATM   30  H   UNL     1     -12.731  10.093  71.555  1.00  0.00     0.000 HD 
HETATM   31  O   UNL     1     -12.458   9.402  70.962  1.00  0.00    -0.297 OA 
ENDBRANCH   6  29
ENDBRANCH   2   4
TORSDOF 5
ENDMDL
MODEL      155
REMARK 921   NORMALIZED FREE ENERGY PREDICTED BY IDOCK:   -3.51 KCAL/MOL
REMARK 922        TOTAL FREE ENERGY PREDICTED BY IDOCK:   -5.54 KCAL/MOL
REMARK 923 INTER-LIGAND FREE ENERGY PREDICTED BY IDOCK:   -4.62 KCAL/MOL
REMARK 924 INTRA-LIGAND FREE ENERGY PREDICTED BY IDOCK:   -0.92 KCAL/MOL
REMARK 927      BINDING AFFINITY PREDICTED BY RF-SCORE:    0.00 PKD
ROOT
HETATM    1  O   UNL     1      -6.274  14.114  67.217  1.00  0.00    -0.354 OA 
HETATM    2  C   UNL     1      -7.007  13.088  67.870  1.00  0.00    -0.127 C  
HETATM    3  H   UNL     1      -5.709  14.570  67.829  1.00  0.00     0.000 HD 
ENDROOT
BRANCH   2   4
HETATM    4  C   UNL     1      -7.916  12.354  66.885  1.00  0.00    -0.038 C  
HETATM    5  O   UNL     1      -7.964  10.958  67.232  1.00  0.00    -0.117 OA 
HETATM    6  C   UNL     1      -9.210  10.438  66.732  1.00  0.00    -0.155 C  
HETATM    7  H   UNL     1     -11.301  12.300  68.551  1.00  0.00     0.000 HD 
HETATM    8  O   UNL     1      -9.657  13.450  65.577  1.00  0.00    -0.496 OA 
HETATM    9  C   UNL     1     -10.207  11.594  67.015  1.00  0.00    -0.212 C  
HETATM   10  C   UNL     1      -9.364  12.857  66.843  1.00  0.00    -0.240 C  
HETATM   11  H   UNL     1     -10.554  13.761  65.550  1.00  0.00     0.000 HD 
HETATM   12  O   UNL     1     -10.691  11.593  68.377  1.00  0.00    -0.198 OA 
BRANCH   6  13
HETATM   13  O   UNL     1      -9.639   9.289  67.498  1.00  0.00    -0.142 OA 
BRANCH  13  14
HETATM   14  C   UNL     1      -8.688   8.813  68.460  1.00  0.00    -0.135 C  
HETATM   15  C   UNL     1     -10.397   8.140  69.978  1.00  0.00    -0.215 C  
HETATM   16  O   UNL     1      -9.196   8.911  69.792  1.00  0.00    -0.156 OA 
HETATM   17  H   UNL     1      -7.551   6.297  66.655  1.00  0.00     0.000 HD 
HETATM   18  C   UNL     1     -10.113   6.654  69.794  1.00  0.00    -0.182 C  
HETATM   19  O   UNL     1      -7.788   7.199  66.835  1.00  0.00    -0.103 OA 
HETATM   20  O   UNL     1     -11.292   5.854  69.934  1.00  0.00    -0.364 OA 
HETATM   21  C   UNL     1      -9.495   6.406  68.408  1.00  0.00    -0.119 C  
HETATM   22  H   UNL     1     -11.115   4.927  69.820  1.00  0.00     0.000 HD 
HETATM   23  O   UNL     1      -9.093   5.029  68.329  1.00  0.00    -0.109 OA 
HETATM   24  C   UNL     1      -8.301   7.339  68.166  1.00  0.00    -0.124 C  
HETATM   25  H   UNL     1      -8.712   4.876  67.472  1.00  0.00     0.000 HD 
BRANCH  15  26
HETATM   26  C   UNL     1     -10.943   8.467  71.371  1.00  0.00    -0.264 C  
HETATM   27  O   UNL     1     -11.725   9.663  71.306  1.00  0.00    -0.323 OA 
HETATM   28  H   UNL     1     -12.064   9.866  72.169  1.00  0.00     0.000 HD 
ENDBRANCH  15  26
ENDBRANCH  13  14
ENDBRANCH   6  13
BRANCH   6  29
HETATM   29  C   UNL     1      -9.071  10.164  65.207  1.00  0.00    -0.195 C  
HETATM   30  H   UNL     1     -10.225  10.121  63.585  1.00  0.00     0.000 HD 
HETATM   31  O   UNL     1     -10.310  10.289  64.516  1.00  0.00    -0.255 OA 
ENDBRANCH   6  29
ENDBRANCH   2   4
TORSDOF 5
ENDMDL
MODEL      156
REMARK 921   NORMALIZED FREE ENERGY PREDICTED BY IDOCK:   -3.50 KCAL/MOL
REMARK 922        TOTAL FREE ENERGY PREDICTED BY IDOCK:   -5.52 KCAL/MOL
REMARK 923 INTER-LIGAND FREE ENERGY PREDICTED BY IDOCK:   -4.61 KCAL/MOL
REMARK 924 INTRA-LIGAND FREE ENERGY PREDICTED BY IDOCK:   -0.91 KCAL/MOL
REMARK 927      BINDING AFFINITY PREDICTED BY RF-SCORE:    0.00 PKD
ROOT
HETATM    1  O   UNL     1     -11.592   4.842  65.319  1.00  0.00    -1.065 OA 
HETATM    2  C   UNL     1     -10.599   3.902  64.935  1.00  0.00    -0.072 C  
HETATM    3  H   UNL     1     -12.460   4.460  65.265  1.00  0.00     0.000 HD 
ENDROOT
BRANCH   2   4
HETATM    4  C   UNL     1      -9.203   4.516  65.022  1.00  0.00    -0.157 C  
HETATM    5  O   UNL     1      -9.318   5.948  65.118  1.00  0.00     0.174 OA 
HETATM    6  C   UNL     1      -8.133   6.426  65.781  1.00  0.00    -0.127 C  
HETATM    7  H   UNL     1      -8.541   4.892  68.718  1.00  0.00     0.000 HD 
HETATM    8  O   UNL     1      -7.234   3.297  65.782  1.00  0.00    -0.068 OA 
HETATM    9  C   UNL     1      -7.884   5.349  66.869  1.00  0.00    -0.101 C  
HETATM   10  C   UNL     1      -8.365   4.051  66.219  1.00  0.00    -0.105 C  
HETATM   11  H   UNL     1      -6.715   3.009  66.523  1.00  0.00     0.000 HD 
HETATM   12  O   UNL     1      -8.692   5.551  68.051  1.00  0.00    -0.108 OA 
BRANCH   6  13
HETATM   13  O   UNL     1      -8.384   7.682  66.453  1.00  0.00    -0.117 OA 
BRANCH  13  14
HETATM   14  C   UNL     1      -9.656   8.278  66.167  1.00  0.00    -0.147 C  
HETATM   15  C   UNL     1      -9.792   9.281  68.325  1.00  0.00    -0.158 C  
HETATM   16  O   UNL     1     -10.437   8.439  67.353  1.00  0.00    -0.263 OA 
HETATM   17  H   UNL     1      -8.580  10.385  63.869  1.00  0.00     0.000 HD 
HETATM   18  C   UNL     1      -9.636  10.698  67.784  1.00  0.00    -0.157 C  
HETATM   19  O   UNL     1      -8.691   9.540  64.288  1.00  0.00    -0.185 OA 
HETATM   20  O   UNL     1      -8.964  11.560  68.709  1.00  0.00    -0.309 OA 
HETATM   21  C   UNL     1      -8.859  10.671  66.458  1.00  0.00    -0.151 C  
HETATM   22  H   UNL     1      -8.866  12.444  68.371  1.00  0.00     0.000 HD 
HETATM   23  O   UNL     1      -8.868  11.994  65.898  1.00  0.00    -0.403 OA 
HETATM   24  C   UNL     1      -9.474   9.659  65.483  1.00  0.00    -0.266 C  
HETATM   25  H   UNL     1      -8.387  11.977  65.079  1.00  0.00     0.000 HD 
BRANCH  15  26
HETATM   26  C   UNL     1     -10.628   9.229  69.607  1.00  0.00    -0.229 C  
HETATM   27  O   UNL     1     -11.817  10.004  69.430  1.00  0.00    -0.474 OA 
HETATM   28  H   UNL     1     -12.336   9.971  70.225  1.00  0.00     0.000 HD 
ENDBRANCH  15  26
ENDBRANCH  13  14
ENDBRANCH   6  13
BRANCH   6  29
HETATM   29  C   UNL     1      -6.964   6.482  64.755  1.00  0.00    -0.055 C  
HETATM   30  H   UNL     1      -6.702   6.776  62.803  1.00  0.00     0.000 HD 
HETATM   31  O   UNL     1      -7.415   6.742  63.430  1.00  0.00    -0.070 OA 
ENDBRANCH   6  29
ENDBRANCH   2   4
TORSDOF 5
ENDMDL
MODEL      157
REMARK 921   NORMALIZED FREE ENERGY PREDICTED BY IDOCK:   -3.47 KCAL/MOL
REMARK 922        TOTAL FREE ENERGY PREDICTED BY IDOCK:   -5.49 KCAL/MOL
REMARK 923 INTER-LIGAND FREE ENERGY PREDICTED BY IDOCK:   -4.60 KCAL/MOL
REMARK 924 INTRA-LIGAND FREE ENERGY PREDICTED BY IDOCK:   -0.89 KCAL/MOL
REMARK 927      BINDING AFFINITY PREDICTED BY RF-SCORE:    0.00 PKD
ROOT
HETATM    1  O   UNL     1     -10.182   5.296  73.680  1.00  0.00    -0.177 OA 
HETATM    2  C   UNL     1     -10.447   5.620  72.323  1.00  0.00    -0.213 C  
HETATM    3  H   UNL     1     -10.987   5.114  74.149  1.00  0.00     0.000 HD 
ENDROOT
BRANCH   2   4
HETATM    4  C   UNL     1      -9.153   5.912  71.567  1.00  0.00    -0.143 C  
HETATM    5  O   UNL     1      -9.469   6.475  70.281  1.00  0.00    -0.161 OA 
HETATM    6  C   UNL     1      -8.338   7.265  69.871  1.00  0.00    -0.135 C  
HETATM    7  H   UNL     1      -8.389   9.529  72.326  1.00  0.00     0.000 HD 
HETATM    8  O   UNL     1      -6.995   6.239  72.655  1.00  0.00    -0.073 OA 
HETATM    9  C   UNL     1      -7.888   7.939  71.195  1.00  0.00    -0.086 C  
HETATM   10  C   UNL     1      -8.204   6.894  72.265  1.00  0.00    -0.104 C  
HETATM   11  H   UNL     1      -6.408   6.847  73.088  1.00  0.00     0.000 HD 
HETATM   12  O   UNL     1      -8.664   9.116  71.515  1.00  0.00    -0.334 OA 
BRANCH   6  13
HETATM   13  O   UNL     1      -8.738   8.313  68.958  1.00  0.00    -0.140 OA 
BRANCH  13  14
HETATM   14  C   UNL     1     -10.067   8.186  68.436  1.00  0.00    -0.200 C  
HETATM   15  C   UNL     1     -10.411  10.544  68.439  1.00  0.00    -0.176 C  
HETATM   16  O   UNL     1     -10.904   9.262  68.866  1.00  0.00    -0.194 OA 
HETATM   17  H   UNL     1      -9.200   7.047  65.465  1.00  0.00     0.000 HD 
HETATM   18  C   UNL     1     -10.425  10.642  66.918  1.00  0.00    -0.249 C  
HETATM   19  O   UNL     1      -9.213   7.074  66.414  1.00  0.00    -0.158 OA 
HETATM   20  O   UNL     1      -9.905  11.892  66.449  1.00  0.00    -0.204 OA 
HETATM   21  C   UNL     1      -9.605   9.493  66.310  1.00  0.00    -0.226 C  
HETATM   22  H   UNL     1      -9.914  11.954  65.501  1.00  0.00     0.000 HD 
HETATM   23  O   UNL     1      -9.770   9.521  64.883  1.00  0.00    -0.444 OA 
HETATM   24  C   UNL     1     -10.047   8.141  66.885  1.00  0.00    -0.297 C  
HETATM   25  H   UNL     1      -9.263   8.811  64.507  1.00  0.00     0.000 HD 
BRANCH  15  26
HETATM   26  C   UNL     1     -11.276  11.616  69.106  1.00  0.00    -0.263 C  
HETATM   27  O   UNL     1     -11.454  11.290  70.488  1.00  0.00    -0.461 OA 
HETATM   28  H   UNL     1     -11.991  11.955  70.902  1.00  0.00     0.000 HD 
ENDBRANCH  15  26
ENDBRANCH  13  14
ENDBRANCH   6  13
BRANCH   6  29
HETATM   29  C   UNL     1      -7.237   6.322  69.307  1.00  0.00    -0.086 C  
HETATM   30  H   UNL     1      -7.103   4.689  68.176  1.00  0.00     0.000 HD 
HETATM   31  O   UNL     1      -7.776   5.266  68.520  1.00  0.00    -0.079 OA 
ENDBRANCH   6  29
ENDBRANCH   2   4
TORSDOF 5
ENDMDL
MODEL      158
REMARK 921   NORMALIZED FREE ENERGY PREDICTED BY IDOCK:   -3.46 KCAL/MOL
REMARK 922        TOTAL FREE ENERGY PREDICTED BY IDOCK:   -5.47 KCAL/MOL
REMARK 923 INTER-LIGAND FREE ENERGY PREDICTED BY IDOCK:   -4.53 KCAL/MOL
REMARK 924 INTRA-LIGAND FREE ENERGY PREDICTED BY IDOCK:   -0.94 KCAL/MOL
REMARK 927      BINDING AFFINITY PREDICTED BY RF-SCORE:    0.00 PKD
ROOT
HETATM    1  O   UNL     1     -12.393   6.983  70.101  1.00  0.00    -0.618 OA 
HETATM    2  C   UNL     1     -11.624   6.093  70.896  1.00  0.00    -0.189 C  
HETATM    3  H   UNL     1     -13.197   6.569  69.811  1.00  0.00     0.000 HD 
ENDROOT
BRANCH   2   4
HETATM    4  C   UNL     1     -10.330   6.757  71.364  1.00  0.00    -0.202 C  
HETATM    5  O   UNL     1      -9.536   7.112  70.217  1.00  0.00    -0.162 OA 
HETATM    6  C   UNL     1      -8.690   8.209  70.608  1.00  0.00    -0.135 C  
HETATM    7  H   UNL     1     -11.063  10.458  71.286  1.00  0.00     0.000 HD 
HETATM    8  O   UNL     1     -10.073   7.841  73.532  1.00  0.00    -0.319 OA 
HETATM    9  C   UNL     1      -9.624   9.065  71.503  1.00  0.00    -0.270 C  
HETATM   10  C   UNL     1     -10.521   8.035  72.190  1.00  0.00    -0.265 C  
HETATM   11  H   UNL     1     -10.192   8.633  74.044  1.00  0.00     0.000 HD 
HETATM   12  O   UNL     1     -10.490   9.934  70.738  1.00  0.00    -0.290 OA 
BRANCH   6  13
HETATM   13  O   UNL     1      -8.319   9.012  69.464  1.00  0.00    -0.109 OA 
BRANCH  13  14
HETATM   14  C   UNL     1      -8.883   8.587  68.216  1.00  0.00    -0.142 C  
HETATM   15  C   UNL     1      -8.809  10.788  67.307  1.00  0.00    -0.133 C  
HETATM   16  O   UNL     1      -9.624   9.637  67.590  1.00  0.00    -0.139 OA 
HETATM   17  H   UNL     1      -6.324   6.743  67.252  1.00  0.00     0.000 HD 
HETATM   18  C   UNL     1      -7.724  10.439  66.294  1.00  0.00    -0.129 C  
HETATM   19  O   UNL     1      -7.004   7.043  67.844  1.00  0.00    -0.077 OA 
HETATM   20  O   UNL     1      -6.867  11.551  66.012  1.00  0.00    -0.366 OA 
HETATM   21  C   UNL     1      -6.878   9.266  66.814  1.00  0.00    -0.080 C  
HETATM   22  H   UNL     1      -6.191  11.333  65.380  1.00  0.00     0.000 HD 
HETATM   23  O   UNL     1      -5.975   8.860  65.774  1.00  0.00    -0.050 OA 
HETATM   24  C   UNL     1      -7.772   8.097  67.250  1.00  0.00    -0.098 C  
HETATM   25  H   UNL     1      -5.451   8.135  66.096  1.00  0.00     0.000 HD 
BRANCH  15  26
HETATM   26  C   UNL     1      -9.738  11.900  66.814  1.00  0.00    -0.204 C  
HETATM   27  O   UNL     1      -9.444  12.193  65.445  1.00  0.00    -0.409 OA 
HETATM   28  H   UNL     1     -10.021  12.883  65.139  1.00  0.00     0.000 HD 
ENDBRANCH  15  26
ENDBRANCH  13  14
ENDBRANCH   6  13
BRANCH   6  29
HETATM   29  C   UNL     1      -7.478   7.656  71.411  1.00  0.00    -0.079 C  
HETATM   30  H   UNL     1      -6.269   6.074  71.391  1.00  0.00     0.000 HD 
HETATM   31  O   UNL     1      -7.009   6.412  70.901  1.00  0.00    -0.064 OA 
ENDBRANCH   6  29
ENDBRANCH   2   4
TORSDOF 5
ENDMDL
MODEL      159
REMARK 921   NORMALIZED FREE ENERGY PREDICTED BY IDOCK:   -3.45 KCAL/MOL
REMARK 922        TOTAL FREE ENERGY PREDICTED BY IDOCK:   -5.47 KCAL/MOL
REMARK 923 INTER-LIGAND FREE ENERGY PREDICTED BY IDOCK:   -4.56 KCAL/MOL
REMARK 924 INTRA-LIGAND FREE ENERGY PREDICTED BY IDOCK:   -0.91 KCAL/MOL
REMARK 927      BINDING AFFINITY PREDICTED BY RF-SCORE:    0.00 PKD
ROOT
HETATM    1  O   UNL     1      -6.285  10.298  65.277  1.00  0.00    -0.110 OA 
HETATM    2  C   UNL     1      -6.882  10.307  66.565  1.00  0.00    -0.101 C  
HETATM    3  H   UNL     1      -5.539  10.884  65.244  1.00  0.00     0.000 HD 
ENDROOT
BRANCH   2   4
HETATM    4  C   UNL     1      -8.082   9.364  66.618  1.00  0.00    -0.108 C  
HETATM    5  O   UNL     1      -8.779   9.549  67.865  1.00  0.00    -0.120 OA 
HETATM    6  C   UNL     1     -10.145   9.150  67.652  1.00  0.00    -0.220 C  
HETATM    7  H   UNL     1     -10.982  11.419  65.350  1.00  0.00     0.000 HD 
HETATM    8  O   UNL     1      -9.148   8.418  64.640  1.00  0.00    -0.376 OA 
HETATM    9  C   UNL     1     -10.446   9.687  66.228  1.00  0.00    -0.079 C  
HETATM   10  C   UNL     1      -9.110   9.560  65.497  1.00  0.00    -0.212 C  
HETATM   11  H   UNL     1      -9.785   8.540  63.945  1.00  0.00     0.000 HD 
HETATM   12  O   UNL     1     -10.798  11.089  66.222  1.00  0.00    -0.247 OA 
BRANCH   6  13
HETATM   13  O   UNL     1     -11.033   9.824  68.574  1.00  0.00    -0.215 OA 
BRANCH  13  14
HETATM   14  C   UNL     1     -10.390  10.420  69.708  1.00  0.00    -0.208 C  
HETATM   15  C   UNL     1     -11.048  12.618  69.064  1.00  0.00    -0.238 C  
HETATM   16  O   UNL     1      -9.957  11.752  69.425  1.00  0.00     0.195 OA 
HETATM   17  H   UNL     1     -12.385   9.131  71.996  1.00  0.00     0.000 HD 
HETATM   18  C   UNL     1     -12.013  12.777  70.233  1.00  0.00    -0.280 C  
HETATM   19  O   UNL     1     -11.802   9.119  71.247  1.00  0.00    -0.288 OA 
HETATM   20  O   UNL     1     -13.135  13.603  69.902  1.00  0.00     0.056 OA 
HETATM   21  C   UNL     1     -12.516  11.399  70.690  1.00  0.00    -0.327 C  
HETATM   22  H   UNL     1     -13.737  13.703  70.631  1.00  0.00     0.000 HD 
HETATM   23  O   UNL     1     -13.292  11.571  71.887  1.00  0.00    -0.443 OA 
HETATM   24  C   UNL     1     -11.342  10.440  70.933  1.00  0.00    -0.223 C  
HETATM   25  H   UNL     1     -13.604  10.719  72.169  1.00  0.00     0.000 HD 
BRANCH  15  26
HETATM   26  C   UNL     1     -10.448  13.951  68.609  1.00  0.00    -0.246 C  
HETATM   27  O   UNL     1     -10.801  14.189  67.243  1.00  0.00    -0.279 OA 
HETATM   28  H   UNL     1     -10.429  15.016  66.961  1.00  0.00     0.000 HD 
ENDBRANCH  15  26
ENDBRANCH  13  14
ENDBRANCH   6  13
BRANCH   6  29
HETATM   29  C   UNL     1     -10.236   7.598  67.709  1.00  0.00    -0.201 C  
HETATM   30  H   UNL     1     -11.180   6.121  66.764  1.00  0.00     0.000 HD 
HETATM   31  O   UNL     1     -11.124   7.069  66.729  1.00  0.00    -0.289 OA 
ENDBRANCH   6  29
ENDBRANCH   2   4
TORSDOF 5
ENDMDL
MODEL      160
REMARK 921   NORMALIZED FREE ENERGY PREDICTED BY IDOCK:   -3.44 KCAL/MOL
REMARK 922        TOTAL FREE ENERGY PREDICTED BY IDOCK:   -5.45 KCAL/MOL
REMARK 923 INTER-LIGAND FREE ENERGY PREDICTED BY IDOCK:   -4.94 KCAL/MOL
REMARK 924 INTRA-LIGAND FREE ENERGY PREDICTED BY IDOCK:   -0.51 KCAL/MOL
REMARK 927      BINDING AFFINITY PREDICTED BY RF-SCORE:    0.00 PKD
ROOT
HETATM    1  O   UNL     1      -6.952   8.496  65.218  1.00  0.00    -0.075 OA 
HETATM    2  C   UNL     1      -6.410   9.363  66.202  1.00  0.00    -0.068 C  
HETATM    3  H   UNL     1      -6.290   7.902  64.886  1.00  0.00     0.000 HD 
ENDROOT
BRANCH   2   4
HETATM    4  C   UNL     1      -7.475  10.319  66.737  1.00  0.00    -0.107 C  
HETATM    5  O   UNL     1      -8.385   9.592  67.583  1.00  0.00    -0.123 OA 
HETATM    6  C   UNL     1      -8.956  10.538  68.505  1.00  0.00    -0.147 C  
HETATM    7  H   UNL     1      -6.162  11.453  70.088  1.00  0.00     0.000 HD 
HETATM    8  O   UNL     1      -7.172  12.733  66.892  1.00  0.00    -0.370 OA 
HETATM    9  C   UNL     1      -7.753  11.454  68.853  1.00  0.00    -0.108 C  
HETATM   10  C   UNL     1      -6.935  11.494  67.561  1.00  0.00    -0.102 C  
HETATM   11  H   UNL     1      -6.838  13.460  67.403  1.00  0.00     0.000 HD 
HETATM   12  O   UNL     1      -6.899  10.892  69.874  1.00  0.00    -0.148 OA 
BRANCH   6  13
HETATM   13  O   UNL     1      -9.380   9.886  69.724  1.00  0.00    -0.207 OA 
BRANCH  13  14
HETATM   14  C   UNL     1      -9.127   8.475  69.776  1.00  0.00    -0.153 C  
HETATM   15  C   UNL     1      -9.455   8.392  72.134  1.00  0.00    -0.290 C  
HETATM   16  O   UNL     1      -8.577   8.087  71.036  1.00  0.00    -0.125 OA 
HETATM   17  H   UNL     1     -11.812   7.548  68.100  1.00  0.00     0.000 HD 
HETATM   18  C   UNL     1     -10.746   7.589  72.025  1.00  0.00    -0.225 C  
HETATM   19  O   UNL     1     -11.014   8.038  68.259  1.00  0.00     0.021 OA 
HETATM   20  O   UNL     1     -11.665   7.892  73.081  1.00  0.00    -0.630 OA 
HETATM   21  C   UNL     1     -11.422   7.863  70.671  1.00  0.00    -0.238 C  
HETATM   22  H   UNL     1     -12.470   7.391  73.013  1.00  0.00     0.000 HD 
HETATM   23  O   UNL     1     -12.543   6.976  70.535  1.00  0.00    -0.618 OA 
HETATM   24  C   UNL     1     -10.430   7.674  69.516  1.00  0.00    -0.227 C  
HETATM   25  H   UNL     1     -12.961   7.145  69.698  1.00  0.00     0.000 HD 
BRANCH  15  26
HETATM   26  C   UNL     1      -8.691   8.104  73.429  1.00  0.00    -0.251 C  
HETATM   27  O   UNL     1      -7.408   8.737  73.374  1.00  0.00    -0.365 OA 
HETATM   28  H   UNL     1      -6.934   8.559  74.177  1.00  0.00     0.000 HD 
ENDBRANCH  15  26
ENDBRANCH  13  14
ENDBRANCH   6  13
BRANCH   6  29
HETATM   29  C   UNL     1     -10.088  11.329  67.786  1.00  0.00    -0.179 C  
HETATM   30  H   UNL     1     -11.716  12.371  68.261  1.00  0.00     0.000 HD 
HETATM   31  O   UNL     1     -11.025  11.889  68.700  1.00  0.00    -0.204 OA 
ENDBRANCH   6  29
ENDBRANCH   2   4
TORSDOF 5
ENDMDL
MODEL      161
REMARK 921   NORMALIZED FREE ENERGY PREDICTED BY IDOCK:   -3.43 KCAL/MOL
REMARK 922        TOTAL FREE ENERGY PREDICTED BY IDOCK:   -5.44 KCAL/MOL
REMARK 923 INTER-LIGAND FREE ENERGY PREDICTED BY IDOCK:   -5.22 KCAL/MOL
REMARK 924 INTRA-LIGAND FREE ENERGY PREDICTED BY IDOCK:   -0.22 KCAL/MOL
REMARK 927      BINDING AFFINITY PREDICTED BY RF-SCORE:    0.00 PKD
ROOT
HETATM    1  O   UNL     1      -6.236  10.579  63.995  1.00  0.00    -0.310 OA 
HETATM    2  C   UNL     1      -6.610  10.519  65.364  1.00  0.00    -0.074 C  
HETATM    3  H   UNL     1      -5.339  10.874  63.901  1.00  0.00     0.000 HD 
ENDROOT
BRANCH   2   4
HETATM    4  C   UNL     1      -8.054  10.045  65.517  1.00  0.00    -0.137 C  
HETATM    5  O   UNL     1      -8.663  10.726  66.630  1.00  0.00    -0.140 OA 
HETATM    6  C   UNL     1     -10.083  10.743  66.392  1.00  0.00    -0.227 C  
HETATM    7  H   UNL     1     -10.105  12.559  63.591  1.00  0.00     0.000 HD 
HETATM    8  O   UNL     1      -9.351   9.054  63.706  1.00  0.00    -0.293 OA 
HETATM    9  C   UNL     1     -10.176  11.001  64.865  1.00  0.00    -0.311 C  
HETATM   10  C   UNL     1      -8.948  10.291  64.296  1.00  0.00    -0.234 C  
HETATM   11  H   UNL     1      -9.905   9.206  62.950  1.00  0.00     0.000 HD 
HETATM   12  O   UNL     1     -10.048  12.401  64.526  1.00  0.00    -0.291 OA 
BRANCH   6  13
HETATM   13  O   UNL     1     -10.709  11.858  67.067  1.00  0.00    -0.223 OA 
BRANCH  13  14
HETATM   14  C   UNL     1     -10.082  12.253  68.294  1.00  0.00    -0.218 C  
HETATM   15  C   UNL     1     -10.020  14.547  67.651  1.00  0.00    -0.224 C  
HETATM   16  O   UNL     1      -9.266  13.413  68.117  1.00  0.00    -0.205 OA 
HETATM   17  H   UNL     1     -12.639  11.570  70.263  1.00  0.00     0.000 HD 
HETATM   18  C   UNL     1     -11.049  14.969  68.693  1.00  0.00    -0.264 C  
HETATM   19  O   UNL     1     -11.988  11.396  69.594  1.00  0.00    -0.308 OA 
HETATM   20  O   UNL     1     -11.847  16.073  68.252  1.00  0.00    -0.302 OA 
HETATM   21  C   UNL     1     -11.968  13.784  69.033  1.00  0.00    -0.360 C  
HETATM   22  H   UNL     1     -12.489  16.336  68.902  1.00  0.00     0.000 HD 
HETATM   23  O   UNL     1     -12.817  14.166  70.126  1.00  0.00    -0.402 OA 
HETATM   24  C   UNL     1     -11.146  12.538  69.388  1.00  0.00    -0.079 C  
HETATM   25  H   UNL     1     -13.386  13.434  70.336  1.00  0.00     0.000 HD 
BRANCH  15  26
HETATM   26  C   UNL     1      -9.022  15.661  67.324  1.00  0.00    -0.199 C  
HETATM   27  O   UNL     1      -8.320  16.033  68.515  1.00  0.00    -0.173 OA 
HETATM   28  H   UNL     1      -7.700  16.724  68.312  1.00  0.00     0.000 HD 
ENDBRANCH  15  26
ENDBRANCH  13  14
ENDBRANCH   6  13
BRANCH   6  29
HETATM   29  C   UNL     1     -10.679   9.358  66.775  1.00  0.00    -0.059 C  
HETATM   30  H   UNL     1     -10.043   7.508  67.146  1.00  0.00     0.000 HD 
HETATM   31  O   UNL     1      -9.679   8.354  66.913  1.00  0.00    -0.186 OA 
ENDBRANCH   6  29
ENDBRANCH   2   4
TORSDOF 5
ENDMDL
MODEL      162
REMARK 921   NORMALIZED FREE ENERGY PREDICTED BY IDOCK:   -3.42 KCAL/MOL
REMARK 922        TOTAL FREE ENERGY PREDICTED BY IDOCK:   -5.43 KCAL/MOL
REMARK 923 INTER-LIGAND FREE ENERGY PREDICTED BY IDOCK:   -4.27 KCAL/MOL
REMARK 924 INTRA-LIGAND FREE ENERGY PREDICTED BY IDOCK:   -1.16 KCAL/MOL
REMARK 927      BINDING AFFINITY PREDICTED BY RF-SCORE:    0.00 PKD
ROOT
HETATM    1  O   UNL     1      -6.338   4.169  66.984  1.00  0.00    -0.038 OA 
HETATM    2  C   UNL     1      -6.992   4.500  68.200  1.00  0.00    -0.056 C  
HETATM    3  H   UNL     1      -5.444   3.893  67.143  1.00  0.00     0.000 HD 
ENDROOT
BRANCH   2   4
HETATM    4  C   UNL     1      -8.431   4.943  67.945  1.00  0.00    -0.103 C  
HETATM    5  O   UNL     1      -8.580   6.321  68.332  1.00  0.00    -0.114 OA 
HETATM    6  C   UNL     1      -9.671   6.863  67.564  1.00  0.00    -0.134 C  
HETATM    7  H   UNL     1      -8.364   6.509  64.512  1.00  0.00     0.000 HD 
HETATM    8  O   UNL     1      -9.920   3.851  66.352  1.00  0.00    -0.376 OA 
HETATM    9  C   UNL     1      -9.469   6.214  66.169  1.00  0.00    -0.067 C  
HETATM   10  C   UNL     1      -8.892   4.834  66.486  1.00  0.00    -0.111 C  
HETATM   11  H   UNL     1     -10.206   3.784  65.449  1.00  0.00     0.000 HD 
HETATM   12  O   UNL     1      -8.487   6.907  65.367  1.00  0.00    -0.138 OA 
BRANCH   6  13
HETATM   13  O   UNL     1      -9.534   8.294  67.407  1.00  0.00    -0.144 OA 
BRANCH  13  14
HETATM   14  C   UNL     1      -8.515   8.898  68.214  1.00  0.00    -0.130 C  
HETATM   15  C   UNL     1      -7.755  10.272  66.421  1.00  0.00    -0.116 C  
HETATM   16  O   UNL     1      -7.395   9.307  67.426  1.00  0.00    -0.086 OA 
HETATM   17  H   UNL     1     -10.549  10.507  70.253  1.00  0.00     0.000 HD 
HETATM   18  C   UNL     1      -8.247  11.560  67.070  1.00  0.00    -0.167 C  
HETATM   19  O   UNL     1     -10.205   9.756  69.784  1.00  0.00    -0.209 OA 
HETATM   20  O   UNL     1      -8.652  12.535  66.102  1.00  0.00    -0.397 OA 
HETATM   21  C   UNL     1      -9.427  11.259  68.009  1.00  0.00    -0.173 C  
HETATM   22  H   UNL     1      -8.958  13.339  66.507  1.00  0.00     0.000 HD 
HETATM   23  O   UNL     1      -9.761  12.460  68.721  1.00  0.00    -0.398 OA 
HETATM   24  C   UNL     1      -9.076  10.125  68.982  1.00  0.00    -0.173 C  
HETATM   25  H   UNL     1     -10.490  12.274  69.301  1.00  0.00     0.000 HD 
BRANCH  15  26
HETATM   26  C   UNL     1      -6.528  10.491  65.532  1.00  0.00    -0.106 C  
HETATM   27  O   UNL     1      -5.758  11.581  66.048  1.00  0.00    -0.448 OA 
HETATM   28  H   UNL     1      -4.996  11.717  65.497  1.00  0.00     0.000 HD 
ENDBRANCH  15  26
ENDBRANCH  13  14
ENDBRANCH   6  13
BRANCH   6  29
HETATM   29  C   UNL     1     -11.016   6.424  68.211  1.00  0.00    -0.312 C  
HETATM   30  H   UNL     1     -11.798   6.200  70.028  1.00  0.00     0.000 HD 
HETATM   31  O   UNL     1     -10.977   6.469  69.633  1.00  0.00    -0.270 OA 
ENDBRANCH   6  29
ENDBRANCH   2   4
TORSDOF 5
ENDMDL
MODEL      163
REMARK 921   NORMALIZED FREE ENERGY PREDICTED BY IDOCK:   -3.40 KCAL/MOL
REMARK 922        TOTAL FREE ENERGY PREDICTED BY IDOCK:   -5.40 KCAL/MOL
REMARK 923 INTER-LIGAND FREE ENERGY PREDICTED BY IDOCK:   -4.98 KCAL/MOL
REMARK 924 INTRA-LIGAND FREE ENERGY PREDICTED BY IDOCK:   -0.41 KCAL/MOL
REMARK 927      BINDING AFFINITY PREDICTED BY RF-SCORE:    0.00 PKD
ROOT
HETATM    1  O   UNL     1      -9.679   5.804  73.093  1.00  0.00    -0.153 OA 
HETATM    2  C   UNL     1     -10.376   6.074  71.885  1.00  0.00    -0.209 C  
HETATM    3  H   UNL     1     -10.285   5.614  73.799  1.00  0.00     0.000 HD 
ENDROOT
BRANCH   2   4
HETATM    4  C   UNL     1      -9.402   6.380  70.749  1.00  0.00    -0.158 C  
HETATM    5  O   UNL     1     -10.001   7.335  69.853  1.00  0.00    -0.181 OA 
HETATM    6  C   UNL     1      -8.927   8.034  69.196  1.00  0.00    -0.145 C  
HETATM    7  H   UNL     1      -7.539   9.461  71.877  1.00  0.00     0.000 HD 
HETATM    8  O   UNL     1      -6.992   6.051  70.907  1.00  0.00    -0.063 OA 
HETATM    9  C   UNL     1      -7.886   8.216  70.332  1.00  0.00    -0.090 C  
HETATM   10  C   UNL     1      -8.054   6.962  71.191  1.00  0.00    -0.110 C  
HETATM   11  H   UNL     1      -6.157   6.412  71.181  1.00  0.00     0.000 HD 
HETATM   12  O   UNL     1      -8.177   9.349  71.181  1.00  0.00    -0.314 OA 
BRANCH   6  13
HETATM   13  O   UNL     1      -9.348   9.350  68.769  1.00  0.00    -0.144 OA 
BRANCH  13  14
HETATM   14  C   UNL     1     -10.685   9.422  68.258  1.00  0.00    -0.171 C  
HETATM   15  C   UNL     1     -11.465  10.622  70.164  1.00  0.00    -0.329 C  
HETATM   16  O   UNL     1     -11.647   9.476  69.313  1.00  0.00     0.102 OA 
HETATM   17  H   UNL     1     -10.012  11.409  65.713  1.00  0.00     0.000 HD 
HETATM   18  C   UNL     1     -11.695  11.909  69.381  1.00  0.00    -0.339 C  
HETATM   19  O   UNL     1      -9.906  10.649  66.273  1.00  0.00    -0.198 OA 
HETATM   20  O   UNL     1     -11.486  13.077  70.184  1.00  0.00    -0.516 OA 
HETATM   21  C   UNL     1     -10.758  11.958  68.163  1.00  0.00    -0.215 C  
HETATM   22  H   UNL     1     -11.630  13.880  69.696  1.00  0.00     0.000 HD 
HETATM   23  O   UNL     1     -11.109  13.099  67.365  1.00  0.00    -0.261 OA 
HETATM   24  C   UNL     1     -10.858  10.664  67.344  1.00  0.00    -0.296 C  
HETATM   25  H   UNL     1     -10.530  13.129  66.612  1.00  0.00     0.000 HD 
BRANCH  15  26
HETATM   26  C   UNL     1     -12.423  10.473  71.349  1.00  0.00    -0.411 C  
HETATM   27  O   UNL     1     -13.626   9.836  70.909  1.00  0.00    -0.545 OA 
HETATM   28  H   UNL     1     -14.221   9.743  71.644  1.00  0.00     0.000 HD 
ENDBRANCH  15  26
ENDBRANCH  13  14
ENDBRANCH   6  13
BRANCH   6  29
HETATM   29  C   UNL     1      -8.370   7.145  68.047  1.00  0.00    -0.119 C  
HETATM   30  H   UNL     1      -9.062   5.974  66.594  1.00  0.00     0.000 HD 
HETATM   31  O   UNL     1      -9.403   6.517  67.296  1.00  0.00    -0.118 OA 
ENDBRANCH   6  29
ENDBRANCH   2   4
TORSDOF 5
ENDMDL
MODEL      164
REMARK 921   NORMALIZED FREE ENERGY PREDICTED BY IDOCK:   -3.39 KCAL/MOL
REMARK 922        TOTAL FREE ENERGY PREDICTED BY IDOCK:   -5.38 KCAL/MOL
REMARK 923 INTER-LIGAND FREE ENERGY PREDICTED BY IDOCK:   -5.31 KCAL/MOL
REMARK 924 INTRA-LIGAND FREE ENERGY PREDICTED BY IDOCK:   -0.07 KCAL/MOL
REMARK 927      BINDING AFFINITY PREDICTED BY RF-SCORE:    0.00 PKD
ROOT
HETATM    1  O   UNL     1     -10.826   5.140  66.120  1.00  0.00    -0.583 OA 
HETATM    2  C   UNL     1     -11.270   6.216  66.934  1.00  0.00    -0.071 C  
HETATM    3  H   UNL     1     -11.543   4.555  65.910  1.00  0.00     0.000 HD 
ENDROOT
BRANCH   2   4
HETATM    4  C   UNL     1     -10.117   7.158  67.272  1.00  0.00    -0.215 C  
HETATM    5  O   UNL     1     -10.390   8.461  66.724  1.00  0.00    -0.305 OA 
HETATM    6  C   UNL     1      -9.667   9.418  67.519  1.00  0.00    -0.157 C  
HETATM    7  H   UNL     1     -11.191   8.897  70.444  1.00  0.00     0.000 HD 
HETATM    8  O   UNL     1      -8.585   6.807  69.136  1.00  0.00    -0.130 OA 
HETATM    9  C   UNL     1      -9.830   8.865  68.960  1.00  0.00    -0.180 C  
HETATM   10  C   UNL     1      -9.856   7.348  68.771  1.00  0.00    -0.164 C  
HETATM   11  H   UNL     1      -8.423   6.924  70.065  1.00  0.00     0.000 HD 
HETATM   12  O   UNL     1     -11.091   9.236  69.562  1.00  0.00    -0.192 OA 
BRANCH   6  13
HETATM   13  O   UNL     1     -10.300  10.717  67.472  1.00  0.00    -0.187 OA 
BRANCH  13  14
HETATM   14  C   UNL     1     -10.077  11.542  68.623  1.00  0.00    -0.207 C  
HETATM   15  C   UNL     1      -8.870  13.164  67.363  1.00  0.00    -0.204 C  
HETATM   16  O   UNL     1      -8.865  12.290  68.506  1.00  0.00    -0.156 OA 
HETATM   17  H   UNL     1     -13.227  12.403  69.089  1.00  0.00     0.000 HD 
HETATM   18  C   UNL     1      -9.953  14.226  67.508  1.00  0.00    -0.235 C  
HETATM   19  O   UNL     1     -12.500  11.805  68.958  1.00  0.00    -0.175 OA 
HETATM   20  O   UNL     1     -10.016  15.096  66.371  1.00  0.00    -0.248 OA 
HETATM   21  C   UNL     1     -11.322  13.556  67.708  1.00  0.00    -0.296 C  
HETATM   22  H   UNL     1     -10.692  15.759  66.461  1.00  0.00     0.000 HD 
HETATM   23  O   UNL     1     -12.290  14.576  67.999  1.00  0.00    -0.606 OA 
HETATM   24  C   UNL     1     -11.263  12.519  68.838  1.00  0.00    -0.281 C  
HETATM   25  H   UNL     1     -13.136  14.162  68.123  1.00  0.00     0.000 HD 
BRANCH  15  26
HETATM   26  C   UNL     1      -7.468  13.766  67.238  1.00  0.00    -0.027 C  
HETATM   27  O   UNL     1      -6.545  12.745  66.847  1.00  0.00    -0.458 OA 
HETATM   28  H   UNL     1      -5.676  13.118  66.769  1.00  0.00     0.000 HD 
ENDBRANCH  15  26
ENDBRANCH  13  14
ENDBRANCH   6  13
BRANCH   6  29
HETATM   29  C   UNL     1      -8.176   9.425  67.075  1.00  0.00    -0.116 C  
HETATM   30  H   UNL     1      -7.074  10.077  65.550  1.00  0.00     0.000 HD 
HETATM   31  O   UNL     1      -7.985  10.073  65.822  1.00  0.00    -0.116 OA 
ENDBRANCH   6  29
ENDBRANCH   2   4
TORSDOF 5
ENDMDL
MODEL      165
REMARK 921   NORMALIZED FREE ENERGY PREDICTED BY IDOCK:   -3.36 KCAL/MOL
REMARK 922        TOTAL FREE ENERGY PREDICTED BY IDOCK:   -5.35 KCAL/MOL
REMARK 923 INTER-LIGAND FREE ENERGY PREDICTED BY IDOCK:   -4.69 KCAL/MOL
REMARK 924 INTRA-LIGAND FREE ENERGY PREDICTED BY IDOCK:   -0.67 KCAL/MOL
REMARK 927      BINDING AFFINITY PREDICTED BY RF-SCORE:    0.00 PKD
ROOT
HETATM    1  O   UNL     1      -6.963  11.237  67.837  1.00  0.00    -0.070 OA 
HETATM    2  C   UNL     1      -7.188  10.686  66.547  1.00  0.00    -0.134 C  
HETATM    3  H   UNL     1      -6.156  11.737  67.856  1.00  0.00     0.000 HD 
ENDROOT
BRANCH   2   4
HETATM    4  C   UNL     1      -8.486   9.881  66.516  1.00  0.00    -0.125 C  
HETATM    5  O   UNL     1      -8.529   9.002  67.655  1.00  0.00    -0.116 OA 
HETATM    6  C   UNL     1      -9.915   8.735  67.935  1.00  0.00    -0.187 C  
HETATM    7  H   UNL     1     -10.892  11.844  68.659  1.00  0.00     0.000 HD 
HETATM    8  O   UNL     1     -10.489  10.591  65.322  1.00  0.00    -0.262 OA 
HETATM    9  C   UNL     1     -10.591  10.109  67.683  1.00  0.00    -0.265 C  
HETATM   10  C   UNL     1      -9.769  10.721  66.548  1.00  0.00    -0.196 C  
HETATM   11  H   UNL     1     -11.284  11.111  65.342  1.00  0.00     0.000 HD 
HETATM   12  O   UNL     1     -10.478  11.003  68.813  1.00  0.00    -0.181 OA 
BRANCH   6  13
HETATM   13  O   UNL     1     -10.109   8.398  69.328  1.00  0.00    -0.191 OA 
BRANCH  13  14
HETATM   14  C   UNL     1     -11.222   7.533  69.593  1.00  0.00    -0.005 C  
HETATM   15  C   UNL     1      -9.824   5.835  70.509  1.00  0.00    -0.186 C  
HETATM   16  O   UNL     1     -10.840   6.157  69.542  1.00  0.00    -0.284 OA 
HETATM   17  H   UNL     1     -12.611   9.408  71.924  1.00  0.00     0.000 HD 
HETATM   18  C   UNL     1     -10.354   6.025  71.925  1.00  0.00    -0.209 C  
HETATM   19  O   UNL     1     -12.233   9.218  71.073  1.00  0.00    -0.291 OA 
HETATM   20  O   UNL     1      -9.359   5.749  72.918  1.00  0.00    -0.144 OA 
HETATM   21  C   UNL     1     -10.865   7.463  72.105  1.00  0.00    -0.235 C  
HETATM   22  H   UNL     1      -9.690   5.868  73.802  1.00  0.00     0.000 HD 
HETATM   23  O   UNL     1     -11.500   7.563  73.390  1.00  0.00    -0.629 OA 
HETATM   24  C   UNL     1     -11.839   7.843  70.982  1.00  0.00    -0.268 C  
HETATM   25  H   UNL     1     -11.815   8.453  73.502  1.00  0.00     0.000 HD 
BRANCH  15  26
HETATM   26  C   UNL     1      -9.370   4.398  70.238  1.00  0.00    -0.148 C  
HETATM   27  O   UNL     1     -10.159   3.496  71.020  1.00  0.00    -0.071 OA 
HETATM   28  H   UNL     1      -9.879   2.604  70.851  1.00  0.00     0.000 HD 
ENDBRANCH  15  26
ENDBRANCH  13  14
ENDBRANCH   6  13
BRANCH   6  29
HETATM   29  C   UNL     1     -10.435   7.653  66.945  1.00  0.00    -0.318 C  
HETATM   30  H   UNL     1      -9.702   6.188  65.812  1.00  0.00     0.000 HD 
HETATM   31  O   UNL     1      -9.385   6.849  66.417  1.00  0.00    -0.169 OA 
ENDBRANCH   6  29
ENDBRANCH   2   4
TORSDOF 5
ENDMDL
MODEL      166
REMARK 921   NORMALIZED FREE ENERGY PREDICTED BY IDOCK:   -3.36 KCAL/MOL
REMARK 922        TOTAL FREE ENERGY PREDICTED BY IDOCK:   -5.35 KCAL/MOL
REMARK 923 INTER-LIGAND FREE ENERGY PREDICTED BY IDOCK:   -4.35 KCAL/MOL
REMARK 924 INTRA-LIGAND FREE ENERGY PREDICTED BY IDOCK:   -1.00 KCAL/MOL
REMARK 927      BINDING AFFINITY PREDICTED BY RF-SCORE:    0.00 PKD
ROOT
HETATM    1  O   UNL     1      -6.635   8.489  65.323  1.00  0.00    -0.062 OA 
HETATM    2  C   UNL     1      -6.609   9.830  65.790  1.00  0.00    -0.088 C  
HETATM    3  H   UNL     1      -5.793   8.237  64.964  1.00  0.00     0.000 HD 
ENDROOT
BRANCH   2   4
HETATM    4  C   UNL     1      -7.963  10.234  66.368  1.00  0.00    -0.121 C  
HETATM    5  O   UNL     1      -8.484   9.152  67.161  1.00  0.00    -0.119 OA 
HETATM    6  C   UNL     1      -9.379   9.727  68.131  1.00  0.00    -0.128 C  
HETATM    7  H   UNL     1      -7.178  11.608  69.794  1.00  0.00     0.000 HD 
HETATM    8  O   UNL     1      -8.669  12.548  66.669  1.00  0.00    -0.329 OA 
HETATM    9  C   UNL     1      -8.649  11.032  68.545  1.00  0.00    -0.158 C  
HETATM   10  C   UNL     1      -7.937  11.477  67.267  1.00  0.00    -0.153 C  
HETATM   11  H   UNL     1      -8.653  13.318  67.225  1.00  0.00     0.000 HD 
HETATM   12  O   UNL     1      -7.625  10.809  69.540  1.00  0.00    -0.141 OA 
BRANCH   6  13
HETATM   13  O   UNL     1      -9.481   8.889  69.305  1.00  0.00    -0.158 OA 
BRANCH  13  14
HETATM   14  C   UNL     1     -10.646   8.054  69.354  1.00  0.00    -0.205 C  
HETATM   15  C   UNL     1      -9.440   6.242  70.324  1.00  0.00    -0.161 C  
HETATM   16  O   UNL     1     -10.303   6.670  69.255  1.00  0.00    -0.180 OA 
HETATM   17  H   UNL     1     -12.284   9.820  71.607  1.00  0.00     0.000 HD 
HETATM   18  C   UNL     1     -10.154   6.357  71.666  1.00  0.00    -0.186 C  
HETATM   19  O   UNL     1     -11.799   9.674  70.803  1.00  0.00    -0.283 OA 
HETATM   20  O   UNL     1      -9.314   5.975  72.762  1.00  0.00    -0.146 OA 
HETATM   21  C   UNL     1     -10.640   7.799  71.880  1.00  0.00    -0.223 C  
HETATM   22  H   UNL     1      -9.759   6.046  73.598  1.00  0.00     0.000 HD 
HETATM   23  O   UNL     1     -11.442   7.837  73.071  1.00  0.00    -0.564 OA 
HETATM   24  C   UNL     1     -11.439   8.293  70.666  1.00  0.00    -0.225 C  
HETATM   25  H   UNL     1     -11.742   8.729  73.203  1.00  0.00     0.000 HD 
BRANCH  15  26
HETATM   26  C   UNL     1      -8.998   4.809  70.013  1.00  0.00    -0.095 C  
HETATM   27  O   UNL     1      -8.979   4.616  68.595  1.00  0.00    -0.101 OA 
HETATM   28  H   UNL     1      -8.704   3.728  68.402  1.00  0.00     0.000 HD 
ENDBRANCH  15  26
ENDBRANCH  13  14
ENDBRANCH   6  13
BRANCH   6  29
HETATM   29  C   UNL     1     -10.744  10.027  67.449  1.00  0.00    -0.274 C  
HETATM   30  H   UNL     1     -12.102  11.483  67.398  1.00  0.00     0.000 HD 
HETATM   31  O   UNL     1     -11.267  11.300  67.814  1.00  0.00    -0.250 OA 
ENDBRANCH   6  29
ENDBRANCH   2   4
TORSDOF 5
ENDMDL
MODEL      167
REMARK 921   NORMALIZED FREE ENERGY PREDICTED BY IDOCK:   -3.36 KCAL/MOL
REMARK 922        TOTAL FREE ENERGY PREDICTED BY IDOCK:   -5.35 KCAL/MOL
REMARK 923 INTER-LIGAND FREE ENERGY PREDICTED BY IDOCK:   -4.24 KCAL/MOL
REMARK 924 INTRA-LIGAND FREE ENERGY PREDICTED BY IDOCK:   -1.11 KCAL/MOL
REMARK 927      BINDING AFFINITY PREDICTED BY RF-SCORE:    0.00 PKD
ROOT
HETATM    1  O   UNL     1     -10.274   5.708  65.847  1.00  0.00    -0.403 OA 
HETATM    2  C   UNL     1      -8.879   5.575  65.615  1.00  0.00    -0.152 C  
HETATM    3  H   UNL     1     -10.767   5.100  65.310  1.00  0.00     0.000 HD 
ENDROOT
BRANCH   2   4
HETATM    4  C   UNL     1      -8.085   6.552  66.479  1.00  0.00    -0.111 C  
HETATM    5  O   UNL     1      -8.955   7.123  67.474  1.00  0.00    -0.122 OA 
HETATM    6  C   UNL     1      -8.129   7.524  68.583  1.00  0.00    -0.124 C  
HETATM    7  H   UNL     1      -6.960   4.520  69.453  1.00  0.00     0.000 HD 
HETATM    8  O   UNL     1      -5.662   6.471  66.737  1.00  0.00    -0.013 OA 
HETATM    9  C   UNL     1      -7.092   6.373  68.676  1.00  0.00    -0.083 C  
HETATM   10  C   UNL     1      -6.894   5.938  67.225  1.00  0.00    -0.063 C  
HETATM   11  H   UNL     1      -4.924   6.091  67.198  1.00  0.00     0.000 HD 
HETATM   12  O   UNL     1      -7.595   5.225  69.395  1.00  0.00    -0.067 OA 
BRANCH   6  13
HETATM   13  O   UNL     1      -8.885   7.537  69.816  1.00  0.00    -0.140 OA 
BRANCH  13  14
HETATM   14  C   UNL     1     -10.283   7.253  69.673  1.00  0.00    -0.211 C  
HETATM   15  C   UNL     1     -10.424   6.303  71.854  1.00  0.00    -0.209 C  
HETATM   16  O   UNL     1     -10.668   6.116  70.448  1.00  0.00    -0.241 OA 
HETATM   17  H   UNL     1     -11.302  10.389  69.600  1.00  0.00     0.000 HD 
HETATM   18  C   UNL     1     -11.284   7.438  72.399  1.00  0.00    -0.293 C  
HETATM   19  O   UNL     1     -10.778   9.640  69.341  1.00  0.00    -0.217 OA 
HETATM   20  O   UNL     1     -11.042   7.682  73.790  1.00  0.00    -0.474 OA 
HETATM   21  C   UNL     1     -11.016   8.727  71.605  1.00  0.00    -0.321 C  
HETATM   22  H   UNL     1     -11.579   8.389  74.130  1.00  0.00     0.000 HD 
HETATM   23  O   UNL     1     -11.951   9.729  72.035  1.00  0.00    -0.297 OA 
HETATM   24  C   UNL     1     -11.138   8.476  70.096  1.00  0.00    -0.188 C  
HETATM   25  H   UNL     1     -11.786  10.526  71.545  1.00  0.00     0.000 HD 
BRANCH  15  26
HETATM   26  C   UNL     1     -10.700   4.969  72.551  1.00  0.00    -0.212 C  
HETATM   27  O   UNL     1     -10.128   4.991  73.863  1.00  0.00    -0.165 OA 
HETATM   28  H   UNL     1     -10.299   4.163  74.296  1.00  0.00     0.000 HD 
ENDBRANCH  15  26
ENDBRANCH  13  14
ENDBRANCH   6  13
BRANCH   6  29
HETATM   29  C   UNL     1      -7.448   8.882  68.245  1.00  0.00    -0.087 C  
HETATM   30  H   UNL     1      -5.766   9.857  68.674  1.00  0.00     0.000 HD 
HETATM   31  O   UNL     1      -6.182   9.028  68.880  1.00  0.00    -0.043 OA 
ENDBRANCH   6  29
ENDBRANCH   2   4
TORSDOF 5
ENDMDL
MODEL      168
REMARK 921   NORMALIZED FREE ENERGY PREDICTED BY IDOCK:   -3.36 KCAL/MOL
REMARK 922        TOTAL FREE ENERGY PREDICTED BY IDOCK:   -5.35 KCAL/MOL
REMARK 923 INTER-LIGAND FREE ENERGY PREDICTED BY IDOCK:   -4.40 KCAL/MOL
REMARK 924 INTRA-LIGAND FREE ENERGY PREDICTED BY IDOCK:   -0.95 KCAL/MOL
REMARK 927      BINDING AFFINITY PREDICTED BY RF-SCORE:    0.00 PKD
ROOT
HETATM    1  O   UNL     1      -6.873  10.887  67.396  1.00  0.00    -0.073 OA 
HETATM    2  C   UNL     1      -6.938   9.960  66.321  1.00  0.00    -0.100 C  
HETATM    3  H   UNL     1      -6.157  11.499  67.273  1.00  0.00     0.000 HD 
ENDROOT
BRANCH   2   4
HETATM    4  C   UNL     1      -8.089   8.975  66.518  1.00  0.00    -0.111 C  
HETATM    5  O   UNL     1      -8.011   8.410  67.840  1.00  0.00    -0.112 OA 
HETATM    6  C   UNL     1      -9.342   8.002  68.207  1.00  0.00    -0.140 C  
HETATM    7  H   UNL     1     -10.818  10.996  68.163  1.00  0.00     0.000 HD 
HETATM    8  O   UNL     1     -10.158   9.038  65.230  1.00  0.00    -0.243 OA 
HETATM    9  C   UNL     1     -10.224   9.145  67.639  1.00  0.00    -0.236 C  
HETATM   10  C   UNL     1      -9.491   9.580  66.371  1.00  0.00    -0.195 C  
HETATM   11  H   UNL     1     -11.026   9.413  65.139  1.00  0.00     0.000 HD 
HETATM   12  O   UNL     1     -10.278  10.296  68.511  1.00  0.00    -0.160 OA 
BRANCH   6  13
HETATM   13  O   UNL     1      -9.504   7.993  69.644  1.00  0.00    -0.162 OA 
BRANCH  13  14
HETATM   14  C   UNL     1      -9.556   6.690  70.240  1.00  0.00    -0.161 C  
HETATM   15  C   UNL     1      -8.062   7.311  71.990  1.00  0.00    -0.094 C  
HETATM   16  O   UNL     1      -8.343   6.380  70.929  1.00  0.00    -0.123 OA 
HETATM   17  H   UNL     1     -12.715   6.828  71.179  1.00  0.00     0.000 HD 
HETATM   18  C   UNL     1      -9.136   7.233  73.068  1.00  0.00    -0.142 C  
HETATM   19  O   UNL     1     -11.985   6.892  70.574  1.00  0.00    -0.355 OA 
HETATM   20  O   UNL     1      -8.913   8.172  74.126  1.00  0.00    -0.364 OA 
HETATM   21  C   UNL     1     -10.520   7.486  72.450  1.00  0.00    -0.243 C  
HETATM   22  H   UNL     1      -9.583   8.123  74.799  1.00  0.00     0.000 HD 
HETATM   23  O   UNL     1     -11.518   7.248  73.455  1.00  0.00    -0.549 OA 
HETATM   24  C   UNL     1     -10.748   6.585  71.228  1.00  0.00    -0.237 C  
HETATM   25  H   UNL     1     -12.374   7.405  73.073  1.00  0.00     0.000 HD 
BRANCH  15  26
HETATM   26  C   UNL     1      -6.664   6.990  72.526  1.00  0.00    -0.061 C  
HETATM   27  O   UNL     1      -5.822   6.585  71.443  1.00  0.00    -0.030 OA 
HETATM   28  H   UNL     1      -4.955   6.386  71.775  1.00  0.00     0.000 HD 
ENDBRANCH  15  26
ENDBRANCH  13  14
ENDBRANCH   6  13
BRANCH   6  29
HETATM   29  C   UNL     1      -9.662   6.640  67.527  1.00  0.00    -0.127 C  
HETATM   30  H   UNL     1     -11.243   5.659  66.818  1.00  0.00     0.000 HD 
HETATM   31  O   UNL     1     -11.047   6.491  67.233  1.00  0.00    -0.378 OA 
ENDBRANCH   6  29
ENDBRANCH   2   4
TORSDOF 5
ENDMDL
MODEL      169
REMARK 921   NORMALIZED FREE ENERGY PREDICTED BY IDOCK:   -3.35 KCAL/MOL
REMARK 922        TOTAL FREE ENERGY PREDICTED BY IDOCK:   -5.33 KCAL/MOL
REMARK 923 INTER-LIGAND FREE ENERGY PREDICTED BY IDOCK:   -4.28 KCAL/MOL
REMARK 924 INTRA-LIGAND FREE ENERGY PREDICTED BY IDOCK:   -1.05 KCAL/MOL
REMARK 927      BINDING AFFINITY PREDICTED BY RF-SCORE:    0.00 PKD
ROOT
HETATM    1  O   UNL     1      -5.261  10.778  67.300  1.00  0.00    -0.039 OA 
HETATM    2  C   UNL     1      -6.430  11.212  66.622  1.00  0.00    -0.134 C  
HETATM    3  H   UNL     1      -4.787  11.515  67.667  1.00  0.00     0.000 HD 
ENDROOT
BRANCH   2   4
HETATM    4  C   UNL     1      -7.192  10.028  66.032  1.00  0.00    -0.112 C  
HETATM    5  O   UNL     1      -7.694   9.204  67.101  1.00  0.00    -0.097 OA 
HETATM    6  C   UNL     1      -8.846   8.505  66.595  1.00  0.00    -0.135 C  
HETATM    7  H   UNL     1     -10.798  11.138  65.960  1.00  0.00     0.000 HD 
HETATM    8  O   UNL     1      -8.164  10.022  63.795  1.00  0.00    -0.146 OA 
HETATM    9  C   UNL     1      -9.547   9.578  65.720  1.00  0.00    -0.270 C  
HETATM   10  C   UNL     1      -8.392  10.403  65.153  1.00  0.00    -0.165 C  
HETATM   11  H   UNL     1      -8.906  10.255  63.251  1.00  0.00     0.000 HD 
HETATM   12  O   UNL     1     -10.368  10.481  66.495  1.00  0.00    -0.233 OA 
BRANCH   6  13
HETATM   13  O   UNL     1      -9.750   8.149  67.665  1.00  0.00    -0.147 OA 
BRANCH  13  14
HETATM   14  C   UNL     1      -9.235   8.356  68.987  1.00  0.00    -0.147 C  
HETATM   15  C   UNL     1     -11.242   9.411  69.722  1.00  0.00    -0.114 C  
HETATM   16  O   UNL     1      -9.812   9.512  69.599  1.00  0.00    -0.181 OA 
HETATM   17  H   UNL     1      -9.103   5.175  69.846  1.00  0.00     0.000 HD 
HETATM   18  C   UNL     1     -11.619   8.266  70.654  1.00  0.00    -0.191 C  
HETATM   19  O   UNL     1      -8.940   5.934  69.299  1.00  0.00    -0.117 OA 
HETATM   20  O   UNL     1     -13.038   8.108  70.773  1.00  0.00    -0.447 OA 
HETATM   21  C   UNL     1     -11.004   6.952  70.146  1.00  0.00    -0.281 C  
HETATM   22  H   UNL     1     -13.273   7.394  71.355  1.00  0.00     0.000 HD 
HETATM   23  O   UNL     1     -11.243   5.929  71.126  1.00  0.00    -0.276 OA 
HETATM   24  C   UNL     1      -9.501   7.117  69.881  1.00  0.00    -0.153 C  
HETATM   25  H   UNL     1     -10.863   5.116  70.812  1.00  0.00     0.000 HD 
BRANCH  15  26
HETATM   26  C   UNL     1     -11.759  10.766  70.214  1.00  0.00    -0.352 C  
HETATM   27  O   UNL     1     -12.192  10.643  71.572  1.00  0.00    -0.335 OA 
HETATM   28  H   UNL     1     -12.513  11.483  71.878  1.00  0.00     0.000 HD 
ENDBRANCH  15  26
ENDBRANCH  13  14
ENDBRANCH   6  13
BRANCH   6  29
HETATM   29  C   UNL     1      -8.371   7.294  65.741  1.00  0.00    -0.139 C  
HETATM   30  H   UNL     1      -6.955   5.895  65.790  1.00  0.00     0.000 HD 
HETATM   31  O   UNL     1      -7.245   6.634  66.311  1.00  0.00    -0.069 OA 
ENDBRANCH   6  29
ENDBRANCH   2   4
TORSDOF 5
ENDMDL
MODEL      170
REMARK 921   NORMALIZED FREE ENERGY PREDICTED BY IDOCK:   -3.35 KCAL/MOL
REMARK 922        TOTAL FREE ENERGY PREDICTED BY IDOCK:   -5.33 KCAL/MOL
REMARK 923 INTER-LIGAND FREE ENERGY PREDICTED BY IDOCK:   -5.19 KCAL/MOL
REMARK 924 INTRA-LIGAND FREE ENERGY PREDICTED BY IDOCK:   -0.14 KCAL/MOL
REMARK 927      BINDING AFFINITY PREDICTED BY RF-SCORE:    0.00 PKD
ROOT
HETATM    1  O   UNL     1     -11.115  20.262  68.577  1.00  0.00     0.131 OA 
HETATM    2  C   UNL     1      -9.999  19.475  68.966  1.00  0.00    -0.414 C  
HETATM    3  H   UNL     1     -11.455  20.757  69.312  1.00  0.00     0.000 HD 
ENDROOT
BRANCH   2   4
HETATM    4  C   UNL     1      -9.451  18.679  67.784  1.00  0.00    -0.300 C  
HETATM    5  O   UNL     1      -8.551  17.665  68.269  1.00  0.00    -0.253 OA 
HETATM    6  C   UNL     1      -8.535  16.608  67.292  1.00  0.00    -0.194 C  
HETATM    7  H   UNL     1     -11.742  15.695  67.485  1.00  0.00     0.000 HD 
HETATM    8  O   UNL     1     -10.567  18.527  65.622  1.00  0.00    -0.616 OA 
HETATM    9  C   UNL     1     -10.020  16.524  66.848  1.00  0.00    -0.271 C  
HETATM   10  C   UNL     1     -10.512  17.968  66.935  1.00  0.00    -0.341 C  
HETATM   11  H   UNL     1     -11.225  18.087  65.096  1.00  0.00     0.000 HD 
HETATM   12  O   UNL     1     -10.832  15.747  67.757  1.00  0.00    -0.302 OA 
BRANCH   6  13
HETATM   13  O   UNL     1      -8.186  15.343  67.901  1.00  0.00    -0.137 OA 
BRANCH  13  14
HETATM   14  C   UNL     1      -6.839  14.910  67.668  1.00  0.00    -0.181 C  
HETATM   15  C   UNL     1      -6.159  15.474  69.881  1.00  0.00    -0.157 C  
HETATM   16  O   UNL     1      -5.908  15.636  68.473  1.00  0.00    -0.095 OA 
HETATM   17  H   UNL     1      -7.524  11.700  67.344  1.00  0.00     0.000 HD 
HETATM   18  C   UNL     1      -5.960  14.021  70.295  1.00  0.00    -0.158 C  
HETATM   19  O   UNL     1      -7.614  12.629  67.168  1.00  0.00    -0.139 OA 
HETATM   20  O   UNL     1      -6.236  13.810  71.684  1.00  0.00    -0.554 OA 
HETATM   21  C   UNL     1      -6.865  13.106  69.454  1.00  0.00     0.032 C  
HETATM   22  H   UNL     1      -6.112  12.903  71.943  1.00  0.00     0.000 HD 
HETATM   23  O   UNL     1      -6.539  11.741  69.755  1.00  0.00    -0.239 OA 
HETATM   24  C   UNL     1      -6.692  13.393  67.956  1.00  0.00    -0.131 C  
HETATM   25  H   UNL     1      -7.099  11.175  69.236  1.00  0.00     0.000 HD 
BRANCH  15  26
HETATM   26  C   UNL     1      -5.227  16.432  70.627  1.00  0.00    -0.191 C  
HETATM   27  O   UNL     1      -5.486  17.774  70.203  1.00  0.00    -0.216 OA 
HETATM   28  H   UNL     1      -4.908  18.368  70.666  1.00  0.00     0.000 HD 
ENDBRANCH  15  26
ENDBRANCH  13  14
ENDBRANCH   6  13
BRANCH   6  29
HETATM   29  C   UNL     1      -7.608  17.018  66.112  1.00  0.00    -0.245 C  
HETATM   30  H   UNL     1      -6.607  18.622  65.486  1.00  0.00     0.000 HD 
HETATM   31  O   UNL     1      -7.173  18.371  66.207  1.00  0.00    -0.224 OA 
ENDBRANCH   6  29
ENDBRANCH   2   4
TORSDOF 5
ENDMDL
MODEL      171
REMARK 921   NORMALIZED FREE ENERGY PREDICTED BY IDOCK:   -3.34 KCAL/MOL
REMARK 922        TOTAL FREE ENERGY PREDICTED BY IDOCK:   -5.33 KCAL/MOL
REMARK 923 INTER-LIGAND FREE ENERGY PREDICTED BY IDOCK:   -4.27 KCAL/MOL
REMARK 924 INTRA-LIGAND FREE ENERGY PREDICTED BY IDOCK:   -1.06 KCAL/MOL
REMARK 927      BINDING AFFINITY PREDICTED BY RF-SCORE:    0.00 PKD
ROOT
HETATM    1  O   UNL     1     -11.173   5.480  65.992  1.00  0.00    -0.771 OA 
HETATM    2  C   UNL     1     -10.518   4.274  65.629  1.00  0.00    -0.123 C  
HETATM    3  H   UNL     1     -11.985   5.584  65.511  1.00  0.00     0.000 HD 
ENDROOT
BRANCH   2   4
HETATM    4  C   UNL     1      -9.212   4.107  66.403  1.00  0.00    -0.157 C  
HETATM    5  O   UNL     1      -9.039   5.225  67.292  1.00  0.00    -0.112 OA 
HETATM    6  C   UNL     1      -8.203   4.782  68.377  1.00  0.00    -0.084 C  
HETATM    7  H   UNL     1     -10.212   2.427  69.631  1.00  0.00     0.000 HD 
HETATM    8  O   UNL     1      -8.115   1.958  66.757  1.00  0.00    -0.070 OA 
HETATM    9  C   UNL     1      -8.714   3.340  68.641  1.00  0.00    -0.102 C  
HETATM   10  C   UNL     1      -9.125   2.836  67.257  1.00  0.00    -0.174 C  
HETATM   11  H   UNL     1      -8.061   1.171  67.287  1.00  0.00     0.000 HD 
HETATM   12  O   UNL     1      -9.898   3.310  69.469  1.00  0.00    -0.028 OA 
BRANCH   6  13
HETATM   13  O   UNL     1      -8.445   5.560  69.571  1.00  0.00    -0.103 OA 
BRANCH  13  14
HETATM   14  C   UNL     1      -8.861   6.912  69.339  1.00  0.00    -0.136 C  
HETATM   15  C   UNL     1     -10.494   6.823  71.073  1.00  0.00    -0.212 C  
HETATM   16  O   UNL     1     -10.234   7.105  69.686  1.00  0.00    -0.197 OA 
HETATM   17  H   UNL     1      -6.060   8.346  70.326  1.00  0.00     0.000 HD 
HETATM   18  C   UNL     1      -9.741   7.801  71.967  1.00  0.00    -0.173 C  
HETATM   19  O   UNL     1      -6.597   7.740  69.830  1.00  0.00    -0.037 OA 
HETATM   20  O   UNL     1      -9.943   7.529  73.359  1.00  0.00    -0.274 OA 
HETATM   21  C   UNL     1      -8.236   7.746  71.654  1.00  0.00    -0.110 C  
HETATM   22  H   UNL     1      -9.474   8.139  73.916  1.00  0.00     0.000 HD 
HETATM   23  O   UNL     1      -7.579   8.786  72.396  1.00  0.00    -0.335 OA 
HETATM   24  C   UNL     1      -7.984   7.904  70.149  1.00  0.00    -0.107 C  
HETATM   25  H   UNL     1      -6.650   8.752  72.203  1.00  0.00     0.000 HD 
BRANCH  15  26
HETATM   26  C   UNL     1     -12.010   6.884  71.279  1.00  0.00    -0.356 C  
HETATM   27  O   UNL     1     -12.359   6.140  72.450  1.00  0.00    -0.537 OA 
HETATM   28  H   UNL     1     -13.300   6.178  72.579  1.00  0.00     0.000 HD 
ENDBRANCH  15  26
ENDBRANCH  13  14
ENDBRANCH   6  13
BRANCH   6  29
HETATM   29  C   UNL     1      -6.719   4.786  67.910  1.00  0.00    -0.054 C  
HETATM   30  H   UNL     1      -4.900   4.666  68.711  1.00  0.00     0.000 HD 
HETATM   31  O   UNL     1      -5.807   4.663  68.996  1.00  0.00    -0.016 OA 
ENDBRANCH   6  29
ENDBRANCH   2   4
TORSDOF 5
ENDMDL
MODEL      172
REMARK 921   NORMALIZED FREE ENERGY PREDICTED BY IDOCK:   -3.34 KCAL/MOL
REMARK 922        TOTAL FREE ENERGY PREDICTED BY IDOCK:   -5.33 KCAL/MOL
REMARK 923 INTER-LIGAND FREE ENERGY PREDICTED BY IDOCK:   -5.84 KCAL/MOL
REMARK 924 INTRA-LIGAND FREE ENERGY PREDICTED BY IDOCK:    0.52 KCAL/MOL
REMARK 927      BINDING AFFINITY PREDICTED BY RF-SCORE:    0.00 PKD
ROOT
HETATM    1  O   UNL     1      -5.695  11.947  68.564  1.00  0.00    -0.049 OA 
HETATM    2  C   UNL     1      -5.468  13.021  69.464  1.00  0.00    -0.083 C  
HETATM    3  H   UNL     1      -5.409  11.123  68.939  1.00  0.00     0.000 HD 
ENDROOT
BRANCH   2   4
HETATM    4  C   UNL     1      -5.928  14.347  68.862  1.00  0.00    -0.086 C  
HETATM    5  O   UNL     1      -6.734  14.087  67.698  1.00  0.00    -0.169 OA 
HETATM    6  C   UNL     1      -7.609  15.217  67.524  1.00  0.00    -0.192 C  
HETATM    7  H   UNL     1      -9.329  14.967  70.375  1.00  0.00     0.000 HD 
HETATM    8  O   UNL     1      -6.063  16.431  70.120  1.00  0.00    -0.190 OA 
HETATM    9  C   UNL     1      -8.008  15.574  68.981  1.00  0.00    -0.205 C  
HETATM   10  C   UNL     1      -6.764  15.228  69.798  1.00  0.00    -0.176 C  
HETATM   11  H   UNL     1      -6.581  16.977  70.700  1.00  0.00     0.000 HD 
HETATM   12  O   UNL     1      -9.084  14.749  69.483  1.00  0.00    -0.034 OA 
BRANCH   6  13
HETATM   13  O   UNL     1      -8.812  14.839  66.817  1.00  0.00    -0.246 OA 
BRANCH  13  14
HETATM   14  C   UNL     1     -10.034  15.285  67.420  1.00  0.00    -0.223 C  
HETATM   15  C   UNL     1     -10.359  16.974  65.771  1.00  0.00    -0.261 C  
HETATM   16  O   UNL     1     -10.263  16.674  67.175  1.00  0.00    -0.279 OA 
HETATM   17  H   UNL     1     -11.785  12.561  66.790  1.00  0.00     0.000 HD 
HETATM   18  C   UNL     1     -11.570  16.280  65.158  1.00  0.00     0.336 C  
HETATM   19  O   UNL     1     -11.047  13.063  67.115  1.00  0.00    -0.260 OA 
HETATM   20  O   UNL     1     -11.680  16.523  63.751  1.00  0.00    -1.548 OA 
HETATM   21  C   UNL     1     -11.488  14.765  65.405  1.00  0.00    -0.341 C  
HETATM   22  H   UNL     1     -12.436  16.091  63.369  1.00  0.00     0.000 HD 
HETATM   23  O   UNL     1     -12.714  14.164  64.959  1.00  0.00    -0.631 OA 
HETATM   24  C   UNL     1     -11.240  14.465  66.890  1.00  0.00    -0.334 C  
HETATM   25  H   UNL     1     -12.664  13.228  65.111  1.00  0.00     0.000 HD 
BRANCH  15  26
HETATM   26  C   UNL     1     -10.418  18.497  65.628  1.00  0.00    -0.103 C  
HETATM   27  O   UNL     1     -10.548  19.090  66.923  1.00  0.00    -0.406 OA 
HETATM   28  H   UNL     1     -10.584  20.035  66.835  1.00  0.00     0.000 HD 
ENDBRANCH  15  26
ENDBRANCH  13  14
ENDBRANCH   6  13
BRANCH   6  29
HETATM   29  C   UNL     1      -6.817  16.373  66.849  1.00  0.00    -0.196 C  
HETATM   30  H   UNL     1      -6.593  18.343  67.040  1.00  0.00     0.000 HD 
HETATM   31  O   UNL     1      -7.077  17.636  67.453  1.00  0.00    -0.165 OA 
ENDBRANCH   6  29
ENDBRANCH   2   4
TORSDOF 5
ENDMDL
MODEL      173
REMARK 921   NORMALIZED FREE ENERGY PREDICTED BY IDOCK:   -3.33 KCAL/MOL
REMARK 922        TOTAL FREE ENERGY PREDICTED BY IDOCK:   -5.31 KCAL/MOL
REMARK 923 INTER-LIGAND FREE ENERGY PREDICTED BY IDOCK:   -4.41 KCAL/MOL
REMARK 924 INTRA-LIGAND FREE ENERGY PREDICTED BY IDOCK:   -0.91 KCAL/MOL
REMARK 927      BINDING AFFINITY PREDICTED BY RF-SCORE:    0.00 PKD
ROOT
HETATM    1  O   UNL     1      -7.255  10.789  68.137  1.00  0.00    -0.080 OA 
HETATM    2  C   UNL     1      -8.543  11.191  68.581  1.00  0.00    -0.151 C  
HETATM    3  H   UNL     1      -6.636  11.506  68.196  1.00  0.00     0.000 HD 
ENDROOT
BRANCH   2   4
HETATM    4  C   UNL     1      -9.539  10.037  68.486  1.00  0.00    -0.151 C  
HETATM    5  O   UNL     1      -8.948   8.850  69.047  1.00  0.00    -0.135 OA 
HETATM    6  C   UNL     1     -10.026   8.007  69.491  1.00  0.00    -0.186 C  
HETATM    7  H   UNL     1     -11.326  10.028  71.809  1.00  0.00     0.000 HD 
HETATM    8  O   UNL     1     -11.950  10.344  68.290  1.00  0.00    -0.772 OA 
HETATM    9  C   UNL     1     -11.037   9.022  70.089  1.00  0.00    -0.207 C  
HETATM   10  C   UNL     1     -10.867  10.267  69.218  1.00  0.00    -0.238 C  
HETATM   11  H   UNL     1     -12.772  10.486  68.744  1.00  0.00     0.000 HD 
HETATM   12  O   UNL     1     -10.708   9.406  71.443  1.00  0.00    -0.332 OA 
BRANCH   6  13
HETATM   13  O   UNL     1      -9.596   7.132  70.559  1.00  0.00    -0.169 OA 
BRANCH  13  14
HETATM   14  C   UNL     1      -8.182   7.109  70.791  1.00  0.00    -0.120 C  
HETATM   15  C   UNL     1      -8.458   7.156  73.157  1.00  0.00    -0.121 C  
HETATM   16  O   UNL     1      -7.839   7.769  72.012  1.00  0.00    -0.089 OA 
HETATM   17  H   UNL     1      -7.660   4.060  69.648  1.00  0.00     0.000 HD 
HETATM   18  C   UNL     1      -7.946   5.733  73.344  1.00  0.00    -0.109 C  
HETATM   19  O   UNL     1      -7.982   4.953  69.623  1.00  0.00    -0.066 OA 
HETATM   20  O   UNL     1      -8.566   5.074  74.454  1.00  0.00    -0.112 OA 
HETATM   21  C   UNL     1      -8.193   4.914  72.066  1.00  0.00    -0.115 C  
HETATM   22  H   UNL     1      -8.246   4.186  74.570  1.00  0.00     0.000 HD 
HETATM   23  O   UNL     1      -7.559   3.634  72.216  1.00  0.00    -0.056 OA 
HETATM   24  C   UNL     1      -7.655   5.650  70.832  1.00  0.00    -0.091 C  
HETATM   25  H   UNL     1      -7.712   3.128  71.427  1.00  0.00     0.000 HD 
BRANCH  15  26
HETATM   26  C   UNL     1      -8.171   8.049  74.368  1.00  0.00    -0.229 C  
HETATM   27  O   UNL     1      -7.235   9.065  73.997  1.00  0.00    -0.389 OA 
HETATM   28  H   UNL     1      -7.057   9.619  74.748  1.00  0.00     0.000 HD 
ENDBRANCH  15  26
ENDBRANCH  13  14
ENDBRANCH   6  13
BRANCH   6  29
HETATM   29  C   UNL     1     -10.625   7.259  68.265  1.00  0.00    -0.172 C  
HETATM   30  H   UNL     1     -11.490   5.513  67.856  1.00  0.00     0.000 HD 
HETATM   31  O   UNL     1     -11.124   5.970  68.605  1.00  0.00    -0.315 OA 
ENDBRANCH   6  29
ENDBRANCH   2   4
TORSDOF 5
ENDMDL
MODEL      174
REMARK 921   NORMALIZED FREE ENERGY PREDICTED BY IDOCK:   -3.32 KCAL/MOL
REMARK 922        TOTAL FREE ENERGY PREDICTED BY IDOCK:   -5.30 KCAL/MOL
REMARK 923 INTER-LIGAND FREE ENERGY PREDICTED BY IDOCK:   -4.68 KCAL/MOL
REMARK 924 INTRA-LIGAND FREE ENERGY PREDICTED BY IDOCK:   -0.62 KCAL/MOL
REMARK 927      BINDING AFFINITY PREDICTED BY RF-SCORE:    0.00 PKD
ROOT
HETATM    1  O   UNL     1      -6.988  12.141  67.914  1.00  0.00    -0.083 OA 
HETATM    2  C   UNL     1      -8.024  13.097  67.743  1.00  0.00    -0.162 C  
HETATM    3  H   UNL     1      -6.392  12.405  68.603  1.00  0.00     0.000 HD 
ENDROOT
BRANCH   2   4
HETATM    4  C   UNL     1      -8.985  12.672  66.635  1.00  0.00    -0.164 C  
HETATM    5  O   UNL     1      -8.781  11.279  66.336  1.00  0.00    -0.172 OA 
HETATM    6  C   UNL     1     -10.013  10.776  65.788  1.00  0.00    -0.251 C  
HETATM    7  H   UNL     1     -11.980  11.259  68.442  1.00  0.00     0.000 HD 
HETATM    8  O   UNL     1     -11.064  13.840  66.125  1.00  0.00    -0.294 OA 
HETATM    9  C   UNL     1     -11.091  11.486  66.650  1.00  0.00    -0.295 C  
HETATM   10  C   UNL     1     -10.472  12.848  66.965  1.00  0.00    -0.238 C  
HETATM   11  H   UNL     1     -11.985  13.948  66.329  1.00  0.00     0.000 HD 
HETATM   12  O   UNL     1     -11.320  10.825  67.914  1.00  0.00    -0.323 OA 
BRANCH   6  13
HETATM   13  O   UNL     1     -10.138   9.353  66.011  1.00  0.00    -0.300 OA 
BRANCH  13  14
HETATM   14  C   UNL     1      -8.972   8.719  66.554  1.00  0.00    -0.148 C  
HETATM   15  C   UNL     1     -10.257   7.416  68.079  1.00  0.00    -0.191 C  
HETATM   16  O   UNL     1      -9.168   8.342  67.918  1.00  0.00    -0.132 OA 
HETATM   17  H   UNL     1      -8.157   7.034  63.839  1.00  0.00     0.000 HD 
HETATM   18  C   UNL     1      -9.952   6.103  67.367  1.00  0.00    -0.141 C  
HETATM   19  O   UNL     1      -8.390   7.802  64.346  1.00  0.00    -0.089 OA 
HETATM   20  O   UNL     1     -11.029   5.165  67.473  1.00  0.00    -0.050 OA 
HETATM   21  C   UNL     1      -9.654   6.368  65.883  1.00  0.00     0.182 C  
HETATM   22  H   UNL     1     -10.839   4.346  67.029  1.00  0.00     0.000 HD 
HETATM   23  O   UNL     1      -9.217   5.140  65.280  1.00  0.00    -0.223 OA 
HETATM   24  C   UNL     1      -8.592   7.464  65.725  1.00  0.00    -0.136 C  
HETATM   25  H   UNL     1      -9.033   5.303  64.362  1.00  0.00     0.000 HD 
BRANCH  15  26
HETATM   26  C   UNL     1     -10.486   7.231  69.582  1.00  0.00    -0.231 C  
HETATM   27  O   UNL     1     -11.760   6.614  69.796  1.00  0.00    -0.603 OA 
HETATM   28  H   UNL     1     -11.902   6.500  70.728  1.00  0.00     0.000 HD 
ENDBRANCH  15  26
ENDBRANCH  13  14
ENDBRANCH   6  13
BRANCH   6  29
HETATM   29  C   UNL     1     -10.111  11.192  64.292  1.00  0.00    -0.326 C  
HETATM   30  H   UNL     1     -11.057  12.543  63.176  1.00  0.00     0.000 HD 
HETATM   31  O   UNL     1     -10.997  12.289  64.090  1.00  0.00    -0.308 OA 
ENDBRANCH   6  29
ENDBRANCH   2   4
TORSDOF 5
ENDMDL
MODEL      175
REMARK 921   NORMALIZED FREE ENERGY PREDICTED BY IDOCK:   -3.30 KCAL/MOL
REMARK 922        TOTAL FREE ENERGY PREDICTED BY IDOCK:   -5.27 KCAL/MOL
REMARK 923 INTER-LIGAND FREE ENERGY PREDICTED BY IDOCK:   -6.74 KCAL/MOL
REMARK 924 INTRA-LIGAND FREE ENERGY PREDICTED BY IDOCK:    1.47 KCAL/MOL
REMARK 927      BINDING AFFINITY PREDICTED BY RF-SCORE:    0.00 PKD
ROOT
HETATM    1  O   UNL     1     -10.305  10.685  62.492  1.00  0.00    -0.751 OA 
HETATM    2  C   UNL     1     -11.001  11.035  63.679  1.00  0.00     0.014 C  
HETATM    3  H   UNL     1     -10.889  10.680  61.744  1.00  0.00     0.000 HD 
ENDROOT
BRANCH   2   4
HETATM    4  C   UNL     1     -10.061  11.044  64.883  1.00  0.00    -0.300 C  
HETATM    5  O   UNL     1      -9.757  12.405  65.239  1.00  0.00    -0.203 OA 
HETATM    6  C   UNL     1      -9.414  12.413  66.637  1.00  0.00    -0.232 C  
HETATM    7  H   UNL     1     -12.332  11.370  67.879  1.00  0.00     0.000 HD 
HETATM    8  O   UNL     1      -9.860   9.193  66.457  1.00  0.00    -0.219 OA 
HETATM    9  C   UNL     1     -10.420  11.402  67.247  1.00  0.00    -0.206 C  
HETATM   10  C   UNL     1     -10.615  10.364  66.141  1.00  0.00    -0.090 C  
HETATM   11  H   UNL     1     -10.203   8.772  67.236  1.00  0.00     0.000 HD 
HETATM   12  O   UNL     1     -11.716  11.989  67.505  1.00  0.00    -0.443 OA 
BRANCH   6  13
HETATM   13  O   UNL     1      -9.676  13.706  67.229  1.00  0.00    -0.231 OA 
BRANCH  13  14
HETATM   14  C   UNL     1     -11.019  14.184  67.072  1.00  0.00    -0.300 C  
HETATM   15  C   UNL     1     -10.797  15.726  68.875  1.00  0.00    -0.260 C  
HETATM   16  O   UNL     1     -11.560  14.644  68.312  1.00  0.00    -0.296 OA 
HETATM   17  H   UNL     1     -10.572  15.614  64.134  1.00  0.00     0.000 HD 
HETATM   18  C   UNL     1     -10.853  16.948  67.965  1.00  0.00    -0.338 C  
HETATM   19  O   UNL     1     -10.538  14.911  64.771  1.00  0.00    -0.407 OA 
HETATM   20  O   UNL     1     -10.074  18.038  68.472  1.00  0.00    -0.357 OA 
HETATM   21  C   UNL     1     -10.353  16.579  66.559  1.00  0.00    -0.305 C  
HETATM   22  H   UNL     1     -10.109  18.800  67.905  1.00  0.00     0.000 HD 
HETATM   23  O   UNL     1     -10.568  17.703  65.690  1.00  0.00    -0.565 OA 
HETATM   24  C   UNL     1     -11.076  15.333  66.031  1.00  0.00    -0.278 C  
HETATM   25  H   UNL     1     -10.258  17.475  64.821  1.00  0.00     0.000 HD 
BRANCH  15  26
HETATM   26  C   UNL     1     -11.356  16.006  70.272  1.00  0.00    -0.382 C  
HETATM   27  O   UNL     1     -12.535  15.221  70.478  1.00  0.00    -0.354 OA 
HETATM   28  H   UNL     1     -12.882  15.394  71.345  1.00  0.00     0.000 HD 
ENDBRANCH  15  26
ENDBRANCH  13  14
ENDBRANCH   6  13
BRANCH   6  29
HETATM   29  C   UNL     1      -7.945  11.929  66.802  1.00  0.00    -0.087 C  
HETATM   30  H   UNL     1      -6.206  12.631  67.470  1.00  0.00     0.000 HD 
HETATM   31  O   UNL     1      -7.103  12.927  67.369  1.00  0.00    -0.153 OA 
ENDBRANCH   6  29
ENDBRANCH   2   4
TORSDOF 5
ENDMDL
MODEL      176
REMARK 921   NORMALIZED FREE ENERGY PREDICTED BY IDOCK:   -3.29 KCAL/MOL
REMARK 922        TOTAL FREE ENERGY PREDICTED BY IDOCK:   -5.26 KCAL/MOL
REMARK 923 INTER-LIGAND FREE ENERGY PREDICTED BY IDOCK:   -4.11 KCAL/MOL
REMARK 924 INTRA-LIGAND FREE ENERGY PREDICTED BY IDOCK:   -1.15 KCAL/MOL
REMARK 927      BINDING AFFINITY PREDICTED BY RF-SCORE:    0.00 PKD
ROOT
HETATM    1  O   UNL     1     -11.213   6.361  66.639  1.00  0.00    -0.707 OA 
HETATM    2  C   UNL     1      -9.897   5.825  66.622  1.00  0.00    -0.165 C  
HETATM    3  H   UNL     1     -11.672   6.158  65.834  1.00  0.00     0.000 HD 
ENDROOT
BRANCH   2   4
HETATM    4  C   UNL     1      -9.158   6.151  67.918  1.00  0.00    -0.117 C  
HETATM    5  O   UNL     1      -8.524   7.437  67.794  1.00  0.00    -0.118 OA 
HETATM    6  C   UNL     1      -8.376   7.969  69.124  1.00  0.00    -0.132 C  
HETATM    7  H   UNL     1     -11.605   8.188  69.942  1.00  0.00     0.000 HD 
HETATM    8  O   UNL     1      -9.701   5.150  70.074  1.00  0.00    -0.170 OA 
HETATM    9  C   UNL     1      -9.700   7.548  69.815  1.00  0.00    -0.171 C  
HETATM   10  C   UNL     1     -10.040   6.204  69.171  1.00  0.00    -0.170 C  
HETATM   11  H   UNL     1     -10.248   5.183  70.850  1.00  0.00     0.000 HD 
HETATM   12  O   UNL     1     -10.794   8.445  69.519  1.00  0.00    -0.210 OA 
BRANCH   6  13
HETATM   13  O   UNL     1      -8.329   9.414  69.104  1.00  0.00    -0.116 OA 
BRANCH  13  14
HETATM   14  C   UNL     1      -8.005   9.992  67.832  1.00  0.00    -0.105 C  
HETATM   15  C   UNL     1      -9.838  11.512  67.934  1.00  0.00    -0.185 C  
HETATM   16  O   UNL     1      -9.170  10.491  67.171  1.00  0.00    -0.143 OA 
HETATM   17  H   UNL     1      -5.165  11.387  68.762  1.00  0.00     0.000 HD 
HETATM   18  C   UNL     1      -8.942  12.735  68.088  1.00  0.00    -0.199 C  
HETATM   19  O   UNL     1      -5.794  10.682  68.661  1.00  0.00    -0.041 OA 
HETATM   20  O   UNL     1      -9.557  13.762  68.875  1.00  0.00    -0.398 OA 
HETATM   21  C   UNL     1      -7.609  12.330  68.737  1.00  0.00    -0.044 C  
HETATM   22  H   UNL     1      -8.999  14.525  68.971  1.00  0.00     0.000 HD 
HETATM   23  O   UNL     1      -6.732  13.468  68.722  1.00  0.00    -0.093 OA 
HETATM   24  C   UNL     1      -6.978  11.143  67.997  1.00  0.00    -0.068 C  
HETATM   25  H   UNL     1      -5.907  13.218  69.124  1.00  0.00     0.000 HD 
BRANCH  15  26
HETATM   26  C   UNL     1     -11.155  11.832  67.221  1.00  0.00    -0.287 C  
HETATM   27  O   UNL     1     -12.031  12.512  68.125  1.00  0.00    -0.333 OA 
HETATM   28  H   UNL     1     -12.847  12.711  67.682  1.00  0.00     0.000 HD 
ENDBRANCH  15  26
ENDBRANCH  13  14
ENDBRANCH   6  13
BRANCH   6  29
HETATM   29  C   UNL     1      -7.142   7.307  69.802  1.00  0.00    -0.072 C  
HETATM   30  H   UNL     1      -6.484   6.900  71.636  1.00  0.00     0.000 HD 
HETATM   31  O   UNL     1      -7.238   7.304  71.222  1.00  0.00    -0.070 OA 
ENDBRANCH   6  29
ENDBRANCH   2   4
TORSDOF 5
ENDMDL
MODEL      177
REMARK 921   NORMALIZED FREE ENERGY PREDICTED BY IDOCK:   -3.25 KCAL/MOL
REMARK 922        TOTAL FREE ENERGY PREDICTED BY IDOCK:   -5.20 KCAL/MOL
REMARK 923 INTER-LIGAND FREE ENERGY PREDICTED BY IDOCK:   -4.28 KCAL/MOL
REMARK 924 INTRA-LIGAND FREE ENERGY PREDICTED BY IDOCK:   -0.92 KCAL/MOL
REMARK 927      BINDING AFFINITY PREDICTED BY RF-SCORE:    0.00 PKD
ROOT
HETATM    1  O   UNL     1      -5.127   4.774  67.184  1.00  0.00    -0.007 OA 
HETATM    2  C   UNL     1      -6.132   5.157  68.111  1.00  0.00    -0.027 C  
HETATM    3  H   UNL     1      -4.262   4.861  67.565  1.00  0.00     0.000 HD 
ENDROOT
BRANCH   2   4
HETATM    4  C   UNL     1      -7.524   5.016  67.498  1.00  0.00    -0.083 C  
HETATM    5  O   UNL     1      -8.509   5.468  68.446  1.00  0.00    -0.101 OA 
HETATM    6  C   UNL     1      -9.661   5.891  67.693  1.00  0.00    -0.115 C  
HETATM    7  H   UNL     1      -8.258   8.394  65.985  1.00  0.00     0.000 HD 
HETATM    8  O   UNL     1      -7.943   4.932  65.098  1.00  0.00    -0.093 OA 
HETATM    9  C   UNL     1      -9.032   6.597  66.462  1.00  0.00    -0.145 C  
HETATM   10  C   UNL     1      -7.745   5.812  66.206  1.00  0.00    -0.099 C  
HETATM   11  H   UNL     1      -8.080   5.425  64.298  1.00  0.00     0.000 HD 
HETATM   12  O   UNL     1      -8.644   7.961  66.738  1.00  0.00    -0.124 OA 
BRANCH   6  13
HETATM   13  O   UNL     1     -10.426   6.878  68.423  1.00  0.00    -0.183 OA 
BRANCH  13  14
HETATM   14  C   UNL     1      -9.789   7.386  69.602  1.00  0.00    -0.175 C  
HETATM   15  C   UNL     1     -11.054   9.405  69.546  1.00  0.00    -0.112 C  
HETATM   16  O   UNL     1      -9.743   8.814  69.599  1.00  0.00    -0.168 OA 
HETATM   17  H   UNL     1     -11.050   5.173  71.698  1.00  0.00     0.000 HD 
HETATM   18  C   UNL     1     -11.846   9.059  70.802  1.00  0.00    -0.206 C  
HETATM   19  O   UNL     1     -10.598   5.470  70.917  1.00  0.00    -0.247 OA 
HETATM   20  O   UNL     1     -13.173   9.598  70.772  1.00  0.00    -0.574 OA 
HETATM   21  C   UNL     1     -11.923   7.533  70.970  1.00  0.00    -0.290 C  
HETATM   22  H   UNL     1     -13.667   9.383  71.555  1.00  0.00     0.000 HD 
HETATM   23  O   UNL     1     -12.534   7.245  72.238  1.00  0.00    -0.484 OA 
HETATM   24  C   UNL     1     -10.528   6.901  70.878  1.00  0.00    -0.211 C  
HETATM   25  H   UNL     1     -12.582   6.302  72.342  1.00  0.00     0.000 HD 
BRANCH  15  26
HETATM   26  C   UNL     1     -10.872  10.914  69.362  1.00  0.00    -0.240 C  
HETATM   27  O   UNL     1     -11.983  11.440  68.629  1.00  0.00    -0.452 OA 
HETATM   28  H   UNL     1     -11.871  12.376  68.515  1.00  0.00     0.000 HD 
ENDBRANCH  15  26
ENDBRANCH  13  14
ENDBRANCH   6  13
BRANCH   6  29
HETATM   29  C   UNL     1     -10.483   4.638  67.275  1.00  0.00     0.125 C  
HETATM   30  H   UNL     1     -11.358   3.900  65.645  1.00  0.00     0.000 HD 
HETATM   31  O   UNL     1     -10.855   4.665  65.901  1.00  0.00    -0.274 OA 
ENDBRANCH   6  29
ENDBRANCH   2   4
TORSDOF 5
ENDMDL
MODEL      178
REMARK 921   NORMALIZED FREE ENERGY PREDICTED BY IDOCK:   -3.21 KCAL/MOL
REMARK 922        TOTAL FREE ENERGY PREDICTED BY IDOCK:   -5.15 KCAL/MOL
REMARK 923 INTER-LIGAND FREE ENERGY PREDICTED BY IDOCK:   -4.11 KCAL/MOL
REMARK 924 INTRA-LIGAND FREE ENERGY PREDICTED BY IDOCK:   -1.04 KCAL/MOL
REMARK 927      BINDING AFFINITY PREDICTED BY RF-SCORE:    0.00 PKD
ROOT
HETATM    1  O   UNL     1      -8.842   8.886  72.017  1.00  0.00    -0.367 OA 
HETATM    2  C   UNL     1      -9.016   8.161  70.808  1.00  0.00    -0.145 C  
HETATM    3  H   UNL     1      -8.724   8.297  72.752  1.00  0.00     0.000 HD 
ENDROOT
BRANCH   2   4
HETATM    4  C   UNL     1      -9.206   9.108  69.625  1.00  0.00    -0.168 C  
HETATM    5  O   UNL     1      -8.460   8.616  68.496  1.00  0.00    -0.128 OA 
HETATM    6  C   UNL     1      -9.098   9.123  67.310  1.00  0.00    -0.126 C  
HETATM    7  H   UNL     1     -12.065   7.630  67.654  1.00  0.00     0.000 HD 
HETATM    8  O   UNL     1     -11.106  10.619  69.392  1.00  0.00    -0.223 OA 
HETATM    9  C   UNL     1     -10.607   9.020  67.657  1.00  0.00    -0.231 C  
HETATM   10  C   UNL     1     -10.658   9.282  69.162  1.00  0.00    -0.212 C  
HETATM   11  H   UNL     1     -12.005  10.726  69.106  1.00  0.00     0.000 HD 
HETATM   12  O   UNL     1     -11.140   7.694  67.442  1.00  0.00    -0.124 OA 
BRANCH   6  13
HETATM   13  O   UNL     1      -8.847   8.262  66.176  1.00  0.00    -0.149 OA 
BRANCH  13  14
HETATM   14  C   UNL     1      -7.917   7.198  66.418  1.00  0.00    -0.112 C  
HETATM   15  C   UNL     1      -9.282   5.603  65.288  1.00  0.00     0.108 C  
HETATM   16  O   UNL     1      -8.578   5.933  66.499  1.00  0.00    -0.118 OA 
HETATM   17  H   UNL     1      -5.500   8.363  64.501  1.00  0.00     0.000 HD 
HETATM   18  C   UNL     1      -8.304   5.441  64.130  1.00  0.00    -0.118 C  
HETATM   19  O   UNL     1      -6.158   8.396  65.185  1.00  0.00    -0.048 OA 
HETATM   20  O   UNL     1      -8.969   5.149  62.895  1.00  0.00    -0.292 OA 
HETATM   21  C   UNL     1      -7.469   6.722  63.965  1.00  0.00    -0.098 C  
HETATM   22  H   UNL     1      -8.360   5.048  62.173  1.00  0.00     0.000 HD 
HETATM   23  O   UNL     1      -6.456   6.480  62.976  1.00  0.00    -0.036 OA 
HETATM   24  C   UNL     1      -6.842   7.143  65.300  1.00  0.00    -0.051 C  
HETATM   25  H   UNL     1      -5.940   7.271  62.873  1.00  0.00     0.000 HD 
BRANCH  15  26
HETATM   26  C   UNL     1     -10.091   4.332  65.558  1.00  0.00    -0.223 C  
HETATM   27  O   UNL     1     -11.488   4.638  65.501  1.00  0.00    -0.924 OA 
HETATM   28  H   UNL     1     -11.990   3.850  65.668  1.00  0.00     0.000 HD 
ENDBRANCH  15  26
ENDBRANCH  13  14
ENDBRANCH   6  13
BRANCH   6  29
HETATM   29  C   UNL     1      -8.662  10.601  67.090  1.00  0.00    -0.130 C  
HETATM   30  H   UNL     1      -9.490  12.350  66.624  1.00  0.00     0.000 HD 
HETATM   31  O   UNL     1      -9.757  11.448  66.758  1.00  0.00    -0.193 OA 
ENDBRANCH   6  29
ENDBRANCH   2   4
TORSDOF 5
ENDMDL
MODEL      179
REMARK 921   NORMALIZED FREE ENERGY PREDICTED BY IDOCK:   -3.20 KCAL/MOL
REMARK 922        TOTAL FREE ENERGY PREDICTED BY IDOCK:   -5.14 KCAL/MOL
REMARK 923 INTER-LIGAND FREE ENERGY PREDICTED BY IDOCK:   -4.16 KCAL/MOL
REMARK 924 INTRA-LIGAND FREE ENERGY PREDICTED BY IDOCK:   -0.99 KCAL/MOL
REMARK 927      BINDING AFFINITY PREDICTED BY RF-SCORE:    0.00 PKD
ROOT
HETATM    1  O   UNL     1     -12.338   6.835  70.030  1.00  0.00    -0.605 OA 
HETATM    2  C   UNL     1     -11.441   5.979  70.722  1.00  0.00    -0.157 C  
HETATM    3  H   UNL     1     -13.240   6.608  70.220  1.00  0.00     0.000 HD 
ENDROOT
BRANCH   2   4
HETATM    4  C   UNL     1      -9.991   6.345  70.417  1.00  0.00    -0.183 C  
HETATM    5  O   UNL     1      -9.962   7.431  69.472  1.00  0.00    -0.173 OA 
HETATM    6  C   UNL     1      -8.715   8.125  69.660  1.00  0.00    -0.142 C  
HETATM    7  H   UNL     1      -9.178   9.152  72.804  1.00  0.00     0.000 HD 
HETATM    8  O   UNL     1      -8.126   5.841  71.905  1.00  0.00    -0.110 OA 
HETATM    9  C   UNL     1      -8.539   8.111  71.202  1.00  0.00    -0.133 C  
HETATM   10  C   UNL     1      -9.164   6.784  71.632  1.00  0.00    -0.144 C  
HETATM   11  H   UNL     1      -7.615   6.114  72.658  1.00  0.00     0.000 HD 
HETATM   12  O   UNL     1      -9.286   9.160  71.860  1.00  0.00    -0.354 OA 
BRANCH   6  13
HETATM   13  O   UNL     1      -8.821   9.506  69.242  1.00  0.00    -0.136 OA 
BRANCH  13  14
HETATM   14  C   UNL     1      -7.794   9.947  68.344  1.00  0.00    -0.085 C  
HETATM   15  C   UNL     1      -9.350  11.109  66.963  1.00  0.00    -0.170 C  
HETATM   16  O   UNL     1      -8.299  10.128  67.019  1.00  0.00    -0.124 OA 
HETATM   17  H   UNL     1      -6.263  11.949  70.471  1.00  0.00     0.000 HD 
HETATM   18  C   UNL     1      -8.819  12.484  67.353  1.00  0.00    -0.187 C  
HETATM   19  O   UNL     1      -6.649  11.136  70.168  1.00  0.00    -0.149 OA 
HETATM   20  O   UNL     1      -9.845  13.484  67.346  1.00  0.00    -0.221 OA 
HETATM   21  C   UNL     1      -8.181  12.423  68.750  1.00  0.00     0.099 C  
HETATM   22  H   UNL     1      -9.514  14.341  67.589  1.00  0.00     0.000 HD 
HETATM   23  O   UNL     1      -7.553  13.686  69.019  1.00  0.00    -0.272 OA 
HETATM   24  C   UNL     1      -7.165  11.276  68.838  1.00  0.00    -0.112 C  
HETATM   25  H   UNL     1      -7.159  13.649  69.882  1.00  0.00     0.000 HD 
BRANCH  15  26
HETATM   26  C   UNL     1      -9.930  11.082  65.546  1.00  0.00    -0.256 C  
HETATM   27  O   UNL     1      -9.943   9.735  65.064  1.00  0.00    -0.403 OA 
HETATM   28  H   UNL     1     -10.303   9.718  64.186  1.00  0.00     0.000 HD 
ENDBRANCH  15  26
ENDBRANCH  13  14
ENDBRANCH   6  13
BRANCH   6  29
HETATM   29  C   UNL     1      -7.580   7.335  68.948  1.00  0.00    -0.103 C  
HETATM   30  H   UNL     1      -5.753   6.655  69.351  1.00  0.00     0.000 HD 
HETATM   31  O   UNL     1      -6.446   7.137  69.786  1.00  0.00    -0.037 OA 
ENDBRANCH   6  29
ENDBRANCH   2   4
TORSDOF 5
ENDMDL
MODEL      180
REMARK 921   NORMALIZED FREE ENERGY PREDICTED BY IDOCK:   -3.19 KCAL/MOL
REMARK 922        TOTAL FREE ENERGY PREDICTED BY IDOCK:   -5.13 KCAL/MOL
REMARK 923 INTER-LIGAND FREE ENERGY PREDICTED BY IDOCK:   -4.73 KCAL/MOL
REMARK 924 INTRA-LIGAND FREE ENERGY PREDICTED BY IDOCK:   -0.40 KCAL/MOL
REMARK 927      BINDING AFFINITY PREDICTED BY RF-SCORE:    0.00 PKD
ROOT
HETATM    1  O   UNL     1     -13.326  15.479  70.245  1.00  0.00    -0.740 OA 
HETATM    2  C   UNL     1     -12.692  14.208  70.252  1.00  0.00    -0.229 C  
HETATM    3  H   UNL     1     -14.034  15.509  70.878  1.00  0.00     0.000 HD 
ENDROOT
BRANCH   2   4
HETATM    4  C   UNL     1     -11.554  14.160  69.235  1.00  0.00    -0.304 C  
HETATM    5  O   UNL     1     -10.697  13.042  69.532  1.00  0.00     0.078 OA 
HETATM    6  C   UNL     1     -10.050  12.663  68.303  1.00  0.00    -0.233 C  
HETATM    7  H   UNL     1     -12.757  11.794  66.552  1.00  0.00     0.000 HD 
HETATM    8  O   UNL     1     -11.671  15.181  67.023  1.00  0.00    -0.261 OA 
HETATM    9  C   UNL     1     -11.178  12.831  67.250  1.00  0.00    -0.295 C  
HETATM   10  C   UNL     1     -11.997  14.010  67.774  1.00  0.00    -0.357 C  
HETATM   11  H   UNL     1     -11.946  15.088  66.119  1.00  0.00     0.000 HD 
HETATM   12  O   UNL     1     -12.066  11.692  67.197  1.00  0.00    -0.575 OA 
BRANCH   6  13
HETATM   13  O   UNL     1      -9.670  11.268  68.324  1.00  0.00    -0.183 OA 
BRANCH  13  14
HETATM   14  C   UNL     1      -8.306  11.006  67.971  1.00  0.00    -0.125 C  
HETATM   15  C   UNL     1      -8.111   9.259  69.580  1.00  0.00    -0.116 C  
HETATM   16  O   UNL     1      -7.566  10.494  69.081  1.00  0.00    -0.100 OA 
HETATM   17  H   UNL     1      -8.912   9.858  64.939  1.00  0.00     0.000 HD 
HETATM   18  C   UNL     1      -8.007   8.165  68.524  1.00  0.00    -0.126 C  
HETATM   19  O   UNL     1      -8.960  10.475  65.659  1.00  0.00    -0.166 OA 
HETATM   20  O   UNL     1      -8.574   6.926  68.969  1.00  0.00    -0.127 OA 
HETATM   21  C   UNL     1      -8.714   8.611  67.234  1.00  0.00    -0.129 C  
HETATM   22  H   UNL     1      -8.509   6.244  68.311  1.00  0.00     0.000 HD 
HETATM   23  O   UNL     1      -8.462   7.631  66.215  1.00  0.00    -0.124 OA 
HETATM   24  C   UNL     1      -8.226   9.998  66.794  1.00  0.00    -0.121 C  
HETATM   25  H   UNL     1      -8.900   7.907  65.418  1.00  0.00     0.000 HD 
BRANCH  15  26
HETATM   26  C   UNL     1      -7.358   8.910  70.867  1.00  0.00    -0.097 C  
HETATM   27  O   UNL     1      -6.356   7.929  70.579  1.00  0.00    -0.036 OA 
HETATM   28  H   UNL     1      -5.889   7.713  71.376  1.00  0.00     0.000 HD 
ENDBRANCH  15  26
ENDBRANCH  13  14
ENDBRANCH   6  13
BRANCH   6  29
HETATM   29  C   UNL     1      -8.866  13.636  68.032  1.00  0.00    -0.187 C  
HETATM   30  H   UNL     1      -8.250  15.439  68.610  1.00  0.00     0.000 HD 
HETATM   31  O   UNL     1      -8.973  14.845  68.776  1.00  0.00    -0.178 OA 
ENDBRANCH   6  29
ENDBRANCH   2   4
TORSDOF 5
ENDMDL
MODEL      181
REMARK 921   NORMALIZED FREE ENERGY PREDICTED BY IDOCK:   -3.19 KCAL/MOL
REMARK 922        TOTAL FREE ENERGY PREDICTED BY IDOCK:   -5.12 KCAL/MOL
REMARK 923 INTER-LIGAND FREE ENERGY PREDICTED BY IDOCK:   -4.21 KCAL/MOL
REMARK 924 INTRA-LIGAND FREE ENERGY PREDICTED BY IDOCK:   -0.91 KCAL/MOL
REMARK 927      BINDING AFFINITY PREDICTED BY RF-SCORE:    0.00 PKD
ROOT
HETATM    1  O   UNL     1     -10.533  12.522  66.961  1.00  0.00    -0.229 OA 
HETATM    2  C   UNL     1      -9.540  13.279  67.639  1.00  0.00    -0.213 C  
HETATM    3  H   UNL     1     -11.216  13.087  66.621  1.00  0.00     0.000 HD 
ENDROOT
BRANCH   2   4
HETATM    4  C   UNL     1      -8.440  12.372  68.186  1.00  0.00    -0.180 C  
HETATM    5  O   UNL     1      -9.035  11.316  68.963  1.00  0.00    -0.096 OA 
HETATM    6  C   UNL     1      -8.119  10.206  68.945  1.00  0.00    -0.117 C  
HETATM    7  H   UNL     1      -8.152   9.577  65.666  1.00  0.00     0.000 HD 
HETATM    8  O   UNL     1      -6.221  12.187  67.193  1.00  0.00    -0.145 OA 
HETATM    9  C   UNL     1      -7.585  10.220  67.488  1.00  0.00    -0.094 C  
HETATM   10  C   UNL     1      -7.563  11.704  67.120  1.00  0.00    -0.152 C  
HETATM   11  H   UNL     1      -5.678  11.774  66.532  1.00  0.00     0.000 HD 
HETATM   12  O   UNL     1      -8.479   9.569  66.558  1.00  0.00    -0.124 OA 
BRANCH   6  13
HETATM   13  O   UNL     1      -8.816   8.954  69.146  1.00  0.00    -0.133 OA 
BRANCH  13  14
HETATM   14  C   UNL     1     -10.246   9.051  69.152  1.00  0.00    -0.205 C  
HETATM   15  C   UNL     1     -10.503   6.921  68.115  1.00  0.00    -0.204 C  
HETATM   16  O   UNL     1     -10.825   8.323  68.067  1.00  0.00    -0.096 OA 
HETATM   17  H   UNL     1     -10.623   8.908  72.425  1.00  0.00     0.000 HD 
HETATM   18  C   UNL     1     -11.102   6.278  69.361  1.00  0.00    -0.410 C  
HETATM   19  O   UNL     1     -10.267   9.230  71.605  1.00  0.00    -0.332 OA 
HETATM   20  O   UNL     1     -10.773   4.888  69.465  1.00  0.00     0.014 OA 
HETATM   21  C   UNL     1     -10.609   7.011  70.618  1.00  0.00    -0.225 C  
HETATM   22  H   UNL     1     -11.146   4.487  70.242  1.00  0.00     0.000 HD 
HETATM   23  O   UNL     1     -11.312   6.486  71.756  1.00  0.00    -0.254 OA 
HETATM   24  C   UNL     1     -10.827   8.525  70.491  1.00  0.00    -0.228 C  
HETATM   25  H   UNL     1     -11.007   6.939  72.534  1.00  0.00     0.000 HD 
BRANCH  15  26
HETATM   26  C   UNL     1     -11.017   6.286  66.820  1.00  0.00    -0.255 C  
HETATM   27  O   UNL     1      -9.904   5.887  66.013  1.00  0.00    -0.348 OA 
HETATM   28  H   UNL     1     -10.222   5.493  65.210  1.00  0.00     0.000 HD 
ENDBRANCH  15  26
ENDBRANCH  13  14
ENDBRANCH   6  13
BRANCH   6  29
HETATM   29  C   UNL     1      -6.982  10.468  69.974  1.00  0.00    -0.146 C  
HETATM   30  H   UNL     1      -5.000  10.311  70.083  1.00  0.00     0.000 HD 
HETATM   31  O   UNL     1      -5.695  10.152  69.455  1.00  0.00    -0.038 OA 
ENDBRANCH   6  29
ENDBRANCH   2   4
TORSDOF 5
ENDMDL
MODEL      182
REMARK 921   NORMALIZED FREE ENERGY PREDICTED BY IDOCK:   -3.18 KCAL/MOL
REMARK 922        TOTAL FREE ENERGY PREDICTED BY IDOCK:   -5.11 KCAL/MOL
REMARK 923 INTER-LIGAND FREE ENERGY PREDICTED BY IDOCK:   -6.14 KCAL/MOL
REMARK 924 INTRA-LIGAND FREE ENERGY PREDICTED BY IDOCK:    1.02 KCAL/MOL
REMARK 927      BINDING AFFINITY PREDICTED BY RF-SCORE:    0.00 PKD
ROOT
HETATM    1  O   UNL     1      -7.249  14.470  69.993  1.00  0.00    -0.384 OA 
HETATM    2  C   UNL     1      -6.749  15.799  70.011  1.00  0.00     0.008 C  
HETATM    3  H   UNL     1      -6.992  14.000  70.776  1.00  0.00     0.000 HD 
ENDROOT
BRANCH   2   4
HETATM    4  C   UNL     1      -7.163  16.556  68.751  1.00  0.00    -0.197 C  
HETATM    5  O   UNL     1      -7.381  15.618  67.681  1.00  0.00    -0.136 OA 
HETATM    6  C   UNL     1      -8.303  16.228  66.760  1.00  0.00    -0.253 C  
HETATM    7  H   UNL     1     -10.936  16.510  68.794  1.00  0.00     0.000 HD 
HETATM    8  O   UNL     1      -8.159  18.782  68.776  1.00  0.00    -0.332 OA 
HETATM    9  C   UNL     1      -9.304  16.952  67.700  1.00  0.00    -0.233 C  
HETATM   10  C   UNL     1      -8.445  17.387  68.887  1.00  0.00    -0.156 C  
HETATM   11  H   UNL     1      -8.953  19.296  68.861  1.00  0.00     0.000 HD 
HETATM   12  O   UNL     1     -10.323  16.068  68.219  1.00  0.00    -0.247 OA 
BRANCH   6  13
HETATM   13  O   UNL     1      -9.039  15.227  66.020  1.00  0.00    -0.310 OA 
BRANCH  13  14
HETATM   14  C   UNL     1      -9.956  14.449  66.801  1.00  0.00    -0.263 C  
HETATM   15  C   UNL     1     -11.225  13.820  64.885  1.00  0.00    -0.349 C  
HETATM   16  O   UNL     1     -11.251  14.405  66.199  1.00  0.00    -0.324 OA 
HETATM   17  H   UNL     1      -7.804  12.118  67.703  1.00  0.00     0.000 HD 
HETATM   18  C   UNL     1     -10.796  12.359  64.959  1.00  0.00    -0.295 C  
HETATM   19  O   UNL     1      -8.127  13.004  67.589  1.00  0.00    -0.146 OA 
HETATM   20  O   UNL     1     -10.720  11.749  63.665  1.00  0.00    -0.360 OA 
HETATM   21  C   UNL     1      -9.428  12.248  65.652  1.00  0.00    -0.068 C  
HETATM   22  H   UNL     1     -10.453  10.838  63.711  1.00  0.00     0.000 HD 
HETATM   23  O   UNL     1      -9.129  10.857  65.848  1.00  0.00    -0.180 OA 
HETATM   24  C   UNL     1      -9.429  13.002  66.989  1.00  0.00    -0.237 C  
HETATM   25  H   UNL     1      -8.284  10.789  66.276  1.00  0.00     0.000 HD 
BRANCH  15  26
HETATM   26  C   UNL     1     -12.618  13.995  64.274  1.00  0.00    -0.126 C  
HETATM   27  O   UNL     1     -12.528  13.895  62.850  1.00  0.00    -1.034 OA 
HETATM   28  H   UNL     1     -13.392  14.002  62.471  1.00  0.00     0.000 HD 
ENDBRANCH  15  26
ENDBRANCH  13  14
ENDBRANCH   6  13
BRANCH   6  29
HETATM   29  C   UNL     1      -7.532  17.237  65.861  1.00  0.00    -0.034 C  
HETATM   30  H   UNL     1      -7.707  19.119  65.236  1.00  0.00     0.000 HD 
HETATM   31  O   UNL     1      -8.178  18.503  65.785  1.00  0.00    -0.481 OA 
ENDBRANCH   6  29
ENDBRANCH   2   4
TORSDOF 5
ENDMDL
MODEL      183
REMARK 921   NORMALIZED FREE ENERGY PREDICTED BY IDOCK:   -3.18 KCAL/MOL
REMARK 922        TOTAL FREE ENERGY PREDICTED BY IDOCK:   -5.11 KCAL/MOL
REMARK 923 INTER-LIGAND FREE ENERGY PREDICTED BY IDOCK:   -5.26 KCAL/MOL
REMARK 924 INTRA-LIGAND FREE ENERGY PREDICTED BY IDOCK:    0.15 KCAL/MOL
REMARK 927      BINDING AFFINITY PREDICTED BY RF-SCORE:    0.00 PKD
ROOT
HETATM    1  O   UNL     1     -12.558  15.350  69.566  1.00  0.00    -0.606 OA 
HETATM    2  C   UNL     1     -11.633  16.304  69.065  1.00  0.00    -0.231 C  
HETATM    3  H   UNL     1     -13.199  15.763  70.132  1.00  0.00     0.000 HD 
ENDROOT
BRANCH   2   4
HETATM    4  C   UNL     1     -10.602  15.641  68.155  1.00  0.00    -0.274 C  
HETATM    5  O   UNL     1     -10.129  14.430  68.774  1.00  0.00    -0.236 OA 
HETATM    6  C   UNL     1      -9.673  13.562  67.720  1.00  0.00    -0.226 C  
HETATM    7  H   UNL     1     -12.573  13.151  66.116  1.00  0.00     0.000 HD 
HETATM    8  O   UNL     1     -10.467  16.032  65.752  1.00  0.00    -0.339 OA 
HETATM    9  C   UNL     1     -10.726  13.791  66.603  1.00  0.00    -0.277 C  
HETATM   10  C   UNL     1     -11.118  15.260  66.762  1.00  0.00    -0.278 C  
HETATM   11  H   UNL     1     -10.787  15.797  64.889  1.00  0.00     0.000 HD 
HETATM   12  O   UNL     1     -11.928  13.011  66.800  1.00  0.00    -0.391 OA 
BRANCH   6  13
HETATM   13  O   UNL     1      -9.749  12.175  68.120  1.00  0.00    -0.197 OA 
BRANCH  13  14
HETATM   14  C   UNL     1      -9.993  11.249  67.052  1.00  0.00    -0.198 C  
HETATM   15  C   UNL     1      -7.982  10.047  67.488  1.00  0.00    -0.106 C  
HETATM   16  O   UNL     1      -8.773  10.743  66.508  1.00  0.00    -0.142 OA 
HETATM   17  H   UNL     1     -12.636   9.806  68.399  1.00  0.00     0.000 HD 
HETATM   18  C   UNL     1      -8.716   8.806  67.982  1.00  0.00    -0.141 C  
HETATM   19  O   UNL     1     -12.101  10.532  68.099  1.00  0.00    -0.279 OA 
HETATM   20  O   UNL     1      -7.977   8.104  68.989  1.00  0.00    -0.109 OA 
HETATM   21  C   UNL     1     -10.092   9.198  68.544  1.00  0.00    -0.191 C  
HETATM   22  H   UNL     1      -8.434   7.329  69.297  1.00  0.00     0.000 HD 
HETATM   23  O   UNL     1     -10.817   7.997  68.852  1.00  0.00    -0.405 OA 
HETATM   24  C   UNL     1     -10.866  10.064  67.542  1.00  0.00    -0.265 C  
HETATM   25  H   UNL     1     -11.667   8.239  69.199  1.00  0.00     0.000 HD 
BRANCH  15  26
HETATM   26  C   UNL     1      -6.634   9.717  66.843  1.00  0.00    -0.067 C  
HETATM   27  O   UNL     1      -5.742   9.211  67.840  1.00  0.00    -0.038 OA 
HETATM   28  H   UNL     1      -4.905   9.006  67.440  1.00  0.00     0.000 HD 
ENDBRANCH  15  26
ENDBRANCH  13  14
ENDBRANCH   6  13
BRANCH   6  29
HETATM   29  C   UNL     1      -8.254  14.013  67.268  1.00  0.00    -0.171 C  
HETATM   30  H   UNL     1      -6.359  13.762  67.824  1.00  0.00     0.000 HD 
HETATM   31  O   UNL     1      -7.226  13.486  68.100  1.00  0.00    -0.090 OA 
ENDBRANCH   6  29
ENDBRANCH   2   4
TORSDOF 5
ENDMDL
MODEL      184
REMARK 921   NORMALIZED FREE ENERGY PREDICTED BY IDOCK:   -3.14 KCAL/MOL
REMARK 922        TOTAL FREE ENERGY PREDICTED BY IDOCK:   -5.06 KCAL/MOL
REMARK 923 INTER-LIGAND FREE ENERGY PREDICTED BY IDOCK:   -5.48 KCAL/MOL
REMARK 924 INTRA-LIGAND FREE ENERGY PREDICTED BY IDOCK:    0.41 KCAL/MOL
REMARK 927      BINDING AFFINITY PREDICTED BY RF-SCORE:    0.00 PKD
ROOT
HETATM    1  O   UNL     1      -7.446   3.965  70.134  1.00  0.00    -0.044 OA 
HETATM    2  C   UNL     1      -7.354   3.947  71.551  1.00  0.00    -0.047 C  
HETATM    3  H   UNL     1      -6.771   3.424  69.742  1.00  0.00     0.000 HD 
ENDROOT
BRANCH   2   4
HETATM    4  C   UNL     1      -8.439   4.817  72.181  1.00  0.00    -0.119 C  
HETATM    5  O   UNL     1      -8.287   6.173  71.723  1.00  0.00    -0.123 OA 
HETATM    6  C   UNL     1      -9.580   6.800  71.813  1.00  0.00    -0.157 C  
HETATM    7  H   UNL     1     -11.228   4.873  69.640  1.00  0.00     0.000 HD 
HETATM    8  O   UNL     1     -10.548   3.942  73.037  1.00  0.00    -0.167 OA 
HETATM    9  C   UNL     1     -10.545   5.673  71.357  1.00  0.00    -0.253 C  
HETATM   10  C   UNL     1      -9.877   4.392  71.859  1.00  0.00    -0.180 C  
HETATM   11  H   UNL     1     -11.438   3.679  72.837  1.00  0.00     0.000 HD 
HETATM   12  O   UNL     1     -10.637   5.564  69.919  1.00  0.00    -0.296 OA 
BRANCH   6  13
HETATM   13  O   UNL     1      -9.697   7.888  70.868  1.00  0.00    -0.164 OA 
BRANCH  13  14
HETATM   14  C   UNL     1     -10.865   7.846  70.037  1.00  0.00    -0.238 C  
HETATM   15  C   UNL     1     -11.843   9.725  71.130  1.00  0.00    -0.382 C  
HETATM   16  O   UNL     1     -12.012   8.356  70.720  1.00  0.00    -0.236 OA 
HETATM   17  H   UNL     1      -9.359   8.675  67.222  1.00  0.00     0.000 HD 
HETATM   18  C   UNL     1     -11.697  10.632  69.914  1.00  0.00    -0.317 C  
HETATM   19  O   UNL     1      -9.496   8.178  68.020  1.00  0.00    -0.142 OA 
HETATM   20  O   UNL     1     -11.488  12.001  70.280  1.00  0.00    -0.515 OA 
HETATM   21  C   UNL     1     -10.523  10.157  69.042  1.00  0.00    -0.219 C  
HETATM   22  H   UNL     1     -11.397  12.567  69.522  1.00  0.00     0.000 HD 
HETATM   23  O   UNL     1     -10.512  10.930  67.832  1.00  0.00    -0.177 OA 
HETATM   24  C   UNL     1     -10.642   8.658  68.734  1.00  0.00    -0.140 C  
HETATM   25  H   UNL     1      -9.787  10.636  67.293  1.00  0.00     0.000 HD 
BRANCH  15  26
HETATM   26  C   UNL     1     -13.046  10.097  72.001  1.00  0.00    -0.437 C  
HETATM   27  O   UNL     1     -13.274   9.062  72.962  1.00  0.00    -0.802 OA 
HETATM   28  H   UNL     1     -14.020   9.293  73.503  1.00  0.00     0.000 HD 
ENDBRANCH  15  26
ENDBRANCH  13  14
ENDBRANCH   6  13
BRANCH   6  29
HETATM   29  C   UNL     1      -9.843   7.215  73.289  1.00  0.00    -0.234 C  
HETATM   30  H   UNL     1     -11.386   7.437  74.528  1.00  0.00     0.000 HD 
HETATM   31  O   UNL     1     -11.225   7.183  73.626  1.00  0.00    -0.086 OA 
ENDBRANCH   6  29
ENDBRANCH   2   4
TORSDOF 5
ENDMDL
MODEL      185
REMARK 921   NORMALIZED FREE ENERGY PREDICTED BY IDOCK:   -3.12 KCAL/MOL
REMARK 922        TOTAL FREE ENERGY PREDICTED BY IDOCK:   -5.03 KCAL/MOL
REMARK 923 INTER-LIGAND FREE ENERGY PREDICTED BY IDOCK:   -4.66 KCAL/MOL
REMARK 924 INTRA-LIGAND FREE ENERGY PREDICTED BY IDOCK:   -0.37 KCAL/MOL
REMARK 927      BINDING AFFINITY PREDICTED BY RF-SCORE:    0.00 PKD
ROOT
HETATM    1  O   UNL     1      -8.856  11.618  62.628  1.00  0.00    -0.611 OA 
HETATM    2  C   UNL     1      -9.013  10.633  63.638  1.00  0.00    -0.202 C  
HETATM    3  H   UNL     1      -8.286  11.307  61.935  1.00  0.00     0.000 HD 
ENDROOT
BRANCH   2   4
HETATM    4  C   UNL     1      -9.930  11.133  64.752  1.00  0.00    -0.287 C  
HETATM    5  O   UNL     1      -9.668  10.387  65.955  1.00  0.00    -0.189 OA 
HETATM    6  C   UNL     1     -10.052  11.219  67.065  1.00  0.00    -0.206 C  
HETATM    7  H   UNL     1      -7.888  13.718  66.593  1.00  0.00     0.000 HD 
HETATM    8  O   UNL     1     -10.955  13.345  64.770  1.00  0.00    -0.323 OA 
HETATM    9  C   UNL     1      -9.583  12.630  66.619  1.00  0.00    -0.249 C  
HETATM   10  C   UNL     1      -9.772  12.618  65.102  1.00  0.00     0.001 C  
HETATM   11  H   UNL     1     -10.857  14.265  64.986  1.00  0.00     0.000 HD 
HETATM   12  O   UNL     1      -8.176  12.855  66.866  1.00  0.00    -0.124 OA 
BRANCH   6  13
HETATM   13  O   UNL     1      -9.315  10.867  68.258  1.00  0.00    -0.155 OA 
BRANCH  13  14
HETATM   14  C   UNL     1      -8.609   9.621  68.189  1.00  0.00    -0.119 C  
HETATM   15  C   UNL     1      -7.550   9.978  70.293  1.00  0.00    -0.106 C  
HETATM   16  O   UNL     1      -7.369   9.681  68.897  1.00  0.00    -0.071 OA 
HETATM   17  H   UNL     1     -11.257   7.670  68.431  1.00  0.00     0.000 HD 
HETATM   18  C   UNL     1      -8.322   8.859  70.982  1.00  0.00    -0.191 C  
HETATM   19  O   UNL     1     -10.729   8.376  68.079  1.00  0.00    -0.168 OA 
HETATM   20  O   UNL     1      -8.556   9.135  72.368  1.00  0.00    -0.249 OA 
HETATM   21  C   UNL     1      -9.669   8.638  70.276  1.00  0.00    -0.174 C  
HETATM   22  H   UNL     1      -9.037   8.437  72.798  1.00  0.00     0.000 HD 
HETATM   23  O   UNL     1     -10.297   7.479  70.846  1.00  0.00    -0.201 OA 
HETATM   24  C   UNL     1      -9.472   8.467  68.763  1.00  0.00    -0.147 C  
HETATM   25  H   UNL     1     -11.130   7.343  70.409  1.00  0.00     0.000 HD 
BRANCH  15  26
HETATM   26  C   UNL     1      -6.162  10.197  70.901  1.00  0.00    -0.027 C  
HETATM   27  O   UNL     1      -6.033  11.562  71.311  1.00  0.00    -0.399 OA 
HETATM   28  H   UNL     1      -5.172  11.698  71.689  1.00  0.00     0.000 HD 
ENDBRANCH  15  26
ENDBRANCH  13  14
ENDBRANCH   6  13
BRANCH   6  29
HETATM   29  C   UNL     1     -11.597  11.159  67.236  1.00  0.00    -0.011 C  
HETATM   30  H   UNL     1     -13.128  12.414  67.442  1.00  0.00     0.000 HD 
HETATM   31  O   UNL     1     -12.185  12.451  67.337  1.00  0.00    -0.459 OA 
ENDBRANCH   6  29
ENDBRANCH   2   4
TORSDOF 5
ENDMDL
MODEL      186
REMARK 921   NORMALIZED FREE ENERGY PREDICTED BY IDOCK:   -3.08 KCAL/MOL
REMARK 922        TOTAL FREE ENERGY PREDICTED BY IDOCK:   -4.99 KCAL/MOL
REMARK 923 INTER-LIGAND FREE ENERGY PREDICTED BY IDOCK:   -3.93 KCAL/MOL
REMARK 924 INTRA-LIGAND FREE ENERGY PREDICTED BY IDOCK:   -1.06 KCAL/MOL
REMARK 927      BINDING AFFINITY PREDICTED BY RF-SCORE:    0.00 PKD
ROOT
HETATM    1  O   UNL     1     -10.131   3.706  66.345  1.00  0.00    -0.401 OA 
HETATM    2  C   UNL     1      -9.503   4.086  65.129  1.00  0.00    -0.172 C  
HETATM    3  H   UNL     1     -10.554   2.861  66.259  1.00  0.00     0.000 HD 
ENDROOT
BRANCH   2   4
HETATM    4  C   UNL     1      -8.822   5.446  65.267  1.00  0.00    -0.130 C  
HETATM    5  O   UNL     1      -9.365   6.137  66.408  1.00  0.00    -0.153 OA 
HETATM    6  C   UNL     1      -8.361   7.063  66.863  1.00  0.00    -0.118 C  
HETATM    7  H   UNL     1      -5.985   4.865  67.686  1.00  0.00     0.000 HD 
HETATM    8  O   UNL     1      -6.631   5.963  64.332  1.00  0.00    -0.039 OA 
HETATM    9  C   UNL     1      -7.044   6.259  66.690  1.00  0.00    -0.069 C  
HETATM   10  C   UNL     1      -7.301   5.393  65.457  1.00  0.00    -0.073 C  
HETATM   11  H   UNL     1      -5.689   5.930  64.450  1.00  0.00     0.000 HD 
HETATM   12  O   UNL     1      -6.791   5.358  67.792  1.00  0.00    -0.057 OA 
BRANCH   6  13
HETATM   13  O   UNL     1      -8.519   7.351  68.271  1.00  0.00    -0.124 OA 
BRANCH  13  14
HETATM   14  C   UNL     1      -8.891   8.702  68.575  1.00  0.00    -0.142 C  
HETATM   15  C   UNL     1     -10.250   8.030  70.413  1.00  0.00    -0.201 C  
HETATM   16  O   UNL     1     -10.184   8.767  69.178  1.00  0.00    -0.197 OA 
HETATM   17  H   UNL     1      -5.899   9.712  69.529  1.00  0.00     0.000 HD 
HETATM   18  C   UNL     1      -9.320   8.645  71.452  1.00  0.00    -0.236 C  
HETATM   19  O   UNL     1      -6.536   9.311  68.950  1.00  0.00    -0.047 OA 
HETATM   20  O   UNL     1      -9.328   7.917  72.686  1.00  0.00    -0.170 OA 
HETATM   21  C   UNL     1      -7.884   8.699  70.905  1.00  0.00    -0.118 C  
HETATM   22  H   UNL     1      -8.748   8.301  73.334  1.00  0.00     0.000 HD 
HETATM   23  O   UNL     1      -7.069   9.424  71.839  1.00  0.00    -0.308 OA 
HETATM   24  C   UNL     1      -7.850   9.359  69.520  1.00  0.00    -0.091 C  
HETATM   25  H   UNL     1      -6.181   9.457  71.501  1.00  0.00     0.000 HD 
BRANCH  15  26
HETATM   26  C   UNL     1     -11.713   8.018  70.865  1.00  0.00    -0.251 C  
HETATM   27  O   UNL     1     -12.401   6.944  70.218  1.00  0.00    -0.625 OA 
HETATM   28  H   UNL     1     -13.308   6.936  70.498  1.00  0.00     0.000 HD 
ENDBRANCH  15  26
ENDBRANCH  13  14
ENDBRANCH   6  13
BRANCH   6  29
HETATM   29  C   UNL     1      -8.383   8.325  65.953  1.00  0.00    -0.129 C  
HETATM   30  H   UNL     1      -7.090   9.523  65.028  1.00  0.00     0.000 HD 
HETATM   31  O   UNL     1      -7.077   8.752  65.583  1.00  0.00    -0.081 OA 
ENDBRANCH   6  29
ENDBRANCH   2   4
TORSDOF 5
ENDMDL
MODEL      187
REMARK 921   NORMALIZED FREE ENERGY PREDICTED BY IDOCK:   -3.07 KCAL/MOL
REMARK 922        TOTAL FREE ENERGY PREDICTED BY IDOCK:   -4.97 KCAL/MOL
REMARK 923 INTER-LIGAND FREE ENERGY PREDICTED BY IDOCK:   -6.36 KCAL/MOL
REMARK 924 INTRA-LIGAND FREE ENERGY PREDICTED BY IDOCK:    1.39 KCAL/MOL
REMARK 927      BINDING AFFINITY PREDICTED BY RF-SCORE:    0.00 PKD
ROOT
HETATM    1  O   UNL     1     -12.566  14.953  69.584  1.00  0.00    -0.565 OA 
HETATM    2  C   UNL     1     -11.721  15.805  68.824  1.00  0.00    -0.378 C  
HETATM    3  H   UNL     1     -13.219  15.455  70.055  1.00  0.00     0.000 HD 
ENDROOT
BRANCH   2   4
HETATM    4  C   UNL     1     -10.669  14.998  68.066  1.00  0.00    -0.262 C  
HETATM    5  O   UNL     1     -10.240  13.891  68.880  1.00  0.00    -0.213 OA 
HETATM    6  C   UNL     1      -9.762  12.867  67.989  1.00  0.00    -0.224 C  
HETATM    7  H   UNL     1     -12.609  12.249  66.356  1.00  0.00     0.000 HD 
HETATM    8  O   UNL     1     -10.440  15.016  65.638  1.00  0.00    -0.302 OA 
HETATM    9  C   UNL     1     -10.770  12.934  66.810  1.00  0.00    -0.261 C  
HETATM   10  C   UNL     1     -11.141  14.414  66.728  1.00  0.00    -0.323 C  
HETATM   11  H   UNL     1     -10.733  14.655  64.810  1.00  0.00     0.000 HD 
HETATM   12  O   UNL     1     -11.991  12.208  67.078  1.00  0.00    -0.593 OA 
BRANCH   6  13
HETATM   13  O   UNL     1      -9.877  11.557  68.592  1.00  0.00    -0.199 OA 
BRANCH  13  14
HETATM   14  C   UNL     1     -11.176  10.959  68.498  1.00  0.00    -0.274 C  
HETATM   15  C   UNL     1     -10.294   8.753  68.691  1.00  0.00    -0.205 C  
HETATM   16  O   UNL     1     -11.111   9.653  67.921  1.00  0.00    -0.205 OA 
HETATM   17  H   UNL     1     -12.331  12.105  71.367  1.00  0.00     0.000 HD 
HETATM   18  C   UNL     1     -10.905   8.524  70.069  1.00  0.00    -0.223 C  
HETATM   19  O   UNL     1     -11.924  12.161  70.510  1.00  0.00    -0.337 OA 
HETATM   20  O   UNL     1     -10.101   7.662  70.882  1.00  0.00    -0.191 OA 
HETATM   21  C   UNL     1     -11.095   9.869  70.789  1.00  0.00    -0.347 C  
HETATM   22  H   UNL     1     -10.482   7.519  71.741  1.00  0.00     0.000 HD 
HETATM   23  O   UNL     1     -11.814   9.634  72.010  1.00  0.00    -0.308 OA 
HETATM   24  C   UNL     1     -11.843  10.868  69.896  1.00  0.00    -0.349 C  
HETATM   25  H   UNL     1     -11.931  10.465  72.455  1.00  0.00     0.000 HD 
BRANCH  15  26
HETATM   26  C   UNL     1     -10.152   7.458  67.888  1.00  0.00    -0.178 C  
HETATM   27  O   UNL     1      -9.123   6.650  68.469  1.00  0.00    -0.130 OA 
HETATM   28  H   UNL     1      -9.035   5.846  67.970  1.00  0.00     0.000 HD 
ENDBRANCH  15  26
ENDBRANCH  13  14
ENDBRANCH   6  13
BRANCH   6  29
HETATM   29  C   UNL     1      -8.320  13.226  67.528  1.00  0.00    -0.186 C  
HETATM   30  H   UNL     1      -6.459  13.122  68.228  1.00  0.00     0.000 HD 
HETATM   31  O   UNL     1      -7.340  12.902  68.509  1.00  0.00    -0.107 OA 
ENDBRANCH   6  29
ENDBRANCH   2   4
TORSDOF 5
ENDMDL
MODEL      188
REMARK 921   NORMALIZED FREE ENERGY PREDICTED BY IDOCK:   -3.02 KCAL/MOL
REMARK 922        TOTAL FREE ENERGY PREDICTED BY IDOCK:   -4.91 KCAL/MOL
REMARK 923 INTER-LIGAND FREE ENERGY PREDICTED BY IDOCK:   -3.89 KCAL/MOL
REMARK 924 INTRA-LIGAND FREE ENERGY PREDICTED BY IDOCK:   -1.02 KCAL/MOL
REMARK 927      BINDING AFFINITY PREDICTED BY RF-SCORE:    0.00 PKD
ROOT
HETATM    1  O   UNL     1     -12.819  10.455  69.629  1.00  0.00    -0.633 OA 
HETATM    2  C   UNL     1     -11.421  10.348  69.407  1.00  0.00    -0.227 C  
HETATM    3  H   UNL     1     -13.163  11.254  69.250  1.00  0.00     0.000 HD 
ENDROOT
BRANCH   2   4
HETATM    4  C   UNL     1     -10.867   9.063  70.017  1.00  0.00    -0.231 C  
HETATM    5  O   UNL     1     -10.630   8.103  68.971  1.00  0.00    -0.215 OA 
HETATM    6  C   UNL     1      -9.605   7.207  69.439  1.00  0.00    -0.153 C  
HETATM    7  H   UNL     1      -7.118   9.412  69.764  1.00  0.00     0.000 HD 
HETATM    8  O   UNL     1      -9.737   8.967  72.176  1.00  0.00    -0.306 OA 
HETATM    9  C   UNL     1      -8.633   8.155  70.191  1.00  0.00    -0.129 C  
HETATM   10  C   UNL     1      -9.548   9.226  70.784  1.00  0.00    -0.275 C  
HETATM   11  H   UNL     1      -8.921   9.068  72.650  1.00  0.00     0.000 HD 
HETATM   12  O   UNL     1      -7.713   8.831  69.304  1.00  0.00    -0.090 OA 
BRANCH   6  13
HETATM   13  O   UNL     1      -8.881   6.622  68.333  1.00  0.00    -0.122 OA 
BRANCH  13  14
HETATM   14  C   UNL     1      -9.461   6.849  67.041  1.00  0.00    -0.151 C  
HETATM   15  C   UNL     1      -7.384   7.554  66.111  1.00  0.00    -0.082 C  
HETATM   16  O   UNL     1      -8.769   7.876  66.329  1.00  0.00    -0.138 OA 
HETATM   17  H   UNL     1     -10.130   3.690  66.367  1.00  0.00     0.000 HD 
HETATM   18  C   UNL     1      -7.255   6.326  65.217  1.00  0.00    -0.070 C  
HETATM   19  O   UNL     1     -10.136   4.488  66.882  1.00  0.00    -0.212 OA 
HETATM   20  O   UNL     1      -5.889   5.950  65.006  1.00  0.00    -0.023 OA 
HETATM   21  C   UNL     1      -8.016   5.144  65.837  1.00  0.00    -0.108 C  
HETATM   22  H   UNL     1      -5.808   5.184  64.449  1.00  0.00     0.000 HD 
HETATM   23  O   UNL     1      -8.009   4.056  64.899  1.00  0.00    -0.091 OA 
HETATM   24  C   UNL     1      -9.452   5.546  66.199  1.00  0.00    -0.151 C  
HETATM   25  H   UNL     1      -8.479   3.325  65.282  1.00  0.00     0.000 HD 
BRANCH  15  26
HETATM   26  C   UNL     1      -6.712   8.793  65.511  1.00  0.00    -0.071 C  
HETATM   27  O   UNL     1      -6.480   8.577  64.116  1.00  0.00    -0.070 OA 
HETATM   28  H   UNL     1      -6.064   9.345  63.743  1.00  0.00     0.000 HD 
ENDBRANCH  15  26
ENDBRANCH  13  14
ENDBRANCH   6  13
BRANCH   6  29
HETATM   29  C   UNL     1     -10.242   6.162  70.400  1.00  0.00    -0.203 C  
HETATM   30  H   UNL     1      -9.907   4.299  71.017  1.00  0.00     0.000 HD 
HETATM   31  O   UNL     1      -9.517   4.938  70.430  1.00  0.00    -0.142 OA 
ENDBRANCH   6  29
ENDBRANCH   2   4
TORSDOF 5
ENDMDL
MODEL      189
REMARK 921   NORMALIZED FREE ENERGY PREDICTED BY IDOCK:   -3.02 KCAL/MOL
REMARK 922        TOTAL FREE ENERGY PREDICTED BY IDOCK:   -4.91 KCAL/MOL
REMARK 923 INTER-LIGAND FREE ENERGY PREDICTED BY IDOCK:   -4.28 KCAL/MOL
REMARK 924 INTRA-LIGAND FREE ENERGY PREDICTED BY IDOCK:   -0.62 KCAL/MOL
REMARK 927      BINDING AFFINITY PREDICTED BY RF-SCORE:    0.00 PKD
ROOT
HETATM    1  O   UNL     1     -10.253   4.007  66.765  1.00  0.00    -0.312 OA 
HETATM    2  C   UNL     1      -9.367   3.606  65.731  1.00  0.00    -0.164 C  
HETATM    3  H   UNL     1     -10.763   3.271  67.080  1.00  0.00     0.000 HD 
ENDROOT
BRANCH   2   4
HETATM    4  C   UNL     1      -8.546   4.790  65.224  1.00  0.00    -0.137 C  
HETATM    5  O   UNL     1      -9.309   6.001  65.383  1.00  0.00     0.079 OA 
HETATM    6  C   UNL     1      -8.368   7.086  65.485  1.00  0.00    -0.133 C  
HETATM    7  H   UNL     1      -6.821   6.151  68.292  1.00  0.00     0.000 HD 
HETATM    8  O   UNL     1      -6.114   4.776  65.055  1.00  0.00    -0.028 OA 
HETATM    9  C   UNL     1      -7.230   6.479  66.347  1.00  0.00    -0.073 C  
HETATM   10  C   UNL     1      -7.208   5.005  65.943  1.00  0.00    -0.076 C  
HETATM   11  H   UNL     1      -5.285   4.909  65.500  1.00  0.00     0.000 HD 
HETATM   12  O   UNL     1      -7.518   6.523  67.763  1.00  0.00    -0.093 OA 
BRANCH   6  13
HETATM   13  O   UNL     1      -8.933   8.196  66.219  1.00  0.00    -0.158 OA 
BRANCH  13  14
HETATM   14  C   UNL     1      -8.237   9.440  66.067  1.00  0.00    -0.111 C  
HETATM   15  C   UNL     1     -10.187  10.562  65.283  1.00  0.00    -0.282 C  
HETATM   16  O   UNL     1      -8.808  10.238  65.029  1.00  0.00    -0.166 OA 
HETATM   17  H   UNL     1      -7.693   9.964  69.278  1.00  0.00     0.000 HD 
HETATM   18  C   UNL     1     -10.311  11.427  66.531  1.00  0.00    -0.236 C  
HETATM   19  O   UNL     1      -7.685   9.473  68.465  1.00  0.00    -0.081 OA 
HETATM   20  O   UNL     1     -11.674  11.741  66.841  1.00  0.00    -0.557 OA 
HETATM   21  C   UNL     1      -9.671  10.711  67.732  1.00  0.00    -0.161 C  
HETATM   22  H   UNL     1     -11.752  12.281  67.619  1.00  0.00     0.000 HD 
HETATM   23  O   UNL     1      -9.663  11.615  68.848  1.00  0.00    -0.370 OA 
HETATM   24  C   UNL     1      -8.249  10.242  67.395  1.00  0.00    -0.114 C  
HETATM   25  H   UNL     1      -9.268  11.172  69.591  1.00  0.00     0.000 HD 
BRANCH  15  26
HETATM   26  C   UNL     1     -10.736  11.252  64.031  1.00  0.00    -0.377 C  
HETATM   27  O   UNL     1      -9.829  12.278  63.619  1.00  0.00    -0.564 OA 
HETATM   28  H   UNL     1     -10.170  12.706  62.842  1.00  0.00     0.000 HD 
ENDBRANCH  15  26
ENDBRANCH  13  14
ENDBRANCH   6  13
BRANCH   6  29
HETATM   29  C   UNL     1      -7.868   7.461  64.060  1.00  0.00    -0.120 C  
HETATM   30  H   UNL     1      -6.150   7.868  63.138  1.00  0.00     0.000 HD 
HETATM   31  O   UNL     1      -6.456   7.639  64.008  1.00  0.00    -0.052 OA 
ENDBRANCH   6  29
ENDBRANCH   2   4
TORSDOF 5
ENDMDL
MODEL      190
REMARK 921   NORMALIZED FREE ENERGY PREDICTED BY IDOCK:   -3.02 KCAL/MOL
REMARK 922        TOTAL FREE ENERGY PREDICTED BY IDOCK:   -4.91 KCAL/MOL
REMARK 923 INTER-LIGAND FREE ENERGY PREDICTED BY IDOCK:   -5.30 KCAL/MOL
REMARK 924 INTRA-LIGAND FREE ENERGY PREDICTED BY IDOCK:    0.39 KCAL/MOL
REMARK 927      BINDING AFFINITY PREDICTED BY RF-SCORE:    0.00 PKD
ROOT
HETATM    1  O   UNL     1      -8.968   4.079  70.327  1.00  0.00    -0.081 OA 
HETATM    2  C   UNL     1      -8.407   5.154  71.067  1.00  0.00    -0.119 C  
HETATM    3  H   UNL     1      -8.375   3.338  70.302  1.00  0.00     0.000 HD 
ENDROOT
BRANCH   2   4
HETATM    4  C   UNL     1      -9.360   6.346  71.108  1.00  0.00    -0.160 C  
HETATM    5  O   UNL     1      -8.742   7.471  70.455  1.00  0.00    -0.143 OA 
HETATM    6  C   UNL     1      -9.802   8.322  69.981  1.00  0.00    -0.182 C  
HETATM    7  H   UNL     1     -11.229   6.201  67.833  1.00  0.00     0.000 HD 
HETATM    8  O   UNL     1     -11.774   6.140  71.378  1.00  0.00    -0.284 OA 
HETATM    9  C   UNL     1     -10.862   7.307  69.475  1.00  0.00    -0.209 C  
HETATM   10  C   UNL     1     -10.713   6.117  70.423  1.00  0.00    -0.284 C  
HETATM   11  H   UNL     1     -12.612   5.998  70.954  1.00  0.00     0.000 HD 
HETATM   12  O   UNL     1     -10.580   6.822  68.143  1.00  0.00    -0.194 OA 
BRANCH   6  13
HETATM   13  O   UNL     1      -9.369   9.108  68.847  1.00  0.00    -0.145 OA 
BRANCH  13  14
HETATM   14  C   UNL     1     -10.325   9.216  67.784  1.00  0.00    -0.245 C  
HETATM   15  C   UNL     1     -10.388  11.594  67.936  1.00  0.00    -0.188 C  
HETATM   16  O   UNL     1     -11.150  10.373  67.937  1.00  0.00    -0.284 OA 
HETATM   17  H   UNL     1      -8.334   8.165  65.374  1.00  0.00     0.000 HD 
HETATM   18  C   UNL     1      -9.706  11.796  66.588  1.00  0.00    -0.202 C  
HETATM   19  O   UNL     1      -8.771   8.130  66.216  1.00  0.00    -0.134 OA 
HETATM   20  O   UNL     1      -8.905  12.984  66.559  1.00  0.00    -0.406 OA 
HETATM   21  C   UNL     1      -8.822  10.581  66.260  1.00  0.00    -0.159 C  
HETATM   22  H   UNL     1      -8.479  13.110  65.718  1.00  0.00     0.000 HD 
HETATM   23  O   UNL     1      -8.322  10.731  64.922  1.00  0.00    -0.313 OA 
HETATM   24  C   UNL     1      -9.612   9.274  66.407  1.00  0.00    -0.238 C  
HETATM   25  H   UNL     1      -7.776   9.981  64.719  1.00  0.00     0.000 HD 
BRANCH  15  26
HETATM   26  C   UNL     1     -11.347  12.735  68.288  1.00  0.00    -0.296 C  
HETATM   27  O   UNL     1     -10.833  13.456  69.412  1.00  0.00    -0.435 OA 
HETATM   28  H   UNL     1     -11.427  14.164  69.630  1.00  0.00     0.000 HD 
ENDBRANCH  15  26
ENDBRANCH  13  14
ENDBRANCH   6  13
BRANCH   6  29
HETATM   29  C   UNL     1     -10.343   9.171  71.167  1.00  0.00    -0.317 C  
HETATM   30  H   UNL     1     -12.097   9.734  71.924  1.00  0.00     0.000 HD 
HETATM   31  O   UNL     1     -11.766   9.216  71.199  1.00  0.00    -0.279 OA 
ENDBRANCH   6  29
ENDBRANCH   2   4
TORSDOF 5
ENDMDL
MODEL      191
REMARK 921   NORMALIZED FREE ENERGY PREDICTED BY IDOCK:   -2.98 KCAL/MOL
REMARK 922        TOTAL FREE ENERGY PREDICTED BY IDOCK:   -4.86 KCAL/MOL
REMARK 923 INTER-LIGAND FREE ENERGY PREDICTED BY IDOCK:   -4.59 KCAL/MOL
REMARK 924 INTRA-LIGAND FREE ENERGY PREDICTED BY IDOCK:   -0.27 KCAL/MOL
REMARK 927      BINDING AFFINITY PREDICTED BY RF-SCORE:    0.00 PKD
ROOT
HETATM    1  O   UNL     1      -9.626   4.834  63.571  1.00  0.00    -0.355 OA 
HETATM    2  C   UNL     1      -8.367   4.479  64.123  1.00  0.00    -0.115 C  
HETATM    3  H   UNL     1      -9.597   4.821  62.622  1.00  0.00     0.000 HD 
ENDROOT
BRANCH   2   4
HETATM    4  C   UNL     1      -8.413   4.499  65.649  1.00  0.00    -0.116 C  
HETATM    5  O   UNL     1      -8.055   5.812  66.119  1.00  0.00    -0.104 OA 
HETATM    6  C   UNL     1      -8.664   5.983  67.412  1.00  0.00    -0.104 C  
HETATM    7  H   UNL     1     -11.867   5.762  66.494  1.00  0.00     0.000 HD 
HETATM    8  O   UNL     1      -9.718   2.931  66.984  1.00  0.00    -0.407 OA 
HETATM    9  C   UNL     1     -10.050   5.307  67.234  1.00  0.00    -0.195 C  
HETATM   10  C   UNL     1      -9.779   4.161  66.260  1.00  0.00    -0.206 C  
HETATM   11  H   UNL     1     -10.564   2.722  67.362  1.00  0.00     0.000 HD 
HETATM   12  O   UNL     1     -11.018   6.175  66.603  1.00  0.00    -0.301 OA 
BRANCH   6  13
HETATM   13  O   UNL     1      -8.890   7.381  67.700  1.00  0.00    -0.128 OA 
BRANCH  13  14
HETATM   14  C   UNL     1      -9.879   7.641  68.705  1.00  0.00    -0.171 C  
HETATM   15  C   UNL     1      -8.231   8.072  70.371  1.00  0.00    -0.118 C  
HETATM   16  O   UNL     1      -9.400   7.313  70.010  1.00  0.00    -0.155 OA 
HETATM   17  H   UNL     1     -11.063  10.413  67.364  1.00  0.00     0.000 HD 
HETATM   18  C   UNL     1      -8.564   9.557  70.456  1.00  0.00    -0.184 C  
HETATM   19  O   UNL     1     -10.798   9.501  67.381  1.00  0.00    -0.269 OA 
HETATM   20  O   UNL     1      -7.417  10.352  70.778  1.00  0.00    -0.362 OA 
HETATM   21  C   UNL     1      -9.158  10.039  69.123  1.00  0.00    -0.184 C  
HETATM   22  H   UNL     1      -7.625  11.278  70.831  1.00  0.00     0.000 HD 
HETATM   23  O   UNL     1      -9.606  11.394  69.288  1.00  0.00    -0.406 OA 
HETATM   24  C   UNL     1     -10.312   9.131  68.678  1.00  0.00    -0.209 C  
HETATM   25  H   UNL     1      -9.972  11.692  68.464  1.00  0.00     0.000 HD 
BRANCH  15  26
HETATM   26  C   UNL     1      -7.707   7.508  71.695  1.00  0.00    -0.085 C  
HETATM   27  O   UNL     1      -8.100   8.371  72.766  1.00  0.00    -0.249 OA 
HETATM   28  H   UNL     1      -7.775   8.022  73.588  1.00  0.00     0.000 HD 
ENDBRANCH  15  26
ENDBRANCH  13  14
ENDBRANCH   6  13
BRANCH   6  29
HETATM   29  C   UNL     1      -7.804   5.249  68.480  1.00  0.00    -0.083 C  
HETATM   30  H   UNL     1      -8.041   3.885  69.911  1.00  0.00     0.000 HD 
HETATM   31  O   UNL     1      -8.567   4.332  69.258  1.00  0.00    -0.079 OA 
ENDBRANCH   6  29
ENDBRANCH   2   4
TORSDOF 5
ENDMDL
MODEL      192
REMARK 921   NORMALIZED FREE ENERGY PREDICTED BY IDOCK:   -2.98 KCAL/MOL
REMARK 922        TOTAL FREE ENERGY PREDICTED BY IDOCK:   -4.86 KCAL/MOL
REMARK 923 INTER-LIGAND FREE ENERGY PREDICTED BY IDOCK:   -3.97 KCAL/MOL
REMARK 924 INTRA-LIGAND FREE ENERGY PREDICTED BY IDOCK:   -0.88 KCAL/MOL
REMARK 927      BINDING AFFINITY PREDICTED BY RF-SCORE:    0.00 PKD
ROOT
HETATM    1  O   UNL     1      -6.644  10.238  67.861  1.00  0.00    -0.061 OA 
HETATM    2  C   UNL     1      -7.853   9.807  68.470  1.00  0.00    -0.081 C  
HETATM    3  H   UNL     1      -6.333  11.043  68.256  1.00  0.00     0.000 HD 
ENDROOT
BRANCH   2   4
HETATM    4  C   UNL     1      -8.353   8.511  67.836  1.00  0.00    -0.126 C  
HETATM    5  O   UNL     1      -8.277   7.447  68.802  1.00  0.00    -0.126 OA 
HETATM    6  C   UNL     1      -9.257   6.461  68.428  1.00  0.00    -0.120 C  
HETATM    7  H   UNL     1     -12.005   8.328  68.767  1.00  0.00     0.000 HD 
HETATM    8  O   UNL     1      -9.842   8.437  65.906  1.00  0.00    -0.471 OA 
HETATM    9  C   UNL     1     -10.457   7.326  67.957  1.00  0.00    -0.197 C  
HETATM   10  C   UNL     1      -9.800   8.555  67.329  1.00  0.00    -0.199 C  
HETATM   11  H   UNL     1     -10.738   8.465  65.593  1.00  0.00     0.000 HD 
HETATM   12  O   UNL     1     -11.271   7.798  69.055  1.00  0.00     0.116 OA 
BRANCH   6  13
HETATM   13  O   UNL     1      -9.690   5.696  69.576  1.00  0.00    -0.139 OA 
BRANCH  13  14
HETATM   14  C   UNL     1      -8.872   5.842  70.744  1.00  0.00    -0.137 C  
HETATM   15  C   UNL     1     -10.710   6.567  72.076  1.00  0.00    -0.223 C  
HETATM   16  O   UNL     1      -9.377   6.855  71.616  1.00  0.00    -0.154 OA 
HETATM   17  H   UNL     1      -8.217   2.635  71.150  1.00  0.00     0.000 HD 
HETATM   18  C   UNL     1     -10.720   5.302  72.926  1.00  0.00    -0.253 C  
HETATM   19  O   UNL     1      -8.275   3.456  70.676  1.00  0.00    -0.055 OA 
HETATM   20  O   UNL     1     -12.037   4.960  73.373  1.00  0.00    -0.373 OA 
HETATM   21  C   UNL     1     -10.135   4.127  72.126  1.00  0.00    -0.178 C  
HETATM   22  H   UNL     1     -12.044   4.171  73.904  1.00  0.00     0.000 HD 
HETATM   23  O   UNL     1     -10.012   2.996  73.002  1.00  0.00    -0.112 OA 
HETATM   24  C   UNL     1      -8.776   4.501  71.519  1.00  0.00    -0.118 C  
HETATM   25  H   UNL     1      -9.651   2.270  72.508  1.00  0.00     0.000 HD 
BRANCH  15  26
HETATM   26  C   UNL     1     -11.208   7.796  72.842  1.00  0.00    -0.376 C  
HETATM   27  O   UNL     1     -11.488   8.851  71.916  1.00  0.00    -0.333 OA 
HETATM   28  H   UNL     1     -11.797   9.613  72.391  1.00  0.00     0.000 HD 
ENDBRANCH  15  26
ENDBRANCH  13  14
ENDBRANCH   6  13
BRANCH   6  29
HETATM   29  C   UNL     1      -8.689   5.593  67.269  1.00  0.00    -0.107 C  
HETATM   30  H   UNL     1      -9.103   3.880  66.343  1.00  0.00     0.000 HD 
HETATM   31  O   UNL     1      -9.450   4.410  67.051  1.00  0.00    -0.149 OA 
ENDBRANCH   6  29
ENDBRANCH   2   4
TORSDOF 5
ENDMDL
MODEL      193
REMARK 921   NORMALIZED FREE ENERGY PREDICTED BY IDOCK:   -2.96 KCAL/MOL
REMARK 922        TOTAL FREE ENERGY PREDICTED BY IDOCK:   -4.83 KCAL/MOL
REMARK 923 INTER-LIGAND FREE ENERGY PREDICTED BY IDOCK:   -3.80 KCAL/MOL
REMARK 924 INTRA-LIGAND FREE ENERGY PREDICTED BY IDOCK:   -1.02 KCAL/MOL
REMARK 927      BINDING AFFINITY PREDICTED BY RF-SCORE:    0.00 PKD
ROOT
HETATM    1  O   UNL     1      -5.458   4.825  70.525  1.00  0.00    -0.007 OA 
HETATM    2  C   UNL     1      -5.203   5.186  71.875  1.00  0.00    -0.005 C  
HETATM    3  H   UNL     1      -4.704   4.394  70.141  1.00  0.00     0.000 HD 
ENDROOT
BRANCH   2   4
HETATM    4  C   UNL     1      -6.415   5.878  72.494  1.00  0.00    -0.066 C  
HETATM    5  O   UNL     1      -7.031   6.730  71.511  1.00  0.00    -0.065 OA 
HETATM    6  C   UNL     1      -8.415   6.874  71.879  1.00  0.00    -0.114 C  
HETATM    7  H   UNL     1      -9.347   3.680  71.593  1.00  0.00     0.000 HD 
HETATM    8  O   UNL     1      -7.617   5.022  74.435  1.00  0.00    -0.088 OA 
HETATM    9  C   UNL     1      -8.792   5.452  72.373  1.00  0.00    -0.131 C  
HETATM   10  C   UNL     1      -7.505   4.932  73.014  1.00  0.00    -0.091 C  
HETATM   11  H   UNL     1      -8.292   4.436  74.757  1.00  0.00     0.000 HD 
HETATM   12  O   UNL     1      -9.116   4.551  71.291  1.00  0.00    -0.122 OA 
BRANCH   6  13
HETATM   13  O   UNL     1      -9.232   7.168  70.722  1.00  0.00    -0.156 OA 
BRANCH  13  14
HETATM   14  C   UNL     1      -8.524   7.721  69.605  1.00  0.00    -0.133 C  
HETATM   15  C   UNL     1      -9.495   6.166  68.082  1.00  0.00    -0.113 C  
HETATM   16  O   UNL     1      -8.279   6.735  68.600  1.00  0.00    -0.118 OA 
HETATM   17  H   UNL     1     -10.069  10.635  69.580  1.00  0.00     0.000 HD 
HETATM   18  C   UNL     1     -10.320   7.231  67.368  1.00  0.00    -0.260 C  
HETATM   19  O   UNL     1      -9.584   9.912  69.961  1.00  0.00    -0.234 OA 
HETATM   20  O   UNL     1     -11.559   6.713  66.869  1.00  0.00    -0.726 OA 
HETATM   21  C   UNL     1     -10.609   8.400  68.325  1.00  0.00    -0.109 C  
HETATM   22  H   UNL     1     -12.074   7.377  66.424  1.00  0.00     0.000 HD 
HETATM   23  O   UNL     1     -11.246   9.450  67.580  1.00  0.00    -0.464 OA 
HETATM   24  C   UNL     1      -9.316   8.901  68.982  1.00  0.00    -0.144 C  
HETATM   25  H   UNL     1     -11.424  10.172  68.171  1.00  0.00     0.000 HD 
BRANCH  15  26
HETATM   26  C   UNL     1      -9.106   5.008  67.160  1.00  0.00    -0.114 C  
HETATM   27  O   UNL     1      -7.682   4.872  67.143  1.00  0.00    -0.090 OA 
HETATM   28  H   UNL     1      -7.440   4.153  66.572  1.00  0.00     0.000 HD 
ENDBRANCH  15  26
ENDBRANCH  13  14
ENDBRANCH   6  13
BRANCH   6  29
HETATM   29  C   UNL     1      -8.532   7.925  73.019  1.00  0.00    -0.178 C  
HETATM   30  H   UNL     1      -9.645   8.259  74.636  1.00  0.00     0.000 HD 
HETATM   31  O   UNL     1      -9.574   7.617  73.939  1.00  0.00    -0.274 OA 
ENDBRANCH   6  29
ENDBRANCH   2   4
TORSDOF 5
ENDMDL
MODEL      194
REMARK 921   NORMALIZED FREE ENERGY PREDICTED BY IDOCK:   -2.94 KCAL/MOL
REMARK 922        TOTAL FREE ENERGY PREDICTED BY IDOCK:   -4.80 KCAL/MOL
REMARK 923 INTER-LIGAND FREE ENERGY PREDICTED BY IDOCK:   -3.83 KCAL/MOL
REMARK 924 INTRA-LIGAND FREE ENERGY PREDICTED BY IDOCK:   -0.97 KCAL/MOL
REMARK 927      BINDING AFFINITY PREDICTED BY RF-SCORE:    0.00 PKD
ROOT
HETATM    1  O   UNL     1     -10.412   3.580  72.206  1.00  0.00    -0.108 OA 
HETATM    2  C   UNL     1      -9.582   2.528  71.736  1.00  0.00    -0.143 C  
HETATM    3  H   UNL     1     -10.850   3.333  73.011  1.00  0.00     0.000 HD 
ENDROOT
BRANCH   2   4
HETATM    4  C   UNL     1      -8.876   2.924  70.441  1.00  0.00    -0.083 C  
HETATM    5  O   UNL     1      -9.540   4.066  69.868  1.00  0.00    -0.187 OA 
HETATM    6  C   UNL     1      -8.572   4.759  69.059  1.00  0.00    -0.080 C  
HETATM    7  H   UNL     1      -6.408   5.589  71.462  1.00  0.00     0.000 HD 
HETATM    8  O   UNL     1      -6.563   2.349  69.930  1.00  0.00    -0.032 OA 
HETATM    9  C   UNL     1      -7.274   4.653  69.904  1.00  0.00    -0.054 C  
HETATM   10  C   UNL     1      -7.397   3.297  70.598  1.00  0.00    -0.037 C  
HETATM   11  H   UNL     1      -5.647   2.579  70.027  1.00  0.00     0.000 HD 
HETATM   12  O   UNL     1      -7.202   5.653  70.945  1.00  0.00    -0.073 OA 
BRANCH   6  13
HETATM   13  O   UNL     1      -8.904   6.161  68.937  1.00  0.00    -0.122 OA 
BRANCH  13  14
HETATM   14  C   UNL     1     -10.245   6.500  69.315  1.00  0.00    -0.187 C  
HETATM   15  C   UNL     1      -9.511   8.220  70.792  1.00  0.00    -0.161 C  
HETATM   16  O   UNL     1     -10.299   7.025  70.642  1.00  0.00    -0.205 OA 
HETATM   17  H   UNL     1     -11.178   7.681  66.379  1.00  0.00     0.000 HD 
HETATM   18  C   UNL     1     -10.069   9.340  69.923  1.00  0.00    -0.209 C  
HETATM   19  O   UNL     1     -10.809   7.047  66.983  1.00  0.00    -0.348 OA 
HETATM   20  O   UNL     1      -9.289  10.538  70.014  1.00  0.00    -0.360 OA 
HETATM   21  C   UNL     1     -10.130   8.886  68.455  1.00  0.00    -0.188 C  
HETATM   22  H   UNL     1      -9.637  11.237  69.472  1.00  0.00     0.000 HD 
HETATM   23  O   UNL     1     -10.804   9.899  67.693  1.00  0.00    -0.274 OA 
HETATM   24  C   UNL     1     -10.848   7.536  68.329  1.00  0.00     0.008 C  
HETATM   25  H   UNL     1     -10.841   9.619  66.786  1.00  0.00     0.000 HD 
BRANCH  15  26
HETATM   26  C   UNL     1      -9.497   8.580  72.280  1.00  0.00    -0.295 C  
HETATM   27  O   UNL     1      -8.144   8.741  72.717  1.00  0.00    -0.398 OA 
HETATM   28  H   UNL     1      -8.136   8.964  73.640  1.00  0.00     0.000 HD 
ENDBRANCH  15  26
ENDBRANCH  13  14
ENDBRANCH   6  13
BRANCH   6  29
HETATM   29  C   UNL     1      -8.427   4.024  67.695  1.00  0.00    -0.098 C  
HETATM   30  H   UNL     1      -9.599   3.260  66.278  1.00  0.00     0.000 HD 
HETATM   31  O   UNL     1      -9.687   3.710  67.111  1.00  0.00    -0.199 OA 
ENDBRANCH   6  29
ENDBRANCH   2   4
TORSDOF 5
ENDMDL
MODEL      195
REMARK 921   NORMALIZED FREE ENERGY PREDICTED BY IDOCK:   -2.90 KCAL/MOL
REMARK 922        TOTAL FREE ENERGY PREDICTED BY IDOCK:   -4.75 KCAL/MOL
REMARK 923 INTER-LIGAND FREE ENERGY PREDICTED BY IDOCK:   -3.53 KCAL/MOL
REMARK 924 INTRA-LIGAND FREE ENERGY PREDICTED BY IDOCK:   -1.23 KCAL/MOL
REMARK 927      BINDING AFFINITY PREDICTED BY RF-SCORE:    0.00 PKD
ROOT
HETATM    1  O   UNL     1      -9.762  10.825  69.459  1.00  0.00    -0.414 OA 
HETATM    2  C   UNL     1      -8.540  10.103  69.482  1.00  0.00    -0.164 C  
HETATM    3  H   UNL     1     -10.129  10.900  70.331  1.00  0.00     0.000 HD 
ENDROOT
BRANCH   2   4
HETATM    4  C   UNL     1      -7.949   9.983  68.079  1.00  0.00    -0.101 C  
HETATM    5  O   UNL     1      -7.891   8.595  67.703  1.00  0.00    -0.101 OA 
HETATM    6  C   UNL     1      -7.923   8.541  66.265  1.00  0.00    -0.102 C  
HETATM    7  H   UNL     1     -10.937   9.893  65.777  1.00  0.00     0.000 HD 
HETATM    8  O   UNL     1      -7.967  11.792  66.444  1.00  0.00    -0.358 OA 
HETATM    9  C   UNL     1      -8.941   9.654  65.899  1.00  0.00    -0.167 C  
HETATM   10  C   UNL     1      -8.733  10.713  66.982  1.00  0.00    -0.128 C  
HETATM   11  H   UNL     1      -8.453  12.244  65.765  1.00  0.00     0.000 HD 
HETATM   12  O   UNL     1     -10.313   9.212  66.001  1.00  0.00    -0.179 OA 
BRANCH   6  13
HETATM   13  O   UNL     1      -8.463   7.282  65.804  1.00  0.00    -0.137 OA 
BRANCH  13  14
HETATM   14  C   UNL     1      -7.499   6.372  65.258  1.00  0.00    -0.081 C  
HETATM   15  C   UNL     1      -8.630   4.470  66.141  1.00  0.00    -0.113 C  
HETATM   16  O   UNL     1      -7.387   5.189  66.050  1.00  0.00    -0.078 OA 
HETATM   17  H   UNL     1      -8.228   6.906  62.086  1.00  0.00     0.000 HD 
HETATM   18  C   UNL     1      -9.055   3.963  64.768  1.00  0.00    -0.141 C  
HETATM   19  O   UNL     1      -7.999   7.145  62.976  1.00  0.00    -0.126 OA 
HETATM   20  O   UNL     1     -10.310   3.273  64.809  1.00  0.00    -0.394 OA 
HETATM   21  C   UNL     1      -9.155   5.138  63.782  1.00  0.00     0.191 C  
HETATM   22  H   UNL     1     -10.575   2.957  63.952  1.00  0.00     0.000 HD 
HETATM   23  O   UNL     1      -9.400   4.611  62.469  1.00  0.00    -0.180 OA 
HETATM   24  C   UNL     1      -7.874   5.982  63.803  1.00  0.00    -0.112 C  
HETATM   25  H   UNL     1      -9.463   5.338  61.859  1.00  0.00     0.000 HD 
BRANCH  15  26
HETATM   26  C   UNL     1      -8.435   3.338  67.152  1.00  0.00    -0.100 C  
HETATM   27  O   UNL     1      -9.702   2.742  67.448  1.00  0.00    -0.383 OA 
HETATM   28  H   UNL     1      -9.581   2.039  68.075  1.00  0.00     0.000 HD 
ENDBRANCH  15  26
ENDBRANCH  13  14
ENDBRANCH   6  13
BRANCH   6  29
HETATM   29  C   UNL     1      -6.504   8.860  65.713  1.00  0.00    -0.060 C  
HETATM   30  H   UNL     1      -5.672   9.960  64.277  1.00  0.00     0.000 HD 
HETATM   31  O   UNL     1      -6.539   9.766  64.615  1.00  0.00    -0.099 OA 
ENDBRANCH   6  29
ENDBRANCH   2   4
TORSDOF 5
ENDMDL
MODEL      196
REMARK 921   NORMALIZED FREE ENERGY PREDICTED BY IDOCK:   -2.90 KCAL/MOL
REMARK 922        TOTAL FREE ENERGY PREDICTED BY IDOCK:   -4.75 KCAL/MOL
REMARK 923 INTER-LIGAND FREE ENERGY PREDICTED BY IDOCK:   -4.47 KCAL/MOL
REMARK 924 INTRA-LIGAND FREE ENERGY PREDICTED BY IDOCK:   -0.28 KCAL/MOL
REMARK 927      BINDING AFFINITY PREDICTED BY RF-SCORE:    0.00 PKD
ROOT
HETATM    1  O   UNL     1     -13.389  10.012  70.400  1.00  0.00    -0.595 OA 
HETATM    2  C   UNL     1     -12.031  10.181  70.781  1.00  0.00    -0.348 C  
HETATM    3  H   UNL     1     -13.843  10.845  70.383  1.00  0.00     0.000 HD 
ENDROOT
BRANCH   2   4
HETATM    4  C   UNL     1     -11.300   8.841  70.809  1.00  0.00    -0.272 C  
HETATM    5  O   UNL     1     -10.561   8.676  69.585  1.00  0.00    -0.220 OA 
HETATM    6  C   UNL     1      -9.468   7.783  69.864  1.00  0.00    -0.160 C  
HETATM    7  H   UNL     1      -7.852   9.651  72.111  1.00  0.00     0.000 HD 
HETATM    8  O   UNL     1     -10.734   7.651  72.861  1.00  0.00    -0.305 OA 
HETATM    9  C   UNL     1      -9.008   8.228  71.278  1.00  0.00    -0.160 C  
HETATM   10  C   UNL     1     -10.301   8.673  71.962  1.00  0.00    -0.346 C  
HETATM   11  H   UNL     1     -10.116   7.547  73.574  1.00  0.00     0.000 HD 
HETATM   12  O   UNL     1      -8.133   9.378  71.245  1.00  0.00    -0.319 OA 
BRANCH   6  13
HETATM   13  O   UNL     1      -8.367   8.008  68.953  1.00  0.00    -0.124 OA 
BRANCH  13  14
HETATM   14  C   UNL     1      -8.734   8.095  67.570  1.00  0.00    -0.129 C  
HETATM   15  C   UNL     1      -7.610  10.178  67.291  1.00  0.00    -0.095 C  
HETATM   16  O   UNL     1      -8.845   9.454  67.142  1.00  0.00    -0.127 OA 
HETATM   17  H   UNL     1      -6.922   5.542  66.534  1.00  0.00     0.000 HD 
HETATM   18  C   UNL     1      -6.533   9.587  66.388  1.00  0.00    -0.070 C  
HETATM   19  O   UNL     1      -7.556   5.992  67.079  1.00  0.00    -0.093 OA 
HETATM   20  O   UNL     1      -5.275  10.257  66.535  1.00  0.00    -0.039 OA 
HETATM   21  C   UNL     1      -6.350   8.093  66.698  1.00  0.00    -0.055 C  
HETATM   22  H   UNL     1      -4.603   9.889  65.972  1.00  0.00     0.000 HD 
HETATM   23  O   UNL     1      -5.449   7.534  65.729  1.00  0.00    -0.028 OA 
HETATM   24  C   UNL     1      -7.698   7.360  66.679  1.00  0.00    -0.101 C  
HETATM   25  H   UNL     1      -5.335   6.610  65.921  1.00  0.00     0.000 HD 
BRANCH  15  26
HETATM   26  C   UNL     1      -7.898  11.649  66.979  1.00  0.00    -0.164 C  
HETATM   27  O   UNL     1      -6.793  12.450  67.410  1.00  0.00    -0.129 OA 
HETATM   28  H   UNL     1      -6.972  13.363  67.216  1.00  0.00     0.000 HD 
ENDBRANCH  15  26
ENDBRANCH  13  14
ENDBRANCH   6  13
BRANCH   6  29
HETATM   29  C   UNL     1      -9.995   6.319  69.869  1.00  0.00    -0.169 C  
HETATM   30  H   UNL     1     -11.738   5.359  69.922  1.00  0.00     0.000 HD 
HETATM   31  O   UNL     1     -11.416   6.253  69.919  1.00  0.00    -0.422 OA 
ENDBRANCH   6  29
ENDBRANCH   2   4
TORSDOF 5
ENDMDL
MODEL      197
REMARK 921   NORMALIZED FREE ENERGY PREDICTED BY IDOCK:   -2.86 KCAL/MOL
REMARK 922        TOTAL FREE ENERGY PREDICTED BY IDOCK:   -4.70 KCAL/MOL
REMARK 923 INTER-LIGAND FREE ENERGY PREDICTED BY IDOCK:   -3.54 KCAL/MOL
REMARK 924 INTRA-LIGAND FREE ENERGY PREDICTED BY IDOCK:   -1.16 KCAL/MOL
REMARK 927      BINDING AFFINITY PREDICTED BY RF-SCORE:    0.00 PKD
ROOT
HETATM    1  O   UNL     1     -10.107  10.771  69.692  1.00  0.00    -0.417 OA 
HETATM    2  C   UNL     1      -8.951   9.954  69.818  1.00  0.00    -0.221 C  
HETATM    3  H   UNL     1     -10.429  11.037  70.545  1.00  0.00     0.000 HD 
ENDROOT
BRANCH   2   4
HETATM    4  C   UNL     1      -8.432   9.526  68.448  1.00  0.00    -0.119 C  
HETATM    5  O   UNL     1      -8.249   8.098  68.433  1.00  0.00    -0.126 OA 
HETATM    6  C   UNL     1      -8.357   7.669  67.063  1.00  0.00    -0.124 C  
HETATM    7  H   UNL     1     -11.521   8.577  66.499  1.00  0.00     0.000 HD 
HETATM    8  O   UNL     1      -8.736  10.838  66.415  1.00  0.00    -0.148 OA 
HETATM    9  C   UNL     1      -9.507   8.555  66.512  1.00  0.00    -0.218 C  
HETATM   10  C   UNL     1      -9.351   9.873  67.270  1.00  0.00    -0.145 C  
HETATM   11  H   UNL     1      -9.306  11.053  65.686  1.00  0.00     0.000 HD 
HETATM   12  O   UNL     1     -10.817   8.035  66.836  1.00  0.00    -0.267 OA 
BRANCH   6  13
HETATM   13  O   UNL     1      -8.786   6.291  66.982  1.00  0.00    -0.107 OA 
BRANCH  13  14
HETATM   14  C   UNL     1      -7.798   5.377  66.488  1.00  0.00    -0.100 C  
HETATM   15  C   UNL     1      -8.191   3.827  68.255  1.00  0.00    -0.082 C  
HETATM   16  O   UNL     1      -7.216   4.612  67.546  1.00  0.00    -0.067 OA 
HETATM   17  H   UNL     1      -9.392   4.554  63.720  1.00  0.00     0.000 HD 
HETATM   18  C   UNL     1      -8.808   2.782  67.333  1.00  0.00    -0.142 C  
HETATM   19  O   UNL     1      -9.014   5.144  64.362  1.00  0.00    -0.103 OA 
HETATM   20  O   UNL     1      -9.812   2.002  67.993  1.00  0.00    -0.330 OA 
HETATM   21  C   UNL     1      -9.424   3.466  66.103  1.00  0.00    -0.112 C  
HETATM   22  H   UNL     1     -10.197   1.350  67.418  1.00  0.00     0.000 HD 
HETATM   23  O   UNL     1      -9.853   2.449  65.183  1.00  0.00    -0.354 OA 
HETATM   24  C   UNL     1      -8.416   4.414  65.440  1.00  0.00    -0.120 C  
HETATM   25  H   UNL     1     -10.234   2.871  64.423  1.00  0.00     0.000 HD 
BRANCH  15  26
HETATM   26  C   UNL     1      -7.488   3.204  69.465  1.00  0.00    -0.044 C  
HETATM   27  O   UNL     1      -8.450   2.513  70.268  1.00  0.00    -0.044 OA 
HETATM   28  H   UNL     1      -8.015   2.126  71.018  1.00  0.00     0.000 HD 
ENDBRANCH  15  26
ENDBRANCH  13  14
ENDBRANCH   6  13
BRANCH   6  29
HETATM   29  C   UNL     1      -7.014   7.957  66.332  1.00  0.00    -0.067 C  
HETATM   30  H   UNL     1      -6.388   8.690  64.590  1.00  0.00     0.000 HD 
HETATM   31  O   UNL     1      -7.208   8.515  65.037  1.00  0.00    -0.081 OA 
ENDBRANCH   6  29
ENDBRANCH   2   4
TORSDOF 5
ENDMDL
MODEL      198
REMARK 921   NORMALIZED FREE ENERGY PREDICTED BY IDOCK:   -2.83 KCAL/MOL
REMARK 922        TOTAL FREE ENERGY PREDICTED BY IDOCK:   -4.66 KCAL/MOL
REMARK 923 INTER-LIGAND FREE ENERGY PREDICTED BY IDOCK:   -4.93 KCAL/MOL
REMARK 924 INTRA-LIGAND FREE ENERGY PREDICTED BY IDOCK:    0.27 KCAL/MOL
REMARK 927      BINDING AFFINITY PREDICTED BY RF-SCORE:    0.00 PKD
ROOT
HETATM    1  O   UNL     1     -10.637  14.662  70.751  1.00  0.00    -0.370 OA 
HETATM    2  C   UNL     1     -11.027  14.725  69.387  1.00  0.00    -0.265 C  
HETATM    3  H   UNL     1     -10.798  15.489  71.189  1.00  0.00     0.000 HD 
ENDROOT
BRANCH   2   4
HETATM    4  C   UNL     1     -10.769  13.395  68.682  1.00  0.00    -0.255 C  
HETATM    5  O   UNL     1     -10.067  12.511  69.576  1.00  0.00     0.536 OA 
HETATM    6  C   UNL     1     -10.364  11.164  69.163  1.00  0.00    -0.161 C  
HETATM    7  H   UNL     1     -13.661  11.191  69.690  1.00  0.00     0.000 HD 
HETATM    8  O   UNL     1     -12.079  12.590  66.790  1.00  0.00    -0.546 OA 
HETATM    9  C   UNL     1     -11.866  11.243  68.779  1.00  0.00    -0.329 C  
HETATM   10  C   UNL     1     -12.029  12.655  68.216  1.00  0.00    -0.222 C  
HETATM   11  H   UNL     1     -12.859  12.132  66.501  1.00  0.00     0.000 HD 
HETATM   12  O   UNL     1     -12.742  11.143  69.924  1.00  0.00    -0.168 OA 
BRANCH   6  13
HETATM   13  O   UNL     1     -10.241  10.242  70.269  1.00  0.00    -0.203 OA 
BRANCH  13  14
HETATM   14  C   UNL     1     -10.937   9.000  70.104  1.00  0.00    -0.233 C  
HETATM   15  C   UNL     1      -8.990   7.717  70.592  1.00  0.00    -0.153 C  
HETATM   16  O   UNL     1     -10.060   7.962  69.662  1.00  0.00    -0.188 OA 
HETATM   17  H   UNL     1     -12.917   9.323  72.722  1.00  0.00     0.000 HD 
HETATM   18  C   UNL     1      -9.540   7.204  71.917  1.00  0.00    -0.149 C  
HETATM   19  O   UNL     1     -12.502   9.587  71.909  1.00  0.00    -0.369 OA 
HETATM   20  O   UNL     1      -8.507   6.983  72.885  1.00  0.00    -0.113 OA 
HETATM   21  C   UNL     1     -10.560   8.205  72.485  1.00  0.00    -0.340 C  
HETATM   22  H   UNL     1      -8.851   6.663  73.711  1.00  0.00     0.000 HD 
HETATM   23  O   UNL     1     -11.174   7.621  73.645  1.00  0.00    -0.537 OA 
HETATM   24  C   UNL     1     -11.615   8.568  71.431  1.00  0.00    -0.289 C  
HETATM   25  H   UNL     1     -11.803   8.240  73.996  1.00  0.00     0.000 HD 
BRANCH  15  26
HETATM   26  C   UNL     1      -8.025   6.727  69.933  1.00  0.00    -0.120 C  
HETATM   27  O   UNL     1      -8.365   5.396  70.331  1.00  0.00    -0.108 OA 
HETATM   28  H   UNL     1      -7.767   4.782  69.922  1.00  0.00     0.000 HD 
ENDBRANCH  15  26
ENDBRANCH  13  14
ENDBRANCH   6  13
BRANCH   6  29
HETATM   29  C   UNL     1      -9.479  10.802  67.936  1.00  0.00    -0.157 C  
HETATM   30  H   UNL     1      -9.596   9.699  66.282  1.00  0.00     0.000 HD 
HETATM   31  O   UNL     1     -10.137   9.921  67.032  1.00  0.00    -0.195 OA 
ENDBRANCH   6  29
ENDBRANCH   2   4
TORSDOF 5
ENDMDL
MODEL      199
REMARK 921   NORMALIZED FREE ENERGY PREDICTED BY IDOCK:   -2.78 KCAL/MOL
REMARK 922        TOTAL FREE ENERGY PREDICTED BY IDOCK:   -4.59 KCAL/MOL
REMARK 923 INTER-LIGAND FREE ENERGY PREDICTED BY IDOCK:   -3.68 KCAL/MOL
REMARK 924 INTRA-LIGAND FREE ENERGY PREDICTED BY IDOCK:   -0.92 KCAL/MOL
REMARK 927      BINDING AFFINITY PREDICTED BY RF-SCORE:    0.00 PKD
ROOT
HETATM    1  O   UNL     1     -11.335  13.413  68.575  1.00  0.00    -0.252 OA 
HETATM    2  C   UNL     1     -10.743  12.126  68.679  1.00  0.00    -0.233 C  
HETATM    3  H   UNL     1     -12.053  13.507  69.188  1.00  0.00     0.000 HD 
ENDROOT
BRANCH   2   4
HETATM    4  C   UNL     1      -9.587  11.975  67.692  1.00  0.00    -0.188 C  
HETATM    5  O   UNL     1      -8.904  10.733  67.946  1.00  0.00    -0.129 OA 
HETATM    6  C   UNL     1      -8.272  10.335  66.715  1.00  0.00    -0.124 C  
HETATM    7  H   UNL     1     -11.010   9.951  64.843  1.00  0.00     0.000 HD 
HETATM    8  O   UNL     1      -9.484  13.121  65.543  1.00  0.00    -0.477 OA 
HETATM    9  C   UNL     1      -9.328  10.716  65.644  1.00  0.00    -0.201 C  
HETATM   10  C   UNL     1      -9.995  11.968  66.214  1.00  0.00    -0.227 C  
HETATM   11  H   UNL     1      -9.737  13.117  64.627  1.00  0.00     0.000 HD 
HETATM   12  O   UNL     1     -10.363   9.718  65.499  1.00  0.00    -0.178 OA 
BRANCH   6  13
HETATM   13  O   UNL     1      -8.090   8.902  66.664  1.00  0.00    -0.105 OA 
BRANCH  13  14
HETATM   14  C   UNL     1      -8.442   8.203  67.865  1.00  0.00    -0.132 C  
HETATM   15  C   UNL     1      -9.076   6.242  66.669  1.00  0.00    -0.144 C  
HETATM   16  O   UNL     1      -9.470   7.239  67.629  1.00  0.00    -0.130 OA 
HETATM   17  H   UNL     1      -5.387   7.994  69.090  1.00  0.00     0.000 HD 
HETATM   18  C   UNL     1      -7.907   5.421  67.200  1.00  0.00    -0.101 C  
HETATM   19  O   UNL     1      -6.146   8.428  68.720  1.00  0.00    -0.043 OA 
HETATM   20  O   UNL     1      -7.459   4.440  66.257  1.00  0.00    -0.083 OA 
HETATM   21  C   UNL     1      -6.735   6.349  67.561  1.00  0.00    -0.070 C  
HETATM   22  H   UNL     1      -6.730   3.928  66.589  1.00  0.00     0.000 HD 
HETATM   23  O   UNL     1      -5.716   5.566  68.204  1.00  0.00    -0.011 OA 
HETATM   24  C   UNL     1      -7.202   7.493  68.471  1.00  0.00    -0.090 C  
HETATM   25  H   UNL     1      -4.992   6.140  68.426  1.00  0.00     0.000 HD 
BRANCH  15  26
HETATM   26  C   UNL     1     -10.307   5.384  66.364  1.00  0.00    -0.247 C  
HETATM   27  O   UNL     1     -10.057   4.035  66.768  1.00  0.00    -0.333 OA 
HETATM   28  H   UNL     1     -10.821   3.502  66.579  1.00  0.00     0.000 HD 
ENDBRANCH  15  26
ENDBRANCH  13  14
ENDBRANCH   6  13
BRANCH   6  29
HETATM   29  C   UNL     1      -6.956  11.146  66.534  1.00  0.00    -0.126 C  
HETATM   30  H   UNL     1      -5.508  11.915  67.663  1.00  0.00     0.000 HD 
HETATM   31  O   UNL     1      -6.311  11.420  67.773  1.00  0.00    -0.053 OA 
ENDBRANCH   6  29
ENDBRANCH   2   4
TORSDOF 5
ENDMDL
MODEL      200
REMARK 921   NORMALIZED FREE ENERGY PREDICTED BY IDOCK:   -2.73 KCAL/MOL
REMARK 922        TOTAL FREE ENERGY PREDICTED BY IDOCK:   -4.53 KCAL/MOL
REMARK 923 INTER-LIGAND FREE ENERGY PREDICTED BY IDOCK:   -3.43 KCAL/MOL
REMARK 924 INTRA-LIGAND FREE ENERGY PREDICTED BY IDOCK:   -1.10 KCAL/MOL
REMARK 927      BINDING AFFINITY PREDICTED BY RF-SCORE:    0.00 PKD
ROOT
HETATM    1  O   UNL     1      -7.046  11.355  68.187  1.00  0.00    -0.070 OA 
HETATM    2  C   UNL     1      -8.388  11.630  68.560  1.00  0.00    -0.140 C  
HETATM    3  H   UNL     1      -6.454  11.506  68.914  1.00  0.00     0.000 HD 
ENDROOT
BRANCH   2   4
HETATM    4  C   UNL     1      -9.341  11.386  67.392  1.00  0.00    -0.167 C  
HETATM    5  O   UNL     1      -8.727  10.480  66.458  1.00  0.00    -0.134 OA 
HETATM    6  C   UNL     1      -9.789   9.819  65.745  1.00  0.00    -0.290 C  
HETATM    7  H   UNL     1     -11.226   8.252  68.320  1.00  0.00     0.000 HD 
HETATM    8  O   UNL     1     -11.754  11.710  67.525  1.00  0.00    -0.535 OA 
HETATM    9  C   UNL     1     -10.851   9.578  66.851  1.00  0.00    -0.015 C  
HETATM   10  C   UNL     1     -10.697  10.783  67.778  1.00  0.00    -0.251 C  
HETATM   11  H   UNL     1     -12.594  11.336  67.764  1.00  0.00     0.000 HD 
HETATM   12  O   UNL     1     -10.576   8.400  67.642  1.00  0.00    -0.243 OA 
BRANCH   6  13
HETATM   13  O   UNL     1      -9.362   8.527  65.256  1.00  0.00    -0.012 OA 
BRANCH  13  14
HETATM   14  C   UNL     1      -7.949   8.291  65.322  1.00  0.00    -0.128 C  
HETATM   15  C   UNL     1      -8.241   6.186  66.400  1.00  0.00    -0.113 C  
HETATM   16  O   UNL     1      -7.606   7.477  66.445  1.00  0.00    -0.085 OA 
HETATM   17  H   UNL     1      -7.463   7.982  62.075  1.00  0.00     0.000 HD 
HETATM   18  C   UNL     1      -7.750   5.391  65.196  1.00  0.00    -0.086 C  
HETATM   19  O   UNL     1      -7.772   8.398  62.871  1.00  0.00    -0.113 OA 
HETATM   20  O   UNL     1      -8.388   4.112  65.094  1.00  0.00    -0.107 OA 
HETATM   21  C   UNL     1      -8.000   6.186  63.905  1.00  0.00    -0.103 C  
HETATM   22  H   UNL     1      -8.082   3.616  64.343  1.00  0.00     0.000 HD 
HETATM   23  O   UNL     1      -7.386   5.484  62.812  1.00  0.00    -0.044 OA 
HETATM   24  C   UNL     1      -7.444   7.611  64.023  1.00  0.00    -0.107 C  
HETATM   25  H   UNL     1      -7.541   5.975  62.014  1.00  0.00     0.000 HD 
BRANCH  15  26
HETATM   26  C   UNL     1      -7.951   5.483  67.729  1.00  0.00    -0.101 C  
HETATM   27  O   UNL     1      -6.974   4.458  67.520  1.00  0.00    -0.060 OA 
HETATM   28  H   UNL     1      -6.793   4.022  68.344  1.00  0.00     0.000 HD 
ENDBRANCH  15  26
ENDBRANCH  13  14
ENDBRANCH   6  13
BRANCH   6  29
HETATM   29  C   UNL     1     -10.325  10.769  64.636  1.00  0.00    -0.324 C  
HETATM   30  H   UNL     1      -9.620  11.820  63.098  1.00  0.00     0.000 HD 
HETATM   31  O   UNL     1      -9.293  11.239  63.776  1.00  0.00    -0.201 OA 
ENDBRANCH   6  29
ENDBRANCH   2   4
TORSDOF 5
ENDMDL
MODEL      201
REMARK 921   NORMALIZED FREE ENERGY PREDICTED BY IDOCK:   -2.70 KCAL/MOL
REMARK 922        TOTAL FREE ENERGY PREDICTED BY IDOCK:   -4.49 KCAL/MOL
REMARK 923 INTER-LIGAND FREE ENERGY PREDICTED BY IDOCK:   -3.51 KCAL/MOL
REMARK 924 INTRA-LIGAND FREE ENERGY PREDICTED BY IDOCK:   -0.98 KCAL/MOL
REMARK 927      BINDING AFFINITY PREDICTED BY RF-SCORE:    0.00 PKD
ROOT
HETATM    1  O   UNL     1      -6.711  11.009  70.629  1.00  0.00    -0.486 OA 
HETATM    2  C   UNL     1      -6.420  10.706  69.272  1.00  0.00    -0.062 C  
HETATM    3  H   UNL     1      -5.915  11.172  71.119  1.00  0.00     0.000 HD 
ENDROOT
BRANCH   2   4
HETATM    4  C   UNL     1      -7.701  10.444  68.483  1.00  0.00    -0.101 C  
HETATM    5  O   UNL     1      -7.716   9.074  68.041  1.00  0.00    -0.095 OA 
HETATM    6  C   UNL     1      -9.095   8.700  67.861  1.00  0.00    -0.140 C  
HETATM    7  H   UNL     1     -10.129   9.055  71.016  1.00  0.00     0.000 HD 
HETATM    8  O   UNL     1      -9.729  11.778  68.715  1.00  0.00    -0.342 OA 
HETATM    9  C   UNL     1      -9.801   9.392  69.058  1.00  0.00    -0.169 C  
HETATM   10  C   UNL     1      -9.001  10.678  69.263  1.00  0.00    -0.082 C  
HETATM   11  H   UNL     1     -10.534  11.923  69.198  1.00  0.00     0.000 HD 
HETATM   12  O   UNL     1      -9.697   8.632  70.283  1.00  0.00    -0.167 OA 
BRANCH   6  13
HETATM   13  O   UNL     1      -9.270   7.273  68.012  1.00  0.00    -0.133 OA 
BRANCH  13  14
HETATM   14  C   UNL     1      -8.065   6.501  67.917  1.00  0.00    -0.116 C  
HETATM   15  C   UNL     1      -8.575   5.259  69.886  1.00  0.00    -0.102 C  
HETATM   16  O   UNL     1      -7.609   6.080  69.204  1.00  0.00    -0.087 OA 
HETATM   17  H   UNL     1      -8.872   4.876  65.163  1.00  0.00     0.000 HD 
HETATM   18  C   UNL     1      -8.803   3.959  69.124  1.00  0.00    -0.101 C  
HETATM   19  O   UNL     1      -8.741   5.638  65.714  1.00  0.00    -0.142 OA 
HETATM   20  O   UNL     1      -9.788   3.128  69.751  1.00  0.00    -0.030 OA 
HETATM   21  C   UNL     1      -9.242   4.264  67.683  1.00  0.00    -0.149 C  
HETATM   22  H   UNL     1      -9.930   2.317  69.276  1.00  0.00     0.000 HD 
HETATM   23  O   UNL     1      -9.293   3.029  66.951  1.00  0.00    -0.266 OA 
HETATM   24  C   UNL     1      -8.279   5.256  67.016  1.00  0.00    -0.108 C  
HETATM   25  H   UNL     1      -9.565   3.218  66.061  1.00  0.00     0.000 HD 
BRANCH  15  26
HETATM   26  C   UNL     1      -8.059   5.026  71.308  1.00  0.00    -0.111 C  
HETATM   27  O   UNL     1      -8.644   5.990  72.189  1.00  0.00    -0.128 OA 
HETATM   28  H   UNL     1      -8.325   5.845  73.072  1.00  0.00     0.000 HD 
ENDBRANCH  15  26
ENDBRANCH  13  14
ENDBRANCH   6  13
BRANCH   6  29
HETATM   29  C   UNL     1      -9.600   9.258  66.500  1.00  0.00    -0.224 C  
HETATM   30  H   UNL     1      -9.073   9.218  64.580  1.00  0.00     0.000 HD 
HETATM   31  O   UNL     1      -8.765   8.877  65.412  1.00  0.00    -0.171 OA 
ENDBRANCH   6  29
ENDBRANCH   2   4
TORSDOF 5
ENDMDL
MODEL      202
REMARK 921   NORMALIZED FREE ENERGY PREDICTED BY IDOCK:   -2.67 KCAL/MOL
REMARK 922        TOTAL FREE ENERGY PREDICTED BY IDOCK:   -4.45 KCAL/MOL
REMARK 923 INTER-LIGAND FREE ENERGY PREDICTED BY IDOCK:   -4.03 KCAL/MOL
REMARK 924 INTRA-LIGAND FREE ENERGY PREDICTED BY IDOCK:   -0.42 KCAL/MOL
REMARK 927      BINDING AFFINITY PREDICTED BY RF-SCORE:    0.00 PKD
ROOT
HETATM    1  O   UNL     1     -11.544   6.632  66.973  1.00  0.00    -0.727 OA 
HETATM    2  C   UNL     1     -10.579   7.645  67.214  1.00  0.00    -0.318 C  
HETATM    3  H   UNL     1     -11.486   6.313  66.080  1.00  0.00     0.000 HD 
ENDROOT
BRANCH   2   4
HETATM    4  C   UNL     1     -10.671   8.158  68.649  1.00  0.00    -0.025 C  
HETATM    5  O   UNL     1     -10.611   7.043  69.558  1.00  0.00    -0.219 OA 
HETATM    6  C   UNL     1     -10.103   7.541  70.810  1.00  0.00    -0.192 C  
HETATM    7  H   UNL     1      -7.088   8.532  69.773  1.00  0.00     0.000 HD 
HETATM    8  O   UNL     1     -10.096  10.433  69.313  1.00  0.00    -0.209 OA 
HETATM    9  C   UNL     1      -9.013   8.552  70.364  1.00  0.00    -0.152 C  
HETATM   10  C   UNL     1      -9.560   9.133  69.061  1.00  0.00    -0.156 C  
HETATM   11  H   UNL     1      -9.408  11.036  69.568  1.00  0.00     0.000 HD 
HETATM   12  O   UNL     1      -7.756   7.914  70.045  1.00  0.00    -0.086 OA 
BRANCH   6  13
HETATM   13  O   UNL     1      -9.450   6.491  71.560  1.00  0.00    -0.158 OA 
BRANCH  13  14
HETATM   14  C   UNL     1     -10.293   5.388  71.918  1.00  0.00    -0.212 C  
HETATM   15  C   UNL     1      -8.937   3.826  70.735  1.00  0.00    -0.094 C  
HETATM   16  O   UNL     1     -10.260   4.359  70.928  1.00  0.00    -0.164 OA 
HETATM   17  H   UNL     1      -9.626   5.436  75.148  1.00  0.00     0.000 HD 
HETATM   18  C   UNL     1      -8.449   3.139  72.005  1.00  0.00    -0.073 C  
HETATM   19  O   UNL     1      -9.886   5.799  74.310  1.00  0.00    -0.173 OA 
HETATM   20  O   UNL     1      -7.118   2.626  71.868  1.00  0.00    -0.036 OA 
HETATM   21  C   UNL     1      -8.492   4.124  73.185  1.00  0.00    -0.093 C  
HETATM   22  H   UNL     1      -6.814   2.198  72.659  1.00  0.00     0.000 HD 
HETATM   23  O   UNL     1      -8.180   3.406  74.389  1.00  0.00    -0.069 OA 
HETATM   24  C   UNL     1      -9.869   4.795  73.288  1.00  0.00    -0.148 C  
HETATM   25  H   UNL     1      -8.206   4.015  75.118  1.00  0.00     0.000 HD 
BRANCH  15  26
HETATM   26  C   UNL     1      -8.994   2.875  69.536  1.00  0.00    -0.108 C  
HETATM   27  O   UNL     1      -7.663   2.506  69.161  1.00  0.00    -0.043 OA 
HETATM   28  H   UNL     1      -7.698   1.916  68.418  1.00  0.00     0.000 HD 
ENDBRANCH  15  26
ENDBRANCH  13  14
ENDBRANCH   6  13
BRANCH   6  29
HETATM   29  C   UNL     1     -11.255   8.246  71.582  1.00  0.00    -0.270 C  
HETATM   30  H   UNL     1     -13.068   7.814  72.282  1.00  0.00     0.000 HD 
HETATM   31  O   UNL     1     -12.364   7.383  71.811  1.00  0.00    -0.308 OA 
ENDBRANCH   6  29
ENDBRANCH   2   4
TORSDOF 5
ENDMDL
MODEL      203
REMARK 921   NORMALIZED FREE ENERGY PREDICTED BY IDOCK:   -2.59 KCAL/MOL
REMARK 922        TOTAL FREE ENERGY PREDICTED BY IDOCK:   -4.35 KCAL/MOL
REMARK 923 INTER-LIGAND FREE ENERGY PREDICTED BY IDOCK:   -4.88 KCAL/MOL
REMARK 924 INTRA-LIGAND FREE ENERGY PREDICTED BY IDOCK:    0.53 KCAL/MOL
REMARK 927      BINDING AFFINITY PREDICTED BY RF-SCORE:    0.00 PKD
ROOT
HETATM    1  O   UNL     1     -12.492  11.336  68.251  1.00  0.00    -0.413 OA 
HETATM    2  C   UNL     1     -11.347  12.017  67.761  1.00  0.00    -0.303 C  
HETATM    3  H   UNL     1     -12.862  10.771  67.584  1.00  0.00     0.000 HD 
ENDROOT
BRANCH   2   4
HETATM    4  C   UNL     1     -10.750  12.926  68.833  1.00  0.00    -0.160 C  
HETATM    5  O   UNL     1     -10.057  14.018  68.200  1.00  0.00    -0.231 OA 
HETATM    6  C   UNL     1     -10.044  15.113  69.135  1.00  0.00    -0.245 C  
HETATM    7  H   UNL     1     -13.336  15.623  69.362  1.00  0.00     0.000 HD 
HETATM    8  O   UNL     1     -11.577  13.040  71.124  1.00  0.00     0.075 OA 
HETATM    9  C   UNL     1     -11.455  15.037  69.778  1.00  0.00    -0.295 C  
HETATM   10  C   UNL     1     -11.769  13.541  69.801  1.00  0.00    -0.295 C  
HETATM   11  H   UNL     1     -12.208  13.420  71.723  1.00  0.00     0.000 HD 
HETATM   12  O   UNL     1     -12.472  15.669  68.969  1.00  0.00    -0.088 OA 
BRANCH   6  13
HETATM   13  O   UNL     1      -9.941  16.381  68.449  1.00  0.00    -0.225 OA 
BRANCH  13  14
HETATM   14  C   UNL     1      -8.921  16.444  67.442  1.00  0.00    -0.191 C  
HETATM   15  C   UNL     1     -10.411  15.712  65.733  1.00  0.00    -0.365 C  
HETATM   16  O   UNL     1      -9.154  15.495  66.400  1.00  0.00    -0.267 OA 
HETATM   17  H   UNL     1      -8.561  19.723  67.473  1.00  0.00     0.000 HD 
HETATM   18  C   UNL     1     -10.412  17.059  65.020  1.00  0.00     0.225 C  
HETATM   19  O   UNL     1      -8.610  18.851  67.847  1.00  0.00    -0.283 OA 
HETATM   20  O   UNL     1     -11.661  17.330  64.373  1.00  0.00    -0.694 OA 
HETATM   21  C   UNL     1     -10.106  18.183  66.023  1.00  0.00    -0.268 C  
HETATM   22  H   UNL     1     -11.662  18.170  63.929  1.00  0.00     0.000 HD 
HETATM   23  O   UNL     1      -9.958  19.413  65.296  1.00  0.00    -0.051 OA 
HETATM   24  C   UNL     1      -8.840  17.868  66.831  1.00  0.00    -0.253 C  
HETATM   25  H   UNL     1      -9.770  20.109  65.916  1.00  0.00     0.000 HD 
BRANCH  15  26
HETATM   26  C   UNL     1     -10.631  14.538  64.774  1.00  0.00    -0.377 C  
HETATM   27  O   UNL     1     -11.815  14.770  64.005  1.00  0.00    -0.702 OA 
HETATM   28  H   UNL     1     -11.952  14.043  63.410  1.00  0.00     0.000 HD 
ENDBRANCH  15  26
ENDBRANCH  13  14
ENDBRANCH   6  13
BRANCH   6  29
HETATM   29  C   UNL     1      -8.923  14.870  70.187  1.00  0.00     0.726 C  
HETATM   30  H   UNL     1      -6.934  14.835  70.269  1.00  0.00     0.000 HD 
HETATM   31  O   UNL     1      -7.619  14.983  69.627  1.00  0.00    -0.198 OA 
ENDBRANCH   6  29
ENDBRANCH   2   4
TORSDOF 5
ENDMDL
MODEL      204
REMARK 921   NORMALIZED FREE ENERGY PREDICTED BY IDOCK:   -2.54 KCAL/MOL
REMARK 922        TOTAL FREE ENERGY PREDICTED BY IDOCK:   -4.29 KCAL/MOL
REMARK 923 INTER-LIGAND FREE ENERGY PREDICTED BY IDOCK:   -3.76 KCAL/MOL
REMARK 924 INTRA-LIGAND FREE ENERGY PREDICTED BY IDOCK:   -0.54 KCAL/MOL
REMARK 927      BINDING AFFINITY PREDICTED BY RF-SCORE:    0.00 PKD
ROOT
HETATM    1  O   UNL     1      -6.467   6.904  68.223  1.00  0.00    -0.045 OA 
HETATM    2  C   UNL     1      -7.782   6.403  68.028  1.00  0.00    -0.104 C  
HETATM    3  H   UNL     1      -5.844   6.445  67.673  1.00  0.00     0.000 HD 
ENDROOT
BRANCH   2   4
HETATM    4  C   UNL     1      -8.785   7.140  68.913  1.00  0.00    -0.128 C  
HETATM    5  O   UNL     1      -8.347   8.498  69.100  1.00  0.00    -0.117 OA 
HETATM    6  C   UNL     1      -9.517   9.288  69.382  1.00  0.00    -0.168 C  
HETATM    7  H   UNL     1     -11.139   8.834  66.499  1.00  0.00     0.000 HD 
HETATM    8  O   UNL     1     -11.109   6.455  69.184  1.00  0.00    -0.322 OA 
HETATM    9  C   UNL     1     -10.582   8.684  68.428  1.00  0.00    -0.120 C  
HETATM   10  C   UNL     1     -10.214   7.201  68.358  1.00  0.00    -0.174 C  
HETATM   11  H   UNL     1     -11.994   6.493  68.840  1.00  0.00     0.000 HD 
HETATM   12  O   UNL     1     -10.487   9.204  67.083  1.00  0.00    -0.260 OA 
BRANCH   6  13
HETATM   13  O   UNL     1      -9.317  10.668  68.999  1.00  0.00    -0.184 OA 
BRANCH  13  14
HETATM   14  C   UNL     1      -8.175  10.907  68.166  1.00  0.00    -0.121 C  
HETATM   15  C   UNL     1      -9.051  12.975  67.370  1.00  0.00    -0.201 C  
HETATM   16  O   UNL     1      -8.517  11.686  67.018  1.00  0.00    -0.155 OA 
HETATM   17  H   UNL     1      -6.001  11.322  70.611  1.00  0.00     0.000 HD 
HETATM   18  C   UNL     1      -7.998  13.810  68.090  1.00  0.00    -0.150 C  
HETATM   19  O   UNL     1      -6.686  10.879  70.124  1.00  0.00    -0.160 OA 
HETATM   20  O   UNL     1      -8.502  15.090  68.492  1.00  0.00    -0.149 OA 
HETATM   21  C   UNL     1      -7.486  13.056  69.328  1.00  0.00     0.308 C  
HETATM   22  H   UNL     1      -7.846  15.611  68.940  1.00  0.00     0.000 HD 
HETATM   23  O   UNL     1      -6.390  13.795  69.889  1.00  0.00    -0.164 OA 
HETATM   24  C   UNL     1      -7.055  11.630  68.961  1.00  0.00    -0.108 C  
HETATM   25  H   UNL     1      -6.073  13.329  70.655  1.00  0.00     0.000 HD 
BRANCH  15  26
HETATM   26  C   UNL     1      -9.547  13.636  66.081  1.00  0.00    -0.209 C  
HETATM   27  O   UNL     1      -9.583  12.663  65.033  1.00  0.00    -0.477 OA 
HETATM   28  H   UNL     1      -9.891  13.073  64.233  1.00  0.00     0.000 HD 
ENDBRANCH  15  26
ENDBRANCH  13  14
ENDBRANCH   6  13
BRANCH   6  29
HETATM   29  C   UNL     1      -9.912   9.097  70.874  1.00  0.00    -0.288 C  
HETATM   30  H   UNL     1     -11.533   8.672  71.948  1.00  0.00     0.000 HD 
HETATM   31  O   UNL     1     -11.292   8.788  71.037  1.00  0.00    -0.258 OA 
ENDBRANCH   6  29
ENDBRANCH   2   4
TORSDOF 5
ENDMDL
MODEL      205
REMARK 921   NORMALIZED FREE ENERGY PREDICTED BY IDOCK:   -2.50 KCAL/MOL
REMARK 922        TOTAL FREE ENERGY PREDICTED BY IDOCK:   -4.24 KCAL/MOL
REMARK 923 INTER-LIGAND FREE ENERGY PREDICTED BY IDOCK:   -3.12 KCAL/MOL
REMARK 924 INTRA-LIGAND FREE ENERGY PREDICTED BY IDOCK:   -1.12 KCAL/MOL
REMARK 927      BINDING AFFINITY PREDICTED BY RF-SCORE:    0.00 PKD
ROOT
HETATM    1  O   UNL     1      -8.655   2.906  70.168  1.00  0.00    -0.055 OA 
HETATM    2  C   UNL     1      -7.920   3.991  70.715  1.00  0.00    -0.059 C  
HETATM    3  H   UNL     1      -8.181   2.090  70.268  1.00  0.00     0.000 HD 
ENDROOT
BRANCH   2   4
HETATM    4  C   UNL     1      -8.682   5.305  70.554  1.00  0.00    -0.121 C  
HETATM    5  O   UNL     1      -8.059   6.093  69.523  1.00  0.00    -0.108 OA 
HETATM    6  C   UNL     1      -9.069   6.968  68.988  1.00  0.00    -0.135 C  
HETATM    7  H   UNL     1     -11.149   4.655  67.773  1.00  0.00     0.000 HD 
HETATM    8  O   UNL     1     -11.005   5.612  71.228  1.00  0.00    -0.246 OA 
HETATM    9  C   UNL     1     -10.331   6.064  68.957  1.00  0.00    -0.225 C  
HETATM   10  C   UNL     1     -10.160   5.153  70.172  1.00  0.00    -0.272 C  
HETATM   11  H   UNL     1     -11.920   5.518  70.992  1.00  0.00     0.000 HD 
HETATM   12  O   UNL     1     -10.377   5.209  67.792  1.00  0.00    -0.159 OA 
BRANCH   6  13
HETATM   13  O   UNL     1      -8.763   7.343  67.625  1.00  0.00    -0.125 OA 
BRANCH  13  14
HETATM   14  C   UNL     1      -7.496   6.880  67.139  1.00  0.00    -0.095 C  
HETATM   15  C   UNL     1      -8.390   6.349  64.995  1.00  0.00    -0.087 C  
HETATM   16  O   UNL     1      -7.655   5.873  66.137  1.00  0.00    -0.087 OA 
HETATM   17  H   UNL     1      -5.982   9.810  67.177  1.00  0.00     0.000 HD 
HETATM   18  C   UNL     1      -7.621   7.461  64.291  1.00  0.00    -0.112 C  
HETATM   19  O   UNL     1      -6.489   9.090  67.533  1.00  0.00    -0.062 OA 
HETATM   20  O   UNL     1      -8.337   7.988  63.167  1.00  0.00    -0.348 OA 
HETATM   21  C   UNL     1      -7.321   8.599  65.279  1.00  0.00    -0.085 C  
HETATM   22  H   UNL     1      -7.857   8.681  62.728  1.00  0.00     0.000 HD 
HETATM   23  O   UNL     1      -6.463   9.551  64.630  1.00  0.00    -0.081 OA 
HETATM   24  C   UNL     1      -6.668   8.056  66.557  1.00  0.00    -0.062 C  
HETATM   25  H   UNL     1      -6.278  10.255  65.241  1.00  0.00     0.000 HD 
BRANCH  15  26
HETATM   26  C   UNL     1      -8.653   5.146  64.084  1.00  0.00    -0.101 C  
HETATM   27  O   UNL     1      -9.012   4.015  64.883  1.00  0.00    -0.123 OA 
HETATM   28  H   UNL     1      -9.176   3.269  64.319  1.00  0.00     0.000 HD 
ENDBRANCH  15  26
ENDBRANCH  13  14
ENDBRANCH   6  13
BRANCH   6  29
HETATM   29  C   UNL     1      -9.256   8.177  69.949  1.00  0.00    -0.151 C  
HETATM   30  H   UNL     1     -10.741   9.230  70.755  1.00  0.00     0.000 HD 
HETATM   31  O   UNL     1     -10.627   8.491  70.168  1.00  0.00    -0.223 OA 
ENDBRANCH   6  29
ENDBRANCH   2   4
TORSDOF 5
ENDMDL
MODEL      206
REMARK 921   NORMALIZED FREE ENERGY PREDICTED BY IDOCK:   -2.46 KCAL/MOL
REMARK 922        TOTAL FREE ENERGY PREDICTED BY IDOCK:   -4.19 KCAL/MOL
REMARK 923 INTER-LIGAND FREE ENERGY PREDICTED BY IDOCK:   -3.45 KCAL/MOL
REMARK 924 INTRA-LIGAND FREE ENERGY PREDICTED BY IDOCK:   -0.74 KCAL/MOL
REMARK 927      BINDING AFFINITY PREDICTED BY RF-SCORE:    0.00 PKD
ROOT
HETATM    1  O   UNL     1      -6.679  11.187  69.555  1.00  0.00    -0.107 OA 
HETATM    2  C   UNL     1      -6.847  10.231  68.519  1.00  0.00    -0.061 C  
HETATM    3  H   UNL     1      -5.767  11.254  69.811  1.00  0.00     0.000 HD 
ENDROOT
BRANCH   2   4
HETATM    4  C   UNL     1      -8.314  10.124  68.107  1.00  0.00    -0.117 C  
HETATM    5  O   UNL     1      -9.062  11.184  68.729  1.00  0.00    -0.177 OA 
HETATM    6  C   UNL     1     -10.216  11.432  67.905  1.00  0.00    -0.182 C  
HETATM    7  H   UNL     1      -8.648  12.410  65.124  1.00  0.00     0.000 HD 
HETATM    8  O   UNL     1      -9.072   8.982  66.091  1.00  0.00    -0.170 OA 
HETATM    9  C   UNL     1      -9.651  11.293  66.466  1.00  0.00    -0.191 C  
HETATM   10  C   UNL     1      -8.571  10.219  66.598  1.00  0.00    -0.127 C  
HETATM   11  H   UNL     1      -9.231   9.041  65.156  1.00  0.00     0.000 HD 
HETATM   12  O   UNL     1      -8.995  12.495  66.005  1.00  0.00    -0.021 OA 
BRANCH   6  13
HETATM   13  O   UNL     1     -10.686  12.790  68.064  1.00  0.00    -0.218 OA 
BRANCH  13  14
HETATM   14  C   UNL     1     -10.306  13.424  69.292  1.00  0.00     0.244 C  
HETATM   15  C   UNL     1     -10.368  15.597  68.318  1.00  0.00    -0.244 C  
HETATM   16  O   UNL     1      -9.590  14.638  69.057  1.00  0.00    -0.207 OA 
HETATM   17  H   UNL     1     -13.064  12.714  70.955  1.00  0.00     0.000 HD 
HETATM   18  C   UNL     1     -11.587  16.031  69.124  1.00  0.00    -0.336 C  
HETATM   19  O   UNL     1     -12.300  12.529  70.422  1.00  0.00    -0.309 OA 
HETATM   20  O   UNL     1     -12.409  16.959  68.408  1.00  0.00     0.722 OA 
HETATM   21  C   UNL     1     -12.427  14.802  69.508  1.00  0.00    -0.100 C  
HETATM   22  H   UNL     1     -13.169  17.230  68.910  1.00  0.00     0.000 HD 
HETATM   23  O   UNL     1     -13.473  15.225  70.396  1.00  0.00    -0.684 OA 
HETATM   24  C   UNL     1     -11.553  13.725  70.165  1.00  0.00    -0.160 C  
HETATM   25  H   UNL     1     -13.993  14.465  70.632  1.00  0.00     0.000 HD 
BRANCH  15  26
HETATM   26  C   UNL     1      -9.445  16.768  67.970  1.00  0.00    -0.233 C  
HETATM   27  O   UNL     1      -9.846  17.925  68.712  1.00  0.00    -0.344 OA 
HETATM   28  H   UNL     1      -9.273  18.651  68.496  1.00  0.00     0.000 HD 
ENDBRANCH  15  26
ENDBRANCH  13  14
ENDBRANCH   6  13
BRANCH   6  29
HETATM   29  C   UNL     1     -11.295  10.351  68.202  1.00  0.00    -0.213 C  
HETATM   30  H   UNL     1     -11.733   9.029  69.625  1.00  0.00     0.000 HD 
HETATM   31  O   UNL     1     -11.074   9.689  69.443  1.00  0.00    -0.217 OA 
ENDBRANCH   6  29
ENDBRANCH   2   4
TORSDOF 5
ENDMDL
MODEL      207
REMARK 921   NORMALIZED FREE ENERGY PREDICTED BY IDOCK:   -2.45 KCAL/MOL
REMARK 922        TOTAL FREE ENERGY PREDICTED BY IDOCK:   -4.17 KCAL/MOL
REMARK 923 INTER-LIGAND FREE ENERGY PREDICTED BY IDOCK:   -3.65 KCAL/MOL
REMARK 924 INTRA-LIGAND FREE ENERGY PREDICTED BY IDOCK:   -0.52 KCAL/MOL
REMARK 927      BINDING AFFINITY PREDICTED BY RF-SCORE:    0.00 PKD
ROOT
HETATM    1  O   UNL     1     -12.610  11.437  71.699  1.00  0.00    -0.320 OA 
HETATM    2  C   UNL     1     -12.246  10.073  71.852  1.00  0.00    -0.185 C  
HETATM    3  H   UNL     1     -13.321  11.667  72.284  1.00  0.00     0.000 HD 
ENDROOT
BRANCH   2   4
HETATM    4  C   UNL     1     -11.102   9.703  70.910  1.00  0.00    -0.352 C  
HETATM    5  O   UNL     1     -10.146   8.894  71.619  1.00  0.00    -0.289 OA 
HETATM    6  C   UNL     1      -9.457   8.094  70.640  1.00  0.00    -0.162 C  
HETATM    7  H   UNL     1     -12.058   6.333  69.507  1.00  0.00     0.000 HD 
HETATM    8  O   UNL     1     -11.301   9.687  68.480  1.00  0.00    -0.492 OA 
HETATM    9  C   UNL     1     -10.589   7.703  69.653  1.00  0.00    -0.243 C  
HETATM   10  C   UNL     1     -11.520   8.915  69.663  1.00  0.00     0.272 C  
HETATM   11  H   UNL     1     -11.560   9.199  67.708  1.00  0.00     0.000 HD 
HETATM   12  O   UNL     1     -11.365   6.573  70.111  1.00  0.00    -0.341 OA 
BRANCH   6  13
HETATM   13  O   UNL     1      -8.948   6.875  71.230  1.00  0.00    -0.142 OA 
BRANCH  13  14
HETATM   14  C   UNL     1      -9.468   6.568  72.530  1.00  0.00    -0.144 C  
HETATM   15  C   UNL     1      -9.221   4.222  72.194  1.00  0.00    -0.123 C  
HETATM   16  O   UNL     1     -10.114   5.293  72.548  1.00  0.00    -0.172 OA 
HETATM   17  H   UNL     1      -6.971   7.859  74.255  1.00  0.00     0.000 HD 
HETATM   18  C   UNL     1      -8.107   4.092  73.226  1.00  0.00    -0.089 C  
HETATM   19  O   UNL     1      -7.663   7.849  73.604  1.00  0.00    -0.134 OA 
HETATM   20  O   UNL     1      -7.173   3.059  72.889  1.00  0.00    -0.041 OA 
HETATM   21  C   UNL     1      -7.358   5.428  73.360  1.00  0.00    -0.095 C  
HETATM   22  H   UNL     1      -6.478   2.978  73.533  1.00  0.00     0.000 HD 
HETATM   23  O   UNL     1      -6.425   5.319  74.447  1.00  0.00    -0.066 OA 
HETATM   24  C   UNL     1      -8.338   6.585  73.593  1.00  0.00    -0.118 C  
HETATM   25  H   UNL     1      -5.961   6.144  74.529  1.00  0.00     0.000 HD 
BRANCH  15  26
HETATM   26  C   UNL     1     -10.059   2.946  72.068  1.00  0.00    -0.114 C  
HETATM   27  O   UNL     1      -9.203   1.846  71.745  1.00  0.00    -0.078 OA 
HETATM   28  H   UNL     1      -9.722   1.055  71.668  1.00  0.00     0.000 HD 
ENDBRANCH  15  26
ENDBRANCH  13  14
ENDBRANCH   6  13
BRANCH   6  29
HETATM   29  C   UNL     1      -8.369   8.963  69.947  1.00  0.00    -0.128 C  
HETATM   30  H   UNL     1      -6.874   8.734  68.652  1.00  0.00     0.000 HD 
HETATM   31  O   UNL     1      -7.539   8.203  69.075  1.00  0.00    -0.093 OA 
ENDBRANCH   6  29
ENDBRANCH   2   4
TORSDOF 5
ENDMDL
MODEL      208
REMARK 921   NORMALIZED FREE ENERGY PREDICTED BY IDOCK:   -2.43 KCAL/MOL
REMARK 922        TOTAL FREE ENERGY PREDICTED BY IDOCK:   -4.15 KCAL/MOL
REMARK 923 INTER-LIGAND FREE ENERGY PREDICTED BY IDOCK:   -3.42 KCAL/MOL
REMARK 924 INTRA-LIGAND FREE ENERGY PREDICTED BY IDOCK:   -0.73 KCAL/MOL
REMARK 927      BINDING AFFINITY PREDICTED BY RF-SCORE:    0.00 PKD
ROOT
HETATM    1  O   UNL     1     -10.477   8.265  69.274  1.00  0.00    -0.217 OA 
HETATM    2  C   UNL     1      -9.211   7.798  68.832  1.00  0.00    -0.140 C  
HETATM    3  H   UNL     1     -10.837   7.692  69.940  1.00  0.00     0.000 HD 
ENDROOT
BRANCH   2   4
HETATM    4  C   UNL     1      -8.631   8.719  67.762  1.00  0.00    -0.129 C  
HETATM    5  O   UNL     1      -9.042  10.073  68.025  1.00  0.00    -0.131 OA 
HETATM    6  C   UNL     1      -8.058  10.940  67.432  1.00  0.00    -0.114 C  
HETATM    7  H   UNL     1      -5.411  10.014  69.243  1.00  0.00     0.000 HD 
HETATM    8  O   UNL     1      -6.663   8.174  66.429  1.00  0.00    -0.060 OA 
HETATM    9  C   UNL     1      -6.724  10.205  67.728  1.00  0.00    -0.071 C  
HETATM   10  C   UNL     1      -7.100   8.724  67.672  1.00  0.00    -0.079 C  
HETATM   11  H   UNL     1      -5.715   8.177  66.374  1.00  0.00     0.000 HD 
HETATM   12  O   UNL     1      -6.228  10.464  69.061  1.00  0.00    -0.043 OA 
BRANCH   6  13
HETATM   13  O   UNL     1      -8.017  12.218  68.107  1.00  0.00    -0.138 OA 
BRANCH  13  14
HETATM   14  C   UNL     1      -7.593  13.320  67.294  1.00  0.00    -0.067 C  
HETATM   15  C   UNL     1      -9.561  14.574  67.775  1.00  0.00    -0.215 C  
HETATM   16  O   UNL     1      -8.707  14.031  66.752  1.00  0.00    -0.203 OA 
HETATM   17  H   UNL     1      -5.038  14.220  69.176  1.00  0.00     0.000 HD 
HETATM   18  C   UNL     1      -8.813  15.619  68.595  1.00  0.00    -0.201 C  
HETATM   19  O   UNL     1      -5.579  13.621  68.675  1.00  0.00    -0.076 OA 
HETATM   20  O   UNL     1      -9.617  16.158  69.651  1.00  0.00    -0.208 OA 
HETATM   21  C   UNL     1      -7.538  15.002  69.194  1.00  0.00    -0.176 C  
HETATM   22  H   UNL     1      -9.151  16.810  70.162  1.00  0.00     0.000 HD 
HETATM   23  O   UNL     1      -6.780  16.047  69.824  1.00  0.00    -0.191 OA 
HETATM   24  C   UNL     1      -6.709  14.299  68.111  1.00  0.00    -0.128 C  
HETATM   25  H   UNL     1      -5.992  15.665  70.195  1.00  0.00     0.000 HD 
BRANCH  15  26
HETATM   26  C   UNL     1     -10.802  15.146  67.084  1.00  0.00    -0.320 C  
HETATM   27  O   UNL     1     -10.834  16.565  67.265  1.00  0.00    -0.280 OA 
HETATM   28  H   UNL     1     -11.604  16.920  66.837  1.00  0.00     0.000 HD 
ENDBRANCH  15  26
ENDBRANCH  13  14
ENDBRANCH   6  13
BRANCH   6  29
HETATM   29  C   UNL     1      -8.327  11.043  65.903  1.00  0.00    -0.119 C  
HETATM   30  H   UNL     1      -7.441  10.538  64.192  1.00  0.00     0.000 HD 
HETATM   31  O   UNL     1      -7.278  10.475  65.126  1.00  0.00    -0.113 OA 
ENDBRANCH   6  29
ENDBRANCH   2   4
TORSDOF 5
ENDMDL
MODEL      209
REMARK 921   NORMALIZED FREE ENERGY PREDICTED BY IDOCK:   -2.36 KCAL/MOL
REMARK 922        TOTAL FREE ENERGY PREDICTED BY IDOCK:   -4.05 KCAL/MOL
REMARK 923 INTER-LIGAND FREE ENERGY PREDICTED BY IDOCK:   -3.00 KCAL/MOL
REMARK 924 INTRA-LIGAND FREE ENERGY PREDICTED BY IDOCK:   -1.06 KCAL/MOL
REMARK 927      BINDING AFFINITY PREDICTED BY RF-SCORE:    0.00 PKD
ROOT
HETATM    1  O   UNL     1      -6.028  10.444  70.685  1.00  0.00    -0.096 OA 
HETATM    2  C   UNL     1      -5.668   9.830  69.456  1.00  0.00    -0.033 C  
HETATM    3  H   UNL     1      -5.266  10.575  71.235  1.00  0.00     0.000 HD 
ENDROOT
BRANCH   2   4
HETATM    4  C   UNL     1      -6.894   9.620  68.570  1.00  0.00    -0.057 C  
HETATM    5  O   UNL     1      -7.842  10.676  68.810  1.00  0.00    -0.107 OA 
HETATM    6  C   UNL     1      -8.640  10.810  67.619  1.00  0.00    -0.123 C  
HETATM    7  H   UNL     1      -6.225  11.695  65.489  1.00  0.00     0.000 HD 
HETATM    8  O   UNL     1      -6.866   8.315  66.510  1.00  0.00    -0.065 OA 
HETATM    9  C   UNL     1      -7.603  10.612  66.482  1.00  0.00    -0.134 C  
HETATM   10  C   UNL     1      -6.608   9.607  67.063  1.00  0.00    -0.067 C  
HETATM   11  H   UNL     1      -6.689   8.307  65.577  1.00  0.00     0.000 HD 
HETATM   12  O   UNL     1      -6.861  11.816  66.186  1.00  0.00     0.220 OA 
BRANCH   6  13
HETATM   13  O   UNL     1      -9.174  12.149  67.499  1.00  0.00    -0.173 OA 
BRANCH  13  14
HETATM   14  C   UNL     1      -9.045  12.960  68.675  1.00  0.00     0.048 C  
HETATM   15  C   UNL     1      -8.153  14.795  67.444  1.00  0.00    -0.198 C  
HETATM   16  O   UNL     1      -7.971  13.895  68.552  1.00  0.00    -0.137 OA 
HETATM   17  H   UNL     1     -12.274  13.293  69.261  1.00  0.00     0.000 HD 
HETATM   18  C   UNL     1      -9.386  15.666  67.659  1.00  0.00    -0.206 C  
HETATM   19  O   UNL     1     -11.467  12.823  69.087  1.00  0.00    -0.274 OA 
HETATM   20  O   UNL     1      -9.623  16.552  66.559  1.00  0.00    -0.243 OA 
HETATM   21  C   UNL     1     -10.623  14.780  67.873  1.00  0.00    -0.248 C  
HETATM   22  H   UNL     1     -10.392  17.095  66.694  1.00  0.00     0.000 HD 
HETATM   23  O   UNL     1     -11.730  15.622  68.230  1.00  0.00    -0.349 OA 
HETATM   24  C   UNL     1     -10.363  13.728  68.960  1.00  0.00    -0.066 C  
HETATM   25  H   UNL     1     -12.496  15.075  68.362  1.00  0.00     0.000 HD 
BRANCH  15  26
HETATM   26  C   UNL     1      -6.869  15.617  67.302  1.00  0.00    -0.162 C  
HETATM   27  O   UNL     1      -7.114  16.958  67.735  1.00  0.00    -0.136 OA 
HETATM   28  H   UNL     1      -6.318  17.468  67.648  1.00  0.00     0.000 HD 
ENDBRANCH  15  26
ENDBRANCH  13  14
ENDBRANCH   6  13
BRANCH   6  29
HETATM   29  C   UNL     1      -9.724   9.695  67.605  1.00  0.00    -0.149 C  
HETATM   30  H   UNL     1     -11.025   8.890  66.330  1.00  0.00     0.000 HD 
HETATM   31  O   UNL     1     -10.362   9.571  66.339  1.00  0.00    -0.240 OA 
ENDBRANCH   6  29
ENDBRANCH   2   4
TORSDOF 5
ENDMDL
MODEL      210
REMARK 921   NORMALIZED FREE ENERGY PREDICTED BY IDOCK:   -2.28 KCAL/MOL
REMARK 922        TOTAL FREE ENERGY PREDICTED BY IDOCK:   -3.95 KCAL/MOL
REMARK 923 INTER-LIGAND FREE ENERGY PREDICTED BY IDOCK:   -4.35 KCAL/MOL
REMARK 924 INTRA-LIGAND FREE ENERGY PREDICTED BY IDOCK:    0.40 KCAL/MOL
REMARK 927      BINDING AFFINITY PREDICTED BY RF-SCORE:    0.00 PKD
ROOT
HETATM    1  O   UNL     1     -13.217   7.242  71.517  1.00  0.00    -0.376 OA 
HETATM    2  C   UNL     1     -12.179   8.030  72.083  1.00  0.00    -0.331 C  
HETATM    3  H   UNL     1     -14.047   7.415  71.944  1.00  0.00     0.000 HD 
ENDROOT
BRANCH   2   4
HETATM    4  C   UNL     1     -10.844   7.751  71.396  1.00  0.00    -0.228 C  
HETATM    5  O   UNL     1     -11.046   7.681  69.973  1.00  0.00    -0.254 OA 
HETATM    6  C   UNL     1      -9.795   8.022  69.348  1.00  0.00    -0.181 C  
HETATM    7  H   UNL     1      -9.509  11.155  70.464  1.00  0.00     0.000 HD 
HETATM    8  O   UNL     1      -8.678   8.250  72.398  1.00  0.00    -0.177 OA 
HETATM    9  C   UNL     1      -9.260   9.169  70.245  1.00  0.00    -0.218 C  
HETATM   10  C   UNL     1      -9.757   8.804  71.644  1.00  0.00    -0.296 C  
HETATM   11  H   UNL     1      -8.005   8.902  72.551  1.00  0.00     0.000 HD 
HETATM   12  O   UNL     1      -9.837  10.453  69.915  1.00  0.00    -0.165 OA 
BRANCH   6  13
HETATM   13  O   UNL     1     -10.006   8.561  68.023  1.00  0.00    -0.167 OA 
BRANCH  13  14
HETATM   14  C   UNL     1      -8.939   9.379  67.525  1.00  0.00    -0.121 C  
HETATM   15  C   UNL     1      -8.002   7.584  66.268  1.00  0.00    -0.109 C  
HETATM   16  O   UNL     1      -7.768   8.606  67.254  1.00  0.00    -0.095 OA 
HETATM   17  H   UNL     1     -10.814  11.363  65.674  1.00  0.00     0.000 HD 
HETATM   18  C   UNL     1      -8.358   8.210  64.925  1.00  0.00    -0.123 C  
HETATM   19  O   UNL     1     -10.548  10.909  66.464  1.00  0.00    -0.248 OA 
HETATM   20  O   UNL     1      -8.636   7.223  63.924  1.00  0.00    -0.338 OA 
HETATM   21  C   UNL     1      -9.579   9.131  65.081  1.00  0.00     0.070 C  
HETATM   22  H   UNL     1      -8.857   7.613  63.086  1.00  0.00     0.000 HD 
HETATM   23  O   UNL     1      -9.788   9.823  63.840  1.00  0.00    -0.465 OA 
HETATM   24  C   UNL     1      -9.372  10.122  66.234  1.00  0.00    -0.172 C  
HETATM   25  H   UNL     1     -10.543  10.392  63.936  1.00  0.00     0.000 HD 
BRANCH  15  26
HETATM   26  C   UNL     1      -6.744   6.715  66.199  1.00  0.00    -0.049 C  
HETATM   27  O   UNL     1      -6.585   6.010  67.434  1.00  0.00    -0.052 OA 
HETATM   28  H   UNL     1      -5.805   5.470  67.391  1.00  0.00     0.000 HD 
ENDBRANCH  15  26
ENDBRANCH  13  14
ENDBRANCH   6  13
BRANCH   6  29
HETATM   29  C   UNL     1      -8.855   6.782  69.383  1.00  0.00    -0.135 C  
HETATM   30  H   UNL     1      -8.727   4.980  68.547  1.00  0.00     0.000 HD 
HETATM   31  O   UNL     1      -9.300   5.737  68.525  1.00  0.00    -0.119 OA 
ENDBRANCH   6  29
ENDBRANCH   2   4
TORSDOF 5
ENDMDL
MODEL      211
REMARK 921   NORMALIZED FREE ENERGY PREDICTED BY IDOCK:   -2.26 KCAL/MOL
REMARK 922        TOTAL FREE ENERGY PREDICTED BY IDOCK:   -3.93 KCAL/MOL
REMARK 923 INTER-LIGAND FREE ENERGY PREDICTED BY IDOCK:   -3.16 KCAL/MOL
REMARK 924 INTRA-LIGAND FREE ENERGY PREDICTED BY IDOCK:   -0.76 KCAL/MOL
REMARK 927      BINDING AFFINITY PREDICTED BY RF-SCORE:    0.00 PKD
ROOT
HETATM    1  O   UNL     1     -10.006  11.771  67.716  1.00  0.00    -0.183 OA 
HETATM    2  C   UNL     1      -8.938  10.858  67.512  1.00  0.00    -0.136 C  
HETATM    3  H   UNL     1      -9.986  12.468  67.072  1.00  0.00     0.000 HD 
ENDROOT
BRANCH   2   4
HETATM    4  C   UNL     1      -8.971   9.737  68.548  1.00  0.00    -0.124 C  
HETATM    5  O   UNL     1      -9.210   8.482  67.884  1.00  0.00    -0.139 OA 
HETATM    6  C   UNL     1      -8.656   7.447  68.717  1.00  0.00    -0.129 C  
HETATM    7  H   UNL     1      -5.451   8.379  68.614  1.00  0.00     0.000 HD 
HETATM    8  O   UNL     1      -7.915   9.888  70.741  1.00  0.00    -0.395 OA 
HETATM    9  C   UNL     1      -7.343   8.089  69.240  1.00  0.00    -0.081 C  
HETATM   10  C   UNL     1      -7.684   9.573  69.367  1.00  0.00    -0.094 C  
HETATM   11  H   UNL     1      -7.118   9.787  71.247  1.00  0.00     0.000 HD 
HETATM   12  O   UNL     1      -6.255   7.986  68.294  1.00  0.00    -0.047 OA 
BRANCH   6  13
HETATM   13  O   UNL     1      -8.296   6.286  67.933  1.00  0.00    -0.117 OA 
BRANCH  13  14
HETATM   14  C   UNL     1      -9.052   5.103  68.221  1.00  0.00    -0.112 C  
HETATM   15  C   UNL     1      -9.128   4.460  65.928  1.00  0.00    -0.133 C  
HETATM   16  O   UNL     1      -9.885   4.731  67.121  1.00  0.00    -0.170 OA 
HETATM   17  H   UNL     1      -6.677   3.533  69.886  1.00  0.00     0.000 HD 
HETATM   18  C   UNL     1      -8.220   3.254  66.134  1.00  0.00    -0.094 C  
HETATM   19  O   UNL     1      -7.254   4.256  69.672  1.00  0.00    -0.049 OA 
HETATM   20  O   UNL     1      -7.420   2.973  64.979  1.00  0.00    -0.072 OA 
HETATM   21  C   UNL     1      -7.299   3.490  67.342  1.00  0.00    -0.063 C  
HETATM   22  H   UNL     1      -6.854   2.220  65.108  1.00  0.00     0.000 HD 
HETATM   23  O   UNL     1      -6.573   2.279  67.605  1.00  0.00    -0.034 OA 
HETATM   24  C   UNL     1      -8.110   3.921  68.572  1.00  0.00    -0.075 C  
HETATM   25  H   UNL     1      -6.004   2.425  68.352  1.00  0.00     0.000 HD 
BRANCH  15  26
HETATM   26  C   UNL     1     -10.127   4.257  64.785  1.00  0.00    -0.144 C  
HETATM   27  O   UNL     1     -10.385   2.859  64.623  1.00  0.00    -0.379 OA 
HETATM   28  H   UNL     1     -11.004   2.733  63.915  1.00  0.00     0.000 HD 
ENDBRANCH  15  26
ENDBRANCH  13  14
ENDBRANCH   6  13
BRANCH   6  29
HETATM   29  C   UNL     1      -9.646   7.143  69.877  1.00  0.00    -0.163 C  
HETATM   30  H   UNL     1     -11.575   7.393  70.300  1.00  0.00     0.000 HD 
HETATM   31  O   UNL     1     -10.971   7.579  69.591  1.00  0.00    -0.232 OA 
ENDBRANCH   6  29
ENDBRANCH   2   4
TORSDOF 5
ENDMDL
MODEL      212
REMARK 921   NORMALIZED FREE ENERGY PREDICTED BY IDOCK:   -2.16 KCAL/MOL
REMARK 922        TOTAL FREE ENERGY PREDICTED BY IDOCK:   -3.80 KCAL/MOL
REMARK 923 INTER-LIGAND FREE ENERGY PREDICTED BY IDOCK:   -3.63 KCAL/MOL
REMARK 924 INTRA-LIGAND FREE ENERGY PREDICTED BY IDOCK:   -0.17 KCAL/MOL
REMARK 927      BINDING AFFINITY PREDICTED BY RF-SCORE:    0.00 PKD
ROOT
HETATM    1  O   UNL     1      -6.244  10.947  67.373  1.00  0.00    -0.052 OA 
HETATM    2  C   UNL     1      -5.806   9.875  66.551  1.00  0.00    -0.055 C  
HETATM    3  H   UNL     1      -5.793  11.752  67.152  1.00  0.00     0.000 HD 
ENDROOT
BRANCH   2   4
HETATM    4  C   UNL     1      -6.532   8.580  66.906  1.00  0.00    -0.057 C  
HETATM    5  O   UNL     1      -6.958   8.634  68.280  1.00  0.00    -0.071 OA 
HETATM    6  C   UNL     1      -8.093   7.758  68.409  1.00  0.00    -0.124 C  
HETATM    7  H   UNL     1     -10.186   9.336  66.339  1.00  0.00     0.000 HD 
HETATM    8  O   UNL     1      -7.580   7.120  65.257  1.00  0.00    -0.089 OA 
HETATM    9  C   UNL     1      -8.874   8.005  67.090  1.00  0.00    -0.131 C  
HETATM   10  C   UNL     1      -7.778   8.284  66.061  1.00  0.00    -0.093 C  
HETATM   11  H   UNL     1      -8.351   6.937  64.734  1.00  0.00     0.000 HD 
HETATM   12  O   UNL     1      -9.708   9.184  67.147  1.00  0.00    -0.161 OA 
BRANCH   6  13
HETATM   13  O   UNL     1      -8.943   8.166  69.506  1.00  0.00    -0.148 OA 
BRANCH  13  14
HETATM   14  C   UNL     1     -10.261   7.603  69.493  1.00  0.00    -0.209 C  
HETATM   15  C   UNL     1      -9.929   6.500  71.579  1.00  0.00    -0.175 C  
HETATM   16  O   UNL     1     -10.308   6.361  70.198  1.00  0.00    -0.184 OA 
HETATM   17  H   UNL     1     -11.893  10.450  69.824  1.00  0.00     0.000 HD 
HETATM   18  C   UNL     1     -10.923   7.388  72.318  1.00  0.00    -0.254 C  
HETATM   19  O   UNL     1     -11.266   9.848  69.440  1.00  0.00    -0.221 OA 
HETATM   20  O   UNL     1     -10.560   7.583  73.691  1.00  0.00    -0.348 OA 
HETATM   21  C   UNL     1     -11.024   8.755  71.622  1.00  0.00    -0.321 C  
HETATM   22  H   UNL     1     -11.180   8.137  74.152  1.00  0.00     0.000 HD 
HETATM   23  O   UNL     1     -12.079   9.506  72.245  1.00  0.00    -0.248 OA 
HETATM   24  C   UNL     1     -11.285   8.586  70.120  1.00  0.00    -0.136 C  
HETATM   25  H   UNL     1     -12.142  10.351  71.815  1.00  0.00     0.000 HD 
BRANCH  15  26
HETATM   26  C   UNL     1      -9.838   5.094  72.176  1.00  0.00    -0.174 C  
HETATM   27  O   UNL     1     -10.973   4.861  73.017  1.00  0.00    -0.245 OA 
HETATM   28  H   UNL     1     -10.917   3.988  73.387  1.00  0.00     0.000 HD 
ENDBRANCH  15  26
ENDBRANCH  13  14
ENDBRANCH   6  13
BRANCH   6  29
HETATM   29  C   UNL     1      -7.593   6.289  68.510  1.00  0.00    -0.092 C  
HETATM   30  H   UNL     1      -6.125   5.267  69.385  1.00  0.00     0.000 HD 
HETATM   31  O   UNL     1      -6.431   6.164  69.323  1.00  0.00    -0.039 OA 
ENDBRANCH   6  29
ENDBRANCH   2   4
TORSDOF 5
ENDMDL
MODEL      213
REMARK 921   NORMALIZED FREE ENERGY PREDICTED BY IDOCK:   -2.12 KCAL/MOL
REMARK 922        TOTAL FREE ENERGY PREDICTED BY IDOCK:   -3.75 KCAL/MOL
REMARK 923 INTER-LIGAND FREE ENERGY PREDICTED BY IDOCK:   -2.70 KCAL/MOL
REMARK 924 INTRA-LIGAND FREE ENERGY PREDICTED BY IDOCK:   -1.05 KCAL/MOL
REMARK 927      BINDING AFFINITY PREDICTED BY RF-SCORE:    0.00 PKD
ROOT
HETATM    1  O   UNL     1     -10.136   3.558  67.421  1.00  0.00    -0.141 OA 
HETATM    2  C   UNL     1      -9.268   3.910  66.353  1.00  0.00    -0.166 C  
HETATM    3  H   UNL     1     -10.637   2.780  67.209  1.00  0.00     0.000 HD 
ENDROOT
BRANCH   2   4
HETATM    4  C   UNL     1      -8.462   5.161  66.694  1.00  0.00    -0.107 C  
HETATM    5  O   UNL     1      -8.820   5.614  68.012  1.00  0.00    -0.107 OA 
HETATM    6  C   UNL     1      -7.697   6.353  68.528  1.00  0.00    -0.104 C  
HETATM    7  H   UNL     1      -5.447   3.887  68.570  1.00  0.00     0.000 HD 
HETATM    8  O   UNL     1      -6.344   5.738  65.631  1.00  0.00    -0.039 OA 
HETATM    9  C   UNL     1      -6.481   5.528  68.030  1.00  0.00    -0.044 C  
HETATM   10  C   UNL     1      -6.940   4.974  66.681  1.00  0.00    -0.067 C  
HETATM   11  H   UNL     1      -5.402   5.621  65.623  1.00  0.00     0.000 HD 
HETATM   12  O   UNL     1      -6.191   4.392  68.875  1.00  0.00    -0.029 OA 
BRANCH   6  13
HETATM   13  O   UNL     1      -7.681   6.332  69.974  1.00  0.00    -0.096 OA 
BRANCH  13  14
HETATM   14  C   UNL     1      -8.039   7.569  70.603  1.00  0.00    -0.109 C  
HETATM   15  C   UNL     1      -9.277   6.468  72.315  1.00  0.00    -0.138 C  
HETATM   16  O   UNL     1      -9.293   7.469  71.282  1.00  0.00    -0.149 OA 
HETATM   17  H   UNL     1      -4.999   8.392  71.582  1.00  0.00     0.000 HD 
HETATM   18  C   UNL     1      -8.286   6.846  73.410  1.00  0.00    -0.116 C  
HETATM   19  O   UNL     1      -5.669   8.121  70.965  1.00  0.00    -0.033 OA 
HETATM   20  O   UNL     1      -8.213   5.854  74.442  1.00  0.00    -0.111 OA 
HETATM   21  C   UNL     1      -6.888   7.051  72.805  1.00  0.00    -0.069 C  
HETATM   22  H   UNL     1      -7.595   6.090  75.124  1.00  0.00     0.000 HD 
HETATM   23  O   UNL     1      -6.019   7.559  73.830  1.00  0.00    -0.062 OA 
HETATM   24  C   UNL     1      -6.945   8.012  71.609  1.00  0.00    -0.066 C  
HETATM   25  H   UNL     1      -5.155   7.685  73.456  1.00  0.00     0.000 HD 
BRANCH  15  26
HETATM   26  C   UNL     1     -10.708   6.325  72.840  1.00  0.00    -0.247 C  
HETATM   27  O   UNL     1     -11.239   7.621  73.130  1.00  0.00    -0.524 OA 
HETATM   28  H   UNL     1     -12.127   7.533  73.455  1.00  0.00     0.000 HD 
ENDBRANCH  15  26
ENDBRANCH  13  14
ENDBRANCH   6  13
BRANCH   6  29
HETATM   29  C   UNL     1      -7.706   7.784  67.918  1.00  0.00    -0.122 C  
HETATM   30  H   UNL     1      -6.421   9.072  67.109  1.00  0.00     0.000 HD 
HETATM   31  O   UNL     1      -6.416   8.198  67.481  1.00  0.00    -0.055 OA 
ENDBRANCH   6  29
ENDBRANCH   2   4
TORSDOF 5
ENDMDL
MODEL      214
REMARK 921   NORMALIZED FREE ENERGY PREDICTED BY IDOCK:   -1.89 KCAL/MOL
REMARK 922        TOTAL FREE ENERGY PREDICTED BY IDOCK:   -3.44 KCAL/MOL
REMARK 923 INTER-LIGAND FREE ENERGY PREDICTED BY IDOCK:   -2.61 KCAL/MOL
REMARK 924 INTRA-LIGAND FREE ENERGY PREDICTED BY IDOCK:   -0.83 KCAL/MOL
REMARK 927      BINDING AFFINITY PREDICTED BY RF-SCORE:    0.00 PKD
ROOT
HETATM    1  O   UNL     1      -5.125   4.362  67.161  1.00  0.00    -0.007 OA 
HETATM    2  C   UNL     1      -6.133   4.808  68.057  1.00  0.00    -0.031 C  
HETATM    3  H   UNL     1      -4.268   4.400  67.568  1.00  0.00     0.000 HD 
ENDROOT
BRANCH   2   4
HETATM    4  C   UNL     1      -7.512   4.746  67.404  1.00  0.00    -0.082 C  
HETATM    5  O   UNL     1      -8.431   5.562  68.153  1.00  0.00    -0.099 OA 
HETATM    6  C   UNL     1      -9.475   5.968  67.248  1.00  0.00    -0.114 C  
HETATM    7  H   UNL     1      -7.625   7.732  65.100  1.00  0.00     0.000 HD 
HETATM    8  O   UNL     1      -7.877   4.154  65.067  1.00  0.00    -0.087 OA 
HETATM    9  C   UNL     1      -8.703   6.248  65.931  1.00  0.00    -0.149 C  
HETATM   10  C   UNL     1      -7.562   5.231  65.950  1.00  0.00    -0.083 C  
HETATM   11  H   UNL     1      -7.907   4.454  64.167  1.00  0.00     0.000 HD 
HETATM   12  O   UNL     1      -8.097   7.560  65.907  1.00  0.00    -0.112 OA 
BRANCH   6  13
HETATM   13  O   UNL     1     -10.080   7.209  67.676  1.00  0.00    -0.157 OA 
BRANCH  13  14
HETATM   14  C   UNL     1      -9.640   7.690  68.953  1.00  0.00    -0.150 C  
HETATM   15  C   UNL     1      -9.070   9.830  68.073  1.00  0.00    -0.125 C  
HETATM   16  O   UNL     1      -8.621   8.683  68.817  1.00  0.00    -0.128 OA 
HETATM   17  H   UNL     1     -12.601   7.677  70.406  1.00  0.00     0.000 HD 
HETATM   18  C   UNL     1     -10.192  10.544  68.819  1.00  0.00    -0.190 C  
HETATM   19  O   UNL     1     -11.873   7.315  69.914  1.00  0.00    -0.001 OA 
HETATM   20  O   UNL     1     -10.693  11.672  68.094  1.00  0.00    -0.195 OA 
HETATM   21  C   UNL     1     -11.345   9.565  69.095  1.00  0.00     0.133 C  
HETATM   22  H   UNL     1     -11.393  12.117  68.559  1.00  0.00     0.000 HD 
HETATM   23  O   UNL     1     -12.309  10.222  69.933  1.00  0.00    -0.501 OA 
HETATM   24  C   UNL     1     -10.827   8.281  69.758  1.00  0.00    -0.185 C  
HETATM   25  H   UNL     1     -13.022   9.617  70.102  1.00  0.00     0.000 HD 
BRANCH  15  26
HETATM   26  C   UNL     1      -7.855  10.730  67.836  1.00  0.00    -0.109 C  
HETATM   27  O   UNL     1      -6.680  10.081  68.331  1.00  0.00    -0.055 OA 
HETATM   28  H   UNL     1      -5.925  10.639  68.184  1.00  0.00     0.000 HD 
ENDBRANCH  15  26
ENDBRANCH  13  14
ENDBRANCH   6  13
BRANCH   6  29
HETATM   29  C   UNL     1     -10.485   4.797  67.081  1.00  0.00    -0.002 C  
HETATM   30  H   UNL     1     -11.684   4.046  65.679  1.00  0.00     0.000 HD 
HETATM   31  O   UNL     1     -11.066   4.761  65.782  1.00  0.00    -0.183 OA 
ENDBRANCH   6  29
ENDBRANCH   2   4
TORSDOF 5
ENDMDL
MODEL      215
REMARK 921   NORMALIZED FREE ENERGY PREDICTED BY IDOCK:   -1.79 KCAL/MOL
REMARK 922        TOTAL FREE ENERGY PREDICTED BY IDOCK:   -3.32 KCAL/MOL
REMARK 923 INTER-LIGAND FREE ENERGY PREDICTED BY IDOCK:   -2.97 KCAL/MOL
REMARK 924 INTRA-LIGAND FREE ENERGY PREDICTED BY IDOCK:   -0.35 KCAL/MOL
REMARK 927      BINDING AFFINITY PREDICTED BY RF-SCORE:    0.00 PKD
ROOT
HETATM    1  O   UNL     1     -11.576   6.832  66.782  1.00  0.00    -0.655 OA 
HETATM    2  C   UNL     1     -10.405   7.628  66.679  1.00  0.00    -0.187 C  
HETATM    3  H   UNL     1     -11.938   6.647  65.924  1.00  0.00     0.000 HD 
ENDROOT
BRANCH   2   4
HETATM    4  C   UNL     1      -9.823   7.925  68.059  1.00  0.00    -0.165 C  
HETATM    5  O   UNL     1      -9.515   6.685  68.724  1.00  0.00    -0.131 OA 
HETATM    6  C   UNL     1      -8.473   6.961  69.678  1.00  0.00    -0.133 C  
HETATM    7  H   UNL     1      -6.084   7.921  67.552  1.00  0.00     0.000 HD 
HETATM    8  O   UNL     1      -8.762  10.038  68.654  1.00  0.00    -0.119 OA 
HETATM    9  C   UNL     1      -7.563   7.962  68.918  1.00  0.00    -0.100 C  
HETATM   10  C   UNL     1      -8.538   8.762  68.053  1.00  0.00    -0.134 C  
HETATM   11  H   UNL     1      -7.966  10.557  68.650  1.00  0.00     0.000 HD 
HETATM   12  O   UNL     1      -6.641   7.308  68.017  1.00  0.00    -0.046 OA 
BRANCH   6  13
HETATM   13  O   UNL     1      -7.691   5.775  69.950  1.00  0.00    -0.083 OA 
BRANCH  13  14
HETATM   14  C   UNL     1      -8.392   4.734  70.643  1.00  0.00    -0.096 C  
HETATM   15  C   UNL     1      -8.544   3.383  68.686  1.00  0.00    -0.091 C  
HETATM   16  O   UNL     1      -9.258   4.011  69.766  1.00  0.00    -0.109 OA 
HETATM   17  H   UNL     1      -5.893   3.833  72.599  1.00  0.00     0.000 HD 
HETATM   18  C   UNL     1      -7.585   2.326  69.222  1.00  0.00    -0.043 C  
HETATM   19  O   UNL     1      -6.504   4.437  72.193  1.00  0.00    -0.020 OA 
HETATM   20  O   UNL     1      -6.827   1.703  68.178  1.00  0.00    -0.032 OA 
HETATM   21  C   UNL     1      -6.622   2.958  70.240  1.00  0.00    -0.033 C  
HETATM   22  H   UNL     1      -6.229   1.044  68.512  1.00  0.00     0.000 HD 
HETATM   23  O   UNL     1      -5.843   1.912  70.840  1.00  0.00    -0.015 OA 
HETATM   24  C   UNL     1      -7.394   3.747  71.306  1.00  0.00    -0.040 C  
HETATM   25  H   UNL     1      -5.248   2.302  71.469  1.00  0.00     0.000 HD 
BRANCH  15  26
HETATM   26  C   UNL     1      -9.583   2.802  67.723  1.00  0.00    -0.005 C  
HETATM   27  O   UNL     1     -10.025   3.827  66.827  1.00  0.00    -0.370 OA 
HETATM   28  H   UNL     1     -10.669   3.466  66.230  1.00  0.00     0.000 HD 
ENDBRANCH  15  26
ENDBRANCH  13  14
ENDBRANCH   6  13
BRANCH   6  29
HETATM   29  C   UNL     1      -9.102   7.608  70.945  1.00  0.00    -0.149 C  
HETATM   30  H   UNL     1     -10.899   7.838  71.770  1.00  0.00     0.000 HD 
HETATM   31  O   UNL     1     -10.515   7.443  70.996  1.00  0.00    -0.214 OA 
ENDBRANCH   6  29
ENDBRANCH   2   4
TORSDOF 5
ENDMDL
MODEL      216
REMARK 921   NORMALIZED FREE ENERGY PREDICTED BY IDOCK:   -1.50 KCAL/MOL
REMARK 922        TOTAL FREE ENERGY PREDICTED BY IDOCK:   -2.95 KCAL/MOL
REMARK 923 INTER-LIGAND FREE ENERGY PREDICTED BY IDOCK:   -2.94 KCAL/MOL
REMARK 924 INTRA-LIGAND FREE ENERGY PREDICTED BY IDOCK:   -0.01 KCAL/MOL
REMARK 927      BINDING AFFINITY PREDICTED BY RF-SCORE:    0.00 PKD
ROOT
HETATM    1  O   UNL     1     -10.139   2.989  71.674  1.00  0.00    -0.139 OA 
HETATM    2  C   UNL     1      -9.180   2.273  70.909  1.00  0.00    -0.122 C  
HETATM    3  H   UNL     1     -10.498   2.444  72.364  1.00  0.00     0.000 HD 
ENDROOT
BRANCH   2   4
HETATM    4  C   UNL     1      -8.602   3.148  69.800  1.00  0.00    -0.065 C  
HETATM    5  O   UNL     1      -9.582   4.125  69.404  1.00  0.00    -0.178 OA 
HETATM    6  C   UNL     1      -8.867   5.248  68.855  1.00  0.00    -0.092 C  
HETATM    7  H   UNL     1      -7.167   6.148  71.585  1.00  0.00     0.000 HD 
HETATM    8  O   UNL     1      -6.212   3.450  69.421  1.00  0.00    -0.027 OA 
HETATM    9  C   UNL     1      -7.633   5.363  69.789  1.00  0.00    -0.070 C  
HETATM   10  C   UNL     1      -7.329   3.917  70.178  1.00  0.00    -0.042 C  
HETATM   11  H   UNL     1      -5.424   3.925  69.656  1.00  0.00     0.000 HD 
HETATM   12  O   UNL     1      -7.923   6.076  71.012  1.00  0.00    -0.111 OA 
BRANCH   6  13
HETATM   13  O   UNL     1      -9.634   6.467  68.986  1.00  0.00    -0.132 OA 
BRANCH  13  14
HETATM   14  C   UNL     1      -8.870   7.628  69.339  1.00  0.00    -0.139 C  
HETATM   15  C   UNL     1      -8.965   8.498  67.122  1.00  0.00    -0.130 C  
HETATM   16  O   UNL     1      -8.122   8.121  68.226  1.00  0.00    -0.124 OA 
HETATM   17  H   UNL     1     -11.134   8.983  71.318  1.00  0.00     0.000 HD 
HETATM   18  C   UNL     1      -9.868   9.663  67.513  1.00  0.00    -0.169 C  
HETATM   19  O   UNL     1     -10.567   8.295  70.991  1.00  0.00    -0.199 OA 
HETATM   20  O   UNL     1     -10.751  10.045  66.452  1.00  0.00    -0.118 OA 
HETATM   21  C   UNL     1     -10.697   9.291  68.753  1.00  0.00    -0.154 C  
HETATM   22  H   UNL     1     -11.313  10.771  66.696  1.00  0.00     0.000 HD 
HETATM   23  O   UNL     1     -11.413  10.457  69.188  1.00  0.00    -0.324 OA 
HETATM   24  C   UNL     1      -9.796   8.753  69.873  1.00  0.00    -0.184 C  
HETATM   25  H   UNL     1     -11.926  10.228  69.954  1.00  0.00     0.000 HD 
BRANCH  15  26
HETATM   26  C   UNL     1      -8.053   8.831  65.939  1.00  0.00    -0.110 C  
HETATM   27  O   UNL     1      -8.069  10.244  65.710  1.00  0.00    -0.136 OA 
HETATM   28  H   UNL     1      -7.503  10.451  64.976  1.00  0.00     0.000 HD 
ENDBRANCH  15  26
ENDBRANCH  13  14
ENDBRANCH   6  13
BRANCH   6  29
HETATM   29  C   UNL     1      -8.449   4.918  67.393  1.00  0.00    -0.105 C  
HETATM   30  H   UNL     1      -6.843   5.076  66.227  1.00  0.00     0.000 HD 
HETATM   31  O   UNL     1      -7.098   5.277  67.120  1.00  0.00    -0.067 OA 
ENDBRANCH   6  29
ENDBRANCH   2   4
TORSDOF 5
ENDMDL
MODEL      217
REMARK 921   NORMALIZED FREE ENERGY PREDICTED BY IDOCK:   -1.30 KCAL/MOL
REMARK 922        TOTAL FREE ENERGY PREDICTED BY IDOCK:   -2.69 KCAL/MOL
REMARK 923 INTER-LIGAND FREE ENERGY PREDICTED BY IDOCK:   -4.92 KCAL/MOL
REMARK 924 INTRA-LIGAND FREE ENERGY PREDICTED BY IDOCK:    2.23 KCAL/MOL
REMARK 927      BINDING AFFINITY PREDICTED BY RF-SCORE:    0.00 PKD
ROOT
HETATM    1  O   UNL     1      -9.049  13.684  68.926  1.00  0.00    -0.389 OA 
HETATM    2  C   UNL     1      -9.555  14.117  67.672  1.00  0.00    -0.216 C  
HETATM    3  H   UNL     1      -8.873  14.424  69.495  1.00  0.00     0.000 HD 
ENDROOT
BRANCH   2   4
HETATM    4  C   UNL     1      -9.838  12.927  66.757  1.00  0.00    -0.241 C  
HETATM    5  O   UNL     1      -9.031  11.808  67.167  1.00  0.00    -0.166 OA 
HETATM    6  C   UNL     1      -9.710  10.613  66.739  1.00  0.00    -0.185 C  
HETATM    7  H   UNL     1     -12.495  10.939  68.552  1.00  0.00     0.000 HD 
HETATM    8  O   UNL     1     -11.891  12.670  65.468  1.00  0.00    -0.385 OA 
HETATM    9  C   UNL     1     -11.202  10.947  67.008  1.00  0.00    -0.137 C  
HETATM   10  C   UNL     1     -11.295  12.450  66.747  1.00  0.00    -0.335 C  
HETATM   11  H   UNL     1     -12.794  12.375  65.462  1.00  0.00     0.000 HD 
HETATM   12  O   UNL     1     -11.582  10.735  68.386  1.00  0.00    -0.350 OA 
BRANCH   6  13
HETATM   13  O   UNL     1      -9.354   9.486  67.571  1.00  0.00    -0.126 OA 
BRANCH  13  14
HETATM   14  C   UNL     1     -10.460   8.822  68.197  1.00  0.00    -0.191 C  
HETATM   15  C   UNL     1      -9.855   6.710  67.275  1.00  0.00    -0.146 C  
HETATM   16  O   UNL     1     -10.893   7.693  67.436  1.00  0.00    -0.258 OA 
HETATM   17  H   UNL     1      -9.410   9.182  71.303  1.00  0.00     0.000 HD 
HETATM   18  C   UNL     1      -9.462   6.122  68.625  1.00  0.00    -0.124 C  
HETATM   19  O   UNL     1      -9.640   9.465  70.426  1.00  0.00    -0.230 OA 
HETATM   20  O   UNL     1      -8.403   5.164  68.512  1.00  0.00    -0.089 OA 
HETATM   21  C   UNL     1      -9.029   7.246  69.580  1.00  0.00    -0.141 C  
HETATM   22  H   UNL     1      -8.158   4.798  69.355  1.00  0.00     0.000 HD 
HETATM   23  O   UNL     1      -8.820   6.680  70.884  1.00  0.00    -0.144 OA 
HETATM   24  C   UNL     1     -10.084   8.359  69.630  1.00  0.00    -0.199 C  
HETATM   25  H   UNL     1      -8.552   7.374  71.474  1.00  0.00     0.000 HD 
BRANCH  15  26
HETATM   26  C   UNL     1     -10.372   5.649  66.299  1.00  0.00    -0.121 C  
HETATM   27  O   UNL     1     -10.011   4.350  66.775  1.00  0.00    -0.216 OA 
HETATM   28  H   UNL     1     -10.332   3.691  66.171  1.00  0.00     0.000 HD 
ENDBRANCH  15  26
ENDBRANCH  13  14
ENDBRANCH   6  13
BRANCH   6  29
HETATM   29  C   UNL     1      -9.439  10.390  65.223  1.00  0.00    -0.237 C  
HETATM   30  H   UNL     1     -10.168  10.990  63.470  1.00  0.00     0.000 HD 
HETATM   31  O   UNL     1     -10.333  11.127  64.396  1.00  0.00    -0.298 OA 
ENDBRANCH   6  29
ENDBRANCH   2   4
TORSDOF 5
ENDMDL
MODEL      218
REMARK 921   NORMALIZED FREE ENERGY PREDICTED BY IDOCK:   -1.03 KCAL/MOL
REMARK 922        TOTAL FREE ENERGY PREDICTED BY IDOCK:   -2.34 KCAL/MOL
REMARK 923 INTER-LIGAND FREE ENERGY PREDICTED BY IDOCK:   -2.11 KCAL/MOL
REMARK 924 INTRA-LIGAND FREE ENERGY PREDICTED BY IDOCK:   -0.23 KCAL/MOL
REMARK 927      BINDING AFFINITY PREDICTED BY RF-SCORE:    0.00 PKD
ROOT
HETATM    1  O   UNL     1      -7.946  11.959  63.067  1.00  0.00     0.307 OA 
HETATM    2  C   UNL     1      -8.975  11.052  63.434  1.00  0.00    -0.139 C  
HETATM    3  H   UNL     1      -7.473  11.646  62.305  1.00  0.00     0.000 HD 
ENDROOT
BRANCH   2   4
HETATM    4  C   UNL     1      -9.736  11.556  64.659  1.00  0.00    -0.212 C  
HETATM    5  O   UNL     1      -9.725  10.538  65.678  1.00  0.00    -0.204 OA 
HETATM    6  C   UNL     1      -9.880  11.203  66.945  1.00  0.00    -0.194 C  
HETATM    7  H   UNL     1      -7.084  13.027  66.904  1.00  0.00     0.000 HD 
HETATM    8  O   UNL     1     -10.088  13.916  65.157  1.00  0.00    -0.471 OA 
HETATM    9  C   UNL     1      -9.018  12.482  66.774  1.00  0.00    -0.198 C  
HETATM   10  C   UNL     1      -9.169  12.832  65.293  1.00  0.00     0.557 C  
HETATM   11  H   UNL     1      -9.737  14.707  65.550  1.00  0.00     0.000 HD 
HETATM   12  O   UNL     1      -7.612  12.244  67.009  1.00  0.00    -0.143 OA 
BRANCH   6  13
HETATM   13  O   UNL     1      -9.301  10.422  68.016  1.00  0.00    -0.138 OA 
BRANCH  13  14
HETATM   14  C   UNL     1      -9.344  11.041  69.308  1.00  0.00     0.066 C  
HETATM   15  C   UNL     1     -10.486   9.188  70.279  1.00  0.00    -0.218 C  
HETATM   16  O   UNL     1     -10.481  10.611  70.059  1.00  0.00    -0.186 OA 
HETATM   17  H   UNL     1      -6.096  10.952  69.878  1.00  0.00     0.000 HD 
HETATM   18  C   UNL     1      -9.294   8.776  71.135  1.00  0.00    -0.233 C  
HETATM   19  O   UNL     1      -6.886  11.143  69.388  1.00  0.00    -0.102 OA 
HETATM   20  O   UNL     1      -9.242   7.360  71.346  1.00  0.00    -0.142 OA 
HETATM   21  C   UNL     1      -7.987   9.238  70.472  1.00  0.00    -0.167 C  
HETATM   22  H   UNL     1      -8.499   7.103  71.880  1.00  0.00     0.000 HD 
HETATM   23  O   UNL     1      -6.901   8.977  71.375  1.00  0.00    -0.090 OA 
HETATM   24  C   UNL     1      -8.052  10.728  70.110  1.00  0.00     0.923 C  
HETATM   25  H   UNL     1      -6.093   9.262  70.965  1.00  0.00     0.000 HD 
BRANCH  15  26
HETATM   26  C   UNL     1     -11.827   8.827  70.923  1.00  0.00    -0.230 C  
HETATM   27  O   UNL     1     -11.726   8.974  72.342  1.00  0.00    -0.290 OA 
HETATM   28  H   UNL     1     -12.558   8.750  72.742  1.00  0.00     0.000 HD 
ENDBRANCH  15  26
ENDBRANCH  13  14
ENDBRANCH   6  13
BRANCH   6  29
HETATM   29  C   UNL     1     -11.382  11.550  67.157  1.00  0.00    -0.284 C  
HETATM   30  H   UNL     1     -12.536  13.165  67.309  1.00  0.00     0.000 HD 
HETATM   31  O   UNL     1     -11.618  12.953  67.179  1.00  0.00    -0.322 OA 
ENDBRANCH   6  29
ENDBRANCH   2   4
TORSDOF 5
ENDMDL
MODEL      219
REMARK 921   NORMALIZED FREE ENERGY PREDICTED BY IDOCK:   -0.30 KCAL/MOL
REMARK 922        TOTAL FREE ENERGY PREDICTED BY IDOCK:   -1.40 KCAL/MOL
REMARK 923 INTER-LIGAND FREE ENERGY PREDICTED BY IDOCK:   -2.30 KCAL/MOL
REMARK 924 INTRA-LIGAND FREE ENERGY PREDICTED BY IDOCK:    0.90 KCAL/MOL
REMARK 927      BINDING AFFINITY PREDICTED BY RF-SCORE:    0.00 PKD
ROOT
HETATM    1  O   UNL     1      -7.312  16.247  65.517  1.00  0.00     1.131 OA 
HETATM    2  C   UNL     1      -6.889  17.021  66.630  1.00  0.00    -0.244 C  
HETATM    3  H   UNL     1      -7.462  16.797  64.758  1.00  0.00     0.000 HD 
ENDROOT
BRANCH   2   4
HETATM    4  C   UNL     1      -6.646  16.137  67.851  1.00  0.00    -0.139 C  
HETATM    5  O   UNL     1      -7.757  16.262  68.758  1.00  0.00    -0.176 OA 
HETATM    6  C   UNL     1      -7.812  15.051  69.534  1.00  0.00    -0.149 C  
HETATM    7  H   UNL     1      -8.398  12.891  67.057  1.00  0.00     0.000 HD 
HETATM    8  O   UNL     1      -5.156  14.207  67.850  1.00  0.00    -0.175 OA 
HETATM    9  C   UNL     1      -7.467  13.955  68.491  1.00  0.00    -0.122 C  
HETATM   10  C   UNL     1      -6.482  14.643  67.546  1.00  0.00    -0.052 C  
HETATM   11  H   UNL     1      -5.055  13.282  67.660  1.00  0.00     0.000 HD 
HETATM   12  O   UNL     1      -8.609  13.562  67.696  1.00  0.00    -0.161 OA 
BRANCH   6  13
HETATM   13  O   UNL     1      -9.154  14.799  70.011  1.00  0.00     0.299 OA 
BRANCH  13  14
HETATM   14  C   UNL     1     -10.053  15.911  69.905  1.00  0.00    -0.190 C  
HETATM   15  C   UNL     1     -10.801  15.242  67.744  1.00  0.00    -0.295 C  
HETATM   16  O   UNL     1     -10.247  16.301  68.544  1.00  0.00    -0.229 OA 
HETATM   17  H   UNL     1     -12.114  14.961  72.298  1.00  0.00     0.000 HD 
HETATM   18  C   UNL     1     -12.198  14.879  68.233  1.00  0.00     0.020 C  
HETATM   19  O   UNL     1     -11.273  15.170  71.909  1.00  0.00    -0.397 OA 
HETATM   20  O   UNL     1     -12.772  13.800  67.485  1.00  0.00    -0.208 OA 
HETATM   21  C   UNL     1     -12.151  14.494  69.720  1.00  0.00    -0.331 C  
HETATM   22  H   UNL     1     -13.643  13.574  67.789  1.00  0.00     0.000 HD 
HETATM   23  O   UNL     1     -13.497  14.314  70.187  1.00  0.00    -0.227 OA 
HETATM   24  C   UNL     1     -11.426  15.570  70.541  1.00  0.00    -0.347 C  
HETATM   25  H   UNL     1     -13.468  14.076  71.106  1.00  0.00     0.000 HD 
BRANCH  15  26
HETATM   26  C   UNL     1     -10.790  15.711  66.287  1.00  0.00    -0.262 C  
HETATM   27  O   UNL     1     -10.764  17.141  66.249  1.00  0.00    -0.221 OA 
HETATM   28  H   UNL     1     -10.757  17.432  65.345  1.00  0.00     0.000 HD 
ENDBRANCH  15  26
ENDBRANCH  13  14
ENDBRANCH   6  13
BRANCH   6  29
HETATM   29  C   UNL     1      -6.744  15.121  70.663  1.00  0.00     0.331 C  
HETATM   30  H   UNL     1      -5.142  16.204  71.140  1.00  0.00     0.000 HD 
HETATM   31  O   UNL     1      -5.795  16.161  70.451  1.00  0.00    -0.157 OA 
ENDBRANCH   6  29
ENDBRANCH   2   4
TORSDOF 5
ENDMDL
MODEL      220
REMARK 921   NORMALIZED FREE ENERGY PREDICTED BY IDOCK:   -0.09 KCAL/MOL
REMARK 922        TOTAL FREE ENERGY PREDICTED BY IDOCK:   -1.12 KCAL/MOL
REMARK 923 INTER-LIGAND FREE ENERGY PREDICTED BY IDOCK:   -1.28 KCAL/MOL
REMARK 924 INTRA-LIGAND FREE ENERGY PREDICTED BY IDOCK:    0.16 KCAL/MOL
REMARK 927      BINDING AFFINITY PREDICTED BY RF-SCORE:    0.00 PKD
ROOT
HETATM    1  O   UNL     1      -5.480  19.670  66.776  1.00  0.00    -0.167 OA 
HETATM    2  C   UNL     1      -6.288  18.533  67.042  1.00  0.00    -0.178 C  
HETATM    3  H   UNL     1      -4.657  19.618  67.246  1.00  0.00     0.000 HD 
ENDROOT
BRANCH   2   4
HETATM    4  C   UNL     1      -7.612  18.615  66.285  1.00  0.00    -0.263 C  
HETATM    5  O   UNL     1      -8.324  17.373  66.436  1.00  0.00    -0.252 OA 
HETATM    6  C   UNL     1      -9.725  17.661  66.267  1.00  0.00    -0.263 C  
HETATM    7  H   UNL     1     -10.134  19.715  68.868  1.00  0.00     0.000 HD 
HETATM    8  O   UNL     1      -8.723  20.712  65.724  1.00  0.00    -0.348 OA 
HETATM    9  C   UNL     1      -9.888  19.023  66.992  1.00  0.00    -0.322 C  
HETATM   10  C   UNL     1      -8.555  19.732  66.749  1.00  0.00    -0.327 C  
HETATM   11  H   UNL     1      -9.306  21.403  66.011  1.00  0.00     0.000 HD 
HETATM   12  O   UNL     1     -10.034  18.881  68.423  1.00  0.00    -0.351 OA 
BRANCH   6  13
HETATM   13  O   UNL     1     -10.543  16.692  66.961  1.00  0.00    -0.311 OA 
BRANCH  13  14
HETATM   14  C   UNL     1     -10.318  15.327  66.583  1.00  0.00    -0.280 C  
HETATM   15  C   UNL     1      -8.900  14.927  68.456  1.00  0.00    -0.174 C  
HETATM   16  O   UNL     1      -9.040  14.864  67.026  1.00  0.00    -0.211 OA 
HETATM   17  H   UNL     1     -13.402  14.278  67.096  1.00  0.00     0.000 HD 
HETATM   18  C   UNL     1      -9.894  13.989  69.132  1.00  0.00     0.121 C  
HETATM   19  O   UNL     1     -12.724  14.841  66.741  1.00  0.00     0.261 OA 
HETATM   20  O   UNL     1      -9.812  14.050  70.561  1.00  0.00     1.334 OA 
HETATM   21  C   UNL     1     -11.325  14.335  68.691  1.00  0.00    -0.275 C  
HETATM   22  H   UNL     1     -10.432  13.465  70.982  1.00  0.00     0.000 HD 
HETATM   23  O   UNL     1     -12.217  13.338  69.216  1.00  0.00    -0.268 OA 
HETATM   24  C   UNL     1     -11.425  14.407  67.161  1.00  0.00    -0.362 C  
HETATM   25  H   UNL     1     -13.101  13.552  68.944  1.00  0.00     0.000 HD 
BRANCH  15  26
HETATM   26  C   UNL     1      -7.446  14.586  68.793  1.00  0.00    -0.132 C  
HETATM   27  O   UNL     1      -7.407  13.799  69.987  1.00  0.00    -0.157 OA 
HETATM   28  H   UNL     1      -6.505  13.587  70.195  1.00  0.00     0.000 HD 
ENDBRANCH  15  26
ENDBRANCH  13  14
ENDBRANCH   6  13
BRANCH   6  29
HETATM   29  C   UNL     1     -10.039  17.781  64.748  1.00  0.00     2.702 C  
HETATM   30  H   UNL     1     -11.530  17.370  63.494  1.00  0.00     0.000 HD 
HETATM   31  O   UNL     1     -11.338  17.297  64.421  1.00  0.00    -1.052 OA 
ENDBRANCH   6  29
ENDBRANCH   2   4
TORSDOF 5
ENDMDL
MODEL      221
REMARK 921   NORMALIZED FREE ENERGY PREDICTED BY IDOCK:    1.30 KCAL/MOL
REMARK 922        TOTAL FREE ENERGY PREDICTED BY IDOCK:    0.67 KCAL/MOL
REMARK 923 INTER-LIGAND FREE ENERGY PREDICTED BY IDOCK:    1.26 KCAL/MOL
REMARK 924 INTRA-LIGAND FREE ENERGY PREDICTED BY IDOCK:   -0.59 KCAL/MOL
REMARK 927      BINDING AFFINITY PREDICTED BY RF-SCORE:    0.00 PKD
ROOT
HETATM    1  O   UNL     1      -8.302  11.659  62.716  1.00  0.00    -0.556 OA 
HETATM    2  C   UNL     1      -9.558  11.048  62.459  1.00  0.00    -0.175 C  
HETATM    3  H   UNL     1      -7.653  11.379  62.083  1.00  0.00     0.000 HD 
ENDROOT
BRANCH   2   4
HETATM    4  C   UNL     1     -10.604  11.499  63.477  1.00  0.00    -0.423 C  
HETATM    5  O   UNL     1     -10.679  10.534  64.542  1.00  0.00    -0.139 OA 
HETATM    6  C   UNL     1     -11.164  11.224  65.709  1.00  0.00    -0.014 C  
HETATM    7  H   UNL     1      -8.652  13.390  66.094  1.00  0.00     0.000 HD 
HETATM    8  O   UNL     1     -11.326  13.813  63.740  1.00  0.00    -0.575 OA 
HETATM    9  C   UNL     1     -10.442  12.596  65.625  1.00  0.00    -0.275 C  
HETATM   10  C   UNL     1     -10.331  12.863  64.124  1.00  0.00    -0.361 C  
HETATM   11  H   UNL     1     -11.157  14.657  64.141  1.00  0.00     0.000 HD 
HETATM   12  O   UNL     1      -9.094  12.551  66.145  1.00  0.00    -0.142 OA 
BRANCH   6  13
HETATM   13  O   UNL     1     -10.725  10.569  66.921  1.00  0.00    -0.253 OA 
BRANCH  13  14
HETATM   14  C   UNL     1     -11.757   9.898  67.655  1.00  0.00     1.435 C  
HETATM   15  C   UNL     1     -10.195   8.498  68.786  1.00  0.00    -0.200 C  
HETATM   16  O   UNL     1     -11.385   8.557  67.978  1.00  0.00     0.452 OA 
HETATM   17  H   UNL     1     -12.670  12.490  69.479  1.00  0.00     0.000 HD 
HETATM   18  C   UNL     1     -10.436   9.157  70.139  1.00  0.00    -0.218 C  
HETATM   19  O   UNL     1     -12.467  12.020  68.679  1.00  0.00    -0.097 OA 
HETATM   20  O   UNL     1      -9.263   9.153  70.961  1.00  0.00    -0.244 OA 
HETATM   21  C   UNL     1     -10.911  10.605  69.941  1.00  0.00    -0.241 C  
HETATM   22  H   UNL     1      -9.413   9.563  71.805  1.00  0.00     0.000 HD 
HETATM   23  O   UNL     1     -11.279  11.143  71.221  1.00  0.00     0.385 OA 
HETATM   24  C   UNL     1     -12.090  10.666  68.961  1.00  0.00    -0.012 C  
HETATM   25  H   UNL     1     -11.572  12.038  71.099  1.00  0.00     0.000 HD 
BRANCH  15  26
HETATM   26  C   UNL     1      -9.795   7.026  68.910  1.00  0.00    -0.150 C  
HETATM   27  O   UNL     1     -10.735   6.348  69.749  1.00  0.00    -0.228 OA 
HETATM   28  H   UNL     1     -10.487   5.434  69.826  1.00  0.00     0.000 HD 
ENDBRANCH  15  26
ENDBRANCH  13  14
ENDBRANCH   6  13
BRANCH   6  29
HETATM   29  C   UNL     1     -12.708  11.383  65.600  1.00  0.00     3.498 C  
HETATM   30  H   UNL     1     -14.058  12.845  65.523  1.00  0.00     0.000 HD 
HETATM   31  O   UNL     1     -13.115  12.747  65.588  1.00  0.00    -0.203 OA 
ENDBRANCH   6  29
ENDBRANCH   2   4
TORSDOF 5
ENDMDL
MODEL      222
REMARK 921   NORMALIZED FREE ENERGY PREDICTED BY IDOCK:    1.53 KCAL/MOL
REMARK 922        TOTAL FREE ENERGY PREDICTED BY IDOCK:    0.97 KCAL/MOL
REMARK 923 INTER-LIGAND FREE ENERGY PREDICTED BY IDOCK:   -2.90 KCAL/MOL
REMARK 924 INTRA-LIGAND FREE ENERGY PREDICTED BY IDOCK:    3.88 KCAL/MOL
REMARK 927      BINDING AFFINITY PREDICTED BY RF-SCORE:    0.00 PKD
ROOT
HETATM    1  O   UNL     1      -9.378  18.195  68.127  1.00  0.00    -0.272 OA 
HETATM    2  C   UNL     1     -10.792  18.187  67.990  1.00  0.00    -0.166 C  
HETATM    3  H   UNL     1      -9.040  19.082  68.105  1.00  0.00     0.000 HD 
ENDROOT
BRANCH   2   4
HETATM    4  C   UNL     1     -11.337  16.761  68.024  1.00  0.00     0.009 C  
HETATM    5  O   UNL     1     -10.301  15.845  67.624  1.00  0.00    -0.267 OA 
HETATM    6  C   UNL     1     -10.606  14.570  68.218  1.00  0.00    -0.241 C  
HETATM    7  H   UNL     1     -10.391  15.448  71.433  1.00  0.00     0.000 HD 
HETATM    8  O   UNL     1     -13.255  16.078  69.366  1.00  0.00     0.096 OA 
HETATM    9  C   UNL     1     -11.133  14.961  69.625  1.00  0.00    -0.276 C  
HETATM   10  C   UNL     1     -11.843  16.295  69.395  1.00  0.00    -0.021 C  
HETATM   11  H   UNL     1     -13.568  15.789  70.215  1.00  0.00     0.000 HD 
HETATM   12  O   UNL     1     -10.069  15.208  70.571  1.00  0.00    -0.014 OA 
BRANCH   6  13
HETATM   13  O   UNL     1      -9.408  13.781  68.400  1.00  0.00    -0.203 OA 
BRANCH  13  14
HETATM   14  C   UNL     1      -8.741  13.405  67.188  1.00  0.00    -0.215 C  
HETATM   15  C   UNL     1      -8.774  15.634  66.348  1.00  0.00    -0.318 C  
HETATM   16  O   UNL     1      -9.108  14.257  66.101  1.00  0.00    -0.148 OA 
HETATM   17  H   UNL     1      -5.850  12.628  68.573  1.00  0.00     0.000 HD 
HETATM   18  C   UNL     1      -7.264  15.806  66.466  1.00  0.00     0.483 C  
HETATM   19  O   UNL     1      -6.793  12.603  68.459  1.00  0.00    -0.077 OA 
HETATM   20  O   UNL     1      -6.892  17.160  66.749  1.00  0.00    -0.178 OA 
HETATM   21  C   UNL     1      -6.716  14.888  67.570  1.00  0.00    -0.139 C  
HETATM   22  H   UNL     1      -5.950  17.266  66.822  1.00  0.00     0.000 HD 
HETATM   23  O   UNL     1      -5.281  14.954  67.547  1.00  0.00    -0.331 OA 
HETATM   24  C   UNL     1      -7.201  13.445  67.374  1.00  0.00    -0.103 C  
HETATM   25  H   UNL     1      -4.943  14.387  68.230  1.00  0.00     0.000 HD 
BRANCH  15  26
HETATM   26  C   UNL     1      -9.375  16.465  65.211  1.00  0.00     0.853 C  
HETATM   27  O   UNL     1     -10.498  15.772  64.659  1.00  0.00    -0.650 OA 
HETATM   28  H   UNL     1     -10.871  16.287  63.953  1.00  0.00     0.000 HD 
ENDBRANCH  15  26
ENDBRANCH  13  14
ENDBRANCH   6  13
BRANCH   6  29
HETATM   29  C   UNL     1     -11.705  13.865  67.372  1.00  0.00    -0.389 C  
HETATM   30  H   UNL     1     -12.796  12.200  67.429  1.00  0.00     0.000 HD 
HETATM   31  O   UNL     1     -12.125  12.632  67.946  1.00  0.00    -0.334 OA 
ENDBRANCH   6  29
ENDBRANCH   2   4
TORSDOF 5
ENDMDL
MODEL      223
REMARK 921   NORMALIZED FREE ENERGY PREDICTED BY IDOCK:    2.08 KCAL/MOL
REMARK 922        TOTAL FREE ENERGY PREDICTED BY IDOCK:    1.68 KCAL/MOL
REMARK 923 INTER-LIGAND FREE ENERGY PREDICTED BY IDOCK:   -0.33 KCAL/MOL
REMARK 924 INTRA-LIGAND FREE ENERGY PREDICTED BY IDOCK:    2.02 KCAL/MOL
REMARK 927      BINDING AFFINITY PREDICTED BY RF-SCORE:    0.00 PKD
ROOT
HETATM    1  O   UNL     1     -12.510  13.535  72.795  1.00  0.00     0.115 OA 
HETATM    2  C   UNL     1     -11.578  14.555  72.465  1.00  0.00     0.489 C  
HETATM    3  H   UNL     1     -12.492  13.348  73.726  1.00  0.00     0.000 HD 
ENDROOT
BRANCH   2   4
HETATM    4  C   UNL     1     -11.607  14.857  70.968  1.00  0.00    -0.298 C  
HETATM    5  O   UNL     1     -10.757  15.987  70.694  1.00  0.00    -0.229 OA 
HETATM    6  C   UNL     1     -10.330  15.876  69.324  1.00  0.00    -0.249 C  
HETATM    7  H   UNL     1      -8.640  13.006  69.551  1.00  0.00     0.000 HD 
HETATM    8  O   UNL     1     -12.210  13.217  69.267  1.00  0.00    -0.268 OA 
HETATM    9  C   UNL     1     -10.084  14.353  69.159  1.00  0.00    -0.098 C  
HETATM   10  C   UNL     1     -11.133  13.710  70.067  1.00  0.00     0.238 C  
HETATM   11  H   UNL     1     -11.916  12.507  68.709  1.00  0.00     0.000 HD 
HETATM   12  O   UNL     1      -8.790  13.939  69.652  1.00  0.00     0.763 OA 
BRANCH   6  13
HETATM   13  O   UNL     1      -9.068  16.551  69.116  1.00  0.00    -0.254 OA 
BRANCH  13  14
HETATM   14  C   UNL     1      -8.069  15.773  68.444  1.00  0.00    -0.143 C  
HETATM   15  C   UNL     1      -8.695  16.618  66.305  1.00  0.00    -0.324 C  
HETATM   16  O   UNL     1      -8.468  15.448  67.111  1.00  0.00    -0.181 OA 
HETATM   17  H   UNL     1      -5.456  17.345  69.699  1.00  0.00     0.000 HD 
HETATM   18  C   UNL     1      -7.401  17.404  66.128  1.00  0.00    -0.296 C  
HETATM   19  O   UNL     1      -6.283  16.880  69.724  1.00  0.00    -0.229 OA 
HETATM   20  O   UNL     1      -7.592  18.599  65.362  1.00  0.00    -0.433 OA 
HETATM   21  C   UNL     1      -6.817  17.771  67.502  1.00  0.00    -0.176 C  
HETATM   22  H   UNL     1      -6.785  19.089  65.252  1.00  0.00     0.000 HD 
HETATM   23  O   UNL     1      -5.526  18.367  67.304  1.00  0.00    -0.137 OA 
HETATM   24  C   UNL     1      -6.717  16.533  68.403  1.00  0.00    -0.143 C  
HETATM   25  H   UNL     1      -5.165  18.595  68.153  1.00  0.00     0.000 HD 
BRANCH  15  26
HETATM   26  C   UNL     1      -9.288  16.153  64.973  1.00  0.00     1.459 C  
HETATM   27  O   UNL     1     -10.715  16.235  65.035  1.00  0.00    -0.600 OA 
HETATM   28  H   UNL     1     -11.084  15.947  64.208  1.00  0.00     0.000 HD 
ENDBRANCH  15  26
ENDBRANCH  13  14
ENDBRANCH   6  13
BRANCH   6  29
HETATM   29  C   UNL     1     -11.473  16.375  68.394  1.00  0.00    -0.181 C  
HETATM   30  H   UNL     1     -13.420  16.778  68.502  1.00  0.00     0.000 HD 
HETATM   31  O   UNL     1     -12.722  16.474  69.070  1.00  0.00     0.844 OA 
ENDBRANCH   6  29
ENDBRANCH   2   4
TORSDOF 5
ENDMDL
MODEL      224
REMARK 921   NORMALIZED FREE ENERGY PREDICTED BY IDOCK:    3.56 KCAL/MOL
REMARK 922        TOTAL FREE ENERGY PREDICTED BY IDOCK:    3.59 KCAL/MOL
REMARK 923 INTER-LIGAND FREE ENERGY PREDICTED BY IDOCK:   -2.99 KCAL/MOL
REMARK 924 INTRA-LIGAND FREE ENERGY PREDICTED BY IDOCK:    6.59 KCAL/MOL
REMARK 927      BINDING AFFINITY PREDICTED BY RF-SCORE:    0.00 PKD
ROOT
HETATM    1  O   UNL     1     -10.865   6.743  70.849  1.00  0.00    -0.234 OA 
HETATM    2  C   UNL     1     -10.407   7.010  69.531  1.00  0.00    -0.213 C  
HETATM    3  H   UNL     1     -11.679   7.199  71.024  1.00  0.00     0.000 HD 
ENDROOT
BRANCH   2   4
HETATM    4  C   UNL     1      -9.097   6.278  69.248  1.00  0.00    -0.134 C  
HETATM    5  O   UNL     1      -8.645   6.606  67.921  1.00  0.00    -0.119 OA 
HETATM    6  C   UNL     1      -7.217   6.430  67.902  1.00  0.00    -0.087 C  
HETATM    7  H   UNL     1      -6.393   8.746  70.163  1.00  0.00     0.000 HD 
HETATM    8  O   UNL     1      -7.596   5.469  70.990  1.00  0.00    -0.086 OA 
HETATM    9  C   UNL     1      -6.782   6.973  69.290  1.00  0.00    -0.049 C  
HETATM   10  C   UNL     1      -7.949   6.611  70.209  1.00  0.00    -0.115 C  
HETATM   11  H   UNL     1      -6.885   5.675  71.585  1.00  0.00     0.000 HD 
HETATM   12  O   UNL     1      -6.660   8.413  69.313  1.00  0.00    -0.041 OA 
BRANCH   6  13
HETATM   13  O   UNL     1      -6.604   7.264  66.892  1.00  0.00    -0.055 OA 
BRANCH  13  14
HETATM   14  C   UNL     1      -6.829   8.671  67.049  1.00  0.00    -0.067 C  
HETATM   15  C   UNL     1      -6.240   9.129  64.786  1.00  0.00    -0.066 C  
HETATM   16  O   UNL     1      -6.000   9.436  66.171  1.00  0.00    -0.056 OA 
HETATM   17  H   UNL     1     -10.093   8.488  67.485  1.00  0.00     0.000 HD 
HETATM   18  C   UNL     1      -7.661   9.515  64.392  1.00  0.00    -0.122 C  
HETATM   19  O   UNL     1      -9.182   8.272  67.647  1.00  0.00    -0.136 OA 
HETATM   20  O   UNL     1      -7.953   9.191  63.027  1.00  0.00    -0.132 OA 
HETATM   21  C   UNL     1      -8.671   8.806  65.308  1.00  0.00    -0.182 C  
HETATM   22  H   UNL     1      -8.839   9.432  62.782  1.00  0.00     0.000 HD 
HETATM   23  O   UNL     1      -9.983   9.312  65.016  1.00  0.00    -0.351 OA 
HETATM   24  C   UNL     1      -8.317   9.023  66.785  1.00  0.00    -0.115 C  
HETATM   25  H   UNL     1     -10.608   8.873  65.582  1.00  0.00     0.000 HD 
BRANCH  15  26
HETATM   26  C   UNL     1      -5.180   9.863  63.961  1.00  0.00    -0.078 C  
HETATM   27  O   UNL     1      -5.522  11.250  63.875  1.00  0.00    -0.400 OA 
HETATM   28  H   UNL     1      -4.864  11.706  63.364  1.00  0.00     0.000 HD 
ENDBRANCH  15  26
ENDBRANCH  13  14
ENDBRANCH   6  13
BRANCH   6  29
HETATM   29  C   UNL     1      -6.893   4.916  67.754  1.00  0.00    -0.060 C  
HETATM   30  H   UNL     1      -7.731   3.275  67.001  1.00  0.00     0.000 HD 
HETATM   31  O   UNL     1      -7.929   4.200  67.091  1.00  0.00    -0.095 OA 
ENDBRANCH   6  29
ENDBRANCH   2   4
TORSDOF 5
ENDMDL
MODEL      225
REMARK 921   NORMALIZED FREE ENERGY PREDICTED BY IDOCK:    3.76 KCAL/MOL
REMARK 922        TOTAL FREE ENERGY PREDICTED BY IDOCK:    3.85 KCAL/MOL
REMARK 923 INTER-LIGAND FREE ENERGY PREDICTED BY IDOCK:   -5.58 KCAL/MOL
REMARK 924 INTRA-LIGAND FREE ENERGY PREDICTED BY IDOCK:    9.43 KCAL/MOL
REMARK 927      BINDING AFFINITY PREDICTED BY RF-SCORE:    0.00 PKD
ROOT
HETATM    1  O   UNL     1     -11.215  18.474  68.032  1.00  0.00    -0.115 OA 
HETATM    2  C   UNL     1     -10.003  18.455  68.773  1.00  0.00    -0.375 C  
HETATM    3  H   UNL     1     -11.702  19.273  68.198  1.00  0.00     0.000 HD 
ENDROOT
BRANCH   2   4
HETATM    4  C   UNL     1      -9.220  17.171  68.507  1.00  0.00    -0.264 C  
HETATM    5  O   UNL     1      -9.945  16.358  67.565  1.00  0.00    -0.241 OA 
HETATM    6  C   UNL     1      -8.983  15.521  66.897  1.00  0.00    -0.246 C  
HETATM    7  H   UNL     1      -7.173  17.910  65.424  1.00  0.00     0.000 HD 
HETATM    8  O   UNL     1      -6.818  16.953  68.864  1.00  0.00    -0.184 OA 
HETATM    9  C   UNL     1      -7.772  16.473  66.701  1.00  0.00    -0.283 C  
HETATM   10  C   UNL     1      -7.814  17.379  67.932  1.00  0.00    -0.201 C  
HETATM   11  H   UNL     1      -5.947  17.082  68.508  1.00  0.00     0.000 HD 
HETATM   12  O   UNL     1      -7.914  17.327  65.544  1.00  0.00    -0.274 OA 
BRANCH   6  13
HETATM   13  O   UNL     1      -9.453  15.133  65.586  1.00  0.00    -0.307 OA 
BRANCH  13  14
HETATM   14  C   UNL     1     -10.788  14.610  65.552  1.00  0.00    -0.345 C  
HETATM   15  C   UNL     1     -10.019  12.355  65.490  1.00  0.00    -0.243 C  
HETATM   16  O   UNL     1     -10.843  13.357  64.867  1.00  0.00    -0.314 OA 
HETATM   17  H   UNL     1     -11.646  15.561  68.591  1.00  0.00     0.000 HD 
HETATM   18  C   UNL     1     -10.531  12.039  66.891  1.00  0.00    -0.223 C  
HETATM   19  O   UNL     1     -11.305  15.670  67.711  1.00  0.00    -0.326 OA 
HETATM   20  O   UNL     1      -9.715  11.071  67.561  1.00  0.00    -0.170 OA 
HETATM   21  C   UNL     1     -10.587  13.324  67.732  1.00  0.00    -0.241 C  
HETATM   22  H   UNL     1     -10.035  10.874  68.434  1.00  0.00     0.000 HD 
HETATM   23  O   UNL     1     -11.220  13.021  68.985  1.00  0.00    -0.254 OA 
HETATM   24  C   UNL     1     -11.346  14.432  66.989  1.00  0.00    -0.346 C  
HETATM   25  H   UNL     1     -11.254  13.816  69.505  1.00  0.00     0.000 HD 
BRANCH  15  26
HETATM   26  C   UNL     1     -10.014  11.128  64.574  1.00  0.00    -0.296 C  
HETATM   27  O   UNL     1     -10.538  10.003  65.285  1.00  0.00    -0.021 OA 
HETATM   28  H   UNL     1     -10.535   9.242  64.717  1.00  0.00     0.000 HD 
ENDBRANCH  15  26
ENDBRANCH  13  14
ENDBRANCH   6  13
BRANCH   6  29
HETATM   29  C   UNL     1      -8.624  14.322  67.820  1.00  0.00    -0.177 C  
HETATM   30  H   UNL     1      -7.019  13.261  68.337  1.00  0.00     0.000 HD 
HETATM   31  O   UNL     1      -7.239  13.995  67.773  1.00  0.00    -0.132 OA 
ENDBRANCH   6  29
ENDBRANCH   2   4
TORSDOF 5
ENDMDL
MODEL      226
REMARK 921   NORMALIZED FREE ENERGY PREDICTED BY IDOCK:    4.80 KCAL/MOL
REMARK 922        TOTAL FREE ENERGY PREDICTED BY IDOCK:    5.19 KCAL/MOL
REMARK 923 INTER-LIGAND FREE ENERGY PREDICTED BY IDOCK:    3.71 KCAL/MOL
REMARK 924 INTRA-LIGAND FREE ENERGY PREDICTED BY IDOCK:    1.48 KCAL/MOL
REMARK 927      BINDING AFFINITY PREDICTED BY RF-SCORE:    0.00 PKD
ROOT
HETATM    1  O   UNL     1      -7.880  12.020  70.261  1.00  0.00     1.258 OA 
HETATM    2  C   UNL     1      -6.991  13.099  70.510  1.00  0.00     1.564 C  
HETATM    3  H   UNL     1      -8.087  11.558  71.065  1.00  0.00     0.000 HD 
ENDROOT
BRANCH   2   4
HETATM    4  C   UNL     1      -6.659  13.843  69.218  1.00  0.00    -0.113 C  
HETATM    5  O   UNL     1      -7.238  13.142  68.103  1.00  0.00    -0.092 OA 
HETATM    6  C   UNL     1      -7.442  14.106  67.053  1.00  0.00     0.317 C  
HETATM    7  H   UNL     1      -9.625  16.094  68.610  1.00  0.00     0.000 HD 
HETATM    8  O   UNL     1      -6.078  16.209  69.131  1.00  0.00    -0.126 OA 
HETATM    9  C   UNL     1      -7.921  15.364  67.825  1.00  0.00    -0.146 C  
HETATM   10  C   UNL     1      -7.169  15.288  69.154  1.00  0.00    -0.169 C  
HETATM   11  H   UNL     1      -6.393  17.104  69.091  1.00  0.00     0.000 HD 
HETATM   12  O   UNL     1      -9.332  15.324  68.137  1.00  0.00    -0.194 OA 
BRANCH   6  13
HETATM   13  O   UNL     1      -8.512  13.696  66.171  1.00  0.00     0.532 OA 
BRANCH  13  14
HETATM   14  C   UNL     1      -9.699  13.237  66.832  1.00  0.00    -0.248 C  
HETATM   15  C   UNL     1     -10.998  13.388  64.840  1.00  0.00    -0.342 C  
HETATM   16  O   UNL     1     -10.877  13.769  66.223  1.00  0.00    -0.282 OA 
HETATM   17  H   UNL     1      -8.646  10.166  67.415  1.00  0.00     0.000 HD 
HETATM   18  C   UNL     1     -11.160  11.878  64.714  1.00  0.00    -0.311 C  
HETATM   19  O   UNL     1      -8.603  11.115  67.422  1.00  0.00    -0.134 OA 
HETATM   20  O   UNL     1     -11.246  11.454  63.348  1.00  0.00    -0.698 OA 
HETATM   21  C   UNL     1      -9.978  11.165  65.392  1.00  0.00    -0.259 C  
HETATM   22  H   UNL     1     -11.347  10.512  63.270  1.00  0.00     0.000 HD 
HETATM   23  O   UNL     1     -10.240   9.753  65.396  1.00  0.00    -0.287 OA 
HETATM   24  C   UNL     1      -9.771  11.687  66.820  1.00  0.00    -0.201 C  
HETATM   25  H   UNL     1      -9.510   9.312  65.814  1.00  0.00     0.000 HD 
BRANCH  15  26
HETATM   26  C   UNL     1     -12.184  14.158  64.252  1.00  0.00    -0.420 C  
HETATM   27  O   UNL     1     -11.773  15.492  63.934  1.00  0.00    -0.903 OA 
HETATM   28  H   UNL     1     -12.508  15.969  63.569  1.00  0.00     0.000 HD 
ENDBRANCH  15  26
ENDBRANCH  13  14
ENDBRANCH   6  13
BRANCH   6  29
HETATM   29  C   UNL     1      -6.089  14.361  66.328  1.00  0.00     4.931 C  
HETATM   30  H   UNL     1      -4.666  15.751  66.266  1.00  0.00     0.000 HD 
HETATM   31  O   UNL     1      -5.492  15.595  66.709  1.00  0.00     0.034 OA 
ENDBRANCH   6  29
ENDBRANCH   2   4
TORSDOF 5
ENDMDL
MODEL      227
REMARK 921   NORMALIZED FREE ENERGY PREDICTED BY IDOCK:    5.22 KCAL/MOL
REMARK 922        TOTAL FREE ENERGY PREDICTED BY IDOCK:    5.74 KCAL/MOL
REMARK 923 INTER-LIGAND FREE ENERGY PREDICTED BY IDOCK:    3.54 KCAL/MOL
REMARK 924 INTRA-LIGAND FREE ENERGY PREDICTED BY IDOCK:    2.20 KCAL/MOL
REMARK 927      BINDING AFFINITY PREDICTED BY RF-SCORE:    0.00 PKD
ROOT
HETATM    1  O   UNL     1     -10.288   3.802  70.987  1.00  0.00     0.117 OA 
HETATM    2  C   UNL     1      -9.023   3.188  71.186  1.00  0.00    -0.099 C  
HETATM    3  H   UNL     1     -10.908   3.524  71.650  1.00  0.00     0.000 HD 
ENDROOT
BRANCH   2   4
HETATM    4  C   UNL     1      -8.025   3.633  70.119  1.00  0.00    -0.046 C  
HETATM    5  O   UNL     1      -8.741   4.157  68.986  1.00  0.00    -0.081 OA 
HETATM    6  C   UNL     1      -7.861   5.077  68.313  1.00  0.00    -0.086 C  
HETATM    7  H   UNL     1      -7.499   7.313  70.766  1.00  0.00     0.000 HD 
HETATM    8  O   UNL     1      -5.704   4.212  70.595  1.00  0.00    -0.012 OA 
HETATM    9  C   UNL     1      -7.148   5.796  69.489  1.00  0.00    -0.065 C  
HETATM   10  C   UNL     1      -7.039   4.719  70.568  1.00  0.00    -0.048 C  
HETATM   11  H   UNL     1      -5.094   4.884  70.873  1.00  0.00     0.000 HD 
HETATM   12  O   UNL     1      -7.936   6.873  70.046  1.00  0.00    -0.111 OA 
BRANCH   6  13
HETATM   13  O   UNL     1      -8.611   6.071  67.579  1.00  0.00    -0.108 OA 
BRANCH  13  14
HETATM   14  C   UNL     1      -9.707   6.655  68.295  1.00  0.00    -0.132 C  
HETATM   15  C   UNL     1      -8.840   8.860  68.044  1.00  0.00    -0.133 C  
HETATM   16  O   UNL     1      -9.318   7.858  68.960  1.00  0.00    -0.151 OA 
HETATM   17  H   UNL     1     -12.032   5.959  66.061  1.00  0.00     0.000 HD 
HETATM   18  C   UNL     1      -9.954   9.297  67.101  1.00  0.00    -0.216 C  
HETATM   19  O   UNL     1     -11.308   5.773  66.647  1.00  0.00     0.003 OA 
HETATM   20  O   UNL     1      -9.508  10.268  66.147  1.00  0.00    -0.166 OA 
HETATM   21  C   UNL     1     -10.519   8.077  66.355  1.00  0.00     0.269 C  
HETATM   22  H   UNL     1     -10.203  10.540  65.559  1.00  0.00     0.000 HD 
HETATM   23  O   UNL     1     -11.665   8.496  65.598  1.00  0.00     5.288 OA 
HETATM   24  C   UNL     1     -10.890   6.958  67.337  1.00  0.00    -0.326 C  
HETATM   25  H   UNL     1     -12.014   7.742  65.137  1.00  0.00     0.000 HD 
BRANCH  15  26
HETATM   26  C   UNL     1      -8.286  10.019  68.878  1.00  0.00    -0.130 C  
HETATM   27  O   UNL     1      -8.954  11.229  68.510  1.00  0.00    -0.161 OA 
HETATM   28  H   UNL     1      -8.611  11.948  69.027  1.00  0.00     0.000 HD 
ENDBRANCH  15  26
ENDBRANCH  13  14
ENDBRANCH   6  13
BRANCH   6  29
HETATM   29  C   UNL     1      -6.855   4.272  67.441  1.00  0.00    -0.052 C  
HETATM   30  H   UNL     1      -4.888   4.151  67.155  1.00  0.00     0.000 HD 
HETATM   31  O   UNL     1      -5.503   4.642  67.689  1.00  0.00    -0.011 OA 
ENDBRANCH   6  29
ENDBRANCH   2   4
TORSDOF 5
ENDMDL
MODEL      228
REMARK 921   NORMALIZED FREE ENERGY PREDICTED BY IDOCK:    6.40 KCAL/MOL
REMARK 922        TOTAL FREE ENERGY PREDICTED BY IDOCK:    7.27 KCAL/MOL
REMARK 923 INTER-LIGAND FREE ENERGY PREDICTED BY IDOCK:   -3.57 KCAL/MOL
REMARK 924 INTRA-LIGAND FREE ENERGY PREDICTED BY IDOCK:   10.84 KCAL/MOL
REMARK 927      BINDING AFFINITY PREDICTED BY RF-SCORE:    0.00 PKD
ROOT
HETATM    1  O   UNL     1      -6.834   6.468  68.033  1.00  0.00    -0.068 OA 
HETATM    2  C   UNL     1      -7.966   6.731  67.217  1.00  0.00    -0.114 C  
HETATM    3  H   UNL     1      -6.480   5.606  67.855  1.00  0.00     0.000 HD 
ENDROOT
BRANCH   2   4
HETATM    4  C   UNL     1      -8.536   8.119  67.502  1.00  0.00    -0.126 C  
HETATM    5  O   UNL     1      -7.538   9.113  67.204  1.00  0.00    -0.090 OA 
HETATM    6  C   UNL     1      -8.234  10.336  66.897  1.00  0.00    -0.123 C  
HETATM    7  H   UNL     1      -9.891   9.307  64.187  1.00  0.00     0.000 HD 
HETATM    8  O   UNL     1     -10.921   8.619  67.554  1.00  0.00    -0.488 OA 
HETATM    9  C   UNL     1      -9.457   9.843  66.079  1.00  0.00    -0.202 C  
HETATM   10  C   UNL     1      -9.788   8.483  66.696  1.00  0.00    -0.272 C  
HETATM   11  H   UNL     1     -11.697   8.844  67.054  1.00  0.00     0.000 HD 
HETATM   12  O   UNL     1      -9.142   9.609  64.688  1.00  0.00    -0.223 OA 
BRANCH   6  13
HETATM   13  O   UNL     1      -7.440  11.183  66.034  1.00  0.00    -0.085 OA 
BRANCH  13  14
HETATM   14  C   UNL     1      -6.038  11.207  66.332  1.00  0.00    -0.137 C  
HETATM   15  C   UNL     1      -6.362  12.551  68.273  1.00  0.00    -0.062 C  
HETATM   16  O   UNL     1      -5.668  12.403  67.021  1.00  0.00    -0.286 OA 
HETATM   17  H   UNL     1      -5.750   8.002  67.058  1.00  0.00     0.000 HD 
HETATM   18  C   UNL     1      -5.975  11.431  69.233  1.00  0.00    -0.059 C  
HETATM   19  O   UNL     1      -5.995   8.755  66.533  1.00  0.00    -0.050 OA 
HETATM   20  O   UNL     1      -6.673  11.521  70.480  1.00  0.00    -0.477 OA 
HETATM   21  C   UNL     1      -6.262  10.065  68.589  1.00  0.00    -0.044 C  
HETATM   22  H   UNL     1      -6.432  10.823  71.079  1.00  0.00     0.000 HD 
HETATM   23  O   UNL     1      -5.742   9.039  69.448  1.00  0.00    -0.034 OA 
HETATM   24  C   UNL     1      -5.637   9.977  67.190  1.00  0.00    -0.046 C  
HETATM   25  H   UNL     1      -5.920   8.194  69.050  1.00  0.00     0.000 HD 
BRANCH  15  26
HETATM   26  C   UNL     1      -6.027  13.940  68.823  1.00  0.00    -0.085 C  
HETATM   27  O   UNL     1      -5.973  14.878  67.744  1.00  0.00    -0.175 OA 
HETATM   28  H   UNL     1      -5.766  15.739  68.085  1.00  0.00     0.000 HD 
ENDBRANCH  15  26
ENDBRANCH  13  14
ENDBRANCH   6  13
BRANCH   6  29
HETATM   29  C   UNL     1      -8.671  11.019  68.224  1.00  0.00    -0.144 C  
HETATM   30  H   UNL     1     -10.248  11.990  68.957  1.00  0.00     0.000 HD 
HETATM   31  O   UNL     1      -9.980  11.572  68.146  1.00  0.00    -0.180 OA 
ENDBRANCH   6  29
ENDBRANCH   2   4
TORSDOF 5
ENDMDL
MODEL      229
REMARK 921   NORMALIZED FREE ENERGY PREDICTED BY IDOCK:    6.98 KCAL/MOL
REMARK 922        TOTAL FREE ENERGY PREDICTED BY IDOCK:    8.02 KCAL/MOL
REMARK 923 INTER-LIGAND FREE ENERGY PREDICTED BY IDOCK:    5.18 KCAL/MOL
REMARK 924 INTRA-LIGAND FREE ENERGY PREDICTED BY IDOCK:    2.84 KCAL/MOL
REMARK 927      BINDING AFFINITY PREDICTED BY RF-SCORE:    0.00 PKD
ROOT
HETATM    1  O   UNL     1     -11.441   9.002  73.974  1.00  0.00     3.996 OA 
HETATM    2  C   UNL     1     -11.141   9.318  72.622  1.00  0.00     1.164 C  
HETATM    3  H   UNL     1     -11.245   9.735  74.545  1.00  0.00     0.000 HD 
ENDROOT
BRANCH   2   4
HETATM    4  C   UNL     1     -11.457   8.140  71.703  1.00  0.00    -0.274 C  
HETATM    5  O   UNL     1     -10.341   7.911  70.823  1.00  0.00    -0.201 OA 
HETATM    6  C   UNL     1     -10.385   6.526  70.431  1.00  0.00    -0.198 C  
HETATM    7  H   UNL     1      -9.973   5.136  73.439  1.00  0.00     0.000 HD 
HETATM    8  O   UNL     1     -13.098   6.415  72.228  1.00  0.00    -0.532 OA 
HETATM    9  C   UNL     1     -10.816   5.809  71.738  1.00  0.00    -0.252 C  
HETATM   10  C   UNL     1     -11.741   6.816  72.422  1.00  0.00    -0.217 C  
HETATM   11  H   UNL     1     -13.274   5.595  72.674  1.00  0.00     0.000 HD 
HETATM   12  O   UNL     1      -9.709   5.575  72.638  1.00  0.00    -0.150 OA 
BRANCH   6  13
HETATM   13  O   UNL     1      -9.069   6.044  70.077  1.00  0.00    -0.143 OA 
BRANCH  13  14
HETATM   14  C   UNL     1      -9.041   5.083  69.014  1.00  0.00    -0.105 C  
HETATM   15  C   UNL     1      -6.792   4.456  69.492  1.00  0.00    -0.045 C  
HETATM   16  O   UNL     1      -7.721   4.915  68.493  1.00  0.00    -0.077 OA 
HETATM   17  H   UNL     1     -11.232   2.998  70.330  1.00  0.00     0.000 HD 
HETATM   18  C   UNL     1      -7.180   3.067  69.984  1.00  0.00    -0.041 C  
HETATM   19  O   UNL     1     -10.903   3.838  70.032  1.00  0.00     1.922 OA 
HETATM   20  O   UNL     1      -6.301   2.588  71.008  1.00  0.00    -0.018 OA 
HETATM   21  C   UNL     1      -8.621   3.083  70.521  1.00  0.00    -0.063 C  
HETATM   22  H   UNL     1      -6.543   1.722  71.315  1.00  0.00     0.000 HD 
HETATM   23  O   UNL     1      -9.008   1.735  70.826  1.00  0.00    -0.060 OA 
HETATM   24  C   UNL     1      -9.579   3.710  69.499  1.00  0.00    -0.137 C  
HETATM   25  H   UNL     1      -9.898   1.745  71.159  1.00  0.00     0.000 HD 
BRANCH  15  26
HETATM   26  C   UNL     1      -5.393   4.491  68.870  1.00  0.00    -0.011 C  
HETATM   27  O   UNL     1      -5.273   3.435  67.913  1.00  0.00    -0.011 OA 
HETATM   28  H   UNL     1      -4.405   3.457  67.527  1.00  0.00     0.000 HD 
ENDBRANCH  15  26
ENDBRANCH  13  14
ENDBRANCH   6  13
BRANCH   6  29
HETATM   29  C   UNL     1     -11.445   6.350  69.306  1.00  0.00    -0.248 C  
HETATM   30  H   UNL     1     -13.414   6.529  69.067  1.00  0.00     0.000 HD 
HETATM   31  O   UNL     1     -12.766   6.637  69.753  1.00  0.00     0.881 OA 
ENDBRANCH   6  29
ENDBRANCH   2   4
TORSDOF 5
ENDMDL
MODEL      230
REMARK 921   NORMALIZED FREE ENERGY PREDICTED BY IDOCK:    8.88 KCAL/MOL
REMARK 922        TOTAL FREE ENERGY PREDICTED BY IDOCK:   10.47 KCAL/MOL
REMARK 923 INTER-LIGAND FREE ENERGY PREDICTED BY IDOCK:   10.29 KCAL/MOL
REMARK 924 INTRA-LIGAND FREE ENERGY PREDICTED BY IDOCK:    0.18 KCAL/MOL
REMARK 927      BINDING AFFINITY PREDICTED BY RF-SCORE:    0.00 PKD
ROOT
HETATM    1  O   UNL     1      -5.751  11.041  72.496  1.00  0.00     0.224 OA 
HETATM    2  C   UNL     1      -5.656  10.976  71.080  1.00  0.00     0.020 C  
HETATM    3  H   UNL     1      -4.897  10.940  72.898  1.00  0.00     0.000 HD 
ENDROOT
BRANCH   2   4
HETATM    4  C   UNL     1      -7.029  11.138  70.432  1.00  0.00     0.699 C  
HETATM    5  O   UNL     1      -7.318  12.540  70.273  1.00  0.00     1.149 OA 
HETATM    6  C   UNL     1      -8.249  12.661  69.182  1.00  0.00     0.562 C  
HETATM    7  H   UNL     1      -6.324  11.447  66.739  1.00  0.00     0.000 HD 
HETATM    8  O   UNL     1      -8.106   9.409  69.092  1.00  0.00    -0.100 OA 
HETATM    9  C   UNL     1      -7.734  11.605  68.167  1.00  0.00    -0.122 C  
HETATM   10  C   UNL     1      -7.173  10.490  69.050  1.00  0.00    -0.090 C  
HETATM   11  H   UNL     1      -8.195   9.008  68.236  1.00  0.00     0.000 HD 
HETATM   12  O   UNL     1      -6.639  12.093  67.360  1.00  0.00    -0.117 OA 
BRANCH   6  13
HETATM   13  O   UNL     1      -8.147  13.960  68.554  1.00  0.00    -0.140 OA 
BRANCH  13  14
HETATM   14  C   UNL     1      -8.841  15.016  69.232  1.00  0.00    -0.157 C  
HETATM   15  C   UNL     1      -7.028  15.393  70.731  1.00  0.00     0.890 C  
HETATM   16  O   UNL     1      -8.434  15.119  70.598  1.00  0.00     0.980 OA 
HETATM   17  H   UNL     1      -8.849  17.143  66.711  1.00  0.00     0.000 HD 
HETATM   18  C   UNL     1      -6.691  16.756  70.136  1.00  0.00     0.582 C  
HETATM   19  O   UNL     1      -8.996  16.311  67.146  1.00  0.00    -0.188 OA 
HETATM   20  O   UNL     1      -5.291  17.051  70.215  1.00  0.00    -0.192 OA 
HETATM   21  C   UNL     1      -7.138  16.811  68.666  1.00  0.00    -0.195 C  
HETATM   22  H   UNL     1      -5.081  17.901  69.844  1.00  0.00     0.000 HD 
HETATM   23  O   UNL     1      -6.952  18.152  68.185  1.00  0.00    -0.211 OA 
HETATM   24  C   UNL     1      -8.602  16.375  68.522  1.00  0.00    -0.223 C  
HETATM   25  H   UNL     1      -7.228  18.186  67.276  1.00  0.00     0.000 HD 
BRANCH  15  26
HETATM   26  C   UNL     1      -6.679  15.298  72.219  1.00  0.00     2.670 C  
HETATM   27  O   UNL     1      -7.569  14.377  72.857  1.00  0.00     2.895 OA 
HETATM   28  H   UNL     1      -7.352  14.317  73.780  1.00  0.00     0.000 HD 
ENDBRANCH  15  26
ENDBRANCH  13  14
ENDBRANCH   6  13
BRANCH   6  29
HETATM   29  C   UNL     1      -9.677  12.316  69.691  1.00  0.00     1.578 C  
HETATM   30  H   UNL     1     -11.536  12.230  68.983  1.00  0.00     0.000 HD 
HETATM   31  O   UNL     1     -10.663  12.441  68.672  1.00  0.00    -0.227 OA 
ENDBRANCH   6  29
ENDBRANCH   2   4
TORSDOF 5
ENDMDL
MODEL      231
REMARK 921   NORMALIZED FREE ENERGY PREDICTED BY IDOCK:    9.22 KCAL/MOL
REMARK 922        TOTAL FREE ENERGY PREDICTED BY IDOCK:   10.91 KCAL/MOL
REMARK 923 INTER-LIGAND FREE ENERGY PREDICTED BY IDOCK:    1.17 KCAL/MOL
REMARK 924 INTRA-LIGAND FREE ENERGY PREDICTED BY IDOCK:    9.73 KCAL/MOL
REMARK 927      BINDING AFFINITY PREDICTED BY RF-SCORE:    0.00 PKD
ROOT
HETATM    1  O   UNL     1      -7.118  16.704  67.514  1.00  0.00    -0.128 OA 
HETATM    2  C   UNL     1      -7.415  15.321  67.644  1.00  0.00    -0.176 C  
HETATM    3  H   UNL     1      -6.378  16.945  68.057  1.00  0.00     0.000 HD 
ENDROOT
BRANCH   2   4
HETATM    4  C   UNL     1      -8.605  14.932  66.770  1.00  0.00    -0.222 C  
HETATM    5  O   UNL     1      -9.695  14.509  67.611  1.00  0.00    -0.211 OA 
HETATM    6  C   UNL     1     -10.912  14.732  66.875  1.00  0.00    -0.328 C  
HETATM    7  H   UNL     1     -10.719  18.052  66.575  1.00  0.00     0.000 HD 
HETATM    8  O   UNL     1      -8.933  15.740  64.493  1.00  0.00     2.067 OA 
HETATM    9  C   UNL     1     -10.642  16.083  66.160  1.00  0.00    -0.297 C  
HETATM   10  C   UNL     1      -9.141  16.053  65.871  1.00  0.00    -0.257 C  
HETATM   11  H   UNL     1      -9.264  16.434  63.936  1.00  0.00     0.000 HD 
HETATM   12  O   UNL     1     -10.884  17.225  67.012  1.00  0.00    -0.202 OA 
BRANCH   6  13
HETATM   13  O   UNL     1     -12.032  14.923  67.769  1.00  0.00    -0.321 OA 
BRANCH  13  14
HETATM   14  C   UNL     1     -12.255  13.854  68.698  1.00  0.00    -0.178 C  
HETATM   15  C   UNL     1      -9.927  13.379  68.877  1.00  0.00     0.046 C  
HETATM   16  O   UNL     1     -11.238  12.855  68.601  1.00  0.00    -0.248 OA 
HETATM   17  H   UNL     1     -13.348  15.732  71.180  1.00  0.00     0.000 HD 
HETATM   18  C   UNL     1      -9.839  13.865  70.319  1.00  0.00     2.277 C  
HETATM   19  O   UNL     1     -13.316  15.402  70.290  1.00  0.00    -0.139 OA 
HETATM   20  O   UNL     1      -8.558  14.429  70.625  1.00  0.00     1.306 OA 
HETATM   21  C   UNL     1     -10.931  14.913  70.588  1.00  0.00    -0.077 C  
HETATM   22  H   UNL     1      -8.503  14.732  71.524  1.00  0.00     0.000 HD 
HETATM   23  O   UNL     1     -10.923  15.230  71.989  1.00  0.00    -0.453 OA 
HETATM   24  C   UNL     1     -12.308  14.393  70.152  1.00  0.00    -0.348 C  
HETATM   25  H   UNL     1     -11.597  15.878  72.155  1.00  0.00     0.000 HD 
BRANCH  15  26
HETATM   26  C   UNL     1      -8.914  12.274  68.565  1.00  0.00    -0.070 C  
HETATM   27  O   UNL     1      -7.594  12.746  68.848  1.00  0.00    -0.274 OA 
HETATM   28  H   UNL     1      -6.965  12.061  68.655  1.00  0.00     0.000 HD 
ENDBRANCH  15  26
ENDBRANCH  13  14
ENDBRANCH   6  13
BRANCH   6  29
HETATM   29  C   UNL     1     -11.108  13.574  65.854  1.00  0.00    -0.284 C  
HETATM   30  H   UNL     1     -11.519  11.626  65.865  1.00  0.00     0.000 HD 
HETATM   31  O   UNL     1     -11.399  12.334  66.488  1.00  0.00    -0.311 OA 
ENDBRANCH   6  29
ENDBRANCH   2   4
TORSDOF 5
ENDMDL
MODEL      232
REMARK 921   NORMALIZED FREE ENERGY PREDICTED BY IDOCK:    9.68 KCAL/MOL
REMARK 922        TOTAL FREE ENERGY PREDICTED BY IDOCK:   11.50 KCAL/MOL
REMARK 923 INTER-LIGAND FREE ENERGY PREDICTED BY IDOCK:    6.35 KCAL/MOL
REMARK 924 INTRA-LIGAND FREE ENERGY PREDICTED BY IDOCK:    5.15 KCAL/MOL
REMARK 927      BINDING AFFINITY PREDICTED BY RF-SCORE:    0.00 PKD
ROOT
HETATM    1  O   UNL     1     -10.843   9.368  73.914  1.00  0.00     5.164 OA 
HETATM    2  C   UNL     1     -10.799   9.439  72.497  1.00  0.00     1.292 C  
HETATM    3  H   UNL     1     -10.423  10.125  74.305  1.00  0.00     0.000 HD 
ENDROOT
BRANCH   2   4
HETATM    4  C   UNL     1     -11.474   8.222  71.867  1.00  0.00    -0.310 C  
HETATM    5  O   UNL     1     -10.597   7.649  70.880  1.00  0.00    -0.211 OA 
HETATM    6  C   UNL     1     -10.946   6.258  70.757  1.00  0.00    -0.297 C  
HETATM    7  H   UNL     1     -10.215   5.279  73.865  1.00  0.00     0.000 HD 
HETATM    8  O   UNL     1     -13.253   6.952  72.948  1.00  0.00     0.404 OA 
HETATM    9  C   UNL     1     -11.238   5.843  72.224  1.00  0.00    -0.291 C  
HETATM   10  C   UNL     1     -11.836   7.102  72.851  1.00  0.00     0.140 C  
HETATM   11  H   UNL     1     -13.477   6.259  73.557  1.00  0.00     0.000 HD 
HETATM   12  O   UNL     1     -10.037   5.533  72.967  1.00  0.00    -0.172 OA 
BRANCH   6  13
HETATM   13  O   UNL     1      -9.819   5.478  70.295  1.00  0.00    -0.174 OA 
BRANCH  13  14
HETATM   14  C   UNL     1      -8.547   6.133  70.395  1.00  0.00    -0.134 C  
HETATM   15  C   UNL     1      -7.567   4.720  68.746  1.00  0.00    -0.069 C  
HETATM   16  O   UNL     1      -7.473   5.244  70.083  1.00  0.00    -0.065 OA 
HETATM   17  H   UNL     1      -9.515   9.031  69.150  1.00  0.00     0.000 HD 
HETATM   18  C   UNL     1      -7.434   5.841  67.723  1.00  0.00    -0.078 C  
HETATM   19  O   UNL     1      -9.552   8.279  69.729  1.00  0.00    -0.169 OA 
HETATM   20  O   UNL     1      -7.559   5.365  66.377  1.00  0.00    -0.086 OA 
HETATM   21  C   UNL     1      -8.502   6.917  67.981  1.00  0.00    -0.124 C  
HETATM   22  H   UNL     1      -7.477   6.065  65.739  1.00  0.00     0.000 HD 
HETATM   23  O   UNL     1      -8.250   8.027  67.106  1.00  0.00    -0.114 OA 
HETATM   24  C   UNL     1      -8.486   7.362  69.449  1.00  0.00    -0.133 C  
HETATM   25  H   UNL     1      -8.910   8.692  67.265  1.00  0.00     0.000 HD 
BRANCH  15  26
HETATM   26  C   UNL     1      -6.481   3.651  68.594  1.00  0.00    -0.037 C  
HETATM   27  O   UNL     1      -5.198   4.283  68.538  1.00  0.00    -0.007 OA 
HETATM   28  H   UNL     1      -4.524   3.620  68.444  1.00  0.00     0.000 HD 
ENDBRANCH  15  26
ENDBRANCH  13  14
ENDBRANCH   6  13
BRANCH   6  29
HETATM   29  C   UNL     1     -12.213   6.128  69.864  1.00  0.00     1.281 C  
HETATM   30  H   UNL     1     -14.142   6.616  69.925  1.00  0.00     0.000 HD 
HETATM   31  O   UNL     1     -13.368   6.696  70.471  1.00  0.00     0.534 OA 
ENDBRANCH   6  29
ENDBRANCH   2   4
TORSDOF 5
ENDMDL
MODEL      233
REMARK 921   NORMALIZED FREE ENERGY PREDICTED BY IDOCK:    9.96 KCAL/MOL
REMARK 922        TOTAL FREE ENERGY PREDICTED BY IDOCK:   11.86 KCAL/MOL
REMARK 923 INTER-LIGAND FREE ENERGY PREDICTED BY IDOCK:    1.06 KCAL/MOL
REMARK 924 INTRA-LIGAND FREE ENERGY PREDICTED BY IDOCK:   10.80 KCAL/MOL
REMARK 927      BINDING AFFINITY PREDICTED BY RF-SCORE:    0.00 PKD
ROOT
HETATM    1  O   UNL     1     -12.453  12.030  68.143  1.00  0.00    -0.106 OA 
HETATM    2  C   UNL     1     -11.372  12.844  67.714  1.00  0.00    -0.299 C  
HETATM    3  H   UNL     1     -12.656  11.366  67.496  1.00  0.00     0.000 HD 
ENDROOT
BRANCH   2   4
HETATM    4  C   UNL     1     -11.045  13.913  68.755  1.00  0.00    -0.265 C  
HETATM    5  O   UNL     1     -10.324  14.987  68.124  1.00  0.00    -0.235 OA 
HETATM    6  C   UNL     1     -10.556  16.173  68.906  1.00  0.00    -0.275 C  
HETATM    7  H   UNL     1     -13.861  16.411  68.492  1.00  0.00     0.000 HD 
HETATM    8  O   UNL     1     -12.284  14.199  70.835  1.00  0.00    -0.325 OA 
HETATM    9  C   UNL     1     -12.053  16.043  69.297  1.00  0.00    -0.076 C  
HETATM   10  C   UNL     1     -12.263  14.536  69.447  1.00  0.00    -0.247 C  
HETATM   11  H   UNL     1     -13.038  14.584  71.264  1.00  0.00     0.000 HD 
HETATM   12  O   UNL     1     -12.945  16.491  68.252  1.00  0.00     2.029 OA 
BRANCH   6  13
HETATM   13  O   UNL     1     -10.415  17.364  68.098  1.00  0.00    -0.355 OA 
BRANCH  13  14
HETATM   14  C   UNL     1      -9.214  17.429  67.319  1.00  0.00    -0.234 C  
HETATM   15  C   UNL     1      -8.914  15.066  67.385  1.00  0.00    -0.186 C  
HETATM   16  O   UNL     1      -8.325  16.355  67.635  1.00  0.00    -0.162 OA 
HETATM   17  H   UNL     1     -10.634  18.436  64.517  1.00  0.00     0.000 HD 
HETATM   18  C   UNL     1      -9.202  14.889  65.899  1.00  0.00    -0.080 C  
HETATM   19  O   UNL     1     -10.433  18.457  65.445  1.00  0.00    -0.554 OA 
HETATM   20  O   UNL     1      -9.824  13.631  65.613  1.00  0.00    -0.415 OA 
HETATM   21  C   UNL     1     -10.108  16.027  65.401  1.00  0.00    -0.225 C  
HETATM   22  H   UNL     1     -10.004  13.520  64.686  1.00  0.00     0.000 HD 
HETATM   23  O   UNL     1     -10.229  15.920  63.974  1.00  0.00     0.535 OA 
HETATM   24  C   UNL     1      -9.540  17.395  65.802  1.00  0.00     0.102 C  
HETATM   25  H   UNL     1     -10.790  16.623  63.666  1.00  0.00     0.000 HD 
BRANCH  15  26
HETATM   26  C   UNL     1      -7.950  14.007  67.928  1.00  0.00    -0.158 C  
HETATM   27  O   UNL     1      -8.407  12.707  67.543  1.00  0.00    -0.156 OA 
HETATM   28  H   UNL     1      -7.810  12.050  67.879  1.00  0.00     0.000 HD 
ENDBRANCH  15  26
ENDBRANCH  13  14
ENDBRANCH   6  13
BRANCH   6  29
HETATM   29  C   UNL     1      -9.633  16.146  70.158  1.00  0.00     0.647 C  
HETATM   30  H   UNL     1      -8.299  17.319  71.057  1.00  0.00     0.000 HD 
HETATM   31  O   UNL     1      -8.863  17.336  70.292  1.00  0.00     2.103 OA 
ENDBRANCH   6  29
ENDBRANCH   2   4
TORSDOF 5
ENDMDL
MODEL      234
REMARK 921   NORMALIZED FREE ENERGY PREDICTED BY IDOCK:   12.09 KCAL/MOL
REMARK 922        TOTAL FREE ENERGY PREDICTED BY IDOCK:   14.62 KCAL/MOL
REMARK 923 INTER-LIGAND FREE ENERGY PREDICTED BY IDOCK:    5.14 KCAL/MOL
REMARK 924 INTRA-LIGAND FREE ENERGY PREDICTED BY IDOCK:    9.48 KCAL/MOL
REMARK 927      BINDING AFFINITY PREDICTED BY RF-SCORE:    0.00 PKD
ROOT
HETATM    1  O   UNL     1     -10.643   3.799  70.943  1.00  0.00     0.566 OA 
HETATM    2  C   UNL     1     -10.252   3.834  69.578  1.00  0.00     0.804 C  
HETATM    3  H   UNL     1     -10.321   3.014  71.369  1.00  0.00     0.000 HD 
ENDROOT
BRANCH   2   4
HETATM    4  C   UNL     1     -10.769   5.096  68.892  1.00  0.00     0.177 C  
HETATM    5  O   UNL     1     -10.320   6.253  69.622  1.00  0.00    -0.187 OA 
HETATM    6  C   UNL     1     -10.281   7.353  68.695  1.00  0.00    -0.191 C  
HETATM    7  H   UNL     1      -7.971   6.164  66.597  1.00  0.00     0.000 HD 
HETATM    8  O   UNL     1     -11.423   5.190  66.545  1.00  0.00     0.100 OA 
HETATM    9  C   UNL     1      -9.742   6.694  67.397  1.00  0.00    -0.128 C  
HETATM   10  C   UNL     1     -10.313   5.277  67.439  1.00  0.00    -0.180 C  
HETATM   11  H   UNL     1     -11.140   5.301  65.646  1.00  0.00     0.000 HD 
HETATM   12  O   UNL     1      -8.302   6.567  67.392  1.00  0.00    -0.119 OA 
BRANCH   6  13
HETATM   13  O   UNL     1      -9.323   8.352  69.113  1.00  0.00    -0.150 OA 
BRANCH  13  14
HETATM   14  C   UNL     1      -8.094   7.830  69.637  1.00  0.00    -0.122 C  
HETATM   15  C   UNL     1      -7.080   7.751  67.482  1.00  0.00    -0.083 C  
HETATM   16  O   UNL     1      -7.415   7.020  68.676  1.00  0.00    -0.097 OA 
HETATM   17  H   UNL     1      -7.232  10.525  71.332  1.00  0.00     0.000 HD 
HETATM   18  C   UNL     1      -6.090   8.866  67.799  1.00  0.00    -0.051 C  
HETATM   19  O   UNL     1      -7.805   9.821  71.055  1.00  0.00    -0.267 OA 
HETATM   20  O   UNL     1      -5.759   9.643  66.642  1.00  0.00    -0.052 OA 
HETATM   21  C   UNL     1      -6.670   9.791  68.881  1.00  0.00    -0.050 C  
HETATM   22  H   UNL     1      -5.142  10.338  66.840  1.00  0.00     0.000 HD 
HETATM   23  O   UNL     1      -5.655  10.731  69.269  1.00  0.00    -0.041 OA 
HETATM   24  C   UNL     1      -7.158   8.982  70.090  1.00  0.00    -0.052 C  
HETATM   25  H   UNL     1      -6.014  11.303  69.937  1.00  0.00     0.000 HD 
BRANCH  15  26
HETATM   26  C   UNL     1      -6.530   6.747  66.466  1.00  0.00    -0.043 C  
HETATM   27  O   UNL     1      -5.238   7.176  66.026  1.00  0.00    -0.022 OA 
HETATM   28  H   UNL     1      -4.897   6.553  65.396  1.00  0.00     0.000 HD 
ENDBRANCH  15  26
ENDBRANCH  13  14
ENDBRANCH   6  13
BRANCH   6  29
HETATM   29  C   UNL     1     -11.723   7.904  68.499  1.00  0.00     1.746 C  
HETATM   30  H   UNL     1     -12.944   8.397  67.006  1.00  0.00     0.000 HD 
HETATM   31  O   UNL     1     -12.064   8.060  67.126  1.00  0.00     3.578 OA 
ENDBRANCH   6  29
ENDBRANCH   2   4
TORSDOF 5
ENDMDL
MODEL      235
REMARK 921   NORMALIZED FREE ENERGY PREDICTED BY IDOCK:   15.60 KCAL/MOL
REMARK 922        TOTAL FREE ENERGY PREDICTED BY IDOCK:   19.16 KCAL/MOL
REMARK 923 INTER-LIGAND FREE ENERGY PREDICTED BY IDOCK:    4.11 KCAL/MOL
REMARK 924 INTRA-LIGAND FREE ENERGY PREDICTED BY IDOCK:   15.04 KCAL/MOL
REMARK 927      BINDING AFFINITY PREDICTED BY RF-SCORE:    0.00 PKD
ROOT
HETATM    1  O   UNL     1     -10.988   6.867  70.595  1.00  0.00    -0.242 OA 
HETATM    2  C   UNL     1     -11.223   7.638  69.425  1.00  0.00     0.138 C  
HETATM    3  H   UNL     1     -11.238   7.348  71.374  1.00  0.00     0.000 HD 
ENDROOT
BRANCH   2   4
HETATM    4  C   UNL     1     -10.821   6.864  68.171  1.00  0.00    -0.194 C  
HETATM    5  O   UNL     1     -10.906   7.735  67.027  1.00  0.00    -0.316 OA 
HETATM    6  C   UNL     1      -9.997   7.223  66.035  1.00  0.00     0.433 C  
HETATM    7  H   UNL     1      -7.143   7.582  67.730  1.00  0.00     0.000 HD 
HETATM    8  O   UNL     1      -9.432   4.861  68.204  1.00  0.00    -0.124 OA 
HETATM    9  C   UNL     1      -8.778   6.769  66.881  1.00  0.00    -0.117 C  
HETATM   10  C   UNL     1      -9.400   6.289  68.193  1.00  0.00    -0.115 C  
HETATM   11  H   UNL     1      -8.552   4.504  68.217  1.00  0.00     0.000 HD 
HETATM   12  O   UNL     1      -7.890   7.860  67.212  1.00  0.00    -0.109 OA 
BRANCH   6  13
HETATM   13  O   UNL     1      -9.550   8.274  65.148  1.00  0.00     0.495 OA 
BRANCH  13  14
HETATM   14  C   UNL     1      -8.818   9.331  65.783  1.00  0.00    -0.177 C  
HETATM   15  C   UNL     1     -10.003  11.018  64.587  1.00  0.00    -0.301 C  
HETATM   16  O   UNL     1      -8.716  10.479  64.937  1.00  0.00    -0.176 OA 
HETATM   17  H   UNL     1     -10.024   8.860  68.816  1.00  0.00     0.000 HD 
HETATM   18  C   UNL     1     -10.724  11.530  65.829  1.00  0.00    -0.271 C  
HETATM   19  O   UNL     1      -9.612   8.611  67.997  1.00  0.00    -0.145 OA 
HETATM   20  O   UNL     1     -12.028  12.041  65.528  1.00  0.00    -0.443 OA 
HETATM   21  C   UNL     1     -10.849  10.401  66.865  1.00  0.00    -0.161 C  
HETATM   22  H   UNL     1     -12.477  12.360  66.302  1.00  0.00     0.000 HD 
HETATM   23  O   UNL     1     -11.386  10.954  68.077  1.00  0.00    -0.291 OA 
HETATM   24  C   UNL     1      -9.489   9.739  67.121  1.00  0.00    -0.154 C  
HETATM   25  H   UNL     1     -11.464  10.257  68.718  1.00  0.00     0.000 HD 
BRANCH  15  26
HETATM   26  C   UNL     1      -9.775  12.115  63.544  1.00  0.00    -0.102 C  
HETATM   27  O   UNL     1     -10.704  13.181  63.766  1.00  0.00    -0.515 OA 
HETATM   28  H   UNL     1     -10.562  13.862  63.119  1.00  0.00     0.000 HD 
ENDBRANCH  15  26
ENDBRANCH  13  14
ENDBRANCH   6  13
BRANCH   6  29
HETATM   29  C   UNL     1     -10.665   6.023  65.305  1.00  0.00     2.381 C  
HETATM   30  H   UNL     1     -12.484   5.441  64.740  1.00  0.00     0.000 HD 
HETATM   31  O   UNL     1     -12.076   6.175  65.186  1.00  0.00     4.619 OA 
ENDBRANCH   6  29
ENDBRANCH   2   4
TORSDOF 5
ENDMDL
MODEL      236
REMARK 921   NORMALIZED FREE ENERGY PREDICTED BY IDOCK:   17.28 KCAL/MOL
REMARK 922        TOTAL FREE ENERGY PREDICTED BY IDOCK:   21.32 KCAL/MOL
REMARK 923 INTER-LIGAND FREE ENERGY PREDICTED BY IDOCK:    9.96 KCAL/MOL
REMARK 924 INTRA-LIGAND FREE ENERGY PREDICTED BY IDOCK:   11.37 KCAL/MOL
REMARK 927      BINDING AFFINITY PREDICTED BY RF-SCORE:    0.00 PKD
ROOT
HETATM    1  O   UNL     1     -12.272   7.112  68.927  1.00  0.00     0.770 OA 
HETATM    2  C   UNL     1     -11.095   7.653  69.508  1.00  0.00    -0.016 C  
HETATM    3  H   UNL     1     -13.011   7.191  69.518  1.00  0.00     0.000 HD 
ENDROOT
BRANCH   2   4
HETATM    4  C   UNL     1      -9.907   7.527  68.557  1.00  0.00    -0.165 C  
HETATM    5  O   UNL     1      -9.926   8.623  67.624  1.00  0.00    -0.170 OA 
HETATM    6  C   UNL     1      -8.571   8.827  67.180  1.00  0.00    -0.117 C  
HETATM    7  H   UNL     1      -7.196   9.641  70.112  1.00  0.00     0.000 HD 
HETATM    8  O   UNL     1      -7.882   6.274  69.080  1.00  0.00    -0.101 OA 
HETATM    9  C   UNL     1      -7.745   8.605  68.475  1.00  0.00    -0.100 C  
HETATM   10  C   UNL     1      -8.532   7.537  69.235  1.00  0.00    -0.136 C  
HETATM   11  H   UNL     1      -7.030   6.280  69.500  1.00  0.00     0.000 HD 
HETATM   12  O   UNL     1      -7.702   9.777  69.319  1.00  0.00    -0.085 OA 
BRANCH   6  13
HETATM   13  O   UNL     1      -8.364  10.194  66.755  1.00  0.00    -0.121 OA 
BRANCH  13  14
HETATM   14  C   UNL     1      -8.697  10.459  65.386  1.00  0.00    -0.180 C  
HETATM   15  C   UNL     1      -6.407  10.645  64.752  1.00  0.00     0.069 C  
HETATM   16  O   UNL     1      -7.704  11.269  64.753  1.00  0.00     0.555 OA 
HETATM   17  H   UNL     1      -9.948   7.482  64.716  1.00  0.00     0.000 HD 
HETATM   18  C   UNL     1      -6.431   9.365  63.924  1.00  0.00    -0.095 C  
HETATM   19  O   UNL     1      -9.848   8.293  65.201  1.00  0.00     0.878 OA 
HETATM   20  O   UNL     1      -5.167   8.692  63.928  1.00  0.00    -0.054 OA 
HETATM   21  C   UNL     1      -7.513   8.413  64.460  1.00  0.00    -0.099 C  
HETATM   22  H   UNL     1      -5.182   7.894  63.412  1.00  0.00     0.000 HD 
HETATM   23  O   UNL     1      -7.618   7.294  63.567  1.00  0.00    -0.103 OA 
HETATM   24  C   UNL     1      -8.861   9.136  64.593  1.00  0.00    -0.142 C  
HETATM   25  H   UNL     1      -8.286   6.705  63.898  1.00  0.00     0.000 HD 
BRANCH  15  26
HETATM   26  C   UNL     1      -5.403  11.671  64.220  1.00  0.00     2.204 C  
HETATM   27  O   UNL     1      -6.109  12.755  63.611  1.00  0.00     7.355 OA 
HETATM   28  H   UNL     1      -5.486  13.392  63.281  1.00  0.00     0.000 HD 
ENDBRANCH  15  26
ENDBRANCH  13  14
ENDBRANCH   6  13
BRANCH   6  29
HETATM   29  C   UNL     1      -8.228   7.769  66.093  1.00  0.00    -0.123 C  
HETATM   30  H   UNL     1      -6.870   6.350  65.766  1.00  0.00     0.000 HD 
HETATM   31  O   UNL     1      -7.080   6.996  66.430  1.00  0.00    -0.070 OA 
ENDBRANCH   6  29
ENDBRANCH   2   4
TORSDOF 5
ENDMDL
MODEL      237
REMARK 921   NORMALIZED FREE ENERGY PREDICTED BY IDOCK:   28.66 KCAL/MOL
REMARK 922        TOTAL FREE ENERGY PREDICTED BY IDOCK:   36.03 KCAL/MOL
REMARK 923 INTER-LIGAND FREE ENERGY PREDICTED BY IDOCK:   -2.46 KCAL/MOL
REMARK 924 INTRA-LIGAND FREE ENERGY PREDICTED BY IDOCK:   38.49 KCAL/MOL
REMARK 927      BINDING AFFINITY PREDICTED BY RF-SCORE:    0.00 PKD
ROOT
HETATM    1  O   UNL     1     -11.279   5.635  67.034  1.00  0.00    -0.416 OA 
HETATM    2  C   UNL     1     -10.527   6.666  67.657  1.00  0.00    -0.227 C  
HETATM    3  H   UNL     1     -12.017   5.994  66.557  1.00  0.00     0.000 HD 
ENDROOT
BRANCH   2   4
HETATM    4  C   UNL     1      -9.340   6.089  68.425  1.00  0.00    -0.119 C  
HETATM    5  O   UNL     1      -8.171   6.116  67.585  1.00  0.00    -0.112 OA 
HETATM    6  C   UNL     1      -7.023   6.158  68.453  1.00  0.00    -0.080 C  
HETATM    7  H   UNL     1      -7.620   9.087  69.940  1.00  0.00     0.000 HD 
HETATM    8  O   UNL     1      -9.213   6.006  70.858  1.00  0.00    -0.152 OA 
HETATM    9  C   UNL     1      -7.483   7.109  69.590  1.00  0.00    -0.098 C  
HETATM   10  C   UNL     1      -8.981   6.833  69.717  1.00  0.00    -0.144 C  
HETATM   11  H   UNL     1      -8.991   6.467  71.658  1.00  0.00     0.000 HD 
HETATM   12  O   UNL     1      -7.339   8.504  69.244  1.00  0.00    -0.068 OA 
BRANCH   6  13
HETATM   13  O   UNL     1      -5.894   6.774  67.793  1.00  0.00    -0.018 OA 
BRANCH  13  14
HETATM   14  C   UNL     1      -5.310   7.879  68.496  1.00  0.00    -0.027 C  
HETATM   15  C   UNL     1      -6.505   9.479  67.196  1.00  0.00    -0.066 C  
HETATM   16  O   UNL     1      -5.218   9.039  67.667  1.00  0.00    -0.034 OA 
HETATM   17  H   UNL     1      -6.758   7.287  71.400  1.00  0.00     0.000 HD 
HETATM   18  C   UNL     1      -7.378   9.922  68.364  1.00  0.00    -0.078 C  
HETATM   19  O   UNL     1      -6.253   7.079  70.623  1.00  0.00    -0.031 OA 
HETATM   20  O   UNL     1      -8.683  10.333  67.941  1.00  0.00    -0.121 OA 
HETATM   21  C   UNL     1      -7.513   8.778  69.382  1.00  0.00    -0.080 C  
HETATM   22  H   UNL     1      -9.227  10.610  68.670  1.00  0.00     0.000 HD 
HETATM   23  O   UNL     1      -8.204   9.276  70.538  1.00  0.00    -0.159 OA 
HETATM   24  C   UNL     1      -6.135   8.220  69.765  1.00  0.00    -0.029 C  
HETATM   25  H   UNL     1      -8.288   8.569  71.167  1.00  0.00     0.000 HD 
BRANCH  15  26
HETATM   26  C   UNL     1      -6.265  10.601  66.182  1.00  0.00    -0.125 C  
HETATM   27  O   UNL     1      -7.081  10.380  65.028  1.00  0.00    -0.214 OA 
HETATM   28  H   UNL     1      -6.933  11.075  64.399  1.00  0.00     0.000 HD 
ENDBRANCH  15  26
ENDBRANCH  13  14
ENDBRANCH   6  13
BRANCH   6  29
HETATM   29  C   UNL     1      -6.737   4.724  68.987  1.00  0.00    -0.049 C  
HETATM   30  H   UNL     1      -5.170   3.565  69.391  1.00  0.00     0.000 HD 
HETATM   31  O   UNL     1      -5.345   4.441  69.066  1.00  0.00    -0.010 OA 
ENDBRANCH   6  29
ENDBRANCH   2   4
TORSDOF 5
ENDMDL
