MODEL        1
REMARK 921   NORMALIZED FREE ENERGY PREDICTED BY IDOCK:   -6.04 KCAL/MOL
REMARK 922        TOTAL FREE ENERGY PREDICTED BY IDOCK:   -9.37 KCAL/MOL
REMARK 923 INTER-LIGAND FREE ENERGY PREDICTED BY IDOCK:   -8.86 KCAL/MOL
REMARK 924 INTRA-LIGAND FREE ENERGY PREDICTED BY IDOCK:   -0.50 KCAL/MOL
REMARK 927      BINDING AFFINITY PREDICTED BY RF-SCORE:    0.00 PKD
ROOT
HETATM    1  C   UNL     1     -12.385  14.245  64.352  1.00  0.00    -0.417 C  
HETATM    2  C   UNL     1     -11.052  14.347  65.072  1.00  0.00    -0.385 C  
ENDROOT
BRANCH   2   3
HETATM    3  C   UNL     1     -10.611  15.764  65.398  1.00  0.00    -0.421 C  
HETATM    4  N   UNL     1     -10.208  16.050  66.719  1.00  0.00    -0.268 N  
HETATM    5  O   UNL     1     -10.683  16.626  64.516  1.00  0.00    -0.741 OA 
BRANCH   4   6
HETATM    6  C   UNL     1      -9.852  17.440  66.937  1.00  0.00    -0.289 A  
HETATM    7  C   UNL     1      -8.547  17.912  66.758  1.00  0.00    -0.271 A  
HETATM    8  C   UNL     1      -8.216  19.240  67.057  1.00  0.00    -0.287 A  
HETATM    9  C   UNL     1     -10.835  18.352  67.348  1.00  0.00    -0.306 A  
HETATM   10  C   UNL     1      -9.186  20.117  67.533  1.00  0.00    -0.487 A  
HETATM   11  C   UNL     1     -10.499  19.673  67.673  1.00  0.00    -0.579 A  
ENDBRANCH   4   6
BRANCH   4  12
HETATM   12  C   UNL     1      -9.790  15.026  67.808  1.00  0.00    -0.220 C  
HETATM   13  C   UNL     1     -10.723  13.766  67.896  1.00  0.00    -0.256 C  
HETATM   14  N   UNL     1     -12.148  14.711  69.718  1.00  0.00    -0.317 NA 
HETATM   15  C   UNL     1     -12.134  14.078  68.396  1.00  0.00    -0.283 C  
HETATM   16  C   UNL     1      -9.848  15.625  69.249  1.00  0.00    -0.269 C  
HETATM   17  C   UNL     1     -11.287  15.902  69.701  1.00  0.00    -0.342 C  
BRANCH  12  18
HETATM   18  C   UNL     1      -8.340  14.485  67.541  1.00  0.00    -0.188 C  
BRANCH  18  19
HETATM   19  O   UNL     1      -8.320  13.101  67.204  1.00  0.00    -0.181 OA 
HETATM   20  C   UNL     1      -7.023  12.535  67.345  1.00  0.00    -0.147 C  
ENDBRANCH  18  19
ENDBRANCH  12  18
BRANCH  14  21
HETATM   21  C   UNL     1     -11.824  13.766  70.802  1.00  0.00    -0.135 C  
BRANCH  21  22
HETATM   22  C   UNL     1     -12.939  12.742  71.081  1.00  0.00    -0.244 C  
BRANCH  22  23
HETATM   23  C   UNL     1     -12.433  11.340  70.937  1.00  0.00    -0.394 A  
HETATM   24  C   UNL     1     -11.435  10.877  70.107  1.00  0.00    -0.405 A  
HETATM   25  C   UNL     1     -11.240   9.475  70.249  1.00  0.00    -0.307 A  
HETATM   26  C   UNL     1     -12.089   8.918  71.179  1.00  0.00    -0.277 A  
HETATM   27  S   UNL     1     -13.122  10.082  71.876  1.00  0.00    -0.449 SA 
ENDBRANCH  22  23
ENDBRANCH  21  22
ENDBRANCH  14  21
ENDBRANCH   4  12
ENDBRANCH   2   3
TORSDOF 8
ENDMDL
MODEL        2
REMARK 921   NORMALIZED FREE ENERGY PREDICTED BY IDOCK:   -5.97 KCAL/MOL
REMARK 922        TOTAL FREE ENERGY PREDICTED BY IDOCK:   -9.26 KCAL/MOL
REMARK 923 INTER-LIGAND FREE ENERGY PREDICTED BY IDOCK:   -9.17 KCAL/MOL
REMARK 924 INTRA-LIGAND FREE ENERGY PREDICTED BY IDOCK:   -0.09 KCAL/MOL
REMARK 927      BINDING AFFINITY PREDICTED BY RF-SCORE:    0.00 PKD
ROOT
HETATM    1  C   UNL     1     -10.320  18.662  66.110  1.00  0.00    -0.481 C  
HETATM    2  C   UNL     1      -9.832  17.252  66.392  1.00  0.00    -0.310 C  
ENDROOT
BRANCH   2   3
HETATM    3  C   UNL     1     -10.513  16.167  65.574  1.00  0.00    -0.386 C  
HETATM    4  N   UNL     1     -10.314  14.824  65.953  1.00  0.00    -0.302 N  
HETATM    5  O   UNL     1     -11.158  16.495  64.573  1.00  0.00    -0.821 OA 
BRANCH   4   6
HETATM    6  C   UNL     1     -10.967  13.865  65.080  1.00  0.00    -0.350 A  
HETATM    7  C   UNL     1     -12.356  13.703  65.057  1.00  0.00    -0.462 A  
HETATM    8  C   UNL     1     -12.952  12.712  64.266  1.00  0.00    -0.204 A  
HETATM    9  C   UNL     1     -10.193  13.060  64.230  1.00  0.00    -0.316 A  
HETATM   10  C   UNL     1     -12.167  11.872  63.481  1.00  0.00    -0.591 A  
HETATM   11  C   UNL     1     -10.786  12.051  63.460  1.00  0.00    -0.513 A  
ENDBRANCH   4   6
BRANCH   4  12
HETATM   12  C   UNL     1      -9.799  14.307  67.323  1.00  0.00    -0.244 C  
HETATM   13  C   UNL     1     -10.293  12.863  67.691  1.00  0.00    -0.218 C  
HETATM   14  N   UNL     1     -12.241  13.666  69.035  1.00  0.00    -0.296 NA 
HETATM   15  C   UNL     1     -11.796  12.776  67.958  1.00  0.00    -0.336 C  
HETATM   16  C   UNL     1     -10.295  15.180  68.519  1.00  0.00    -0.230 C  
HETATM   17  C   UNL     1     -11.805  15.039  68.748  1.00  0.00    -0.301 C  
BRANCH  12  18
HETATM   18  C   UNL     1      -8.229  14.257  67.347  1.00  0.00    -0.202 C  
BRANCH  18  19
HETATM   19  O   UNL     1      -7.662  15.139  68.311  1.00  0.00    -0.111 OA 
HETATM   20  C   UNL     1      -6.594  15.906  67.772  1.00  0.00    -0.160 C  
ENDBRANCH  18  19
ENDBRANCH  12  18
BRANCH  14  21
HETATM   21  C   UNL     1     -11.837  13.187  70.369  1.00  0.00    -0.180 C  
BRANCH  21  22
HETATM   22  C   UNL     1     -12.895  12.304  71.055  1.00  0.00    -0.251 C  
BRANCH  22  23
HETATM   23  C   UNL     1     -12.429  10.885  71.159  1.00  0.00    -0.405 A  
HETATM   24  C   UNL     1     -11.289  10.323  70.628  1.00  0.00    -0.431 A  
HETATM   25  C   UNL     1     -11.191   8.937  70.938  1.00  0.00    -0.334 A  
HETATM   26  C   UNL     1     -12.252   8.492  71.693  1.00  0.00    -0.322 A  
HETATM   27  S   UNL     1     -13.366   9.739  72.025  1.00  0.00    -0.415 SA 
ENDBRANCH  22  23
ENDBRANCH  21  22
ENDBRANCH  14  21
ENDBRANCH   4  12
ENDBRANCH   2   3
TORSDOF 8
ENDMDL
MODEL        3
REMARK 921   NORMALIZED FREE ENERGY PREDICTED BY IDOCK:   -5.90 KCAL/MOL
REMARK 922        TOTAL FREE ENERGY PREDICTED BY IDOCK:   -9.17 KCAL/MOL
REMARK 923 INTER-LIGAND FREE ENERGY PREDICTED BY IDOCK:   -9.33 KCAL/MOL
REMARK 924 INTRA-LIGAND FREE ENERGY PREDICTED BY IDOCK:    0.16 KCAL/MOL
REMARK 927      BINDING AFFINITY PREDICTED BY RF-SCORE:    0.00 PKD
ROOT
HETATM    1  C   UNL     1     -12.362  10.636  70.597  1.00  0.00    -0.462 C  
HETATM    2  C   UNL     1     -11.868  11.857  69.841  1.00  0.00    -0.418 C  
ENDROOT
BRANCH   2   3
HETATM    3  C   UNL     1     -11.704  11.655  68.343  1.00  0.00    -0.307 C  
HETATM    4  N   UNL     1     -11.561  12.797  67.529  1.00  0.00    -0.335 N  
HETATM    5  O   UNL     1     -11.768  10.508  67.888  1.00  0.00    -0.453 OA 
BRANCH   4   6
HETATM    6  C   UNL     1     -11.460  12.499  66.112  1.00  0.00    -0.377 A  
HETATM    7  C   UNL     1     -12.445  12.885  65.196  1.00  0.00    -0.561 A  
HETATM    8  C   UNL     1     -12.361  12.511  63.849  1.00  0.00    -0.576 A  
HETATM    9  C   UNL     1     -10.347  11.794  65.628  1.00  0.00    -0.293 A  
HETATM   10  C   UNL     1     -11.288  11.750  63.395  1.00  0.00    -0.437 A  
HETATM   11  C   UNL     1     -10.276  11.397  64.286  1.00  0.00    -0.367 A  
ENDBRANCH   4   6
BRANCH   4  12
HETATM   12  C   UNL     1     -11.168  14.227  67.987  1.00  0.00    -0.280 C  
HETATM   13  C   UNL     1     -10.747  15.183  66.815  1.00  0.00    -0.311 C  
HETATM   14  N   UNL     1      -8.302  14.726  67.068  1.00  0.00    -0.211 NA 
HETATM   15  C   UNL     1      -9.434  14.785  66.138  1.00  0.00    -0.292 C  
HETATM   16  C   UNL     1      -9.924  14.234  68.931  1.00  0.00    -0.160 C  
HETATM   17  C   UNL     1      -8.638  13.843  68.193  1.00  0.00    -0.180 C  
BRANCH  12  18
HETATM   18  C   UNL     1     -12.367  14.928  68.720  1.00  0.00     0.028 C  
BRANCH  18  19
HETATM   19  O   UNL     1     -12.025  15.388  70.025  1.00  0.00    -0.311 OA 
HETATM   20  C   UNL     1     -13.105  15.255  70.939  1.00  0.00    -0.464 C  
ENDBRANCH  18  19
ENDBRANCH  12  18
BRANCH  14  21
HETATM   21  C   UNL     1      -7.842  16.062  67.485  1.00  0.00    -0.148 C  
BRANCH  21  22
HETATM   22  C   UNL     1      -7.993  17.136  66.392  1.00  0.00    -0.346 C  
BRANCH  22  23
HETATM   23  C   UNL     1      -8.790  18.302  66.887  1.00  0.00    -0.275 A  
HETATM   24  C   UNL     1      -9.007  19.511  66.262  1.00  0.00    -0.400 A  
HETATM   25  C   UNL     1      -9.817  20.375  67.052  1.00  0.00    -0.594 A  
HETATM   26  C   UNL     1     -10.191  19.798  68.244  1.00  0.00    -0.447 A  
HETATM   27  S   UNL     1      -9.564  18.222  68.414  1.00  0.00    -0.350 SA 
ENDBRANCH  22  23
ENDBRANCH  21  22
ENDBRANCH  14  21
ENDBRANCH   4  12
ENDBRANCH   2   3
TORSDOF 8
ENDMDL
MODEL        4
REMARK 921   NORMALIZED FREE ENERGY PREDICTED BY IDOCK:   -5.87 KCAL/MOL
REMARK 922        TOTAL FREE ENERGY PREDICTED BY IDOCK:   -9.11 KCAL/MOL
REMARK 923 INTER-LIGAND FREE ENERGY PREDICTED BY IDOCK:   -8.68 KCAL/MOL
REMARK 924 INTRA-LIGAND FREE ENERGY PREDICTED BY IDOCK:   -0.43 KCAL/MOL
REMARK 927      BINDING AFFINITY PREDICTED BY RF-SCORE:    0.00 PKD
ROOT
HETATM    1  C   UNL     1     -11.783  15.148  71.844  1.00  0.00    -0.490 C  
HETATM    2  C   UNL     1     -11.156  15.550  70.521  1.00  0.00    -0.369 C  
ENDROOT
BRANCH   2   3
HETATM    3  C   UNL     1     -11.504  14.644  69.351  1.00  0.00    -0.296 C  
HETATM    4  N   UNL     1     -10.835  14.850  68.127  1.00  0.00    -0.250 N  
HETATM    5  O   UNL     1     -12.403  13.809  69.493  1.00  0.00    -0.316 OA 
BRANCH   4   6
HETATM    6  C   UNL     1     -11.273  13.967  67.062  1.00  0.00    -0.313 A  
HETATM    7  C   UNL     1     -10.640  12.748  66.796  1.00  0.00    -0.266 A  
HETATM    8  C   UNL     1     -11.031  11.955  65.709  1.00  0.00    -0.359 A  
HETATM    9  C   UNL     1     -12.362  14.335  66.258  1.00  0.00    -0.399 A  
HETATM   10  C   UNL     1     -12.066  12.367  64.875  1.00  0.00    -0.470 A  
HETATM   11  C   UNL     1     -12.736  13.556  65.154  1.00  0.00    -0.453 A  
ENDBRANCH   4   6
BRANCH   4  12
HETATM   12  C   UNL     1      -9.512  15.633  67.907  1.00  0.00    -0.204 C  
HETATM   13  C   UNL     1      -9.470  17.033  68.616  1.00  0.00    -0.274 C  
HETATM   14  N   UNL     1     -10.230  18.291  66.594  1.00  0.00    -0.365 NA 
HETATM   15  C   UNL     1     -10.446  18.052  68.025  1.00  0.00    -0.375 C  
HETATM   16  C   UNL     1      -9.259  15.974  66.405  1.00  0.00    -0.339 C  
HETATM   17  C   UNL     1     -10.257  17.011  65.874  1.00  0.00    -0.296 C  
BRANCH  12  18
HETATM   18  C   UNL     1      -8.285  14.822  68.457  1.00  0.00    -0.153 C  
BRANCH  18  19
HETATM   19  O   UNL     1      -7.372  14.437  67.434  1.00  0.00    -0.184 OA 
HETATM   20  C   UNL     1      -6.985  13.074  67.546  1.00  0.00    -0.151 C  
ENDBRANCH  18  19
ENDBRANCH  12  18
BRANCH  14  21
HETATM   21  C   UNL     1      -9.021  19.091  66.331  1.00  0.00    -0.324 C  
BRANCH  21  22
HETATM   22  C   UNL     1      -8.841  20.276  67.297  1.00  0.00    -0.454 C  
BRANCH  22  23
HETATM   23  C   UNL     1      -7.398  20.473  67.646  1.00  0.00    -0.298 A  
HETATM   24  C   UNL     1      -6.458  21.231  66.980  1.00  0.00    -0.395 A  
HETATM   25  C   UNL     1      -5.186  21.168  67.615  1.00  0.00    -0.310 A  
HETATM   26  C   UNL     1      -5.199  20.373  68.738  1.00  0.00    -0.233 A  
HETATM   27  S   UNL     1      -6.738  19.699  69.025  1.00  0.00    -0.347 SA 
ENDBRANCH  22  23
ENDBRANCH  21  22
ENDBRANCH  14  21
ENDBRANCH   4  12
ENDBRANCH   2   3
TORSDOF 8
ENDMDL
MODEL        5
REMARK 921   NORMALIZED FREE ENERGY PREDICTED BY IDOCK:   -5.82 KCAL/MOL
REMARK 922        TOTAL FREE ENERGY PREDICTED BY IDOCK:   -9.04 KCAL/MOL
REMARK 923 INTER-LIGAND FREE ENERGY PREDICTED BY IDOCK:   -8.67 KCAL/MOL
REMARK 924 INTRA-LIGAND FREE ENERGY PREDICTED BY IDOCK:   -0.37 KCAL/MOL
REMARK 927      BINDING AFFINITY PREDICTED BY RF-SCORE:    0.00 PKD
ROOT
HETATM    1  C   UNL     1     -12.404  11.336  70.748  1.00  0.00    -0.495 C  
HETATM    2  C   UNL     1     -11.546  12.303  69.952  1.00  0.00    -0.278 C  
ENDROOT
BRANCH   2   3
HETATM    3  C   UNL     1     -11.589  12.099  68.446  1.00  0.00    -0.327 C  
HETATM    4  N   UNL     1     -10.927  13.038  67.628  1.00  0.00    -0.248 N  
HETATM    5  O   UNL     1     -12.253  11.162  67.992  1.00  0.00    -0.584 OA 
BRANCH   4   6
HETATM    6  C   UNL     1     -11.068  12.781  66.207  1.00  0.00    -0.288 A  
HETATM    7  C   UNL     1     -10.119  12.050  65.484  1.00  0.00    -0.281 A  
HETATM    8  C   UNL     1     -10.239  11.889  64.097  1.00  0.00    -0.364 A  
HETATM    9  C   UNL     1     -12.182  13.282  65.517  1.00  0.00    -0.506 A  
HETATM   10  C   UNL     1     -11.312  12.452  63.414  1.00  0.00    -0.507 A  
HETATM   11  C   UNL     1     -12.288  13.145  64.126  1.00  0.00    -0.418 A  
ENDBRANCH   4   6
BRANCH   4  12
HETATM   12  C   UNL     1      -9.836  14.052  68.066  1.00  0.00    -0.228 C  
HETATM   13  C   UNL     1     -10.221  14.903  69.328  1.00  0.00    -0.219 C  
HETATM   14  N   UNL     1     -11.091  16.832  67.997  1.00  0.00    -0.294 NA 
HETATM   15  C   UNL     1     -11.368  15.885  69.082  1.00  0.00    -0.366 C  
HETATM   16  C   UNL     1      -9.543  15.128  66.973  1.00  0.00    -0.235 C  
HETATM   17  C   UNL     1     -10.721  16.092  66.783  1.00  0.00    -0.259 C  
BRANCH  12  18
HETATM   18  C   UNL     1      -8.497  13.313  68.423  1.00  0.00    -0.128 C  
BRANCH  18  19
HETATM   19  O   UNL     1      -7.586  13.257  67.329  1.00  0.00    -0.146 OA 
HETATM   20  C   UNL     1      -6.877  12.026  67.285  1.00  0.00    -0.150 C  
ENDBRANCH  18  19
ENDBRANCH  12  18
BRANCH  14  21
HETATM   21  C   UNL     1     -10.109  17.861  68.381  1.00  0.00    -0.383 C  
BRANCH  21  22
HETATM   22  C   UNL     1      -9.772  18.848  67.249  1.00  0.00    -0.355 C  
BRANCH  22  23
HETATM   23  C   UNL     1      -8.455  19.517  67.489  1.00  0.00    -0.302 A  
HETATM   24  C   UNL     1      -8.003  20.714  66.976  1.00  0.00    -0.292 A  
HETATM   25  C   UNL     1      -6.689  21.019  67.431  1.00  0.00    -0.446 A  
HETATM   26  C   UNL     1      -6.187  20.052  68.272  1.00  0.00    -0.265 A  
HETATM   27  S   UNL     1      -7.294  18.777  68.510  1.00  0.00    -0.305 SA 
ENDBRANCH  22  23
ENDBRANCH  21  22
ENDBRANCH  14  21
ENDBRANCH   4  12
ENDBRANCH   2   3
TORSDOF 8
ENDMDL
MODEL        6
REMARK 921   NORMALIZED FREE ENERGY PREDICTED BY IDOCK:   -5.78 KCAL/MOL
REMARK 922        TOTAL FREE ENERGY PREDICTED BY IDOCK:   -8.98 KCAL/MOL
REMARK 923 INTER-LIGAND FREE ENERGY PREDICTED BY IDOCK:   -9.10 KCAL/MOL
REMARK 924 INTRA-LIGAND FREE ENERGY PREDICTED BY IDOCK:    0.12 KCAL/MOL
REMARK 927      BINDING AFFINITY PREDICTED BY RF-SCORE:    0.00 PKD
ROOT
HETATM    1  C   UNL     1     -10.653  18.592  66.420  1.00  0.00    -0.399 C  
HETATM    2  C   UNL     1      -9.802  17.350  66.222  1.00  0.00    -0.291 C  
ENDROOT
BRANCH   2   3
HETATM    3  C   UNL     1     -10.494  16.216  65.483  1.00  0.00    -0.386 C  
HETATM    4  N   UNL     1     -10.298  14.900  65.950  1.00  0.00    -0.295 N  
HETATM    5  O   UNL     1     -11.144  16.480  64.467  1.00  0.00    -0.821 OA 
BRANCH   4   6
HETATM    6  C   UNL     1     -10.961  13.888  65.148  1.00  0.00    -0.350 A  
HETATM    7  C   UNL     1     -10.256  13.032  64.296  1.00  0.00    -0.316 A  
HETATM    8  C   UNL     1     -10.930  12.121  63.471  1.00  0.00    -0.521 A  
HETATM    9  C   UNL     1     -12.356  13.755  65.212  1.00  0.00    -0.491 A  
HETATM   10  C   UNL     1     -12.319  12.049  63.492  1.00  0.00    -0.661 A  
HETATM   11  C   UNL     1     -13.033  12.863  64.369  1.00  0.00    -0.107 A  
ENDBRANCH   4   6
BRANCH   4  12
HETATM   12  C   UNL     1      -9.775  14.474  67.348  1.00  0.00    -0.222 C  
HETATM   13  C   UNL     1     -10.184  13.017  67.769  1.00  0.00    -0.228 C  
HETATM   14  N   UNL     1     -12.202  13.749  69.049  1.00  0.00    -0.309 NA 
HETATM   15  C   UNL     1     -11.684  12.845  68.017  1.00  0.00    -0.356 C  
HETATM   16  C   UNL     1     -10.347  15.361  68.499  1.00  0.00    -0.226 C  
HETATM   17  C   UNL     1     -11.848  15.134  68.711  1.00  0.00    -0.303 C  
BRANCH  12  18
HETATM   18  C   UNL     1      -8.207  14.524  67.398  1.00  0.00    -0.202 C  
BRANCH  18  19
HETATM   19  O   UNL     1      -7.643  13.462  68.161  1.00  0.00    -0.113 OA 
HETATM   20  C   UNL     1      -6.505  12.892  67.526  1.00  0.00    -0.160 C  
ENDBRANCH  18  19
ENDBRANCH  12  18
BRANCH  14  21
HETATM   21  C   UNL     1     -11.792  13.351  70.407  1.00  0.00    -0.208 C  
BRANCH  21  22
HETATM   22  C   UNL     1     -12.824  12.465  71.130  1.00  0.00    -0.299 C  
BRANCH  22  23
HETATM   23  C   UNL     1     -12.415  11.026  71.100  1.00  0.00    -0.397 A  
HETATM   24  C   UNL     1     -11.291  10.472  70.526  1.00  0.00    -0.400 A  
HETATM   25  C   UNL     1     -11.250   9.061  70.701  1.00  0.00    -0.318 A  
HETATM   26  C   UNL     1     -12.336   8.587  71.401  1.00  0.00    -0.297 A  
HETATM   27  S   UNL     1     -13.405   9.840  71.843  1.00  0.00    -0.427 SA 
ENDBRANCH  22  23
ENDBRANCH  21  22
ENDBRANCH  14  21
ENDBRANCH   4  12
ENDBRANCH   2   3
TORSDOF 8
ENDMDL
MODEL        7
REMARK 921   NORMALIZED FREE ENERGY PREDICTED BY IDOCK:   -5.75 KCAL/MOL
REMARK 922        TOTAL FREE ENERGY PREDICTED BY IDOCK:   -8.94 KCAL/MOL
REMARK 923 INTER-LIGAND FREE ENERGY PREDICTED BY IDOCK:   -9.09 KCAL/MOL
REMARK 924 INTRA-LIGAND FREE ENERGY PREDICTED BY IDOCK:    0.15 KCAL/MOL
REMARK 927      BINDING AFFINITY PREDICTED BY RF-SCORE:    0.00 PKD
ROOT
HETATM    1  C   UNL     1     -10.368  18.370  66.821  1.00  0.00    -0.420 C  
HETATM    2  C   UNL     1     -10.032  16.911  67.074  1.00  0.00    -0.279 C  
ENDROOT
BRANCH   2   3
HETATM    3  C   UNL     1     -10.553  15.946  66.023  1.00  0.00    -0.323 C  
HETATM    4  N   UNL     1     -10.802  14.612  66.408  1.00  0.00    -0.309 N  
HETATM    5  O   UNL     1     -10.677  16.344  64.860  1.00  0.00    -0.675 OA 
BRANCH   4   6
HETATM    6  C   UNL     1     -11.251  13.761  65.321  1.00  0.00    -0.307 A  
HETATM    7  C   UNL     1     -12.608  13.552  65.050  1.00  0.00    -0.441 A  
HETATM    8  C   UNL     1     -13.012  12.660  64.048  1.00  0.00    -0.136 A  
HETATM    9  C   UNL     1     -10.307  13.114  64.510  1.00  0.00    -0.389 A  
HETATM   10  C   UNL     1     -12.065  11.969  63.298  1.00  0.00    -0.509 A  
HETATM   11  C   UNL     1     -10.710  12.201  63.526  1.00  0.00    -0.509 A  
ENDBRANCH   4   6
BRANCH   4  12
HETATM   12  C   UNL     1     -10.978  14.076  67.854  1.00  0.00    -0.247 C  
HETATM   13  C   UNL     1      -9.626  13.814  68.609  1.00  0.00    -0.121 C  
HETATM   14  N   UNL     1      -9.541  11.389  68.012  1.00  0.00    -0.177 NA 
HETATM   15  C   UNL     1      -8.809  12.659  68.028  1.00  0.00    -0.195 C  
HETATM   16  C   UNL     1     -11.695  12.690  67.897  1.00  0.00    -0.412 C  
HETATM   17  C   UNL     1     -10.823  11.570  67.317  1.00  0.00    -0.256 C  
BRANCH  12  18
HETATM   18  C   UNL     1     -11.786  15.095  68.734  1.00  0.00    -0.342 C  
BRANCH  18  19
HETATM   19  O   UNL     1     -12.238  14.529  69.961  1.00  0.00    -0.312 OA 
HETATM   20  C   UNL     1     -12.584  15.525  70.914  1.00  0.00    -0.456 C  
ENDBRANCH  18  19
ENDBRANCH  12  18
BRANCH  14  21
HETATM   21  C   UNL     1      -9.678  10.798  69.355  1.00  0.00    -0.061 C  
BRANCH  21  22
HETATM   22  C   UNL     1     -10.534   9.518  69.383  1.00  0.00    -0.231 C  
BRANCH  22  23
HETATM   23  C   UNL     1     -11.565   9.582  70.467  1.00  0.00    -0.254 A  
HETATM   24  C   UNL     1     -12.392  10.635  70.793  1.00  0.00    -0.472 A  
HETATM   25  C   UNL     1     -13.239  10.318  71.892  1.00  0.00    -0.550 A  
HETATM   26  C   UNL     1     -13.033   9.041  72.362  1.00  0.00    -0.405 A  
HETATM   27  S   UNL     1     -11.819   8.226  71.485  1.00  0.00    -0.307 SA 
ENDBRANCH  22  23
ENDBRANCH  21  22
ENDBRANCH  14  21
ENDBRANCH   4  12
ENDBRANCH   2   3
TORSDOF 8
ENDMDL
MODEL        8
REMARK 921   NORMALIZED FREE ENERGY PREDICTED BY IDOCK:   -5.73 KCAL/MOL
REMARK 922        TOTAL FREE ENERGY PREDICTED BY IDOCK:   -8.91 KCAL/MOL
REMARK 923 INTER-LIGAND FREE ENERGY PREDICTED BY IDOCK:   -9.06 KCAL/MOL
REMARK 924 INTRA-LIGAND FREE ENERGY PREDICTED BY IDOCK:    0.15 KCAL/MOL
REMARK 927      BINDING AFFINITY PREDICTED BY RF-SCORE:    0.00 PKD
ROOT
HETATM    1  C   UNL     1     -10.772  18.819  65.902  1.00  0.00    -0.323 C  
HETATM    2  C   UNL     1     -10.023  17.504  66.028  1.00  0.00    -0.231 C  
ENDROOT
BRANCH   2   3
HETATM    3  C   UNL     1     -10.657  16.337  65.288  1.00  0.00    -0.336 C  
HETATM    4  N   UNL     1     -10.366  15.030  65.731  1.00  0.00    -0.311 N  
HETATM    5  O   UNL     1     -11.346  16.571  64.290  1.00  0.00    -1.020 OA 
BRANCH   4   6
HETATM    6  C   UNL     1     -10.980  13.988  64.930  1.00  0.00    -0.392 A  
HETATM    7  C   UNL     1     -12.355  13.733  64.965  1.00  0.00    -0.456 A  
HETATM    8  C   UNL     1     -12.908  12.666  64.245  1.00  0.00    -0.306 A  
HETATM    9  C   UNL     1     -10.182  13.196  64.091  1.00  0.00    -0.189 A  
HETATM   10  C   UNL     1     -12.095  11.843  63.472  1.00  0.00    -0.575 A  
HETATM   11  C   UNL     1     -10.730  12.112  63.391  1.00  0.00    -0.461 A  
ENDBRANCH   4   6
BRANCH   4  12
HETATM   12  C   UNL     1      -9.785  14.621  67.112  1.00  0.00    -0.235 C  
HETATM   13  C   UNL     1      -9.899  13.087  67.426  1.00  0.00    -0.215 C  
HETATM   14  N   UNL     1     -12.038  13.314  68.700  1.00  0.00    -0.297 NA 
HETATM   15  C   UNL     1     -11.337  12.604  67.624  1.00  0.00    -0.310 C  
HETATM   16  C   UNL     1     -10.535  15.296  68.303  1.00  0.00    -0.244 C  
HETATM   17  C   UNL     1     -11.963  14.761  68.462  1.00  0.00    -0.248 C  
BRANCH  12  18
HETATM   18  C   UNL     1      -8.258  14.978  67.204  1.00  0.00    -0.222 C  
BRANCH  18  19
HETATM   19  O   UNL     1      -7.617  14.380  68.326  1.00  0.00    -0.107 OA 
HETATM   20  C   UNL     1      -6.969  15.342  69.149  1.00  0.00    -0.154 C  
ENDBRANCH  18  19
ENDBRANCH  12  18
BRANCH  14  21
HETATM   21  C   UNL     1     -11.572  12.912  70.039  1.00  0.00    -0.116 C  
BRANCH  21  22
HETATM   22  C   UNL     1     -12.710  12.732  71.061  1.00  0.00    -0.331 C  
BRANCH  22  23
HETATM   23  C   UNL     1     -13.030  14.023  71.746  1.00  0.00    -0.353 A  
HETATM   24  C   UNL     1     -14.272  14.547  72.036  1.00  0.00    -0.630 A  
HETATM   25  C   UNL     1     -14.172  15.806  72.693  1.00  0.00    -0.351 A  
HETATM   26  C   UNL     1     -12.866  16.196  72.884  1.00  0.00    -0.390 A  
HETATM   27  S   UNL     1     -11.762  15.051  72.269  1.00  0.00    -0.258 SA 
ENDBRANCH  22  23
ENDBRANCH  21  22
ENDBRANCH  14  21
ENDBRANCH   4  12
ENDBRANCH   2   3
TORSDOF 8
ENDMDL
MODEL        9
REMARK 921   NORMALIZED FREE ENERGY PREDICTED BY IDOCK:   -5.67 KCAL/MOL
REMARK 922        TOTAL FREE ENERGY PREDICTED BY IDOCK:   -8.83 KCAL/MOL
REMARK 923 INTER-LIGAND FREE ENERGY PREDICTED BY IDOCK:   -8.53 KCAL/MOL
REMARK 924 INTRA-LIGAND FREE ENERGY PREDICTED BY IDOCK:   -0.30 KCAL/MOL
REMARK 927      BINDING AFFINITY PREDICTED BY RF-SCORE:    0.00 PKD
ROOT
HETATM    1  C   UNL     1     -10.407  10.232  69.460  1.00  0.00    -0.267 C  
HETATM    2  C   UNL     1     -11.324  11.292  68.877  1.00  0.00    -0.340 C  
ENDROOT
BRANCH   2   3
HETATM    3  C   UNL     1     -11.927  12.244  69.897  1.00  0.00    -0.306 C  
HETATM    4  N   UNL     1     -11.742  13.629  69.708  1.00  0.00    -0.299 N  
HETATM    5  O   UNL     1     -12.497  11.771  70.886  1.00  0.00    -0.372 OA 
BRANCH   4   6
HETATM    6  C   UNL     1     -12.314  14.447  70.761  1.00  0.00    -0.347 A  
HETATM    7  C   UNL     1     -11.553  14.919  71.835  1.00  0.00    -0.335 A  
HETATM    8  C   UNL     1     -12.150  15.636  72.880  1.00  0.00    -0.583 A  
HETATM    9  C   UNL     1     -13.676  14.781  70.719  1.00  0.00    -0.092 A  
HETATM   10  C   UNL     1     -13.516  15.899  72.862  1.00  0.00    -0.637 A  
HETATM   11  C   UNL     1     -14.279  15.475  71.776  1.00  0.00    -0.563 A  
ENDBRANCH   4   6
BRANCH   4  12
HETATM   12  C   UNL     1     -11.327  14.343  68.393  1.00  0.00    -0.287 C  
HETATM   13  C   UNL     1      -9.967  13.841  67.792  1.00  0.00    -0.242 C  
HETATM   14  N   UNL     1      -8.606  15.636  68.876  1.00  0.00    -0.193 NA 
HETATM   15  C   UNL     1      -8.748  14.194  68.646  1.00  0.00    -0.126 C  
HETATM   16  C   UNL     1     -11.098  15.875  68.589  1.00  0.00    -0.337 C  
HETATM   17  C   UNL     1      -9.854  16.167  69.439  1.00  0.00    -0.232 C  
BRANCH  12  18
HETATM   18  C   UNL     1     -12.410  14.131  67.275  1.00  0.00    -0.147 C  
BRANCH  18  19
HETATM   19  O   UNL     1     -11.846  14.032  65.971  1.00  0.00    -0.355 OA 
HETATM   20  C   UNL     1     -12.382  12.939  65.237  1.00  0.00    -0.490 C  
ENDBRANCH  18  19
ENDBRANCH  12  18
BRANCH  14  21
HETATM   21  C   UNL     1      -8.147  16.357  67.676  1.00  0.00    -0.156 C  
BRANCH  21  22
HETATM   22  C   UNL     1      -7.696  17.802  67.958  1.00  0.00    -0.238 C  
BRANCH  22  23
HETATM   23  C   UNL     1      -8.664  18.791  67.387  1.00  0.00    -0.273 A  
HETATM   24  C   UNL     1      -8.852  20.106  67.753  1.00  0.00    -0.349 A  
HETATM   25  C   UNL     1      -9.872  20.728  66.980  1.00  0.00    -0.339 A  
HETATM   26  C   UNL     1     -10.424  19.872  66.054  1.00  0.00    -0.475 A  
HETATM   27  S   UNL     1      -9.717  18.322  66.118  1.00  0.00    -0.147 SA 
ENDBRANCH  22  23
ENDBRANCH  21  22
ENDBRANCH  14  21
ENDBRANCH   4  12
ENDBRANCH   2   3
TORSDOF 8
ENDMDL
MODEL       10
REMARK 921   NORMALIZED FREE ENERGY PREDICTED BY IDOCK:   -5.58 KCAL/MOL
REMARK 922        TOTAL FREE ENERGY PREDICTED BY IDOCK:   -8.69 KCAL/MOL
REMARK 923 INTER-LIGAND FREE ENERGY PREDICTED BY IDOCK:   -8.62 KCAL/MOL
REMARK 924 INTRA-LIGAND FREE ENERGY PREDICTED BY IDOCK:   -0.07 KCAL/MOL
REMARK 927      BINDING AFFINITY PREDICTED BY RF-SCORE:    0.00 PKD
ROOT
HETATM    1  C   UNL     1     -12.159  13.526  63.932  1.00  0.00    -0.493 C  
HETATM    2  C   UNL     1     -11.976  14.066  65.339  1.00  0.00    -0.386 C  
ENDROOT
BRANCH   2   3
HETATM    3  C   UNL     1     -11.786  13.004  66.409  1.00  0.00    -0.405 C  
HETATM    4  N   UNL     1     -11.010  13.330  67.541  1.00  0.00    -0.258 N  
HETATM    5  O   UNL     1     -12.260  11.879  66.220  1.00  0.00    -0.471 OA 
BRANCH   4   6
HETATM    6  C   UNL     1     -10.850  12.234  68.479  1.00  0.00    -0.237 A  
HETATM    7  C   UNL     1      -9.728  11.399  68.465  1.00  0.00    -0.199 A  
HETATM    8  C   UNL     1      -9.639  10.298  69.327  1.00  0.00    -0.239 A  
HETATM    9  C   UNL     1     -11.848  11.984  69.433  1.00  0.00    -0.384 A  
HETATM   10  C   UNL     1     -10.670  10.019  70.220  1.00  0.00    -0.367 A  
HETATM   11  C   UNL     1     -11.773  10.868  70.277  1.00  0.00    -0.437 A  
ENDBRANCH   4   6
BRANCH   4  12
HETATM   12  C   UNL     1     -10.629  14.752  68.033  1.00  0.00    -0.244 C  
HETATM   13  C   UNL     1     -10.196  15.732  66.886  1.00  0.00    -0.280 C  
HETATM   14  N   UNL     1      -7.753  15.280  67.163  1.00  0.00    -0.210 NA 
HETATM   15  C   UNL     1      -8.873  15.353  66.219  1.00  0.00    -0.267 C  
HETATM   16  C   UNL     1      -9.399  14.745  68.994  1.00  0.00    -0.160 C  
HETATM   17  C   UNL     1      -8.101  14.374  68.266  1.00  0.00    -0.139 C  
BRANCH  12  18
HETATM   18  C   UNL     1     -11.841  15.434  68.763  1.00  0.00    -0.318 C  
BRANCH  18  19
HETATM   19  O   UNL     1     -11.700  15.440  70.181  1.00  0.00    -0.279 OA 
HETATM   20  C   UNL     1     -12.958  15.460  70.844  1.00  0.00    -0.478 C  
ENDBRANCH  18  19
ENDBRANCH  12  18
BRANCH  14  21
HETATM   21  C   UNL     1      -7.304  16.609  67.612  1.00  0.00    -0.143 C  
BRANCH  21  22
HETATM   22  C   UNL     1      -7.504  17.716  66.561  1.00  0.00    -0.299 C  
BRANCH  22  23
HETATM   23  C   UNL     1      -8.507  18.726  67.024  1.00  0.00    -0.281 A  
HETATM   24  C   UNL     1      -9.001  19.813  66.335  1.00  0.00    -0.440 A  
HETATM   25  C   UNL     1      -9.940  20.547  67.112  1.00  0.00    -0.512 A  
HETATM   26  C   UNL     1     -10.131  19.999  68.360  1.00  0.00    -0.386 A  
HETATM   27  S   UNL     1      -9.179  18.604  68.596  1.00  0.00    -0.304 SA 
ENDBRANCH  22  23
ENDBRANCH  21  22
ENDBRANCH  14  21
ENDBRANCH   4  12
ENDBRANCH   2   3
TORSDOF 8
ENDMDL
MODEL       11
REMARK 921   NORMALIZED FREE ENERGY PREDICTED BY IDOCK:   -5.48 KCAL/MOL
REMARK 922        TOTAL FREE ENERGY PREDICTED BY IDOCK:   -8.54 KCAL/MOL
REMARK 923 INTER-LIGAND FREE ENERGY PREDICTED BY IDOCK:   -8.08 KCAL/MOL
REMARK 924 INTRA-LIGAND FREE ENERGY PREDICTED BY IDOCK:   -0.46 KCAL/MOL
REMARK 927      BINDING AFFINITY PREDICTED BY RF-SCORE:    0.00 PKD
ROOT
HETATM    1  C   UNL     1     -12.472  14.964  64.081  1.00  0.00    -0.093 C  
HETATM    2  C   UNL     1     -12.807  14.323  65.416  1.00  0.00    -0.321 C  
ENDROOT
BRANCH   2   3
HETATM    3  C   UNL     1     -12.212  12.940  65.625  1.00  0.00    -0.463 C  
HETATM    4  N   UNL     1     -11.148  12.804  66.540  1.00  0.00    -0.277 N  
HETATM    5  O   UNL     1     -12.636  12.003  64.941  1.00  0.00    -0.418 OA 
BRANCH   4   6
HETATM    6  C   UNL     1     -10.621  11.454  66.630  1.00  0.00    -0.258 A  
HETATM    7  C   UNL     1      -9.709  10.946  65.699  1.00  0.00    -0.279 A  
HETATM    8  C   UNL     1      -9.282   9.613  65.764  1.00  0.00    -0.264 A  
HETATM    9  C   UNL     1     -11.034  10.616  67.677  1.00  0.00    -0.370 A  
HETATM   10  C   UNL     1      -9.755   8.771  66.765  1.00  0.00    -0.286 A  
HETATM   11  C   UNL     1     -10.628   9.275  67.727  1.00  0.00    -0.307 A  
ENDBRANCH   4   6
BRANCH   4  12
HETATM   12  C   UNL     1     -10.740  13.806  67.653  1.00  0.00    -0.249 C  
HETATM   13  C   UNL     1     -10.621  15.293  67.164  1.00  0.00    -0.302 C  
HETATM   14  N   UNL     1      -8.158  15.164  66.757  1.00  0.00    -0.159 NA 
HETATM   15  C   UNL     1      -9.462  15.533  66.195  1.00  0.00    -0.341 C  
HETATM   16  C   UNL     1      -9.328  13.502  68.246  1.00  0.00    -0.205 C  
HETATM   17  C   UNL     1      -8.207  13.776  67.236  1.00  0.00    -0.159 C  
BRANCH  12  18
HETATM   18  C   UNL     1     -11.792  13.806  68.818  1.00  0.00    -0.363 C  
BRANCH  18  19
HETATM   19  O   UNL     1     -12.106  15.117  69.280  1.00  0.00    -0.298 OA 
HETATM   20  C   UNL     1     -12.580  15.113  70.620  1.00  0.00    -0.395 C  
ENDBRANCH  18  19
ENDBRANCH  12  18
BRANCH  14  21
HETATM   21  C   UNL     1      -7.689  16.122  67.774  1.00  0.00    -0.140 C  
BRANCH  21  22
HETATM   22  C   UNL     1      -7.244  17.475  67.189  1.00  0.00    -0.201 C  
BRANCH  22  23
HETATM   23  C   UNL     1      -8.283  18.528  67.416  1.00  0.00    -0.251 A  
HETATM   24  C   UNL     1      -9.132  18.668  68.492  1.00  0.00    -0.358 A  
HETATM   25  C   UNL     1      -9.987  19.796  68.346  1.00  0.00    -0.549 A  
HETATM   26  C   UNL     1      -9.762  20.477  67.171  1.00  0.00    -0.441 A  
HETATM   27  S   UNL     1      -8.525  19.756  66.244  1.00  0.00    -0.333 SA 
ENDBRANCH  22  23
ENDBRANCH  21  22
ENDBRANCH  14  21
ENDBRANCH   4  12
ENDBRANCH   2   3
TORSDOF 8
ENDMDL
MODEL       12
REMARK 921   NORMALIZED FREE ENERGY PREDICTED BY IDOCK:   -5.47 KCAL/MOL
REMARK 922        TOTAL FREE ENERGY PREDICTED BY IDOCK:   -8.53 KCAL/MOL
REMARK 923 INTER-LIGAND FREE ENERGY PREDICTED BY IDOCK:   -8.06 KCAL/MOL
REMARK 924 INTRA-LIGAND FREE ENERGY PREDICTED BY IDOCK:   -0.47 KCAL/MOL
REMARK 927      BINDING AFFINITY PREDICTED BY RF-SCORE:    0.00 PKD
ROOT
HETATM    1  C   UNL     1      -8.110  17.122  66.283  1.00  0.00    -0.325 C  
HETATM    2  C   UNL     1      -9.505  16.751  66.755  1.00  0.00    -0.261 C  
ENDROOT
BRANCH   2   3
HETATM    3  C   UNL     1     -10.242  15.772  65.856  1.00  0.00    -0.355 C  
HETATM    4  N   UNL     1     -10.374  14.437  66.292  1.00  0.00    -0.287 N  
HETATM    5  O   UNL     1     -10.638  16.161  64.753  1.00  0.00    -0.630 OA 
BRANCH   4   6
HETATM    6  C   UNL     1     -11.050  13.573  65.342  1.00  0.00    -0.293 A  
HETATM    7  C   UNL     1     -10.369  12.933  64.300  1.00  0.00    -0.396 A  
HETATM    8  C   UNL     1     -11.061  12.173  63.349  1.00  0.00    -0.495 A  
HETATM    9  C   UNL     1     -12.433  13.368  65.452  1.00  0.00    -0.543 A  
HETATM   10  C   UNL     1     -12.444  12.035  63.428  1.00  0.00    -0.625 A  
HETATM   11  C   UNL     1     -13.129  12.629  64.485  1.00  0.00    -0.068 A  
ENDBRANCH   4   6
BRANCH   4  12
HETATM   12  C   UNL     1     -10.199  13.907  67.741  1.00  0.00    -0.237 C  
HETATM   13  C   UNL     1      -8.753  14.096  68.322  1.00  0.00    -0.181 C  
HETATM   14  N   UNL     1      -7.990  11.803  67.683  1.00  0.00    -0.134 NA 
HETATM   15  C   UNL     1      -7.693  13.238  67.629  1.00  0.00    -0.171 C  
HETATM   16  C   UNL     1     -10.440  12.368  67.849  1.00  0.00    -0.227 C  
HETATM   17  C   UNL     1      -9.338  11.561  67.151  1.00  0.00    -0.172 C  
BRANCH  12  18
HETATM   18  C   UNL     1     -11.173  14.645  68.727  1.00  0.00    -0.267 C  
BRANCH  18  19
HETATM   19  O   UNL     1     -12.153  13.777  69.289  1.00  0.00    -0.334 OA 
HETATM   20  C   UNL     1     -12.314  13.984  70.686  1.00  0.00    -0.375 C  
ENDBRANCH  18  19
ENDBRANCH  12  18
BRANCH  14  21
HETATM   21  C   UNL     1      -7.775  11.231  69.024  1.00  0.00    -0.095 C  
BRANCH  21  22
HETATM   22  C   UNL     1      -7.993   9.708  69.088  1.00  0.00    -0.099 C  
BRANCH  22  23
HETATM   23  C   UNL     1      -8.903   9.340  70.218  1.00  0.00    -0.224 A  
HETATM   24  C   UNL     1     -10.236   9.652  70.374  1.00  0.00    -0.348 A  
HETATM   25  C   UNL     1     -10.762   9.128  71.588  1.00  0.00    -0.441 A  
HETATM   26  C   UNL     1      -9.819   8.435  72.312  1.00  0.00    -0.313 A  
HETATM   27  S   UNL     1      -8.302   8.419  71.534  1.00  0.00    -0.167 SA 
ENDBRANCH  22  23
ENDBRANCH  21  22
ENDBRANCH  14  21
ENDBRANCH   4  12
ENDBRANCH   2   3
TORSDOF 8
ENDMDL
MODEL       13
REMARK 921   NORMALIZED FREE ENERGY PREDICTED BY IDOCK:   -5.42 KCAL/MOL
REMARK 922        TOTAL FREE ENERGY PREDICTED BY IDOCK:   -8.46 KCAL/MOL
REMARK 923 INTER-LIGAND FREE ENERGY PREDICTED BY IDOCK:   -8.05 KCAL/MOL
REMARK 924 INTRA-LIGAND FREE ENERGY PREDICTED BY IDOCK:   -0.41 KCAL/MOL
REMARK 927      BINDING AFFINITY PREDICTED BY RF-SCORE:    0.00 PKD
ROOT
HETATM    1  C   UNL     1     -13.747   8.284  71.836  1.00  0.00    -0.411 C  
HETATM    2  C   UNL     1     -12.231   8.206  71.851  1.00  0.00    -0.373 C  
ENDROOT
BRANCH   2   3
HETATM    3  C   UNL     1     -11.628   7.314  70.778  1.00  0.00    -0.302 C  
HETATM    4  N   UNL     1     -10.835   7.916  69.779  1.00  0.00    -0.235 N  
HETATM    5  O   UNL     1     -11.908   6.111  70.780  1.00  0.00    -0.229 OA 
BRANCH   4   6
HETATM    6  C   UNL     1     -10.348   6.988  68.776  1.00  0.00    -0.187 A  
HETATM    7  C   UNL     1     -11.093   6.661  67.639  1.00  0.00    -0.357 A  
HETATM    8  C   UNL     1     -10.635   5.698  66.730  1.00  0.00    -0.372 A  
HETATM    9  C   UNL     1      -9.093   6.383  68.941  1.00  0.00    -0.129 A  
HETATM   10  C   UNL     1      -9.420   5.052  66.943  1.00  0.00    -0.148 A  
HETATM   11  C   UNL     1      -8.646   5.400  68.047  1.00  0.00    -0.100 A  
ENDBRANCH   4   6
BRANCH   4  12
HETATM   12  C   UNL     1     -10.175   9.321  69.833  1.00  0.00    -0.214 C  
HETATM   13  C   UNL     1     -11.129  10.458  70.344  1.00  0.00    -0.371 C  
HETATM   14  N   UNL     1     -11.819  11.172  68.050  1.00  0.00    -0.620 NA 
HETATM   15  C   UNL     1     -12.278  10.776  69.386  1.00  0.00    -0.171 C  
HETATM   16  C   UNL     1      -9.723   9.826  68.426  1.00  0.00    -0.162 C  
HETATM   17  C   UNL     1     -10.917  10.143  67.517  1.00  0.00    -0.255 C  
BRANCH  12  18
HETATM   18  C   UNL     1      -8.934   9.319  70.795  1.00  0.00    -0.232 C  
BRANCH  18  19
HETATM   19  O   UNL     1      -7.844  10.086  70.294  1.00  0.00    -0.172 OA 
HETATM   20  C   UNL     1      -6.587   9.559  70.698  1.00  0.00    -0.103 C  
ENDBRANCH  18  19
ENDBRANCH  12  18
BRANCH  14  21
HETATM   21  C   UNL     1     -11.244  12.528  68.029  1.00  0.00    -0.270 C  
BRANCH  21  22
HETATM   22  C   UNL     1     -11.946  13.482  67.045  1.00  0.00    -0.440 C  
BRANCH  22  23
HETATM   23  C   UNL     1     -11.774  13.021  65.631  1.00  0.00    -0.375 A  
HETATM   24  C   UNL     1     -12.753  12.689  64.720  1.00  0.00    -0.460 A  
HETATM   25  C   UNL     1     -12.197  12.290  63.472  1.00  0.00    -0.669 A  
HETATM   26  C   UNL     1     -10.821  12.333  63.472  1.00  0.00    -0.454 A  
HETATM   27  S   UNL     1     -10.200  12.849  64.973  1.00  0.00    -0.238 SA 
ENDBRANCH  22  23
ENDBRANCH  21  22
ENDBRANCH  14  21
ENDBRANCH   4  12
ENDBRANCH   2   3
TORSDOF 8
ENDMDL
MODEL       14
REMARK 921   NORMALIZED FREE ENERGY PREDICTED BY IDOCK:   -5.40 KCAL/MOL
REMARK 922        TOTAL FREE ENERGY PREDICTED BY IDOCK:   -8.42 KCAL/MOL
REMARK 923 INTER-LIGAND FREE ENERGY PREDICTED BY IDOCK:   -8.14 KCAL/MOL
REMARK 924 INTRA-LIGAND FREE ENERGY PREDICTED BY IDOCK:   -0.28 KCAL/MOL
REMARK 927      BINDING AFFINITY PREDICTED BY RF-SCORE:    0.00 PKD
ROOT
HETATM    1  C   UNL     1     -10.558   4.492  73.655  1.00  0.00    -0.315 C  
HETATM    2  C   UNL     1     -11.368   5.377  72.723  1.00  0.00    -0.358 C  
ENDROOT
BRANCH   2   3
HETATM    3  C   UNL     1     -10.753   5.585  71.349  1.00  0.00    -0.221 C  
HETATM    4  N   UNL     1     -10.553   6.907  70.902  1.00  0.00    -0.216 N  
HETATM    5  O   UNL     1     -10.513   4.595  70.650  1.00  0.00    -0.121 OA 
BRANCH   4   6
HETATM    6  C   UNL     1     -10.006   6.998  69.561  1.00  0.00    -0.162 A  
HETATM    7  C   UNL     1      -8.644   7.208  69.324  1.00  0.00    -0.137 A  
HETATM    8  C   UNL     1      -8.157   7.375  68.021  1.00  0.00    -0.124 A  
HETATM    9  C   UNL     1     -10.859   6.879  68.454  1.00  0.00    -0.238 A  
HETATM   10  C   UNL     1      -9.026   7.326  66.934  1.00  0.00    -0.148 A  
HETATM   11  C   UNL     1     -10.378   7.072  67.152  1.00  0.00    -0.351 A  
ENDBRANCH   4   6
BRANCH   4  12
HETATM   12  C   UNL     1     -10.524   8.192  71.773  1.00  0.00    -0.242 C  
HETATM   13  C   UNL     1     -11.865   8.478  72.539  1.00  0.00    -0.398 C  
HETATM   14  N   UNL     1     -12.761  10.016  70.784  1.00  0.00    -0.301 NA 
HETATM   15  C   UNL     1     -13.033   8.843  71.621  1.00  0.00    -0.354 C  
HETATM   16  C   UNL     1     -10.302   9.486  70.928  1.00  0.00    -0.372 C  
HETATM   17  C   UNL     1     -11.511   9.809  70.041  1.00  0.00    -0.180 C  
BRANCH  12  18
HETATM   18  C   UNL     1      -9.402   8.101  72.867  1.00  0.00    -0.273 C  
BRANCH  18  19
HETATM   19  O   UNL     1      -8.217   8.805  72.505  1.00  0.00    -0.387 OA 
HETATM   20  C   UNL     1      -7.051   8.006  72.658  1.00  0.00    -0.093 C  
ENDBRANCH  18  19
ENDBRANCH  12  18
BRANCH  14  21
HETATM   21  C   UNL     1     -12.789  11.275  71.549  1.00  0.00    -0.414 C  
BRANCH  21  22
HETATM   22  C   UNL     1     -12.402  12.512  70.719  1.00  0.00    -0.376 C  
BRANCH  22  23
HETATM   23  C   UNL     1     -12.794  13.776  71.418  1.00  0.00    -0.369 A  
HETATM   24  C   UNL     1     -13.929  14.021  72.161  1.00  0.00    -0.633 A  
HETATM   25  C   UNL     1     -13.951  15.351  72.666  1.00  0.00    -0.590 A  
HETATM   26  C   UNL     1     -12.839  16.072  72.295  1.00  0.00    -0.377 A  
HETATM   27  S   UNL     1     -11.772  15.150  71.338  1.00  0.00    -0.395 SA 
ENDBRANCH  22  23
ENDBRANCH  21  22
ENDBRANCH  14  21
ENDBRANCH   4  12
ENDBRANCH   2   3
TORSDOF 8
ENDMDL
MODEL       15
REMARK 921   NORMALIZED FREE ENERGY PREDICTED BY IDOCK:   -5.28 KCAL/MOL
REMARK 922        TOTAL FREE ENERGY PREDICTED BY IDOCK:   -8.25 KCAL/MOL
REMARK 923 INTER-LIGAND FREE ENERGY PREDICTED BY IDOCK:   -8.06 KCAL/MOL
REMARK 924 INTRA-LIGAND FREE ENERGY PREDICTED BY IDOCK:   -0.19 KCAL/MOL
REMARK 927      BINDING AFFINITY PREDICTED BY RF-SCORE:    0.00 PKD
ROOT
HETATM    1  C   UNL     1     -12.118  14.294  64.355  1.00  0.00    -0.490 C  
HETATM    2  C   UNL     1     -12.570  14.185  65.801  1.00  0.00    -0.475 C  
ENDROOT
BRANCH   2   3
HETATM    3  C   UNL     1     -11.997  12.998  66.558  1.00  0.00    -0.391 C  
HETATM    4  N   UNL     1     -11.258  13.251  67.732  1.00  0.00    -0.267 N  
HETATM    5  O   UNL     1     -12.141  11.866  66.085  1.00  0.00    -0.519 OA 
BRANCH   4   6
HETATM    6  C   UNL     1     -10.715  12.057  68.353  1.00  0.00    -0.229 A  
HETATM    7  C   UNL     1     -11.408  11.349  69.341  1.00  0.00    -0.365 A  
HETATM    8  C   UNL     1     -10.824  10.248  69.982  1.00  0.00    -0.364 A  
HETATM    9  C   UNL     1      -9.451  11.587  67.967  1.00  0.00    -0.181 A  
HETATM   10  C   UNL     1      -9.539   9.836  69.639  1.00  0.00    -0.239 A  
HETATM   11  C   UNL     1      -8.854  10.503  68.626  1.00  0.00    -0.147 A  
ENDBRANCH   4   6
BRANCH   4  12
HETATM   12  C   UNL     1     -11.263  14.555  68.575  1.00  0.00    -0.266 C  
HETATM   13  C   UNL     1     -11.279  15.871  67.719  1.00  0.00    -0.258 C  
HETATM   14  N   UNL     1      -8.798  16.166  67.778  1.00  0.00    -0.183 NA 
HETATM   15  C   UNL     1      -9.991  16.107  66.928  1.00  0.00    -0.254 C  
HETATM   16  C   UNL     1      -9.982  14.706  69.455  1.00  0.00    -0.038 C  
HETATM   17  C   UNL     1      -8.728  14.956  68.608  1.00  0.00    -0.177 C  
BRANCH  12  18
HETATM   18  C   UNL     1     -12.527  14.616  69.504  1.00  0.00    -0.116 C  
BRANCH  18  19
HETATM   19  O   UNL     1     -12.481  15.696  70.432  1.00  0.00    -0.414 OA 
HETATM   20  C   UNL     1     -12.990  15.328  71.707  1.00  0.00    -0.394 C  
ENDBRANCH  18  19
ENDBRANCH  12  18
BRANCH  14  21
HETATM   21  C   UNL     1      -8.715  17.417  68.552  1.00  0.00    -0.277 C  
BRANCH  21  22
HETATM   22  C   UNL     1      -8.776  18.687  67.682  1.00  0.00    -0.288 C  
BRANCH  22  23
HETATM   23  C   UNL     1      -7.611  19.586  67.957  1.00  0.00    -0.296 A  
HETATM   24  C   UNL     1      -7.180  20.669  67.222  1.00  0.00    -0.388 A  
HETATM   25  C   UNL     1      -6.029  21.274  67.800  1.00  0.00    -0.413 A  
HETATM   26  C   UNL     1      -5.624  20.637  68.952  1.00  0.00    -0.339 A  
HETATM   27  S   UNL     1      -6.625  19.311  69.333  1.00  0.00    -0.294 SA 
ENDBRANCH  22  23
ENDBRANCH  21  22
ENDBRANCH  14  21
ENDBRANCH   4  12
ENDBRANCH   2   3
TORSDOF 8
ENDMDL
MODEL       16
REMARK 921   NORMALIZED FREE ENERGY PREDICTED BY IDOCK:   -5.25 KCAL/MOL
REMARK 922        TOTAL FREE ENERGY PREDICTED BY IDOCK:   -8.22 KCAL/MOL
REMARK 923 INTER-LIGAND FREE ENERGY PREDICTED BY IDOCK:   -7.98 KCAL/MOL
REMARK 924 INTRA-LIGAND FREE ENERGY PREDICTED BY IDOCK:   -0.23 KCAL/MOL
REMARK 927      BINDING AFFINITY PREDICTED BY RF-SCORE:    0.00 PKD
ROOT
HETATM    1  C   UNL     1      -5.919  11.004  66.160  1.00  0.00    -0.132 C  
HETATM    2  C   UNL     1      -7.263  11.296  66.802  1.00  0.00    -0.142 C  
ENDROOT
BRANCH   2   3
HETATM    3  C   UNL     1      -8.034  10.067  67.254  1.00  0.00    -0.106 C  
HETATM    4  N   UNL     1      -9.431  10.177  67.411  1.00  0.00    -0.151 N  
HETATM    5  O   UNL     1      -7.405   9.040  67.529  1.00  0.00    -0.080 OA 
BRANCH   4   6
HETATM    6  C   UNL     1     -10.065   8.963  67.891  1.00  0.00    -0.206 A  
HETATM    7  C   UNL     1     -10.269   8.716  69.253  1.00  0.00    -0.215 A  
HETATM    8  C   UNL     1     -10.808   7.500  69.692  1.00  0.00    -0.210 A  
HETATM    9  C   UNL     1     -10.489   7.990  66.973  1.00  0.00    -0.410 A  
HETATM   10  C   UNL     1     -11.157   6.514  68.774  1.00  0.00    -0.357 A  
HETATM   11  C   UNL     1     -11.002   6.762  67.412  1.00  0.00    -0.407 A  
ENDBRANCH   4   6
BRANCH   4  12
HETATM   12  C   UNL     1     -10.352  11.280  66.823  1.00  0.00    -0.238 C  
HETATM   13  C   UNL     1      -9.779  12.735  66.963  1.00  0.00    -0.224 C  
HETATM   14  N   UNL     1     -11.010  13.221  69.083  1.00  0.00    -0.206 NA 
HETATM   15  C   UNL     1      -9.708  13.233  68.407  1.00  0.00    -0.198 C  
HETATM   16  C   UNL     1     -11.733  11.358  67.549  1.00  0.00    -0.220 C  
HETATM   17  C   UNL     1     -11.600  11.879  68.985  1.00  0.00    -0.317 C  
BRANCH  12  18
HETATM   18  C   UNL     1     -10.597  11.046  65.290  1.00  0.00    -0.214 C  
BRANCH  18  19
HETATM   19  O   UNL     1     -10.327  12.203  64.504  1.00  0.00    -0.279 OA 
HETATM   20  C   UNL     1     -11.360  12.463  63.562  1.00  0.00    -0.476 C  
ENDBRANCH  18  19
ENDBRANCH  12  18
BRANCH  14  21
HETATM   21  C   UNL     1     -11.903  14.293  68.612  1.00  0.00    -0.344 C  
BRANCH  21  22
HETATM   22  C   UNL     1     -11.764  15.606  69.404  1.00  0.00    -0.395 C  
BRANCH  22  23
HETATM   23  C   UNL     1     -12.554  15.556  70.675  1.00  0.00    -0.443 A  
HETATM   24  C   UNL     1     -13.894  15.274  70.833  1.00  0.00    -0.311 A  
HETATM   25  C   UNL     1     -14.285  15.327  72.200  1.00  0.00    -0.667 A  
HETATM   26  C   UNL     1     -13.237  15.644  73.034  1.00  0.00    -0.562 A  
HETATM   27  S   UNL     1     -11.785  15.880  72.172  1.00  0.00    -0.471 SA 
ENDBRANCH  22  23
ENDBRANCH  21  22
ENDBRANCH  14  21
ENDBRANCH   4  12
ENDBRANCH   2   3
TORSDOF 8
ENDMDL
MODEL       17
REMARK 921   NORMALIZED FREE ENERGY PREDICTED BY IDOCK:   -5.18 KCAL/MOL
REMARK 922        TOTAL FREE ENERGY PREDICTED BY IDOCK:   -8.11 KCAL/MOL
REMARK 923 INTER-LIGAND FREE ENERGY PREDICTED BY IDOCK:   -8.37 KCAL/MOL
REMARK 924 INTRA-LIGAND FREE ENERGY PREDICTED BY IDOCK:    0.26 KCAL/MOL
REMARK 927      BINDING AFFINITY PREDICTED BY RF-SCORE:    0.00 PKD
ROOT
HETATM    1  C   UNL     1     -12.592  13.789  71.233  1.00  0.00    -0.444 C  
HETATM    2  C   UNL     1     -11.689  13.888  70.016  1.00  0.00    -0.338 C  
ENDROOT
BRANCH   2   3
HETATM    3  C   UNL     1     -11.295  15.305  69.630  1.00  0.00    -0.290 C  
HETATM    4  N   UNL     1     -10.310  15.474  68.635  1.00  0.00    -0.214 N  
HETATM    5  O   UNL     1     -11.801  16.250  70.243  1.00  0.00    -0.214 OA 
BRANCH   4   6
HETATM    6  C   UNL     1      -9.972  16.861  68.374  1.00  0.00    -0.275 A  
HETATM    7  C   UNL     1     -10.892  17.763  67.829  1.00  0.00    -0.238 A  
HETATM    8  C   UNL     1     -10.513  19.073  67.510  1.00  0.00    -0.537 A  
HETATM    9  C   UNL     1      -8.681  17.328  68.665  1.00  0.00    -0.268 A  
HETATM   10  C   UNL     1      -9.209  19.503  67.737  1.00  0.00    -0.395 A  
HETATM   11  C   UNL     1      -8.293  18.630  68.321  1.00  0.00    -0.350 A  
ENDBRANCH   4   6
BRANCH   4  12
HETATM   12  C   UNL     1      -9.834  14.416  67.603  1.00  0.00    -0.224 C  
HETATM   13  C   UNL     1      -9.429  15.016  66.210  1.00  0.00    -0.342 C  
HETATM   14  N   UNL     1     -11.669  14.620  65.174  1.00  0.00    -0.366 NA 
HETATM   15  C   UNL     1     -10.605  15.598  65.424  1.00  0.00    -0.415 C  
HETATM   16  C   UNL     1     -10.949  13.382  67.246  1.00  0.00    -0.286 C  
HETATM   17  C   UNL     1     -12.091  14.019  66.446  1.00  0.00    -0.455 C  
BRANCH  12  18
HETATM   18  C   UNL     1      -8.575  13.643  68.135  1.00  0.00    -0.176 C  
BRANCH  18  19
HETATM   19  O   UNL     1      -8.343  12.420  67.442  1.00  0.00    -0.162 OA 
HETATM   20  C   UNL     1      -7.906  11.386  68.314  1.00  0.00    -0.132 C  
ENDBRANCH  18  19
ENDBRANCH  12  18
BRANCH  14  21
HETATM   21  C   UNL     1     -11.296  13.629  64.149  1.00  0.00    -0.304 C  
BRANCH  21  22
HETATM   22  C   UNL     1     -11.805  12.208  64.451  1.00  0.00    -0.436 C  
BRANCH  22  23
HETATM   23  C   UNL     1     -10.690  11.211  64.391  1.00  0.00    -0.318 A  
HETATM   24  C   UNL     1     -10.262  10.353  65.381  1.00  0.00    -0.329 A  
HETATM   25  C   UNL     1      -9.166   9.555  64.950  1.00  0.00    -0.284 A  
HETATM   26  C   UNL     1      -8.798   9.827  63.652  1.00  0.00    -0.236 A  
HETATM   27  S   UNL     1      -9.768  11.044  62.956  1.00  0.00    -0.345 SA 
ENDBRANCH  22  23
ENDBRANCH  21  22
ENDBRANCH  14  21
ENDBRANCH   4  12
ENDBRANCH   2   3
TORSDOF 8
ENDMDL
MODEL       18
REMARK 921   NORMALIZED FREE ENERGY PREDICTED BY IDOCK:   -5.18 KCAL/MOL
REMARK 922        TOTAL FREE ENERGY PREDICTED BY IDOCK:   -8.11 KCAL/MOL
REMARK 923 INTER-LIGAND FREE ENERGY PREDICTED BY IDOCK:   -7.85 KCAL/MOL
REMARK 924 INTRA-LIGAND FREE ENERGY PREDICTED BY IDOCK:   -0.26 KCAL/MOL
REMARK 927      BINDING AFFINITY PREDICTED BY RF-SCORE:    0.00 PKD
ROOT
HETATM    1  C   UNL     1     -13.833   8.515  71.782  1.00  0.00    -0.462 C  
HETATM    2  C   UNL     1     -12.326   8.335  71.832  1.00  0.00    -0.379 C  
ENDROOT
BRANCH   2   3
HETATM    3  C   UNL     1     -11.763   7.390  70.783  1.00  0.00    -0.276 C  
HETATM    4  N   UNL     1     -10.895   7.920  69.807  1.00  0.00    -0.235 N  
HETATM    5  O   UNL     1     -12.136   6.212  70.783  1.00  0.00    -0.060 OA 
BRANCH   4   6
HETATM    6  C   UNL     1     -10.452   6.948  68.824  1.00  0.00    -0.205 A  
HETATM    7  C   UNL     1     -11.160   6.707  67.642  1.00  0.00    -0.357 A  
HETATM    8  C   UNL     1     -10.754   5.704  66.752  1.00  0.00    -0.358 A  
HETATM    9  C   UNL     1      -9.280   6.212  69.055  1.00  0.00    -0.126 A  
HETATM   10  C   UNL     1      -9.630   4.931  67.028  1.00  0.00    -0.173 A  
HETATM   11  C   UNL     1      -8.889   5.190  68.179  1.00  0.00    -0.107 A  
ENDBRANCH   4   6
BRANCH   4  12
HETATM   12  C   UNL     1     -10.128   9.269  69.873  1.00  0.00    -0.209 C  
HETATM   13  C   UNL     1     -10.967  10.454  70.470  1.00  0.00    -0.270 C  
HETATM   14  N   UNL     1     -11.712  11.301  68.239  1.00  0.00    -0.508 NA 
HETATM   15  C   UNL     1     -12.134  10.891  69.583  1.00  0.00    -0.329 C  
HETATM   16  C   UNL     1      -9.708   9.791  68.463  1.00  0.00    -0.164 C  
HETATM   17  C   UNL     1     -10.917  10.229  67.627  1.00  0.00    -0.294 C  
BRANCH  12  18
HETATM   18  C   UNL     1      -8.846   9.139  70.770  1.00  0.00    -0.239 C  
BRANCH  18  19
HETATM   19  O   UNL     1      -9.151   8.989  72.153  1.00  0.00    -0.372 OA 
HETATM   20  C   UNL     1      -8.548   7.828  72.711  1.00  0.00    -0.153 C  
ENDBRANCH  18  19
ENDBRANCH  12  18
BRANCH  14  21
HETATM   21  C   UNL     1     -11.037  12.611  68.234  1.00  0.00    -0.261 C  
BRANCH  21  22
HETATM   22  C   UNL     1     -12.007  13.806  68.199  1.00  0.00    -0.394 C  
BRANCH  22  23
HETATM   23  C   UNL     1     -12.045  14.509  69.520  1.00  0.00    -0.306 A  
HETATM   24  C   UNL     1     -12.896  14.283  70.580  1.00  0.00    -0.378 A  
HETATM   25  C   UNL     1     -12.627  15.160  71.668  1.00  0.00    -0.422 A  
HETATM   26  C   UNL     1     -11.584  16.018  71.405  1.00  0.00    -0.455 A  
HETATM   27  S   UNL     1     -10.933  15.772  69.849  1.00  0.00    -0.364 SA 
ENDBRANCH  22  23
ENDBRANCH  21  22
ENDBRANCH  14  21
ENDBRANCH   4  12
ENDBRANCH   2   3
TORSDOF 8
ENDMDL
MODEL       19
REMARK 921   NORMALIZED FREE ENERGY PREDICTED BY IDOCK:   -5.17 KCAL/MOL
REMARK 922        TOTAL FREE ENERGY PREDICTED BY IDOCK:   -8.09 KCAL/MOL
REMARK 923 INTER-LIGAND FREE ENERGY PREDICTED BY IDOCK:   -8.05 KCAL/MOL
REMARK 924 INTRA-LIGAND FREE ENERGY PREDICTED BY IDOCK:   -0.05 KCAL/MOL
REMARK 927      BINDING AFFINITY PREDICTED BY RF-SCORE:    0.00 PKD
ROOT
HETATM    1  C   UNL     1     -13.155  15.476  70.991  1.00  0.00    -0.551 C  
HETATM    2  C   UNL     1     -12.425  14.532  70.053  1.00  0.00    -0.348 C  
ENDROOT
BRANCH   2   3
HETATM    3  C   UNL     1     -11.190  15.121  69.392  1.00  0.00    -0.283 C  
HETATM    4  N   UNL     1     -10.498  14.332  68.450  1.00  0.00    -0.242 N  
HETATM    5  O   UNL     1     -10.800  16.237  69.749  1.00  0.00    -0.318 OA 
BRANCH   4   6
HETATM    6  C   UNL     1      -9.308  14.966  67.913  1.00  0.00    -0.191 A  
HETATM    7  C   UNL     1      -8.060  14.857  68.536  1.00  0.00    -0.147 A  
HETATM    8  C   UNL     1      -6.946  15.548  68.042  1.00  0.00    -0.144 A  
HETATM    9  C   UNL     1      -9.395  15.724  66.736  1.00  0.00    -0.264 A  
HETATM   10  C   UNL     1      -7.062  16.354  66.913  1.00  0.00    -0.256 A  
HETATM   11  C   UNL     1      -8.288  16.437  66.256  1.00  0.00    -0.362 A  
ENDBRANCH   4   6
BRANCH   4  12
HETATM   12  C   UNL     1     -11.036  13.079  67.707  1.00  0.00    -0.251 C  
HETATM   13  C   UNL     1     -11.898  12.123  68.606  1.00  0.00    -0.358 C  
HETATM   14  N   UNL     1      -9.983  10.623  69.180  1.00  0.00    -0.216 NA 
HETATM   15  C   UNL     1     -11.097  11.419  69.703  1.00  0.00    -0.174 C  
HETATM   16  C   UNL     1      -9.891  12.155  67.182  1.00  0.00    -0.205 C  
HETATM   17  C   UNL     1      -9.136  11.466  68.325  1.00  0.00    -0.179 C  
BRANCH  12  18
HETATM   18  C   UNL     1     -11.949  13.494  66.499  1.00  0.00    -0.413 C  
BRANCH  18  19
HETATM   19  O   UNL     1     -12.349  12.384  65.701  1.00  0.00    -0.639 OA 
HETATM   20  C   UNL     1     -12.224  12.651  64.311  1.00  0.00    -0.445 C  
ENDBRANCH  18  19
ENDBRANCH  12  18
BRANCH  14  21
HETATM   21  C   UNL     1     -10.433   9.383  68.522  1.00  0.00    -0.208 C  
BRANCH  21  22
HETATM   22  C   UNL     1      -9.841   8.105  69.144  1.00  0.00    -0.182 C  
BRANCH  22  23
HETATM   23  C   UNL     1     -10.506   7.779  70.445  1.00  0.00    -0.221 A  
HETATM   24  C   UNL     1     -11.562   6.923  70.670  1.00  0.00    -0.402 A  
HETATM   25  C   UNL     1     -11.920   6.879  72.047  1.00  0.00    -0.342 A  
HETATM   26  C   UNL     1     -11.128   7.696  72.821  1.00  0.00    -0.383 A  
HETATM   27  S   UNL     1      -9.959   8.518  71.892  1.00  0.00    -0.321 SA 
ENDBRANCH  22  23
ENDBRANCH  21  22
ENDBRANCH  14  21
ENDBRANCH   4  12
ENDBRANCH   2   3
TORSDOF 8
ENDMDL
MODEL       20
REMARK 921   NORMALIZED FREE ENERGY PREDICTED BY IDOCK:   -5.16 KCAL/MOL
REMARK 922        TOTAL FREE ENERGY PREDICTED BY IDOCK:   -8.07 KCAL/MOL
REMARK 923 INTER-LIGAND FREE ENERGY PREDICTED BY IDOCK:   -7.64 KCAL/MOL
REMARK 924 INTRA-LIGAND FREE ENERGY PREDICTED BY IDOCK:   -0.43 KCAL/MOL
REMARK 927      BINDING AFFINITY PREDICTED BY RF-SCORE:    0.00 PKD
ROOT
HETATM    1  C   UNL     1      -7.174   6.684  72.469  1.00  0.00    -0.084 C  
HETATM    2  C   UNL     1      -7.830   7.901  71.843  1.00  0.00    -0.120 C  
ENDROOT
BRANCH   2   3
HETATM    3  C   UNL     1      -9.331   7.999  72.062  1.00  0.00    -0.178 C  
HETATM    4  N   UNL     1     -10.143   8.356  70.965  1.00  0.00    -0.190 N  
HETATM    5  O   UNL     1      -9.777   7.828  73.201  1.00  0.00    -0.236 OA 
BRANCH   4   6
HETATM    6  C   UNL     1     -11.553   8.469  71.290  1.00  0.00    -0.283 A  
HETATM    7  C   UNL     1     -12.112   9.652  71.783  1.00  0.00    -0.446 A  
HETATM    8  C   UNL     1     -13.458   9.707  72.167  1.00  0.00    -0.516 A  
HETATM    9  C   UNL     1     -12.396   7.361  71.116  1.00  0.00    -0.349 A  
HETATM   10  C   UNL     1     -14.267   8.580  72.056  1.00  0.00    -0.535 A  
HETATM   11  C   UNL     1     -13.736   7.407  71.525  1.00  0.00    -0.467 A  
ENDBRANCH   4   6
BRANCH   4  12
HETATM   12  C   UNL     1      -9.758   8.298  69.462  1.00  0.00    -0.174 C  
HETATM   13  C   UNL     1      -8.360   8.932  69.133  1.00  0.00    -0.124 C  
HETATM   14  N   UNL     1      -9.304  11.165  68.524  1.00  0.00    -0.185 NA 
HETATM   15  C   UNL     1      -8.310  10.448  69.329  1.00  0.00    -0.155 C  
HETATM   16  C   UNL     1     -10.747   9.101  68.558  1.00  0.00    -0.160 C  
HETATM   17  C   UNL     1     -10.639  10.613  68.788  1.00  0.00    -0.206 C  
BRANCH  12  18
HETATM   18  C   UNL     1      -9.700   6.812  68.957  1.00  0.00    -0.145 C  
BRANCH  18  19
HETATM   19  O   UNL     1     -10.848   6.439  68.201  1.00  0.00    -0.257 OA 
HETATM   20  C   UNL     1     -10.502   5.764  66.999  1.00  0.00    -0.280 C  
ENDBRANCH  18  19
ENDBRANCH  12  18
BRANCH  14  21
HETATM   21  C   UNL     1      -8.954  11.201  67.093  1.00  0.00    -0.145 C  
BRANCH  21  22
HETATM   22  C   UNL     1      -9.194  12.570  66.432  1.00  0.00    -0.177 C  
BRANCH  22  23
HETATM   23  C   UNL     1     -10.425  12.551  65.581  1.00  0.00    -0.273 A  
HETATM   24  C   UNL     1     -11.737  12.697  65.980  1.00  0.00    -0.470 A  
HETATM   25  C   UNL     1     -12.634  12.616  64.878  1.00  0.00    -0.525 A  
HETATM   26  C   UNL     1     -11.981  12.415  63.683  1.00  0.00    -0.539 A  
HETATM   27  S   UNL     1     -10.291  12.320  63.888  1.00  0.00    -0.427 SA 
ENDBRANCH  22  23
ENDBRANCH  21  22
ENDBRANCH  14  21
ENDBRANCH   4  12
ENDBRANCH   2   3
TORSDOF 8
ENDMDL
MODEL       21
REMARK 921   NORMALIZED FREE ENERGY PREDICTED BY IDOCK:   -5.14 KCAL/MOL
REMARK 922        TOTAL FREE ENERGY PREDICTED BY IDOCK:   -8.04 KCAL/MOL
REMARK 923 INTER-LIGAND FREE ENERGY PREDICTED BY IDOCK:   -7.99 KCAL/MOL
REMARK 924 INTRA-LIGAND FREE ENERGY PREDICTED BY IDOCK:   -0.05 KCAL/MOL
REMARK 927      BINDING AFFINITY PREDICTED BY RF-SCORE:    0.00 PKD
ROOT
HETATM    1  C   UNL     1     -12.483  15.635  71.743  1.00  0.00    -0.507 C  
HETATM    2  C   UNL     1     -11.713  15.997  70.485  1.00  0.00    -0.350 C  
ENDROOT
BRANCH   2   3
HETATM    3  C   UNL     1     -11.830  14.987  69.355  1.00  0.00    -0.329 C  
HETATM    4  N   UNL     1     -11.230  15.300  68.118  1.00  0.00    -0.311 N  
HETATM    5  O   UNL     1     -12.499  13.965  69.539  1.00  0.00    -0.286 OA 
BRANCH   4   6
HETATM    6  C   UNL     1     -11.439  14.295  67.092  1.00  0.00    -0.359 A  
HETATM    7  C   UNL     1     -12.160  14.561  65.924  1.00  0.00    -0.288 A  
HETATM    8  C   UNL     1     -12.418  13.548  64.990  1.00  0.00    -0.462 A  
HETATM    9  C   UNL     1     -10.914  13.005  67.266  1.00  0.00    -0.288 A  
HETATM   10  C   UNL     1     -11.952  12.255  65.209  1.00  0.00    -0.391 A  
HETATM   11  C   UNL     1     -11.194  11.985  66.347  1.00  0.00    -0.389 A  
ENDBRANCH   4   6
BRANCH   4  12
HETATM   12  C   UNL     1     -10.137  16.371  67.855  1.00  0.00    -0.250 C  
HETATM   13  C   UNL     1      -9.157  16.013  66.681  1.00  0.00    -0.282 C  
HETATM   14  N   UNL     1      -7.426  15.008  68.179  1.00  0.00    -0.105 NA 
HETATM   15  C   UNL     1      -8.249  14.819  66.979  1.00  0.00    -0.179 C  
HETATM   16  C   UNL     1      -9.186  16.571  69.078  1.00  0.00    -0.237 C  
HETATM   17  C   UNL     1      -8.290  15.349  69.317  1.00  0.00    -0.254 C  
BRANCH  12  18
HETATM   18  C   UNL     1     -10.785  17.752  67.484  1.00  0.00    -0.307 C  
BRANCH  18  19
HETATM   19  O   UNL     1     -10.357  18.811  68.336  1.00  0.00    -0.370 OA 
HETATM   20  C   UNL     1     -10.039  19.989  67.607  1.00  0.00    -0.422 C  
ENDBRANCH  18  19
ENDBRANCH  12  18
BRANCH  14  21
HETATM   21  C   UNL     1      -6.328  15.967  67.965  1.00  0.00    -0.131 C  
BRANCH  21  22
HETATM   22  C   UNL     1      -5.529  16.286  69.243  1.00  0.00    -0.116 C  
BRANCH  22  23
HETATM   23  C   UNL     1      -5.670  17.728  69.621  1.00  0.00    -0.234 A  
HETATM   24  C   UNL     1      -5.377  18.323  70.829  1.00  0.00    -0.254 A  
HETATM   25  C   UNL     1      -5.648  19.720  70.807  1.00  0.00    -0.299 A  
HETATM   26  C   UNL     1      -6.132  20.142  69.590  1.00  0.00    -0.354 A  
HETATM   27  S   UNL     1      -6.265  18.858  68.477  1.00  0.00    -0.230 SA 
ENDBRANCH  22  23
ENDBRANCH  21  22
ENDBRANCH  14  21
ENDBRANCH   4  12
ENDBRANCH   2   3
TORSDOF 8
ENDMDL
MODEL       22
REMARK 921   NORMALIZED FREE ENERGY PREDICTED BY IDOCK:   -5.12 KCAL/MOL
REMARK 922        TOTAL FREE ENERGY PREDICTED BY IDOCK:   -8.02 KCAL/MOL
REMARK 923 INTER-LIGAND FREE ENERGY PREDICTED BY IDOCK:   -7.78 KCAL/MOL
REMARK 924 INTRA-LIGAND FREE ENERGY PREDICTED BY IDOCK:   -0.24 KCAL/MOL
REMARK 927      BINDING AFFINITY PREDICTED BY RF-SCORE:    0.00 PKD
ROOT
HETATM    1  C   UNL     1     -13.704   8.601  71.848  1.00  0.00    -0.462 C  
HETATM    2  C   UNL     1     -12.193   8.602  71.704  1.00  0.00    -0.388 C  
ENDROOT
BRANCH   2   3
HETATM    3  C   UNL     1     -11.642   7.540  70.767  1.00  0.00    -0.277 C  
HETATM    4  N   UNL     1     -10.803   7.953  69.711  1.00  0.00    -0.235 N  
HETATM    5  O   UNL     1     -12.000   6.368  70.923  1.00  0.00    -0.338 OA 
BRANCH   4   6
HETATM    6  C   UNL     1     -10.370   6.870  68.847  1.00  0.00    -0.189 A  
HETATM    7  C   UNL     1      -9.191   6.154  69.082  1.00  0.00    -0.129 A  
HETATM    8  C   UNL     1      -8.755   5.170  68.185  1.00  0.00    -0.103 A  
HETATM    9  C   UNL     1     -11.145   6.520  67.731  1.00  0.00    -0.366 A  
HETATM   10  C   UNL     1      -9.496   4.882  67.043  1.00  0.00    -0.158 A  
HETATM   11  C   UNL     1     -10.696   5.555  66.819  1.00  0.00    -0.329 A  
ENDBRANCH   4   6
BRANCH   4  12
HETATM   12  C   UNL     1     -10.052   9.306  69.591  1.00  0.00    -0.197 C  
HETATM   13  C   UNL     1     -10.892  10.548  70.057  1.00  0.00    -0.320 C  
HETATM   14  N   UNL     1     -11.701  11.104  67.758  1.00  0.00    -0.602 NA 
HETATM   15  C   UNL     1     -12.085  10.861  69.152  1.00  0.00    -0.221 C  
HETATM   16  C   UNL     1      -9.673   9.653  68.116  1.00  0.00    -0.164 C  
HETATM   17  C   UNL     1     -10.907   9.972  67.263  1.00  0.00    -0.217 C  
BRANCH  12  18
HETATM   18  C   UNL     1      -8.747   9.302  70.464  1.00  0.00    -0.236 C  
BRANCH  18  19
HETATM   19  O   UNL     1      -9.013   9.155  71.855  1.00  0.00    -0.340 OA 
HETATM   20  C   UNL     1      -8.298   8.066  72.425  1.00  0.00    -0.153 C  
ENDBRANCH  18  19
ENDBRANCH  12  18
BRANCH  14  21
HETATM   21  C   UNL     1     -11.043  12.410  67.573  1.00  0.00    -0.266 C  
BRANCH  21  22
HETATM   22  C   UNL     1     -12.027  13.592  67.492  1.00  0.00    -0.385 C  
BRANCH  22  23
HETATM   23  C   UNL     1     -11.693  14.643  68.504  1.00  0.00    -0.316 A  
HETATM   24  C   UNL     1     -10.963  15.797  68.322  1.00  0.00    -0.325 A  
HETATM   25  C   UNL     1     -10.854  16.547  69.527  1.00  0.00    -0.315 A  
HETATM   26  C   UNL     1     -11.503  15.944  70.580  1.00  0.00    -0.400 A  
HETATM   27  S   UNL     1     -12.239  14.477  70.120  1.00  0.00    -0.351 SA 
ENDBRANCH  22  23
ENDBRANCH  21  22
ENDBRANCH  14  21
ENDBRANCH   4  12
ENDBRANCH   2   3
TORSDOF 8
ENDMDL
MODEL       23
REMARK 921   NORMALIZED FREE ENERGY PREDICTED BY IDOCK:   -5.08 KCAL/MOL
REMARK 922        TOTAL FREE ENERGY PREDICTED BY IDOCK:   -7.96 KCAL/MOL
REMARK 923 INTER-LIGAND FREE ENERGY PREDICTED BY IDOCK:   -7.62 KCAL/MOL
REMARK 924 INTRA-LIGAND FREE ENERGY PREDICTED BY IDOCK:   -0.34 KCAL/MOL
REMARK 927      BINDING AFFINITY PREDICTED BY RF-SCORE:    0.00 PKD
ROOT
HETATM    1  C   UNL     1     -12.623  11.851  63.080  1.00  0.00    -0.329 C  
HETATM    2  C   UNL     1     -12.874  12.100  64.557  1.00  0.00    -0.130 C  
ENDROOT
BRANCH   2   3
HETATM    3  C   UNL     1     -12.291  13.397  65.092  1.00  0.00    -0.456 C  
HETATM    4  N   UNL     1     -11.154  13.324  65.923  1.00  0.00    -0.284 N  
HETATM    5  O   UNL     1     -12.871  14.458  64.837  1.00  0.00    -0.645 OA 
BRANCH   4   6
HETATM    6  C   UNL     1     -10.705  14.612  66.419  1.00  0.00    -0.309 A  
HETATM    7  C   UNL     1      -9.775  15.395  65.727  1.00  0.00    -0.385 A  
HETATM    8  C   UNL     1      -9.298  16.595  66.271  1.00  0.00    -0.323 A  
HETATM    9  C   UNL     1     -11.206  15.101  67.635  1.00  0.00    -0.329 A  
HETATM   10  C   UNL     1      -9.749  17.033  67.512  1.00  0.00    -0.251 A  
HETATM   11  C   UNL     1     -10.709  16.287  68.192  1.00  0.00    -0.322 A  
ENDBRANCH   4   6
BRANCH   4  12
HETATM   12  C   UNL     1     -10.179  12.125  66.066  1.00  0.00    -0.237 C  
HETATM   13  C   UNL     1     -10.868  10.789  66.521  1.00  0.00    -0.196 C  
HETATM   14  N   UNL     1     -10.367  11.134  68.945  1.00  0.00    -0.201 NA 
HETATM   15  C   UNL     1     -11.403  10.829  67.953  1.00  0.00    -0.299 C  
HETATM   16  C   UNL     1      -9.089  12.365  67.158  1.00  0.00    -0.199 C  
HETATM   17  C   UNL     1      -9.682  12.378  68.572  1.00  0.00    -0.136 C  
BRANCH  12  18
HETATM   18  C   UNL     1      -9.470  11.814  64.700  1.00  0.00     0.012 C  
BRANCH  18  19
HETATM   19  O   UNL     1      -9.521  10.433  64.352  1.00  0.00    -0.236 OA 
HETATM   20  C   UNL     1      -9.406  10.230  62.949  1.00  0.00    -0.311 C  
ENDBRANCH  18  19
ENDBRANCH  12  18
BRANCH  14  21
HETATM   21  C   UNL     1      -9.451  10.002  69.172  1.00  0.00    -0.207 C  
BRANCH  21  22
HETATM   22  C   UNL     1      -9.443   9.496  70.627  1.00  0.00    -0.277 C  
BRANCH  22  23
HETATM   23  C   UNL     1     -10.613   8.602  70.894  1.00  0.00    -0.214 A  
HETATM   24  C   UNL     1     -11.686   8.831  71.729  1.00  0.00    -0.416 A  
HETATM   25  C   UNL     1     -12.599   7.740  71.724  1.00  0.00    -0.356 A  
HETATM   26  C   UNL     1     -12.198   6.723  70.888  1.00  0.00    -0.331 A  
HETATM   27  S   UNL     1     -10.721   7.079  70.114  1.00  0.00    -0.249 SA 
ENDBRANCH  22  23
ENDBRANCH  21  22
ENDBRANCH  14  21
ENDBRANCH   4  12
ENDBRANCH   2   3
TORSDOF 8
ENDMDL
MODEL       24
REMARK 921   NORMALIZED FREE ENERGY PREDICTED BY IDOCK:   -5.07 KCAL/MOL
REMARK 922        TOTAL FREE ENERGY PREDICTED BY IDOCK:   -7.95 KCAL/MOL
REMARK 923 INTER-LIGAND FREE ENERGY PREDICTED BY IDOCK:   -8.09 KCAL/MOL
REMARK 924 INTRA-LIGAND FREE ENERGY PREDICTED BY IDOCK:    0.15 KCAL/MOL
REMARK 927      BINDING AFFINITY PREDICTED BY RF-SCORE:    0.00 PKD
ROOT
HETATM    1  C   UNL     1      -6.312  12.278  68.452  1.00  0.00    -0.054 C  
HETATM    2  C   UNL     1      -7.761  12.715  68.580  1.00  0.00    -0.114 C  
ENDROOT
BRANCH   2   3
HETATM    3  C   UNL     1      -8.617  12.450  67.352  1.00  0.00    -0.181 C  
HETATM    4  N   UNL     1      -9.745  13.268  67.138  1.00  0.00    -0.230 N  
HETATM    5  O   UNL     1      -8.332  11.493  66.625  1.00  0.00    -0.168 OA 
BRANCH   4   6
HETATM    6  C   UNL     1     -10.521  12.903  65.966  1.00  0.00    -0.276 A  
HETATM    7  C   UNL     1      -9.932  12.720  64.710  1.00  0.00    -0.158 A  
HETATM    8  C   UNL     1     -10.716  12.451  63.581  1.00  0.00    -0.497 A  
HETATM    9  C   UNL     1     -11.909  12.732  66.078  1.00  0.00    -0.495 A  
HETATM   10  C   UNL     1     -12.100  12.354  63.692  1.00  0.00    -0.648 A  
HETATM   11  C   UNL     1     -12.696  12.490  64.944  1.00  0.00    -0.371 A  
ENDBRANCH   4   6
BRANCH   4  12
HETATM   12  C   UNL     1     -10.031  14.652  67.781  1.00  0.00    -0.224 C  
HETATM   13  C   UNL     1     -10.867  15.621  66.872  1.00  0.00    -0.282 C  
HETATM   14  N   UNL     1      -8.859  16.777  65.933  1.00  0.00    -0.513 NA 
HETATM   15  C   UNL     1     -10.119  16.093  65.624  1.00  0.00    -0.337 C  
HETATM   16  C   UNL     1      -8.726  15.458  68.075  1.00  0.00    -0.160 C  
HETATM   17  C   UNL     1      -8.031  15.917  66.787  1.00  0.00    -0.252 C  
BRANCH  12  18
HETATM   18  C   UNL     1     -10.840  14.491  69.117  1.00  0.00    -0.263 C  
BRANCH  18  19
HETATM   19  O   UNL     1     -11.949  15.382  69.203  1.00  0.00    -0.335 OA 
HETATM   20  C   UNL     1     -12.544  15.372  70.494  1.00  0.00    -0.423 C  
ENDBRANCH  18  19
ENDBRANCH  12  18
BRANCH  14  21
HETATM   21  C   UNL     1      -9.070  18.127  66.485  1.00  0.00    -0.276 C  
BRANCH  21  22
HETATM   22  C   UNL     1      -7.919  19.105  66.184  1.00  0.00    -0.291 C  
BRANCH  22  23
HETATM   23  C   UNL     1      -7.262  19.570  67.445  1.00  0.00    -0.215 A  
HETATM   24  C   UNL     1      -7.523  19.169  68.738  1.00  0.00    -0.379 A  
HETATM   25  C   UNL     1      -6.692  19.844  69.676  1.00  0.00    -0.337 A  
HETATM   26  C   UNL     1      -5.828  20.729  69.072  1.00  0.00    -0.342 A  
HETATM   27  S   UNL     1      -6.021  20.751  67.378  1.00  0.00    -0.271 SA 
ENDBRANCH  22  23
ENDBRANCH  21  22
ENDBRANCH  14  21
ENDBRANCH   4  12
ENDBRANCH   2   3
TORSDOF 8
ENDMDL
MODEL       25
REMARK 921   NORMALIZED FREE ENERGY PREDICTED BY IDOCK:   -5.05 KCAL/MOL
REMARK 922        TOTAL FREE ENERGY PREDICTED BY IDOCK:   -7.92 KCAL/MOL
REMARK 923 INTER-LIGAND FREE ENERGY PREDICTED BY IDOCK:   -8.31 KCAL/MOL
REMARK 924 INTRA-LIGAND FREE ENERGY PREDICTED BY IDOCK:    0.39 KCAL/MOL
REMARK 927      BINDING AFFINITY PREDICTED BY RF-SCORE:    0.00 PKD
ROOT
HETATM    1  C   UNL     1     -11.899  13.361  63.766  1.00  0.00    -0.483 C  
HETATM    2  C   UNL     1     -12.297  14.215  64.957  1.00  0.00    -0.452 C  
ENDROOT
BRANCH   2   3
HETATM    3  C   UNL     1     -11.404  15.419  65.205  1.00  0.00    -0.281 C  
HETATM    4  N   UNL     1     -10.938  15.645  66.516  1.00  0.00    -0.261 N  
HETATM    5  O   UNL     1     -11.173  16.190  64.267  1.00  0.00    -0.660 OA 
BRANCH   4   6
HETATM    6  C   UNL     1     -10.134  16.845  66.656  1.00  0.00    -0.304 A  
HETATM    7  C   UNL     1      -8.862  16.961  66.084  1.00  0.00    -0.279 A  
HETATM    8  C   UNL     1      -8.074  18.098  66.305  1.00  0.00    -0.254 A  
HETATM    9  C   UNL     1     -10.630  17.933  67.391  1.00  0.00    -0.370 A  
HETATM   10  C   UNL     1      -8.549  19.140  67.096  1.00  0.00    -0.306 A  
HETATM   11  C   UNL     1      -9.832  19.059  67.634  1.00  0.00    -0.395 A  
ENDBRANCH   4   6
BRANCH   4  12
HETATM   12  C   UNL     1     -10.901  14.621  67.683  1.00  0.00    -0.284 C  
HETATM   13  C   UNL     1      -9.633  14.741  68.601  1.00  0.00    -0.218 C  
HETATM   14  N   UNL     1      -8.347  12.981  67.377  1.00  0.00    -0.185 NA 
HETATM   15  C   UNL     1      -8.329  14.349  67.903  1.00  0.00    -0.162 C  
HETATM   16  C   UNL     1     -10.854  13.143  67.182  1.00  0.00    -0.271 C  
HETATM   17  C   UNL     1      -9.518  12.806  66.508  1.00  0.00    -0.253 C  
BRANCH  12  18
HETATM   18  C   UNL     1     -12.146  14.800  68.623  1.00  0.00    -0.188 C  
BRANCH  18  19
HETATM   19  O   UNL     1     -11.866  15.604  69.765  1.00  0.00    -0.332 OA 
HETATM   20  C   UNL     1     -12.910  15.550  70.728  1.00  0.00    -0.458 C  
ENDBRANCH  18  19
ENDBRANCH  12  18
BRANCH  14  21
HETATM   21  C   UNL     1      -8.245  11.965  68.439  1.00  0.00    -0.160 C  
BRANCH  21  22
HETATM   22  C   UNL     1      -9.044  10.681  68.146  1.00  0.00    -0.148 C  
BRANCH  22  23
HETATM   23  C   UNL     1      -9.707  10.163  69.384  1.00  0.00    -0.229 A  
HETATM   24  C   UNL     1      -9.150   9.413  70.397  1.00  0.00    -0.302 A  
HETATM   25  C   UNL     1     -10.102   9.105  71.409  1.00  0.00    -0.392 A  
HETATM   26  C   UNL     1     -11.345   9.629  71.137  1.00  0.00    -0.386 A  
HETATM   27  S   UNL     1     -11.367  10.487  69.664  1.00  0.00    -0.299 SA 
ENDBRANCH  22  23
ENDBRANCH  21  22
ENDBRANCH  14  21
ENDBRANCH   4  12
ENDBRANCH   2   3
TORSDOF 8
ENDMDL
MODEL       26
REMARK 921   NORMALIZED FREE ENERGY PREDICTED BY IDOCK:   -5.05 KCAL/MOL
REMARK 922        TOTAL FREE ENERGY PREDICTED BY IDOCK:   -7.91 KCAL/MOL
REMARK 923 INTER-LIGAND FREE ENERGY PREDICTED BY IDOCK:   -7.81 KCAL/MOL
REMARK 924 INTRA-LIGAND FREE ENERGY PREDICTED BY IDOCK:   -0.11 KCAL/MOL
REMARK 927      BINDING AFFINITY PREDICTED BY RF-SCORE:    0.00 PKD
ROOT
HETATM    1  C   UNL     1     -12.358  14.346  71.567  1.00  0.00    -0.427 C  
HETATM    2  C   UNL     1     -12.600  13.881  70.142  1.00  0.00    -0.285 C  
ENDROOT
BRANCH   2   3
HETATM    3  C   UNL     1     -11.834  12.631  69.741  1.00  0.00    -0.309 C  
HETATM    4  N   UNL     1     -11.220  12.604  68.472  1.00  0.00    -0.259 N  
HETATM    5  O   UNL     1     -11.832  11.664  70.510  1.00  0.00    -0.342 OA 
BRANCH   4   6
HETATM    6  C   UNL     1     -10.555  11.350  68.168  1.00  0.00    -0.189 A  
HETATM    7  C   UNL     1      -9.457  10.891  68.902  1.00  0.00    -0.182 A  
HETATM    8  C   UNL     1      -8.784   9.719  68.534  1.00  0.00    -0.120 A  
HETATM    9  C   UNL     1     -11.012  10.564  67.100  1.00  0.00    -0.294 A  
HETATM   10  C   UNL     1      -9.204   8.985  67.428  1.00  0.00    -0.158 A  
HETATM   11  C   UNL     1     -10.323   9.406  66.714  1.00  0.00    -0.303 A  
ENDBRANCH   4   6
BRANCH   4  12
HETATM   12  C   UNL     1     -10.895  13.823  67.566  1.00  0.00    -0.265 C  
HETATM   13  C   UNL     1      -9.585  13.660  66.718  1.00  0.00    -0.277 C  
HETATM   14  N   UNL     1      -8.138  14.851  68.372  1.00  0.00    -0.131 NA 
HETATM   15  C   UNL     1      -8.305  13.643  67.556  1.00  0.00    -0.188 C  
HETATM   16  C   UNL     1     -10.642  15.128  68.385  1.00  0.00    -0.238 C  
HETATM   17  C   UNL     1      -9.339  15.059  69.191  1.00  0.00    -0.189 C  
BRANCH  12  18
HETATM   18  C   UNL     1     -12.056  14.083  66.541  1.00  0.00    -0.459 C  
BRANCH  18  19
HETATM   19  O   UNL     1     -11.686  13.784  65.199  1.00  0.00    -0.323 OA 
HETATM   20  C   UNL     1     -12.524  12.792  64.620  1.00  0.00    -0.456 C  
ENDBRANCH  18  19
ENDBRANCH  12  18
BRANCH  14  21
HETATM   21  C   UNL     1      -7.761  16.028  67.569  1.00  0.00    -0.153 C  
BRANCH  21  22
HETATM   22  C   UNL     1      -7.761  17.345  68.366  1.00  0.00    -0.258 C  
BRANCH  22  23
HETATM   23  C   UNL     1      -8.713  18.335  67.772  1.00  0.00    -0.256 A  
HETATM   24  C   UNL     1      -9.990  18.645  68.190  1.00  0.00    -0.397 A  
HETATM   25  C   UNL     1     -10.588  19.638  67.365  1.00  0.00    -0.589 A  
HETATM   26  C   UNL     1      -9.752  20.053  66.353  1.00  0.00    -0.441 A  
HETATM   27  S   UNL     1      -8.252  19.244  66.394  1.00  0.00    -0.323 SA 
ENDBRANCH  22  23
ENDBRANCH  21  22
ENDBRANCH  14  21
ENDBRANCH   4  12
ENDBRANCH   2   3
TORSDOF 8
ENDMDL
MODEL       27
REMARK 921   NORMALIZED FREE ENERGY PREDICTED BY IDOCK:   -5.05 KCAL/MOL
REMARK 922        TOTAL FREE ENERGY PREDICTED BY IDOCK:   -7.91 KCAL/MOL
REMARK 923 INTER-LIGAND FREE ENERGY PREDICTED BY IDOCK:   -7.91 KCAL/MOL
REMARK 924 INTRA-LIGAND FREE ENERGY PREDICTED BY IDOCK:   -0.00 KCAL/MOL
REMARK 927      BINDING AFFINITY PREDICTED BY RF-SCORE:    0.00 PKD
ROOT
HETATM    1  C   UNL     1     -12.530  12.183  63.451  1.00  0.00    -0.625 C  
HETATM    2  C   UNL     1     -12.728  12.722  64.857  1.00  0.00    -0.479 C  
ENDROOT
BRANCH   2   3
HETATM    3  C   UNL     1     -11.852  13.912  65.212  1.00  0.00    -0.357 C  
HETATM    4  N   UNL     1     -11.173  13.893  66.448  1.00  0.00    -0.310 N  
HETATM    5  O   UNL     1     -11.818  14.876  64.440  1.00  0.00    -0.415 OA 
BRANCH   4   6
HETATM    6  C   UNL     1     -10.402  15.095  66.712  1.00  0.00    -0.273 A  
HETATM    7  C   UNL     1      -9.314  15.472  65.919  1.00  0.00    -0.355 A  
HETATM    8  C   UNL     1      -8.537  16.591  66.247  1.00  0.00    -0.367 A  
HETATM    9  C   UNL     1     -10.743  15.912  67.800  1.00  0.00    -0.320 A  
HETATM   10  C   UNL     1      -8.842  17.353  67.371  1.00  0.00    -0.230 A  
HETATM   11  C   UNL     1      -9.950  17.016  68.145  1.00  0.00    -0.287 A  
ENDBRANCH   4   6
BRANCH   4  12
HETATM   12  C   UNL     1     -10.893  12.654  67.340  1.00  0.00    -0.243 C  
HETATM   13  C   UNL     1      -9.500  12.688  68.065  1.00  0.00    -0.209 C  
HETATM   14  N   UNL     1      -8.340  11.341  66.307  1.00  0.00    -0.165 NA 
HETATM   15  C   UNL     1      -8.308  12.565  67.114  1.00  0.00    -0.179 C  
HETATM   16  C   UNL     1     -10.850  11.324  66.524  1.00  0.00    -0.319 C  
HETATM   17  C   UNL     1      -9.626  11.252  65.603  1.00  0.00    -0.229 C  
BRANCH  12  18
HETATM   18  C   UNL     1     -11.976  12.523  68.470  1.00  0.00    -0.219 C  
BRANCH  18  19
HETATM   19  O   UNL     1     -12.397  11.179  68.680  1.00  0.00    -0.549 OA 
HETATM   20  C   UNL     1     -12.091  10.720  69.990  1.00  0.00    -0.345 C  
ENDBRANCH  18  19
ENDBRANCH  12  18
BRANCH  14  21
HETATM   21  C   UNL     1      -8.014  10.138  67.092  1.00  0.00    -0.109 C  
BRANCH  21  22
HETATM   22  C   UNL     1      -8.351   8.820  66.371  1.00  0.00    -0.117 C  
BRANCH  22  23
HETATM   23  C   UNL     1      -9.314   7.998  67.170  1.00  0.00    -0.149 A  
HETATM   24  C   UNL     1     -10.267   7.115  66.708  1.00  0.00    -0.289 A  
HETATM   25  C   UNL     1     -10.999   6.524  67.776  1.00  0.00    -0.407 A  
HETATM   26  C   UNL     1     -10.581   6.971  69.009  1.00  0.00    -0.217 A  
HETATM   27  S   UNL     1      -9.313   8.103  68.881  1.00  0.00    -0.147 SA 
ENDBRANCH  22  23
ENDBRANCH  21  22
ENDBRANCH  14  21
ENDBRANCH   4  12
ENDBRANCH   2   3
TORSDOF 8
ENDMDL
MODEL       28
REMARK 921   NORMALIZED FREE ENERGY PREDICTED BY IDOCK:   -5.05 KCAL/MOL
REMARK 922        TOTAL FREE ENERGY PREDICTED BY IDOCK:   -7.91 KCAL/MOL
REMARK 923 INTER-LIGAND FREE ENERGY PREDICTED BY IDOCK:   -8.16 KCAL/MOL
REMARK 924 INTRA-LIGAND FREE ENERGY PREDICTED BY IDOCK:    0.25 KCAL/MOL
REMARK 927      BINDING AFFINITY PREDICTED BY RF-SCORE:    0.00 PKD
ROOT
HETATM    1  C   UNL     1     -12.421  14.216  64.056  1.00  0.00    -0.206 C  
HETATM    2  C   UNL     1     -11.076  14.429  64.729  1.00  0.00    -0.402 C  
ENDROOT
BRANCH   2   3
HETATM    3  C   UNL     1     -10.774  15.870  65.107  1.00  0.00    -0.429 C  
HETATM    4  N   UNL     1     -10.270  16.128  66.399  1.00  0.00    -0.293 N  
HETATM    5  O   UNL     1     -11.041  16.764  64.298  1.00  0.00    -1.106 OA 
BRANCH   4   6
HETATM    6  C   UNL     1     -10.061  17.536  66.677  1.00  0.00    -0.328 A  
HETATM    7  C   UNL     1     -11.004  18.309  67.362  1.00  0.00    -0.132 A  
HETATM    8  C   UNL     1     -10.813  19.686  67.543  1.00  0.00    -0.463 A  
HETATM    9  C   UNL     1      -8.881  18.162  66.246  1.00  0.00    -0.196 A  
HETATM   10  C   UNL     1      -9.671  20.308  67.047  1.00  0.00    -0.598 A  
HETATM   11  C   UNL     1      -8.702  19.543  66.402  1.00  0.00    -0.389 A  
ENDBRANCH   4   6
BRANCH   4  12
HETATM   12  C   UNL     1      -9.621  15.104  67.369  1.00  0.00    -0.208 C  
HETATM   13  C   UNL     1     -10.133  13.631  67.183  1.00  0.00    -0.245 C  
HETATM   14  N   UNL     1     -11.873  13.808  68.970  1.00  0.00    -0.338 NA 
HETATM   15  C   UNL     1     -11.597  13.433  67.579  1.00  0.00    -0.344 C  
HETATM   16  C   UNL     1      -9.935  15.415  68.867  1.00  0.00    -0.219 C  
HETATM   17  C   UNL     1     -11.412  15.183  69.207  1.00  0.00    -0.311 C  
BRANCH  12  18
HETATM   18  C   UNL     1      -8.064  15.058  67.174  1.00  0.00    -0.214 C  
BRANCH  18  19
HETATM   19  O   UNL     1      -7.408  14.251  68.147  1.00  0.00    -0.104 OA 
HETATM   20  C   UNL     1      -6.470  13.359  67.558  1.00  0.00    -0.118 C  
ENDBRANCH  18  19
ENDBRANCH  12  18
BRANCH  14  21
HETATM   21  C   UNL     1     -11.337  12.833  69.935  1.00  0.00     0.040 C  
BRANCH  21  22
HETATM   22  C   UNL     1     -12.217  11.580  70.101  1.00  0.00    -0.387 C  
BRANCH  22  23
HETATM   23  C   UNL     1     -11.478  10.343  69.697  1.00  0.00    -0.262 A  
HETATM   24  C   UNL     1     -11.279   9.848  68.426  1.00  0.00    -0.134 A  
HETATM   25  C   UNL     1     -10.527   8.640  68.444  1.00  0.00    -0.220 A  
HETATM   26  C   UNL     1     -10.177   8.257  69.719  1.00  0.00    -0.204 A  
HETATM   27  S   UNL     1     -10.757   9.349  70.893  1.00  0.00    -0.348 SA 
ENDBRANCH  22  23
ENDBRANCH  21  22
ENDBRANCH  14  21
ENDBRANCH   4  12
ENDBRANCH   2   3
TORSDOF 8
ENDMDL
MODEL       29
REMARK 921   NORMALIZED FREE ENERGY PREDICTED BY IDOCK:   -5.04 KCAL/MOL
REMARK 922        TOTAL FREE ENERGY PREDICTED BY IDOCK:   -7.90 KCAL/MOL
REMARK 923 INTER-LIGAND FREE ENERGY PREDICTED BY IDOCK:   -7.44 KCAL/MOL
REMARK 924 INTRA-LIGAND FREE ENERGY PREDICTED BY IDOCK:   -0.46 KCAL/MOL
REMARK 927      BINDING AFFINITY PREDICTED BY RF-SCORE:    0.00 PKD
ROOT
HETATM    1  C   UNL     1      -7.851   9.068  64.738  1.00  0.00    -0.122 C  
HETATM    2  C   UNL     1      -9.176   9.391  65.406  1.00  0.00    -0.305 C  
ENDROOT
BRANCH   2   3
HETATM    3  C   UNL     1      -9.817  10.693  64.953  1.00  0.00    -0.302 C  
HETATM    4  N   UNL     1     -10.208  11.622  65.939  1.00  0.00    -0.229 N  
HETATM    5  O   UNL     1     -10.031  10.861  63.748  1.00  0.00    -0.293 OA 
BRANCH   4   6
HETATM    6  C   UNL     1     -10.851  12.808  65.406  1.00  0.00    -0.286 A  
HETATM    7  C   UNL     1     -10.163  14.012  65.225  1.00  0.00    -0.383 A  
HETATM    8  C   UNL     1     -10.830  15.164  64.788  1.00  0.00    -0.378 A  
HETATM    9  C   UNL     1     -12.211  12.766  65.063  1.00  0.00    -0.527 A  
HETATM   10  C   UNL     1     -12.195  15.127  64.519  1.00  0.00    -0.278 A  
HETATM   11  C   UNL     1     -12.884  13.924  64.651  1.00  0.00    -0.033 A  
ENDBRANCH   4   6
BRANCH   4  12
HETATM   12  C   UNL     1      -9.733  11.669  67.416  1.00  0.00    -0.176 C  
HETATM   13  C   UNL     1      -9.960  10.331  68.206  1.00  0.00    -0.166 C  
HETATM   14  N   UNL     1     -12.149  11.052  69.173  1.00  0.00    -0.434 NA 
HETATM   15  C   UNL     1     -11.434   9.999  68.444  1.00  0.00     0.061 C  
HETATM   16  C   UNL     1     -10.506  12.730  68.262  1.00  0.00    -0.250 C  
HETATM   17  C   UNL     1     -11.972  12.335  68.480  1.00  0.00    -0.219 C  
BRANCH  12  18
HETATM   18  C   UNL     1      -8.195  11.976  67.500  1.00  0.00    -0.159 C  
BRANCH  18  19
HETATM   19  O   UNL     1      -7.465  10.962  68.184  1.00  0.00    -0.086 OA 
HETATM   20  C   UNL     1      -6.213  10.693  67.565  1.00  0.00    -0.056 C  
ENDBRANCH  18  19
ENDBRANCH  12  18
BRANCH  14  21
HETATM   21  C   UNL     1     -11.787  11.098  70.601  1.00  0.00    -0.302 C  
BRANCH  21  22
HETATM   22  C   UNL     1     -12.957  10.771  71.546  1.00  0.00    -0.562 C  
BRANCH  22  23
HETATM   23  C   UNL     1     -13.182   9.294  71.636  1.00  0.00    -0.388 A  
HETATM   24  C   UNL     1     -14.380   8.613  71.621  1.00  0.00    -0.451 A  
HETATM   25  C   UNL     1     -14.189   7.207  71.733  1.00  0.00    -0.484 A  
HETATM   26  C   UNL     1     -12.859   6.864  71.826  1.00  0.00    -0.304 A  
HETATM   27  S   UNL     1     -11.843   8.232  71.783  1.00  0.00    -0.329 SA 
ENDBRANCH  22  23
ENDBRANCH  21  22
ENDBRANCH  14  21
ENDBRANCH   4  12
ENDBRANCH   2   3
TORSDOF 8
ENDMDL
MODEL       30
REMARK 921   NORMALIZED FREE ENERGY PREDICTED BY IDOCK:   -5.04 KCAL/MOL
REMARK 922        TOTAL FREE ENERGY PREDICTED BY IDOCK:   -7.90 KCAL/MOL
REMARK 923 INTER-LIGAND FREE ENERGY PREDICTED BY IDOCK:   -8.10 KCAL/MOL
REMARK 924 INTRA-LIGAND FREE ENERGY PREDICTED BY IDOCK:    0.20 KCAL/MOL
REMARK 927      BINDING AFFINITY PREDICTED BY RF-SCORE:    0.00 PKD
ROOT
HETATM    1  C   UNL     1      -7.337  16.022  66.873  1.00  0.00    -0.236 C  
HETATM    2  C   UNL     1      -8.826  15.997  67.170  1.00  0.00    -0.224 C  
ENDROOT
BRANCH   2   3
HETATM    3  C   UNL     1      -9.666  15.244  66.151  1.00  0.00    -0.314 C  
HETATM    4  N   UNL     1     -10.154  13.969  66.502  1.00  0.00    -0.278 N  
HETATM    5  O   UNL     1      -9.834  15.745  65.034  1.00  0.00    -0.336 OA 
BRANCH   4   6
HETATM    6  C   UNL     1     -10.902  13.315  65.445  1.00  0.00    -0.291 A  
HETATM    7  C   UNL     1     -12.300  13.338  65.396  1.00  0.00    -0.528 A  
HETATM    8  C   UNL     1     -12.998  12.628  64.411  1.00  0.00    -0.232 A  
HETATM    9  C   UNL     1     -10.217  12.626  64.433  1.00  0.00    -0.344 A  
HETATM   10  C   UNL     1     -12.308  11.889  63.455  1.00  0.00    -0.577 A  
HETATM   11  C   UNL     1     -10.915  11.893  63.463  1.00  0.00    -0.505 A  
ENDBRANCH   4   6
BRANCH   4  12
HETATM   12  C   UNL     1     -10.272  13.377  67.933  1.00  0.00    -0.241 C  
HETATM   13  C   UNL     1      -8.927  12.799  68.500  1.00  0.00    -0.046 C  
HETATM   14  N   UNL     1      -9.411  10.454  67.784  1.00  0.00    -0.144 NA 
HETATM   15  C   UNL     1      -8.436  11.549  67.768  1.00  0.00    -0.137 C  
HETATM   16  C   UNL     1     -11.250  12.161  68.000  1.00  0.00    -0.319 C  
HETATM   17  C   UNL     1     -10.697  10.935  67.264  1.00  0.00    -0.268 C  
BRANCH  12  18
HETATM   18  C   UNL     1     -10.749  14.470  68.953  1.00  0.00    -0.254 C  
BRANCH  18  19
HETATM   19  O   UNL     1     -12.142  14.390  69.239  1.00  0.00    -0.322 OA 
HETATM   20  C   UNL     1     -12.463  14.961  70.501  1.00  0.00    -0.363 C  
ENDBRANCH  18  19
ENDBRANCH  12  18
BRANCH  14  21
HETATM   21  C   UNL     1      -9.514   9.808  69.105  1.00  0.00    -0.188 C  
BRANCH  21  22
HETATM   22  C   UNL     1     -10.204   8.432  69.067  1.00  0.00    -0.217 C  
BRANCH  22  23
HETATM   23  C   UNL     1     -11.145   8.268  70.220  1.00  0.00    -0.219 A  
HETATM   24  C   UNL     1     -11.771   7.118  70.651  1.00  0.00    -0.348 A  
HETATM   25  C   UNL     1     -12.600   7.361  71.782  1.00  0.00    -0.367 A  
HETATM   26  C   UNL     1     -12.577   8.680  72.175  1.00  0.00    -0.391 A  
HETATM   27  S   UNL     1     -11.562   9.624  71.182  1.00  0.00    -0.408 SA 
ENDBRANCH  22  23
ENDBRANCH  21  22
ENDBRANCH  14  21
ENDBRANCH   4  12
ENDBRANCH   2   3
TORSDOF 8
ENDMDL
MODEL       31
REMARK 921   NORMALIZED FREE ENERGY PREDICTED BY IDOCK:   -5.02 KCAL/MOL
REMARK 922        TOTAL FREE ENERGY PREDICTED BY IDOCK:   -7.88 KCAL/MOL
REMARK 923 INTER-LIGAND FREE ENERGY PREDICTED BY IDOCK:   -7.99 KCAL/MOL
REMARK 924 INTRA-LIGAND FREE ENERGY PREDICTED BY IDOCK:    0.11 KCAL/MOL
REMARK 927      BINDING AFFINITY PREDICTED BY RF-SCORE:    0.00 PKD
ROOT
HETATM    1  C   UNL     1     -11.938  13.021  63.493  1.00  0.00    -0.615 C  
HETATM    2  C   UNL     1     -12.167  12.331  64.826  1.00  0.00    -0.438 C  
ENDROOT
BRANCH   2   3
HETATM    3  C   UNL     1     -10.982  11.529  65.339  1.00  0.00    -0.226 C  
HETATM    4  N   UNL     1     -10.509  11.798  66.639  1.00  0.00    -0.218 N  
HETATM    5  O   UNL     1     -10.438  10.722  64.578  1.00  0.00    -0.357 OA 
BRANCH   4   6
HETATM    6  C   UNL     1      -9.347  11.014  67.015  1.00  0.00    -0.172 A  
HETATM    7  C   UNL     1      -9.457   9.793  67.690  1.00  0.00    -0.164 A  
HETATM    8  C   UNL     1      -8.316   9.099  68.114  1.00  0.00    -0.120 A  
HETATM    9  C   UNL     1      -8.062  11.484  66.706  1.00  0.00    -0.158 A  
HETATM   10  C   UNL     1      -7.047   9.613  67.864  1.00  0.00    -0.080 A  
HETATM   11  C   UNL     1      -6.920  10.804  67.153  1.00  0.00    -0.091 A  
ENDBRANCH   4   6
BRANCH   4  12
HETATM   12  C   UNL     1     -11.266  12.541  67.773  1.00  0.00    -0.269 C  
HETATM   13  C   UNL     1     -12.128  13.756  67.278  1.00  0.00    -0.393 C  
HETATM   14  N   UNL     1     -10.346  15.449  67.732  1.00  0.00    -0.249 NA 
HETATM   15  C   UNL     1     -11.297  14.925  66.746  1.00  0.00    -0.328 C  
HETATM   16  C   UNL     1     -10.301  13.179  68.822  1.00  0.00    -0.146 C  
HETATM   17  C   UNL     1      -9.508  14.353  68.236  1.00  0.00    -0.207 C  
BRANCH  12  18
HETATM   18  C   UNL     1     -12.254  11.571  68.515  1.00  0.00     0.108 C  
BRANCH  18  19
HETATM   19  O   UNL     1     -12.197  11.701  69.932  1.00  0.00    -0.283 OA 
HETATM   20  C   UNL     1     -12.686  10.543  70.596  1.00  0.00    -0.355 C  
ENDBRANCH  18  19
ENDBRANCH  12  18
BRANCH  14  21
HETATM   21  C   UNL     1     -11.006  16.224  68.797  1.00  0.00    -0.343 C  
BRANCH  21  22
HETATM   22  C   UNL     1     -10.741  15.679  70.213  1.00  0.00    -0.354 C  
BRANCH  22  23
HETATM   23  C   UNL     1     -12.007  15.600  71.006  1.00  0.00    -0.400 A  
HETATM   24  C   UNL     1     -13.233  15.110  70.607  1.00  0.00    -0.354 A  
HETATM   25  C   UNL     1     -14.202  15.208  71.644  1.00  0.00    -0.664 A  
HETATM   26  C   UNL     1     -13.687  15.762  72.794  1.00  0.00    -0.560 A  
HETATM   27  S   UNL     1     -12.040  16.168  72.623  1.00  0.00    -0.551 SA 
ENDBRANCH  22  23
ENDBRANCH  21  22
ENDBRANCH  14  21
ENDBRANCH   4  12
ENDBRANCH   2   3
TORSDOF 8
ENDMDL
MODEL       32
REMARK 921   NORMALIZED FREE ENERGY PREDICTED BY IDOCK:   -5.01 KCAL/MOL
REMARK 922        TOTAL FREE ENERGY PREDICTED BY IDOCK:   -7.86 KCAL/MOL
REMARK 923 INTER-LIGAND FREE ENERGY PREDICTED BY IDOCK:   -7.56 KCAL/MOL
REMARK 924 INTRA-LIGAND FREE ENERGY PREDICTED BY IDOCK:   -0.30 KCAL/MOL
REMARK 927      BINDING AFFINITY PREDICTED BY RF-SCORE:    0.00 PKD
ROOT
HETATM    1  C   UNL     1     -12.189  12.204  63.506  1.00  0.00    -0.670 C  
HETATM    2  C   UNL     1     -12.178  12.419  65.009  1.00  0.00    -0.465 C  
ENDROOT
BRANCH   2   3
HETATM    3  C   UNL     1     -11.007  11.777  65.736  1.00  0.00    -0.301 C  
HETATM    4  N   UNL     1     -10.370  12.515  66.755  1.00  0.00    -0.225 N  
HETATM    5  O   UNL     1     -10.616  10.666  65.365  1.00  0.00    -0.220 OA 
BRANCH   4   6
HETATM    6  C   UNL     1      -9.236  11.833  67.352  1.00  0.00    -0.174 A  
HETATM    7  C   UNL     1      -9.355  11.069  68.517  1.00  0.00    -0.188 A  
HETATM    8  C   UNL     1      -8.229  10.492  69.118  1.00  0.00    -0.152 A  
HETATM    9  C   UNL     1      -7.970  11.939  66.757  1.00  0.00    -0.087 A  
HETATM   10  C   UNL     1      -6.967  10.664  68.557  1.00  0.00    -0.067 A  
HETATM   11  C   UNL     1      -6.839  11.385  67.371  1.00  0.00    -0.101 A  
ENDBRANCH   4   6
BRANCH   4  12
HETATM   12  C   UNL     1     -10.935  13.753  67.503  1.00  0.00    -0.272 C  
HETATM   13  C   UNL     1     -11.631  14.804  66.568  1.00  0.00    -0.306 C  
HETATM   14  N   UNL     1      -9.588  16.224  66.325  1.00  0.00    -0.287 NA 
HETATM   15  C   UNL     1     -10.667  15.522  65.622  1.00  0.00    -0.366 C  
HETATM   16  C   UNL     1      -9.821  14.580  68.220  1.00  0.00    -0.229 C  
HETATM   17  C   UNL     1      -8.897  15.288  67.222  1.00  0.00    -0.196 C  
BRANCH  12  18
HETATM   18  C   UNL     1     -12.010  13.322  68.563  1.00  0.00    -0.304 C  
BRANCH  18  19
HETATM   19  O   UNL     1     -12.360  14.376  69.456  1.00  0.00    -0.305 OA 
HETATM   20  C   UNL     1     -12.522  13.915  70.791  1.00  0.00    -0.375 C  
ENDBRANCH  18  19
ENDBRANCH  12  18
BRANCH  14  21
HETATM   21  C   UNL     1     -10.056  17.448  66.999  1.00  0.00    -0.313 C  
BRANCH  21  22
HETATM   22  C   UNL     1      -9.454  18.741  66.419  1.00  0.00    -0.336 C  
BRANCH  22  23
HETATM   23  C   UNL     1      -8.340  19.252  67.279  1.00  0.00    -0.282 A  
HETATM   24  C   UNL     1      -8.122  19.012  68.619  1.00  0.00    -0.397 A  
HETATM   25  C   UNL     1      -6.955  19.678  69.089  1.00  0.00    -0.386 A  
HETATM   26  C   UNL     1      -6.325  20.396  68.099  1.00  0.00    -0.293 A  
HETATM   27  S   UNL     1      -7.139  20.273  66.606  1.00  0.00    -0.260 SA 
ENDBRANCH  22  23
ENDBRANCH  21  22
ENDBRANCH  14  21
ENDBRANCH   4  12
ENDBRANCH   2   3
TORSDOF 8
ENDMDL
MODEL       33
REMARK 921   NORMALIZED FREE ENERGY PREDICTED BY IDOCK:   -4.96 KCAL/MOL
REMARK 922        TOTAL FREE ENERGY PREDICTED BY IDOCK:   -7.78 KCAL/MOL
REMARK 923 INTER-LIGAND FREE ENERGY PREDICTED BY IDOCK:   -7.67 KCAL/MOL
REMARK 924 INTRA-LIGAND FREE ENERGY PREDICTED BY IDOCK:   -0.11 KCAL/MOL
REMARK 927      BINDING AFFINITY PREDICTED BY RF-SCORE:    0.00 PKD
ROOT
HETATM    1  C   UNL     1     -10.610  19.377  66.339  1.00  0.00    -0.558 C  
HETATM    2  C   UNL     1     -10.348  17.910  66.048  1.00  0.00    -0.318 C  
ENDROOT
BRANCH   2   3
HETATM    3  C   UNL     1      -9.032  17.378  66.591  1.00  0.00    -0.252 C  
HETATM    4  N   UNL     1      -9.076  16.438  67.641  1.00  0.00    -0.198 N  
HETATM    5  O   UNL     1      -7.976  17.835  66.142  1.00  0.00    -0.402 OA 
BRANCH   4   6
HETATM    6  C   UNL     1      -7.768  16.030  68.120  1.00  0.00    -0.133 A  
HETATM    7  C   UNL     1      -6.925  15.202  67.372  1.00  0.00    -0.195 A  
HETATM    8  C   UNL     1      -5.704  14.757  67.895  1.00  0.00    -0.133 A  
HETATM    9  C   UNL     1      -7.322  16.466  69.377  1.00  0.00    -0.150 A  
HETATM   10  C   UNL     1      -5.304  15.139  69.172  1.00  0.00    -0.094 A  
HETATM   11  C   UNL     1      -6.113  16.000  69.911  1.00  0.00    -0.166 A  
ENDBRANCH   4   6
BRANCH   4  12
HETATM   12  C   UNL     1     -10.295  15.578  68.074  1.00  0.00    -0.247 C  
HETATM   13  C   UNL     1      -9.916  14.151  68.605  1.00  0.00    -0.222 C  
HETATM   14  N   UNL     1     -10.256  13.030  66.397  1.00  0.00    -0.273 NA 
HETATM   15  C   UNL     1      -9.345  13.224  67.530  1.00  0.00    -0.218 C  
HETATM   16  C   UNL     1     -11.270  15.282  66.891  1.00  0.00    -0.256 C  
HETATM   17  C   UNL     1     -10.649  14.337  65.855  1.00  0.00    -0.302 C  
BRANCH  12  18
HETATM   18  C   UNL     1     -11.094  16.282  69.228  1.00  0.00    -0.325 C  
BRANCH  18  19
HETATM   19  O   UNL     1     -10.765  15.775  70.518  1.00  0.00    -0.312 OA 
HETATM   20  C   UNL     1     -11.743  16.116  71.492  1.00  0.00    -0.464 C  
ENDBRANCH  18  19
ENDBRANCH  12  18
BRANCH  14  21
HETATM   21  C   UNL     1     -11.399  12.163  66.733  1.00  0.00    -0.342 C  
BRANCH  21  22
HETATM   22  C   UNL     1     -10.989  10.765  67.233  1.00  0.00    -0.359 C  
BRANCH  22  23
HETATM   23  C   UNL     1     -11.308  10.596  68.685  1.00  0.00    -0.281 A  
HETATM   24  C   UNL     1     -12.158  11.353  69.463  1.00  0.00    -0.370 A  
HETATM   25  C   UNL     1     -12.198  10.886  70.807  1.00  0.00    -0.483 A  
HETATM   26  C   UNL     1     -11.385   9.794  71.008  1.00  0.00    -0.387 A  
HETATM   27  S   UNL     1     -10.571   9.335  69.582  1.00  0.00    -0.232 SA 
ENDBRANCH  22  23
ENDBRANCH  21  22
ENDBRANCH  14  21
ENDBRANCH   4  12
ENDBRANCH   2   3
TORSDOF 8
ENDMDL
MODEL       34
REMARK 921   NORMALIZED FREE ENERGY PREDICTED BY IDOCK:   -4.95 KCAL/MOL
REMARK 922        TOTAL FREE ENERGY PREDICTED BY IDOCK:   -7.77 KCAL/MOL
REMARK 923 INTER-LIGAND FREE ENERGY PREDICTED BY IDOCK:   -7.40 KCAL/MOL
REMARK 924 INTRA-LIGAND FREE ENERGY PREDICTED BY IDOCK:   -0.37 KCAL/MOL
REMARK 927      BINDING AFFINITY PREDICTED BY RF-SCORE:    0.00 PKD
ROOT
HETATM    1  C   UNL     1     -12.438  12.500  63.546  1.00  0.00    -0.561 C  
HETATM    2  C   UNL     1     -11.077  12.888  64.097  1.00  0.00    -0.438 C  
ENDROOT
BRANCH   2   3
HETATM    3  C   UNL     1     -10.231  11.722  64.582  1.00  0.00    -0.284 C  
HETATM    4  N   UNL     1      -9.752  11.752  65.908  1.00  0.00    -0.233 N  
HETATM    5  O   UNL     1      -9.938  10.828  63.781  1.00  0.00    -0.308 OA 
BRANCH   4   6
HETATM    6  C   UNL     1      -8.915  10.619  66.256  1.00  0.00    -0.165 A  
HETATM    7  C   UNL     1      -9.434   9.467  66.857  1.00  0.00    -0.204 A  
HETATM    8  C   UNL     1      -8.590   8.423  67.259  1.00  0.00    -0.123 A  
HETATM    9  C   UNL     1      -7.538  10.666  65.994  1.00  0.00    -0.142 A  
HETATM   10  C   UNL     1      -7.216   8.512  67.058  1.00  0.00    -0.079 A  
HETATM   11  C   UNL     1      -6.690   9.634  66.420  1.00  0.00    -0.076 A  
ENDBRANCH   4   6
BRANCH   4  12
HETATM   12  C   UNL     1     -10.282  12.633  67.071  1.00  0.00    -0.226 C  
HETATM   13  C   UNL     1     -10.512  14.137  66.683  1.00  0.00    -0.278 C  
HETATM   14  N   UNL     1      -8.272  14.888  67.498  1.00  0.00    -0.168 NA 
HETATM   15  C   UNL     1      -9.221  14.900  66.381  1.00  0.00    -0.284 C  
HETATM   16  C   UNL     1      -9.282  12.712  68.267  1.00  0.00    -0.184 C  
HETATM   17  C   UNL     1      -8.016  13.501  67.910  1.00  0.00    -0.162 C  
BRANCH  12  18
HETATM   18  C   UNL     1     -11.661  12.096  67.596  1.00  0.00    -0.343 C  
BRANCH  18  19
HETATM   19  O   UNL     1     -11.801  12.218  69.008  1.00  0.00    -0.306 OA 
HETATM   20  C   UNL     1     -12.112  10.976  69.625  1.00  0.00    -0.340 C  
ENDBRANCH  18  19
ENDBRANCH  12  18
BRANCH  14  21
HETATM   21  C   UNL     1      -8.692  15.764  68.606  1.00  0.00    -0.195 C  
BRANCH  21  22
HETATM   22  C   UNL     1      -8.033  17.155  68.579  1.00  0.00    -0.259 C  
BRANCH  22  23
HETATM   23  C   UNL     1      -8.912  18.156  67.896  1.00  0.00    -0.269 A  
HETATM   24  C   UNL     1     -10.190  18.541  68.241  1.00  0.00    -0.412 A  
HETATM   25  C   UNL     1     -10.706  19.518  67.344  1.00  0.00    -0.589 A  
HETATM   26  C   UNL     1      -9.809  19.845  66.352  1.00  0.00    -0.459 A  
HETATM   27  S   UNL     1      -8.351  18.975  66.499  1.00  0.00    -0.310 SA 
ENDBRANCH  22  23
ENDBRANCH  21  22
ENDBRANCH  14  21
ENDBRANCH   4  12
ENDBRANCH   2   3
TORSDOF 8
ENDMDL
MODEL       35
REMARK 921   NORMALIZED FREE ENERGY PREDICTED BY IDOCK:   -4.94 KCAL/MOL
REMARK 922        TOTAL FREE ENERGY PREDICTED BY IDOCK:   -7.76 KCAL/MOL
REMARK 923 INTER-LIGAND FREE ENERGY PREDICTED BY IDOCK:   -7.30 KCAL/MOL
REMARK 924 INTRA-LIGAND FREE ENERGY PREDICTED BY IDOCK:   -0.46 KCAL/MOL
REMARK 927      BINDING AFFINITY PREDICTED BY RF-SCORE:    0.00 PKD
ROOT
HETATM    1  C   UNL     1      -9.232  10.732  62.805  1.00  0.00    -0.346 C  
HETATM    2  C   UNL     1     -10.108  10.750  64.046  1.00  0.00    -0.410 C  
ENDROOT
BRANCH   2   3
HETATM    3  C   UNL     1     -10.270  12.117  64.691  1.00  0.00    -0.284 C  
HETATM    4  N   UNL     1      -9.894  12.264  66.042  1.00  0.00    -0.246 N  
HETATM    5  O   UNL     1     -10.783  13.027  64.032  1.00  0.00    -0.400 OA 
BRANCH   4   6
HETATM    6  C   UNL     1     -10.132  13.592  66.576  1.00  0.00    -0.286 A  
HETATM    7  C   UNL     1     -11.333  13.939  67.203  1.00  0.00    -0.346 A  
HETATM    8  C   UNL     1     -11.567  15.252  67.635  1.00  0.00    -0.249 A  
HETATM    9  C   UNL     1      -9.137  14.575  66.463  1.00  0.00    -0.248 A  
HETATM   10  C   UNL     1     -10.600  16.235  67.451  1.00  0.00    -0.307 A  
HETATM   11  C   UNL     1      -9.381  15.894  66.869  1.00  0.00    -0.244 A  
ENDBRANCH   4   6
BRANCH   4  12
HETATM   12  C   UNL     1      -8.980  11.316  66.865  1.00  0.00    -0.162 C  
HETATM   13  C   UNL     1      -9.443   9.816  66.859  1.00  0.00    -0.202 C  
HETATM   14  N   UNL     1     -10.717  10.002  69.002  1.00  0.00    -0.212 NA 
HETATM   15  C   UNL     1     -10.759   9.574  67.599  1.00  0.00    -0.250 C  
HETATM   16  C   UNL     1      -8.947  11.684  68.382  1.00  0.00    -0.176 C  
HETATM   17  C   UNL     1     -10.287  11.405  69.073  1.00  0.00    -0.142 C  
BRANCH  12  18
HETATM   18  C   UNL     1      -7.513  11.329  66.306  1.00  0.00    -0.010 C  
BRANCH  18  19
HETATM   19  O   UNL     1      -7.108  10.066  65.787  1.00  0.00    -0.103 OA 
HETATM   20  C   UNL     1      -6.215  10.199  64.689  1.00  0.00    -0.130 C  
ENDBRANCH  18  19
ENDBRANCH  12  18
BRANCH  14  21
HETATM   21  C   UNL     1      -9.917   9.097  69.845  1.00  0.00    -0.197 C  
BRANCH  21  22
HETATM   22  C   UNL     1     -10.374   9.058  71.315  1.00  0.00    -0.383 C  
BRANCH  22  23
HETATM   23  C   UNL     1     -11.759   8.502  71.436  1.00  0.00    -0.294 A  
HETATM   24  C   UNL     1     -12.163   7.191  71.306  1.00  0.00    -0.403 A  
HETATM   25  C   UNL     1     -13.568   7.053  71.484  1.00  0.00    -0.355 A  
HETATM   26  C   UNL     1     -14.185   8.256  71.745  1.00  0.00    -0.464 A  
HETATM   27  S   UNL     1     -13.074   9.549  71.771  1.00  0.00    -0.450 SA 
ENDBRANCH  22  23
ENDBRANCH  21  22
ENDBRANCH  14  21
ENDBRANCH   4  12
ENDBRANCH   2   3
TORSDOF 8
ENDMDL
MODEL       36
REMARK 921   NORMALIZED FREE ENERGY PREDICTED BY IDOCK:   -4.94 KCAL/MOL
REMARK 922        TOTAL FREE ENERGY PREDICTED BY IDOCK:   -7.75 KCAL/MOL
REMARK 923 INTER-LIGAND FREE ENERGY PREDICTED BY IDOCK:   -7.40 KCAL/MOL
REMARK 924 INTRA-LIGAND FREE ENERGY PREDICTED BY IDOCK:   -0.35 KCAL/MOL
REMARK 927      BINDING AFFINITY PREDICTED BY RF-SCORE:    0.00 PKD
ROOT
HETATM    1  C   UNL     1      -6.460   8.501  69.952  1.00  0.00    -0.035 C  
HETATM    2  C   UNL     1      -7.407   9.627  70.330  1.00  0.00    -0.153 C  
ENDROOT
BRANCH   2   3
HETATM    3  C   UNL     1      -8.739   9.173  70.903  1.00  0.00    -0.221 C  
HETATM    4  N   UNL     1      -9.896   9.338  70.113  1.00  0.00    -0.199 N  
HETATM    5  O   UNL     1      -8.771   8.738  72.059  1.00  0.00    -0.319 OA 
BRANCH   4   6
HETATM    6  C   UNL     1     -11.120   8.918  70.770  1.00  0.00    -0.261 A  
HETATM    7  C   UNL     1     -11.559   7.590  70.750  1.00  0.00    -0.300 A  
HETATM    8  C   UNL     1     -12.787   7.229  71.320  1.00  0.00    -0.391 A  
HETATM    9  C   UNL     1     -11.906   9.864  71.445  1.00  0.00    -0.476 A  
HETATM   10  C   UNL     1     -13.591   8.190  71.924  1.00  0.00    -0.370 A  
HETATM   11  C   UNL     1     -13.147   9.509  71.991  1.00  0.00    -0.528 A  
ENDBRANCH   4   6
BRANCH   4  12
HETATM   12  C   UNL     1      -9.952   9.576  68.580  1.00  0.00    -0.167 C  
HETATM   13  C   UNL     1      -8.934  10.653  68.061  1.00  0.00    -0.140 C  
HETATM   14  N   UNL     1     -10.586  12.527  68.137  1.00  0.00    -0.219 NA 
HETATM   15  C   UNL     1      -9.248  12.074  68.530  1.00  0.00    -0.114 C  
HETATM   16  C   UNL     1     -11.337  10.123  68.108  1.00  0.00    -0.171 C  
HETATM   17  C   UNL     1     -11.587  11.555  68.595  1.00  0.00    -0.313 C  
BRANCH  12  18
HETATM   18  C   UNL     1      -9.634   8.253  67.797  1.00  0.00    -0.148 C  
BRANCH  18  19
HETATM   19  O   UNL     1     -10.708   7.832  66.961  1.00  0.00    -0.347 OA 
HETATM   20  C   UNL     1     -11.069   6.477  67.195  1.00  0.00    -0.360 C  
ENDBRANCH  18  19
ENDBRANCH  12  18
BRANCH  14  21
HETATM   21  C   UNL     1     -10.679  12.834  66.698  1.00  0.00    -0.261 C  
BRANCH  21  22
HETATM   22  C   UNL     1     -11.501  14.098  66.388  1.00  0.00    -0.362 C  
BRANCH  22  23
HETATM   23  C   UNL     1     -10.692  15.337  66.612  1.00  0.00    -0.309 A  
HETATM   24  C   UNL     1      -9.649  15.821  65.852  1.00  0.00    -0.382 A  
HETATM   25  C   UNL     1      -9.123  17.030  66.388  1.00  0.00    -0.300 A  
HETATM   26  C   UNL     1      -9.780  17.427  67.531  1.00  0.00    -0.266 A  
HETATM   27  S   UNL     1     -11.025  16.344  67.959  1.00  0.00    -0.289 SA 
ENDBRANCH  22  23
ENDBRANCH  21  22
ENDBRANCH  14  21
ENDBRANCH   4  12
ENDBRANCH   2   3
TORSDOF 8
ENDMDL
MODEL       37
REMARK 921   NORMALIZED FREE ENERGY PREDICTED BY IDOCK:   -4.93 KCAL/MOL
REMARK 922        TOTAL FREE ENERGY PREDICTED BY IDOCK:   -7.74 KCAL/MOL
REMARK 923 INTER-LIGAND FREE ENERGY PREDICTED BY IDOCK:   -7.52 KCAL/MOL
REMARK 924 INTRA-LIGAND FREE ENERGY PREDICTED BY IDOCK:   -0.23 KCAL/MOL
REMARK 927      BINDING AFFINITY PREDICTED BY RF-SCORE:    0.00 PKD
ROOT
HETATM    1  C   UNL     1     -10.052  16.961  68.326  1.00  0.00    -0.302 C  
HETATM    2  C   UNL     1     -10.620  16.195  67.144  1.00  0.00    -0.294 C  
ENDROOT
BRANCH   2   3
HETATM    3  C   UNL     1      -9.769  15.027  66.674  1.00  0.00    -0.258 C  
HETATM    4  N   UNL     1     -10.245  13.720  66.905  1.00  0.00    -0.258 N  
HETATM    5  O   UNL     1      -8.666  15.261  66.170  1.00  0.00    -0.245 OA 
BRANCH   4   6
HETATM    6  C   UNL     1      -9.338  12.677  66.463  1.00  0.00    -0.228 A  
HETATM    7  C   UNL     1      -9.522  11.991  65.258  1.00  0.00    -0.042 A  
HETATM    8  C   UNL     1      -8.678  10.932  64.896  1.00  0.00    -0.075 A  
HETATM    9  C   UNL     1      -8.238  12.329  67.261  1.00  0.00    -0.182 A  
HETATM   10  C   UNL     1      -7.633  10.549  65.732  1.00  0.00    -0.142 A  
HETATM   11  C   UNL     1      -7.410  11.253  66.913  1.00  0.00    -0.145 A  
ENDBRANCH   4   6
BRANCH   4  12
HETATM   12  C   UNL     1     -11.703  13.304  67.238  1.00  0.00    -0.377 C  
HETATM   13  C   UNL     1     -12.274  13.959  68.546  1.00  0.00    -0.201 C  
HETATM   14  N   UNL     1     -11.677  12.021  70.006  1.00  0.00    -0.300 NA 
HETATM   15  C   UNL     1     -11.593  13.474  69.826  1.00  0.00    -0.244 C  
HETATM   16  C   UNL     1     -11.844  11.772  67.505  1.00  0.00    -0.227 C  
HETATM   17  C   UNL     1     -11.157  11.348  68.808  1.00  0.00    -0.235 C  
BRANCH  12  18
HETATM   18  C   UNL     1     -12.680  13.710  66.077  1.00  0.00    -0.309 C  
BRANCH  18  19
HETATM   19  O   UNL     1     -12.843  12.680  65.106  1.00  0.00    -0.721 OA 
HETATM   20  C   UNL     1     -12.377  13.077  63.823  1.00  0.00    -0.397 C  
ENDBRANCH  18  19
ENDBRANCH  12  18
BRANCH  14  21
HETATM   21  C   UNL     1     -13.028  11.575  70.392  1.00  0.00     0.187 C  
BRANCH  21  22
HETATM   22  C   UNL     1     -13.108  11.012  71.822  1.00  0.00    -0.554 C  
BRANCH  22  23
HETATM   23  C   UNL     1     -13.039   9.517  71.819  1.00  0.00    -0.418 A  
HETATM   24  C   UNL     1     -14.063   8.619  71.605  1.00  0.00    -0.468 A  
HETATM   25  C   UNL     1     -13.608   7.273  71.686  1.00  0.00    -0.435 A  
HETATM   26  C   UNL     1     -12.260   7.190  71.954  1.00  0.00    -0.323 A  
HETATM   27  S   UNL     1     -11.545   8.729  72.113  1.00  0.00    -0.327 SA 
ENDBRANCH  22  23
ENDBRANCH  21  22
ENDBRANCH  14  21
ENDBRANCH   4  12
ENDBRANCH   2   3
TORSDOF 8
ENDMDL
MODEL       38
REMARK 921   NORMALIZED FREE ENERGY PREDICTED BY IDOCK:   -4.92 KCAL/MOL
REMARK 922        TOTAL FREE ENERGY PREDICTED BY IDOCK:   -7.72 KCAL/MOL
REMARK 923 INTER-LIGAND FREE ENERGY PREDICTED BY IDOCK:   -7.40 KCAL/MOL
REMARK 924 INTRA-LIGAND FREE ENERGY PREDICTED BY IDOCK:   -0.32 KCAL/MOL
REMARK 927      BINDING AFFINITY PREDICTED BY RF-SCORE:    0.00 PKD
ROOT
HETATM    1  C   UNL     1      -6.664   7.606  71.432  1.00  0.00    -0.049 C  
HETATM    2  C   UNL     1      -7.468   8.878  71.224  1.00  0.00    -0.127 C  
ENDROOT
BRANCH   2   3
HETATM    3  C   UNL     1      -8.949   8.754  71.544  1.00  0.00    -0.236 C  
HETATM    4  N   UNL     1      -9.878   9.038  70.522  1.00  0.00    -0.199 N  
HETATM    5  O   UNL     1      -9.286   8.474  72.699  1.00  0.00    -0.258 OA 
BRANCH   4   6
HETATM    6  C   UNL     1     -11.263   8.937  70.942  1.00  0.00    -0.279 A  
HETATM    7  C   UNL     1     -11.969  10.032  71.451  1.00  0.00    -0.470 A  
HETATM    8  C   UNL     1     -13.279   9.885  71.926  1.00  0.00    -0.558 A  
HETATM    9  C   UNL     1     -11.930   7.706  70.847  1.00  0.00    -0.252 A  
HETATM   10  C   UNL     1     -13.905   8.643  71.893  1.00  0.00    -0.481 A  
HETATM   11  C   UNL     1     -13.230   7.553  71.347  1.00  0.00    -0.368 A  
ENDBRANCH   4   6
BRANCH   4  12
HETATM   12  C   UNL     1      -9.596   9.097  68.996  1.00  0.00    -0.156 C  
HETATM   13  C   UNL     1      -8.248   9.808  68.620  1.00  0.00    -0.106 C  
HETATM   14  N   UNL     1      -9.311  12.038  68.234  1.00  0.00    -0.198 NA 
HETATM   15  C   UNL     1      -8.238  11.309  68.919  1.00  0.00    -0.079 C  
HETATM   16  C   UNL     1     -10.673   9.919  68.219  1.00  0.00    -0.276 C  
HETATM   17  C   UNL     1     -10.604  11.415  68.546  1.00  0.00    -0.198 C  
BRANCH  12  18
HETATM   18  C   UNL     1      -9.520   7.653  68.385  1.00  0.00    -0.150 C  
BRANCH  18  19
HETATM   19  O   UNL     1     -10.129   7.562  67.101  1.00  0.00    -0.196 OA 
HETATM   20  C   UNL     1     -10.963   6.417  66.984  1.00  0.00    -0.389 C  
ENDBRANCH  18  19
ENDBRANCH  12  18
BRANCH  14  21
HETATM   21  C   UNL     1      -9.061  12.184  66.789  1.00  0.00    -0.205 C  
BRANCH  21  22
HETATM   22  C   UNL     1      -9.659  13.468  66.185  1.00  0.00    -0.219 C  
BRANCH  22  23
HETATM   23  C   UNL     1     -10.620  13.150  65.083  1.00  0.00    -0.319 A  
HETATM   24  C   UNL     1     -11.488  14.005  64.437  1.00  0.00    -0.357 A  
HETATM   25  C   UNL     1     -12.249  13.330  63.442  1.00  0.00    -0.476 A  
HETATM   26  C   UNL     1     -11.937  11.992  63.360  1.00  0.00    -0.471 A  
HETATM   27  S   UNL     1     -10.733  11.549  64.482  1.00  0.00    -0.330 SA 
ENDBRANCH  22  23
ENDBRANCH  21  22
ENDBRANCH  14  21
ENDBRANCH   4  12
ENDBRANCH   2   3
TORSDOF 8
ENDMDL
MODEL       39
REMARK 921   NORMALIZED FREE ENERGY PREDICTED BY IDOCK:   -4.92 KCAL/MOL
REMARK 922        TOTAL FREE ENERGY PREDICTED BY IDOCK:   -7.72 KCAL/MOL
REMARK 923 INTER-LIGAND FREE ENERGY PREDICTED BY IDOCK:   -7.28 KCAL/MOL
REMARK 924 INTRA-LIGAND FREE ENERGY PREDICTED BY IDOCK:   -0.44 KCAL/MOL
REMARK 927      BINDING AFFINITY PREDICTED BY RF-SCORE:    0.00 PKD
ROOT
HETATM    1  C   UNL     1      -6.650   7.359  70.481  1.00  0.00    -0.043 C  
HETATM    2  C   UNL     1      -7.310   8.719  70.341  1.00  0.00    -0.063 C  
ENDROOT
BRANCH   2   3
HETATM    3  C   UNL     1      -8.722   8.802  70.899  1.00  0.00    -0.194 C  
HETATM    4  N   UNL     1      -9.799   8.787  69.989  1.00  0.00    -0.174 N  
HETATM    5  O   UNL     1      -8.872   8.945  72.117  1.00  0.00    -0.381 OA 
BRANCH   4   6
HETATM    6  C   UNL     1     -11.101   8.918  70.618  1.00  0.00    -0.262 A  
HETATM    7  C   UNL     1     -11.663  10.165  70.914  1.00  0.00    -0.468 A  
HETATM    8  C   UNL     1     -12.883  10.260  71.597  1.00  0.00    -0.568 A  
HETATM    9  C   UNL     1     -11.829   7.767  70.954  1.00  0.00    -0.257 A  
HETATM   10  C   UNL     1     -13.562   9.110  71.988  1.00  0.00    -0.520 A  
HETATM   11  C   UNL     1     -13.036   7.862  71.661  1.00  0.00    -0.361 A  
ENDBRANCH   4   6
BRANCH   4  12
HETATM   12  C   UNL     1      -9.765   8.317  68.510  1.00  0.00    -0.156 C  
HETATM   13  C   UNL     1      -8.558   8.887  67.684  1.00  0.00    -0.124 C  
HETATM   14  N   UNL     1      -9.854  10.812  66.757  1.00  0.00    -0.187 NA 
HETATM   15  C   UNL     1      -8.630  10.397  67.449  1.00  0.00    -0.125 C  
HETATM   16  C   UNL     1     -11.016   8.787  67.702  1.00  0.00     0.069 C  
HETATM   17  C   UNL     1     -11.025  10.305  67.485  1.00  0.00    -0.280 C  
BRANCH  12  18
HETATM   18  C   UNL     1      -9.661   6.753  68.423  1.00  0.00    -0.128 C  
BRANCH  18  19
HETATM   19  O   UNL     1     -10.826   6.151  67.865  1.00  0.00    -0.279 OA 
HETATM   20  C   UNL     1     -10.538   5.425  66.677  1.00  0.00    -0.294 C  
ENDBRANCH  18  19
ENDBRANCH  12  18
BRANCH  14  21
HETATM   21  C   UNL     1      -9.847  10.451  65.328  1.00  0.00    -0.297 C  
BRANCH  21  22
HETATM   22  C   UNL     1      -9.679  11.658  64.387  1.00  0.00    -0.199 C  
BRANCH  22  23
HETATM   23  C   UNL     1     -10.570  12.789  64.796  1.00  0.00    -0.327 A  
HETATM   24  C   UNL     1     -10.205  14.034  65.262  1.00  0.00    -0.383 A  
HETATM   25  C   UNL     1     -11.340  14.841  65.553  1.00  0.00    -0.343 A  
HETATM   26  C   UNL     1     -12.526  14.191  65.298  1.00  0.00    -0.461 A  
HETATM   27  S   UNL     1     -12.273  12.610  64.713  1.00  0.00    -0.475 SA 
ENDBRANCH  22  23
ENDBRANCH  21  22
ENDBRANCH  14  21
ENDBRANCH   4  12
ENDBRANCH   2   3
TORSDOF 8
ENDMDL
MODEL       40
REMARK 921   NORMALIZED FREE ENERGY PREDICTED BY IDOCK:   -4.87 KCAL/MOL
REMARK 922        TOTAL FREE ENERGY PREDICTED BY IDOCK:   -7.66 KCAL/MOL
REMARK 923 INTER-LIGAND FREE ENERGY PREDICTED BY IDOCK:   -7.91 KCAL/MOL
REMARK 924 INTRA-LIGAND FREE ENERGY PREDICTED BY IDOCK:    0.26 KCAL/MOL
REMARK 927      BINDING AFFINITY PREDICTED BY RF-SCORE:    0.00 PKD
ROOT
HETATM    1  C   UNL     1      -8.746  17.201  66.233  1.00  0.00    -0.268 C  
HETATM    2  C   UNL     1     -10.202  16.783  66.344  1.00  0.00    -0.329 C  
ENDROOT
BRANCH   2   3
HETATM    3  C   UNL     1     -10.696  16.567  67.765  1.00  0.00    -0.329 C  
HETATM    4  N   UNL     1     -11.406  15.382  68.050  1.00  0.00    -0.339 N  
HETATM    5  O   UNL     1     -10.516  17.461  68.598  1.00  0.00    -0.352 OA 
BRANCH   4   6
HETATM    6  C   UNL     1     -11.874  15.294  69.421  1.00  0.00    -0.343 A  
HETATM    7  C   UNL     1     -13.229  15.152  69.738  1.00  0.00     0.527 A  
HETATM    8  C   UNL     1     -13.661  15.154  71.071  1.00  0.00    -0.473 A  
HETATM    9  C   UNL     1     -10.952  15.360  70.476  1.00  0.00    -0.350 A  
HETATM   10  C   UNL     1     -12.742  15.291  72.107  1.00  0.00    -0.433 A  
HETATM   11  C   UNL     1     -11.385  15.389  71.809  1.00  0.00    -0.457 A  
ENDBRANCH   4   6
BRANCH   4  12
HETATM   12  C   UNL     1     -11.432  14.083  67.201  1.00  0.00    -0.352 C  
HETATM   13  C   UNL     1     -11.838  12.798  68.008  1.00  0.00    -0.386 C  
HETATM   14  N   UNL     1      -9.479  12.118  68.480  1.00  0.00    -0.167 NA 
HETATM   15  C   UNL     1     -10.804  12.375  69.054  1.00  0.00    -0.148 C  
HETATM   16  C   UNL     1     -10.031  13.720  66.616  1.00  0.00    -0.279 C  
HETATM   17  C   UNL     1      -9.044  13.289  67.707  1.00  0.00    -0.202 C  
BRANCH  12  18
HETATM   18  C   UNL     1     -12.460  14.206  66.021  1.00  0.00    -0.425 C  
BRANCH  18  19
HETATM   19  O   UNL     1     -12.787  12.948  65.438  1.00  0.00    -0.599 OA 
HETATM   20  C   UNL     1     -12.363  12.860  64.084  1.00  0.00    -0.376 C  
ENDBRANCH  18  19
ENDBRANCH  12  18
BRANCH  14  21
HETATM   21  C   UNL     1      -9.428  10.857  67.718  1.00  0.00    -0.157 C  
BRANCH  21  22
HETATM   22  C   UNL     1      -8.949   9.653  68.548  1.00  0.00    -0.124 C  
BRANCH  22  23
HETATM   23  C   UNL     1      -9.771   8.436  68.259  1.00  0.00    -0.155 A  
HETATM   24  C   UNL     1     -10.306   8.038  67.053  1.00  0.00    -0.414 A  
HETATM   25  C   UNL     1     -11.036   6.822  67.176  1.00  0.00    -0.458 A  
HETATM   26  C   UNL     1     -11.030   6.335  68.463  1.00  0.00    -0.340 A  
HETATM   27  S   UNL     1     -10.152   7.341  69.522  1.00  0.00    -0.186 SA 
ENDBRANCH  22  23
ENDBRANCH  21  22
ENDBRANCH  14  21
ENDBRANCH   4  12
ENDBRANCH   2   3
TORSDOF 8
ENDMDL
MODEL       41
REMARK 921   NORMALIZED FREE ENERGY PREDICTED BY IDOCK:   -4.87 KCAL/MOL
REMARK 922        TOTAL FREE ENERGY PREDICTED BY IDOCK:   -7.65 KCAL/MOL
REMARK 923 INTER-LIGAND FREE ENERGY PREDICTED BY IDOCK:   -7.43 KCAL/MOL
REMARK 924 INTRA-LIGAND FREE ENERGY PREDICTED BY IDOCK:   -0.22 KCAL/MOL
REMARK 927      BINDING AFFINITY PREDICTED BY RF-SCORE:    0.00 PKD
ROOT
HETATM    1  C   UNL     1     -13.782   8.670  71.905  1.00  0.00    -0.462 C  
HETATM    2  C   UNL     1     -12.269   8.561  71.974  1.00  0.00    -0.429 C  
ENDROOT
BRANCH   2   3
HETATM    3  C   UNL     1     -11.658   7.557  71.010  1.00  0.00    -0.283 C  
HETATM    4  N   UNL     1     -10.860   8.047  69.956  1.00  0.00    -0.248 N  
HETATM    5  O   UNL     1     -11.936   6.361  71.143  1.00  0.00    -0.328 OA 
BRANCH   4   6
HETATM    6  C   UNL     1     -10.365   7.014  69.065  1.00  0.00    -0.200 A  
HETATM    7  C   UNL     1      -9.107   6.425  69.232  1.00  0.00    -0.136 A  
HETATM    8  C   UNL     1      -8.621   5.491  68.308  1.00  0.00    -0.096 A  
HETATM    9  C   UNL     1     -11.159   6.584  67.991  1.00  0.00    -0.332 A  
HETATM   10  C   UNL     1      -9.389   5.126  67.206  1.00  0.00    -0.129 A  
HETATM   11  C   UNL     1     -10.663   5.670  67.051  1.00  0.00    -0.332 A  
ENDBRANCH   4   6
BRANCH   4  12
HETATM   12  C   UNL     1     -10.203   9.450  69.857  1.00  0.00    -0.222 C  
HETATM   13  C   UNL     1     -11.144  10.631  70.288  1.00  0.00    -0.310 C  
HETATM   14  N   UNL     1     -11.904  11.126  67.959  1.00  0.00    -0.620 NA 
HETATM   15  C   UNL     1     -12.322  10.857  69.339  1.00  0.00    -0.118 C  
HETATM   16  C   UNL     1      -9.795   9.821  68.397  1.00  0.00    -0.168 C  
HETATM   17  C   UNL     1     -11.016  10.051  67.498  1.00  0.00    -0.212 C  
BRANCH  12  18
HETATM   18  C   UNL     1      -8.933   9.539  70.778  1.00  0.00    -0.087 C  
BRANCH  18  19
HETATM   19  O   UNL     1      -7.832  10.181  70.142  1.00  0.00    -0.170 OA 
HETATM   20  C   UNL     1      -6.583   9.666  70.585  1.00  0.00    -0.114 C  
ENDBRANCH  18  19
ENDBRANCH  12  18
BRANCH  14  21
HETATM   21  C   UNL     1     -11.334  12.474  67.793  1.00  0.00    -0.296 C  
BRANCH  21  22
HETATM   22  C   UNL     1     -11.727  13.153  66.469  1.00  0.00    -0.433 C  
BRANCH  22  23
HETATM   23  C   UNL     1     -11.208  14.556  66.406  1.00  0.00    -0.341 A  
HETATM   24  C   UNL     1     -10.864  15.286  65.288  1.00  0.00    -0.417 A  
HETATM   25  C   UNL     1     -10.404  16.588  65.632  1.00  0.00    -0.342 A  
HETATM   26  C   UNL     1     -10.414  16.807  66.990  1.00  0.00    -0.285 A  
HETATM   27  S   UNL     1     -10.974  15.446  67.851  1.00  0.00    -0.318 SA 
ENDBRANCH  22  23
ENDBRANCH  21  22
ENDBRANCH  14  21
ENDBRANCH   4  12
ENDBRANCH   2   3
TORSDOF 8
ENDMDL
MODEL       42
REMARK 921   NORMALIZED FREE ENERGY PREDICTED BY IDOCK:   -4.87 KCAL/MOL
REMARK 922        TOTAL FREE ENERGY PREDICTED BY IDOCK:   -7.65 KCAL/MOL
REMARK 923 INTER-LIGAND FREE ENERGY PREDICTED BY IDOCK:   -8.02 KCAL/MOL
REMARK 924 INTRA-LIGAND FREE ENERGY PREDICTED BY IDOCK:    0.37 KCAL/MOL
REMARK 927      BINDING AFFINITY PREDICTED BY RF-SCORE:    0.00 PKD
ROOT
HETATM    1  C   UNL     1     -12.246  12.059  70.615  1.00  0.00    -0.409 C  
HETATM    2  C   UNL     1     -12.041  12.591  69.208  1.00  0.00    -0.214 C  
ENDROOT
BRANCH   2   3
HETATM    3  C   UNL     1     -10.868  11.979  68.460  1.00  0.00    -0.233 C  
HETATM    4  N   UNL     1     -10.713  12.292  67.094  1.00  0.00    -0.228 N  
HETATM    5  O   UNL     1     -10.135  11.183  69.055  1.00  0.00    -0.204 OA 
BRANCH   4   6
HETATM    6  C   UNL     1      -9.593  11.620  66.461  1.00  0.00    -0.209 A  
HETATM    7  C   UNL     1      -9.752  10.806  65.334  1.00  0.00    -0.297 A  
HETATM    8  C   UNL     1      -8.666  10.104  64.795  1.00  0.00    -0.202 A  
HETATM    9  C   UNL     1      -8.302  11.776  66.987  1.00  0.00    -0.172 A  
HETATM   10  C   UNL     1      -7.403  10.211  65.371  1.00  0.00    -0.144 A  
HETATM   11  C   UNL     1      -7.221  11.053  66.465  1.00  0.00    -0.143 A  
ENDBRANCH   4   6
BRANCH   4  12
HETATM   12  C   UNL     1     -11.359  13.479  66.329  1.00  0.00    -0.309 C  
HETATM   13  C   UNL     1     -10.390  14.198  65.325  1.00  0.00    -0.409 C  
HETATM   14  N   UNL     1      -9.713  15.971  66.951  1.00  0.00    -0.229 NA 
HETATM   15  C   UNL     1      -9.246  14.952  66.005  1.00  0.00    -0.175 C  
HETATM   16  C   UNL     1     -11.819  14.628  67.281  1.00  0.00    -0.375 C  
HETATM   17  C   UNL     1     -10.630  15.356  67.920  1.00  0.00    -0.267 C  
BRANCH  12  18
HETATM   18  C   UNL     1     -12.592  12.995  65.484  1.00  0.00    -0.362 C  
BRANCH  18  19
HETATM   19  O   UNL     1     -12.422  13.209  64.086  1.00  0.00    -0.577 OA 
HETATM   20  C   UNL     1     -12.653  12.026  63.332  1.00  0.00    -0.469 C  
ENDBRANCH  18  19
ENDBRANCH  12  18
BRANCH  14  21
HETATM   21  C   UNL     1     -10.275  17.154  66.276  1.00  0.00    -0.334 C  
BRANCH  21  22
HETATM   22  C   UNL     1     -10.479  18.360  67.211  1.00  0.00    -0.434 C  
BRANCH  22  23
HETATM   23  C   UNL     1      -9.171  18.999  67.561  1.00  0.00    -0.287 A  
HETATM   24  C   UNL     1      -8.537  19.023  68.785  1.00  0.00    -0.356 A  
HETATM   25  C   UNL     1      -7.307  19.736  68.726  1.00  0.00    -0.339 A  
HETATM   26  C   UNL     1      -7.043  20.226  67.467  1.00  0.00    -0.289 A  
HETATM   27  S   UNL     1      -8.278  19.832  66.359  1.00  0.00    -0.348 SA 
ENDBRANCH  22  23
ENDBRANCH  21  22
ENDBRANCH  14  21
ENDBRANCH   4  12
ENDBRANCH   2   3
TORSDOF 8
ENDMDL
MODEL       43
REMARK 921   NORMALIZED FREE ENERGY PREDICTED BY IDOCK:   -4.84 KCAL/MOL
REMARK 922        TOTAL FREE ENERGY PREDICTED BY IDOCK:   -7.60 KCAL/MOL
REMARK 923 INTER-LIGAND FREE ENERGY PREDICTED BY IDOCK:   -7.61 KCAL/MOL
REMARK 924 INTRA-LIGAND FREE ENERGY PREDICTED BY IDOCK:    0.00 KCAL/MOL
REMARK 927      BINDING AFFINITY PREDICTED BY RF-SCORE:    0.00 PKD
ROOT
HETATM    1  C   UNL     1      -6.663  10.575  67.613  1.00  0.00    -0.073 C  
HETATM    2  C   UNL     1      -7.717  11.253  66.755  1.00  0.00    -0.155 C  
ENDROOT
BRANCH   2   3
HETATM    3  C   UNL     1      -8.048  12.679  67.163  1.00  0.00    -0.141 C  
HETATM    4  N   UNL     1      -9.397  13.086  67.128  1.00  0.00    -0.222 N  
HETATM    5  O   UNL     1      -7.121  13.447  67.444  1.00  0.00    -0.164 OA 
BRANCH   4   6
HETATM    6  C   UNL     1      -9.601  14.477  67.488  1.00  0.00    -0.210 A  
HETATM    7  C   UNL     1      -9.421  14.943  68.795  1.00  0.00    -0.214 A  
HETATM    8  C   UNL     1      -9.706  16.273  69.130  1.00  0.00    -0.265 A  
HETATM    9  C   UNL     1      -9.999  15.398  66.507  1.00  0.00    -0.282 A  
HETATM   10  C   UNL     1     -10.169  17.159  68.162  1.00  0.00    -0.332 A  
HETATM   11  C   UNL     1     -10.309  16.721  66.847  1.00  0.00    -0.294 A  
ENDBRANCH   4   6
BRANCH   4  12
HETATM   12  C   UNL     1     -10.648  12.167  67.092  1.00  0.00    -0.226 C  
HETATM   13  C   UNL     1     -11.909  12.773  67.804  1.00  0.00    -0.387 C  
HETATM   14  N   UNL     1     -11.467  11.627  69.981  1.00  0.00    -0.233 NA 
HETATM   15  C   UNL     1     -11.758  12.904  69.321  1.00  0.00    -0.321 C  
HETATM   16  C   UNL     1     -10.420  10.814  67.839  1.00  0.00    -0.233 C  
HETATM   17  C   UNL     1     -10.292  11.007  69.355  1.00  0.00    -0.104 C  
BRANCH  12  18
HETATM   18  C   UNL     1     -11.078  11.865  65.613  1.00  0.00    -0.310 C  
BRANCH  18  19
HETATM   19  O   UNL     1     -12.325  12.460  65.267  1.00  0.00    -0.563 OA 
HETATM   20  C   UNL     1     -12.601  12.355  63.876  1.00  0.00    -0.427 C  
ENDBRANCH  18  19
ENDBRANCH  12  18
BRANCH  14  21
HETATM   21  C   UNL     1     -12.642  10.739  70.037  1.00  0.00    -0.181 C  
BRANCH  21  22
HETATM   22  C   UNL     1     -12.979  10.248  71.457  1.00  0.00    -0.556 C  
BRANCH  22  23
HETATM   23  C   UNL     1     -12.343   8.922  71.735  1.00  0.00    -0.357 A  
HETATM   24  C   UNL     1     -11.067   8.669  72.189  1.00  0.00    -0.434 A  
HETATM   25  C   UNL     1     -10.824   7.274  72.328  1.00  0.00    -0.274 A  
HETATM   26  C   UNL     1     -11.918   6.513  71.981  1.00  0.00    -0.326 A  
HETATM   27  S   UNL     1     -13.233   7.478  71.484  1.00  0.00    -0.321 SA 
ENDBRANCH  22  23
ENDBRANCH  21  22
ENDBRANCH  14  21
ENDBRANCH   4  12
ENDBRANCH   2   3
TORSDOF 8
ENDMDL
MODEL       44
REMARK 921   NORMALIZED FREE ENERGY PREDICTED BY IDOCK:   -4.79 KCAL/MOL
REMARK 922        TOTAL FREE ENERGY PREDICTED BY IDOCK:   -7.53 KCAL/MOL
REMARK 923 INTER-LIGAND FREE ENERGY PREDICTED BY IDOCK:   -7.27 KCAL/MOL
REMARK 924 INTRA-LIGAND FREE ENERGY PREDICTED BY IDOCK:   -0.27 KCAL/MOL
REMARK 927      BINDING AFFINITY PREDICTED BY RF-SCORE:    0.00 PKD
ROOT
HETATM    1  C   UNL     1      -7.963  17.243  66.126  1.00  0.00    -0.292 C  
HETATM    2  C   UNL     1      -9.372  16.988  66.633  1.00  0.00    -0.274 C  
ENDROOT
BRANCH   2   3
HETATM    3  C   UNL     1     -10.181  16.009  65.798  1.00  0.00    -0.377 C  
HETATM    4  N   UNL     1     -10.321  14.688  66.271  1.00  0.00    -0.285 N  
HETATM    5  O   UNL     1     -10.627  16.385  64.709  1.00  0.00    -0.676 OA 
BRANCH   4   6
HETATM    6  C   UNL     1     -11.069  13.821  65.379  1.00  0.00    -0.302 A  
HETATM    7  C   UNL     1     -12.452  13.646  65.497  1.00  0.00    -0.544 A  
HETATM    8  C   UNL     1     -13.135  12.739  64.676  1.00  0.00    -0.051 A  
HETATM    9  C   UNL     1     -10.398  13.123  64.365  1.00  0.00    -0.390 A  
HETATM   10  C   UNL     1     -12.446  11.999  63.720  1.00  0.00    -0.594 A  
HETATM   11  C   UNL     1     -11.076  12.196  63.561  1.00  0.00    -0.525 A  
ENDBRANCH   4   6
BRANCH   4  12
HETATM   12  C   UNL     1     -10.080  14.185  67.720  1.00  0.00    -0.239 C  
HETATM   13  C   UNL     1      -8.591  14.305  68.201  1.00  0.00    -0.172 C  
HETATM   14  N   UNL     1      -8.001  11.957  67.580  1.00  0.00    -0.137 NA 
HETATM   15  C   UNL     1      -7.629  13.371  67.466  1.00  0.00    -0.169 C  
HETATM   16  C   UNL     1     -10.399  12.666  67.889  1.00  0.00    -0.221 C  
HETATM   17  C   UNL     1      -9.393  11.780  67.144  1.00  0.00    -0.177 C  
BRANCH  12  18
HETATM   18  C   UNL     1     -10.943  15.003  68.746  1.00  0.00    -0.255 C  
BRANCH  18  19
HETATM   19  O   UNL     1     -12.036  14.254  69.271  1.00  0.00    -0.310 OA 
HETATM   20  C   UNL     1     -12.155  14.398  70.681  1.00  0.00    -0.334 C  
ENDBRANCH  18  19
ENDBRANCH  12  18
BRANCH  14  21
HETATM   21  C   UNL     1      -7.730  11.407  68.920  1.00  0.00    -0.108 C  
BRANCH  21  22
HETATM   22  C   UNL     1      -7.203   9.960  68.899  1.00  0.00    -0.076 C  
BRANCH  22  23
HETATM   23  C   UNL     1      -8.259   9.008  68.431  1.00  0.00    -0.116 A  
HETATM   24  C   UNL     1      -9.430   8.656  69.067  1.00  0.00    -0.153 A  
HETATM   25  C   UNL     1     -10.179   7.714  68.308  1.00  0.00    -0.229 A  
HETATM   26  C   UNL     1      -9.560   7.383  67.124  1.00  0.00    -0.159 A  
HETATM   27  S   UNL     1      -8.077   8.202  66.929  1.00  0.00    -0.104 SA 
ENDBRANCH  22  23
ENDBRANCH  21  22
ENDBRANCH  14  21
ENDBRANCH   4  12
ENDBRANCH   2   3
TORSDOF 8
ENDMDL
MODEL       45
REMARK 921   NORMALIZED FREE ENERGY PREDICTED BY IDOCK:   -4.77 KCAL/MOL
REMARK 922        TOTAL FREE ENERGY PREDICTED BY IDOCK:   -7.51 KCAL/MOL
REMARK 923 INTER-LIGAND FREE ENERGY PREDICTED BY IDOCK:   -7.45 KCAL/MOL
REMARK 924 INTRA-LIGAND FREE ENERGY PREDICTED BY IDOCK:   -0.06 KCAL/MOL
REMARK 927      BINDING AFFINITY PREDICTED BY RF-SCORE:    0.00 PKD
ROOT
HETATM    1  C   UNL     1     -13.301  13.145  71.869  1.00  0.00    -0.546 C  
HETATM    2  C   UNL     1     -12.694  13.072  70.479  1.00  0.00    -0.111 C  
ENDROOT
BRANCH   2   3
HETATM    3  C   UNL     1     -11.900  14.300  70.065  1.00  0.00    -0.314 C  
HETATM    4  N   UNL     1     -11.044  14.195  68.950  1.00  0.00    -0.254 N  
HETATM    5  O   UNL     1     -11.983  15.321  70.756  1.00  0.00    -0.284 OA 
BRANCH   4   6
HETATM    6  C   UNL     1     -10.296  15.407  68.667  1.00  0.00    -0.234 A  
HETATM    7  C   UNL     1     -10.770  16.387  67.789  1.00  0.00    -0.328 A  
HETATM    8  C   UNL     1      -9.989  17.506  67.471  1.00  0.00    -0.315 A  
HETATM    9  C   UNL     1      -9.052  15.614  69.282  1.00  0.00    -0.270 A  
HETATM   10  C   UNL     1      -8.725  17.665  68.032  1.00  0.00    -0.253 A  
HETATM   11  C   UNL     1      -8.260  16.720  68.944  1.00  0.00    -0.224 A  
ENDBRANCH   4   6
BRANCH   4  12
HETATM   12  C   UNL     1     -11.078  13.103  67.846  1.00  0.00    -0.262 C  
HETATM   13  C   UNL     1     -11.470  11.676  68.369  1.00  0.00    -0.360 C  
HETATM   14  N   UNL     1      -9.104  10.923  68.657  1.00  0.00    -0.169 NA 
HETATM   15  C   UNL     1     -10.422  11.047  69.289  1.00  0.00    -0.180 C  
HETATM   16  C   UNL     1      -9.684  12.880  67.180  1.00  0.00    -0.221 C  
HETATM   17  C   UNL     1      -8.681  12.233  68.144  1.00  0.00    -0.186 C  
BRANCH  12  18
HETATM   18  C   UNL     1     -12.122  13.468  66.731  1.00  0.00    -0.375 C  
BRANCH  18  19
HETATM   19  O   UNL     1     -12.372  12.390  65.834  1.00  0.00    -0.638 OA 
HETATM   20  C   UNL     1     -12.411  12.820  64.479  1.00  0.00    -0.445 C  
ENDBRANCH  18  19
ENDBRANCH  12  18
BRANCH  14  21
HETATM   21  C   UNL     1      -9.060   9.852  67.646  1.00  0.00    -0.131 C  
BRANCH  21  22
HETATM   22  C   UNL     1      -8.428   8.545  68.159  1.00  0.00    -0.134 C  
BRANCH  22  23
HETATM   23  C   UNL     1      -9.432   7.712  68.893  1.00  0.00    -0.149 A  
HETATM   24  C   UNL     1      -9.530   7.498  70.251  1.00  0.00    -0.165 A  
HETATM   25  C   UNL     1     -10.617   6.638  70.572  1.00  0.00    -0.270 A  
HETATM   26  C   UNL     1     -11.311   6.229  69.455  1.00  0.00    -0.404 A  
HETATM   27  S   UNL     1     -10.650   6.877  68.023  1.00  0.00    -0.223 SA 
ENDBRANCH  22  23
ENDBRANCH  21  22
ENDBRANCH  14  21
ENDBRANCH   4  12
ENDBRANCH   2   3
TORSDOF 8
ENDMDL
MODEL       46
REMARK 921   NORMALIZED FREE ENERGY PREDICTED BY IDOCK:   -4.76 KCAL/MOL
REMARK 922        TOTAL FREE ENERGY PREDICTED BY IDOCK:   -7.48 KCAL/MOL
REMARK 923 INTER-LIGAND FREE ENERGY PREDICTED BY IDOCK:   -7.27 KCAL/MOL
REMARK 924 INTRA-LIGAND FREE ENERGY PREDICTED BY IDOCK:   -0.21 KCAL/MOL
REMARK 927      BINDING AFFINITY PREDICTED BY RF-SCORE:    0.00 PKD
ROOT
HETATM    1  C   UNL     1     -13.591  15.095  71.298  1.00  0.00    -0.559 C  
HETATM    2  C   UNL     1     -12.645  14.375  70.353  1.00  0.00    -0.405 C  
ENDROOT
BRANCH   2   3
HETATM    3  C   UNL     1     -11.476  15.214  69.862  1.00  0.00    -0.288 C  
HETATM    4  N   UNL     1     -10.685  14.704  68.812  1.00  0.00    -0.242 N  
HETATM    5  O   UNL     1     -11.223  16.275  70.440  1.00  0.00    -0.373 OA 
BRANCH   4   6
HETATM    6  C   UNL     1      -9.568  15.557  68.450  1.00  0.00    -0.199 A  
HETATM    7  C   UNL     1      -8.367  15.556  69.167  1.00  0.00    -0.253 A  
HETATM    8  C   UNL     1      -7.336  16.450  68.846  1.00  0.00    -0.214 A  
HETATM    9  C   UNL     1      -9.682  16.422  67.352  1.00  0.00    -0.238 A  
HETATM   10  C   UNL     1      -7.490  17.353  67.799  1.00  0.00    -0.195 A  
HETATM   11  C   UNL     1      -8.663  17.335  67.048  1.00  0.00    -0.248 A  
ENDBRANCH   4   6
BRANCH   4  12
HETATM   12  C   UNL     1     -11.065  13.567  67.824  1.00  0.00    -0.268 C  
HETATM   13  C   UNL     1     -11.695  12.304  68.512  1.00  0.00    -0.381 C  
HETATM   14  N   UNL     1      -9.526  11.072  68.668  1.00  0.00    -0.191 NA 
HETATM   15  C   UNL     1     -10.714  11.530  69.395  1.00  0.00    -0.068 C  
HETATM   16  C   UNL     1      -9.827  12.993  67.066  1.00  0.00    -0.238 C  
HETATM   17  C   UNL     1      -8.890  12.214  67.998  1.00  0.00    -0.181 C  
BRANCH  12  18
HETATM   18  C   UNL     1     -12.118  14.069  66.773  1.00  0.00    -0.447 C  
BRANCH  18  19
HETATM   19  O   UNL     1     -11.742  13.776  65.430  1.00  0.00    -0.317 OA 
HETATM   20  C   UNL     1     -12.620  12.838  64.821  1.00  0.00    -0.446 C  
ENDBRANCH  18  19
ENDBRANCH  12  18
BRANCH  14  21
HETATM   21  C   UNL     1      -9.816   9.945  67.763  1.00  0.00    -0.155 C  
BRANCH  21  22
HETATM   22  C   UNL     1     -10.514   8.760  68.456  1.00  0.00    -0.212 C  
BRANCH  22  23
HETATM   23  C   UNL     1     -10.198   7.470  67.767  1.00  0.00    -0.201 A  
HETATM   24  C   UNL     1     -10.735   6.223  68.007  1.00  0.00    -0.369 A  
HETATM   25  C   UNL     1     -10.178   5.235  67.148  1.00  0.00    -0.264 A  
HETATM   26  C   UNL     1      -9.243   5.757  66.284  1.00  0.00    -0.158 A  
HETATM   27  S   UNL     1      -9.032   7.434  66.510  1.00  0.00    -0.164 SA 
ENDBRANCH  22  23
ENDBRANCH  21  22
ENDBRANCH  14  21
ENDBRANCH   4  12
ENDBRANCH   2   3
TORSDOF 8
ENDMDL
MODEL       47
REMARK 921   NORMALIZED FREE ENERGY PREDICTED BY IDOCK:   -4.75 KCAL/MOL
REMARK 922        TOTAL FREE ENERGY PREDICTED BY IDOCK:   -7.48 KCAL/MOL
REMARK 923 INTER-LIGAND FREE ENERGY PREDICTED BY IDOCK:   -7.06 KCAL/MOL
REMARK 924 INTRA-LIGAND FREE ENERGY PREDICTED BY IDOCK:   -0.42 KCAL/MOL
REMARK 927      BINDING AFFINITY PREDICTED BY RF-SCORE:    0.00 PKD
ROOT
HETATM    1  C   UNL     1      -6.530   8.062  69.071  1.00  0.00    -0.040 C  
HETATM    2  C   UNL     1      -7.818   7.260  69.003  1.00  0.00    -0.118 C  
ENDROOT
BRANCH   2   3
HETATM    3  C   UNL     1      -8.193   6.546  70.292  1.00  0.00    -0.126 C  
HETATM    4  N   UNL     1      -9.491   6.738  70.806  1.00  0.00    -0.165 N  
HETATM    5  O   UNL     1      -7.330   5.881  70.874  1.00  0.00    -0.081 OA 
BRANCH   4   6
HETATM    6  C   UNL     1      -9.732   6.053  72.063  1.00  0.00    -0.156 A  
HETATM    7  C   UNL     1      -9.419   6.629  73.298  1.00  0.00    -0.160 A  
HETATM    8  C   UNL     1      -9.585   5.911  74.490  1.00  0.00    -0.210 A  
HETATM    9  C   UNL     1     -10.292   4.766  72.056  1.00  0.00    -0.247 A  
HETATM   10  C   UNL     1     -10.074   4.609  74.464  1.00  0.00    -0.266 A  
HETATM   11  C   UNL     1     -10.433   4.038  73.245  1.00  0.00    -0.253 A  
ENDBRANCH   4   6
BRANCH   4  12
HETATM   12  C   UNL     1     -10.728   7.281  70.040  1.00  0.00    -0.245 C  
HETATM   13  C   UNL     1     -10.449   8.589  69.218  1.00  0.00    -0.224 C  
HETATM   14  N   UNL     1     -11.238  10.123  71.027  1.00  0.00    -0.315 NA 
HETATM   15  C   UNL     1     -10.155   9.813  70.087  1.00  0.00    -0.265 C  
HETATM   16  C   UNL     1     -11.893   7.690  70.995  1.00  0.00    -0.306 C  
HETATM   17  C   UNL     1     -11.548   8.931  71.828  1.00  0.00    -0.352 C  
BRANCH  12  18
HETATM   18  C   UNL     1     -11.261   6.219  69.014  1.00  0.00    -0.343 C  
BRANCH  18  19
HETATM   19  O   UNL     1     -11.087   6.623  67.659  1.00  0.00    -0.305 OA 
HETATM   20  C   UNL     1     -10.567   5.576  66.850  1.00  0.00    -0.278 C  
ENDBRANCH  18  19
ENDBRANCH  12  18
BRANCH  14  21
HETATM   21  C   UNL     1     -12.415  10.707  70.361  1.00  0.00    -0.338 C  
BRANCH  21  22
HETATM   22  C   UNL     1     -12.149  12.089  69.736  1.00  0.00    -0.317 C  
BRANCH  22  23
HETATM   23  C   UNL     1     -12.411  13.186  70.720  1.00  0.00    -0.308 A  
HETATM   24  C   UNL     1     -11.895  14.464  70.727  1.00  0.00    -0.349 A  
HETATM   25  C   UNL     1     -12.375  15.220  71.833  1.00  0.00    -0.427 A  
HETATM   26  C   UNL     1     -13.239  14.499  72.626  1.00  0.00    -0.481 A  
HETATM   27  S   UNL     1     -13.468  12.913  72.043  1.00  0.00    -0.383 SA 
ENDBRANCH  22  23
ENDBRANCH  21  22
ENDBRANCH  14  21
ENDBRANCH   4  12
ENDBRANCH   2   3
TORSDOF 8
ENDMDL
MODEL       48
REMARK 921   NORMALIZED FREE ENERGY PREDICTED BY IDOCK:   -4.74 KCAL/MOL
REMARK 922        TOTAL FREE ENERGY PREDICTED BY IDOCK:   -7.46 KCAL/MOL
REMARK 923 INTER-LIGAND FREE ENERGY PREDICTED BY IDOCK:   -7.31 KCAL/MOL
REMARK 924 INTRA-LIGAND FREE ENERGY PREDICTED BY IDOCK:   -0.15 KCAL/MOL
REMARK 927      BINDING AFFINITY PREDICTED BY RF-SCORE:    0.00 PKD
ROOT
HETATM    1  C   UNL     1     -12.344  12.055  63.266  1.00  0.00    -0.553 C  
HETATM    2  C   UNL     1     -12.395  12.360  64.753  1.00  0.00    -0.497 C  
ENDROOT
BRANCH   2   3
HETATM    3  C   UNL     1     -11.744  13.673  65.156  1.00  0.00    -0.331 C  
HETATM    4  N   UNL     1     -10.878  13.673  66.269  1.00  0.00    -0.282 N  
HETATM    5  O   UNL     1     -12.047  14.699  64.539  1.00  0.00    -0.461 OA 
BRANCH   4   6
HETATM    6  C   UNL     1     -10.348  14.983  66.600  1.00  0.00    -0.278 A  
HETATM    7  C   UNL     1      -9.136  15.449  66.080  1.00  0.00    -0.284 A  
HETATM    8  C   UNL     1      -8.607  16.683  66.482  1.00  0.00    -0.320 A  
HETATM    9  C   UNL     1     -11.058  15.819  67.474  1.00  0.00    -0.258 A  
HETATM   10  C   UNL     1      -9.287  17.472  67.406  1.00  0.00    -0.249 A  
HETATM   11  C   UNL     1     -10.517  17.041  67.898  1.00  0.00    -0.354 A  
ENDBRANCH   4   6
BRANCH   4  12
HETATM   12  C   UNL     1     -10.195  12.440  66.920  1.00  0.00    -0.225 C  
HETATM   13  C   UNL     1     -11.135  11.192  67.072  1.00  0.00    -0.339 C  
HETATM   14  N   UNL     1     -11.786  11.731  69.424  1.00  0.00    -0.324 NA 
HETATM   15  C   UNL     1     -12.267  11.393  68.081  1.00  0.00     0.299 C  
HETATM   16  C   UNL     1      -9.718  12.720  68.380  1.00  0.00    -0.186 C  
HETATM   17  C   UNL     1     -10.895  12.896  69.347  1.00  0.00     0.105 C  
BRANCH  12  18
HETATM   18  C   UNL     1      -8.966  11.966  66.066  1.00  0.00    -0.066 C  
BRANCH  18  19
HETATM   19  O   UNL     1      -8.251  10.894  66.672  1.00  0.00    -0.134 OA 
HETATM   20  C   UNL     1      -6.855  10.965  66.409  1.00  0.00    -0.135 C  
ENDBRANCH  18  19
ENDBRANCH  12  18
BRANCH  14  21
HETATM   21  C   UNL     1     -11.188  10.576  70.118  1.00  0.00    -0.315 C  
BRANCH  21  22
HETATM   22  C   UNL     1     -11.949  10.156  71.388  1.00  0.00    -0.447 C  
BRANCH  22  23
HETATM   23  C   UNL     1     -11.591   8.761  71.795  1.00  0.00    -0.346 A  
HETATM   24  C   UNL     1     -10.490   8.339  72.510  1.00  0.00    -0.406 A  
HETATM   25  C   UNL     1     -10.492   6.929  72.698  1.00  0.00    -0.243 A  
HETATM   26  C   UNL     1     -11.589   6.325  72.126  1.00  0.00    -0.319 A  
HETATM   27  S   UNL     1     -12.612   7.454  71.361  1.00  0.00    -0.361 SA 
ENDBRANCH  22  23
ENDBRANCH  21  22
ENDBRANCH  14  21
ENDBRANCH   4  12
ENDBRANCH   2   3
TORSDOF 8
ENDMDL
MODEL       49
REMARK 921   NORMALIZED FREE ENERGY PREDICTED BY IDOCK:   -4.73 KCAL/MOL
REMARK 922        TOTAL FREE ENERGY PREDICTED BY IDOCK:   -7.45 KCAL/MOL
REMARK 923 INTER-LIGAND FREE ENERGY PREDICTED BY IDOCK:   -7.03 KCAL/MOL
REMARK 924 INTRA-LIGAND FREE ENERGY PREDICTED BY IDOCK:   -0.42 KCAL/MOL
REMARK 927      BINDING AFFINITY PREDICTED BY RF-SCORE:    0.00 PKD
ROOT
HETATM    1  C   UNL     1      -6.591   9.869  67.443  1.00  0.00    -0.069 C  
HETATM    2  C   UNL     1      -7.485  10.472  68.511  1.00  0.00    -0.091 C  
ENDROOT
BRANCH   2   3
HETATM    3  C   UNL     1      -8.282   9.462  69.321  1.00  0.00    -0.111 C  
HETATM    4  N   UNL     1      -9.685   9.592  69.353  1.00  0.00    -0.173 N  
HETATM    5  O   UNL     1      -7.670   8.608  69.971  1.00  0.00    -0.074 OA 
BRANCH   4   6
HETATM    6  C   UNL     1     -10.347   8.608  70.191  1.00  0.00    -0.207 A  
HETATM    7  C   UNL     1     -10.577   8.824  71.554  1.00  0.00    -0.379 A  
HETATM    8  C   UNL     1     -11.142   7.823  72.355  1.00  0.00    -0.379 A  
HETATM    9  C   UNL     1     -10.771   7.393  69.632  1.00  0.00    -0.245 A  
HETATM   10  C   UNL     1     -11.493   6.594  71.803  1.00  0.00    -0.334 A  
HETATM   11  C   UNL     1     -11.311   6.382  70.439  1.00  0.00    -0.453 A  
ENDBRANCH   4   6
BRANCH   4  12
HETATM   12  C   UNL     1     -10.570  10.402  68.368  1.00  0.00    -0.208 C  
HETATM   13  C   UNL     1      -9.986  11.810  67.992  1.00  0.00    -0.191 C  
HETATM   14  N   UNL     1     -11.291  13.031  69.740  1.00  0.00    -0.117 NA 
HETATM   15  C   UNL     1      -9.965  12.800  69.157  1.00  0.00     0.411 C  
HETATM   16  C   UNL     1     -11.976  10.735  68.960  1.00  0.00    -0.258 C  
HETATM   17  C   UNL     1     -11.893  11.743  70.112  1.00  0.00    -0.324 C  
BRANCH  12  18
HETATM   18  C   UNL     1     -10.758   9.626  67.016  1.00  0.00    -0.155 C  
BRANCH  18  19
HETATM   19  O   UNL     1     -10.207  10.317  65.900  1.00  0.00    -0.254 OA 
HETATM   20  C   UNL     1      -9.303   9.506  65.161  1.00  0.00    -0.252 C  
ENDBRANCH  18  19
ENDBRANCH  12  18
BRANCH  14  21
HETATM   21  C   UNL     1     -12.153  13.855  68.875  1.00  0.00    -0.319 C  
BRANCH  21  22
HETATM   22  C   UNL     1     -12.204  15.338  69.287  1.00  0.00    -0.218 C  
BRANCH  22  23
HETATM   23  C   UNL     1     -12.482  15.483  70.750  1.00  0.00    -0.440 A  
HETATM   24  C   UNL     1     -11.668  16.026  71.721  1.00  0.00    -0.593 A  
HETATM   25  C   UNL     1     -12.279  15.982  73.006  1.00  0.00    -0.637 A  
HETATM   26  C   UNL     1     -13.532  15.413  72.972  1.00  0.00    -0.506 A  
HETATM   27  S   UNL     1     -13.969  14.928  71.397  1.00  0.00    -0.452 SA 
ENDBRANCH  22  23
ENDBRANCH  21  22
ENDBRANCH  14  21
ENDBRANCH   4  12
ENDBRANCH   2   3
TORSDOF 8
ENDMDL
MODEL       50
REMARK 921   NORMALIZED FREE ENERGY PREDICTED BY IDOCK:   -4.73 KCAL/MOL
REMARK 922        TOTAL FREE ENERGY PREDICTED BY IDOCK:   -7.44 KCAL/MOL
REMARK 923 INTER-LIGAND FREE ENERGY PREDICTED BY IDOCK:   -7.16 KCAL/MOL
REMARK 924 INTRA-LIGAND FREE ENERGY PREDICTED BY IDOCK:   -0.29 KCAL/MOL
REMARK 927      BINDING AFFINITY PREDICTED BY RF-SCORE:    0.00 PKD
ROOT
HETATM    1  C   UNL     1      -9.665  10.819  62.979  1.00  0.00    -0.374 C  
HETATM    2  C   UNL     1     -10.159  10.496  64.378  1.00  0.00    -0.395 C  
ENDROOT
BRANCH   2   3
HETATM    3  C   UNL     1      -9.070  10.416  65.436  1.00  0.00    -0.189 C  
HETATM    4  N   UNL     1      -9.084  11.365  66.479  1.00  0.00    -0.180 N  
HETATM    5  O   UNL     1      -8.179   9.571  65.308  1.00  0.00    -0.121 OA 
BRANCH   4   6
HETATM    6  C   UNL     1      -7.977  11.233  67.408  1.00  0.00    -0.132 A  
HETATM    7  C   UNL     1      -8.103  10.556  68.626  1.00  0.00    -0.127 A  
HETATM    8  C   UNL     1      -7.041  10.516  69.540  1.00  0.00    -0.124 A  
HETATM    9  C   UNL     1      -6.734  11.802  67.093  1.00  0.00    -0.145 A  
HETATM   10  C   UNL     1      -5.836  11.147  69.246  1.00  0.00    -0.044 A  
HETATM   11  C   UNL     1      -5.681  11.786  68.018  1.00  0.00    -0.046 A  
ENDBRANCH   4   6
BRANCH   4  12
HETATM   12  C   UNL     1     -10.279  12.256  66.914  1.00  0.00    -0.213 C  
HETATM   13  C   UNL     1     -11.086  12.875  65.718  1.00  0.00    -0.312 C  
HETATM   14  N   UNL     1      -9.825  15.033  65.736  1.00  0.00    -0.336 NA 
HETATM   15  C   UNL     1     -10.299  13.913  64.916  1.00  0.00    -0.406 C  
HETATM   16  C   UNL     1      -9.829  13.503  67.738  1.00  0.00    -0.233 C  
HETATM   17  C   UNL     1      -9.060  14.514  66.878  1.00  0.00    -0.255 C  
BRANCH  12  18
HETATM   18  C   UNL     1     -11.311  11.431  67.764  1.00  0.00    -0.287 C  
BRANCH  18  19
HETATM   19  O   UNL     1     -11.941  12.210  68.777  1.00  0.00    -0.306 OA 
HETATM   20  C   UNL     1     -12.093  11.486  69.991  1.00  0.00    -0.331 C  
ENDBRANCH  18  19
ENDBRANCH  12  18
BRANCH  14  21
HETATM   21  C   UNL     1     -10.910  15.951  66.122  1.00  0.00    -0.208 C  
BRANCH  21  22
HETATM   22  C   UNL     1     -10.812  17.338  65.459  1.00  0.00    -0.024 C  
BRANCH  22  23
HETATM   23  C   UNL     1     -10.404  18.382  66.451  1.00  0.00    -0.405 A  
HETATM   24  C   UNL     1     -10.024  19.684  66.207  1.00  0.00    -0.563 A  
HETATM   25  C   UNL     1      -9.702  20.373  67.410  1.00  0.00    -0.597 A  
HETATM   26  C   UNL     1      -9.849  19.579  68.525  1.00  0.00    -0.429 A  
HETATM   27  S   UNL     1     -10.369  18.006  68.123  1.00  0.00    -0.374 SA 
ENDBRANCH  22  23
ENDBRANCH  21  22
ENDBRANCH  14  21
ENDBRANCH   4  12
ENDBRANCH   2   3
TORSDOF 8
ENDMDL
MODEL       51
REMARK 921   NORMALIZED FREE ENERGY PREDICTED BY IDOCK:   -4.73 KCAL/MOL
REMARK 922        TOTAL FREE ENERGY PREDICTED BY IDOCK:   -7.44 KCAL/MOL
REMARK 923 INTER-LIGAND FREE ENERGY PREDICTED BY IDOCK:   -7.53 KCAL/MOL
REMARK 924 INTRA-LIGAND FREE ENERGY PREDICTED BY IDOCK:    0.08 KCAL/MOL
REMARK 927      BINDING AFFINITY PREDICTED BY RF-SCORE:    0.00 PKD
ROOT
HETATM    1  C   UNL     1      -5.362  14.336  67.994  1.00  0.00    -0.109 C  
HETATM    2  C   UNL     1      -6.773  14.562  67.479  1.00  0.00    -0.141 C  
ENDROOT
BRANCH   2   3
HETATM    3  C   UNL     1      -7.270  15.994  67.591  1.00  0.00    -0.152 C  
HETATM    4  N   UNL     1      -8.618  16.259  67.274  1.00  0.00    -0.174 N  
HETATM    5  O   UNL     1      -6.463  16.881  67.891  1.00  0.00    -0.133 OA 
BRANCH   4   6
HETATM    6  C   UNL     1      -8.979  17.661  67.367  1.00  0.00    -0.231 A  
HETATM    7  C   UNL     1      -8.970  18.355  68.582  1.00  0.00    -0.308 A  
HETATM    8  C   UNL     1      -9.404  19.685  68.655  1.00  0.00    -0.386 A  
HETATM    9  C   UNL     1      -9.358  18.359  66.210  1.00  0.00    -0.231 A  
HETATM   10  C   UNL     1      -9.846  20.344  67.512  1.00  0.00    -0.564 A  
HETATM   11  C   UNL     1      -9.818  19.681  66.287  1.00  0.00    -0.540 A  
ENDBRANCH   4   6
BRANCH   4  12
HETATM   12  C   UNL     1      -9.775  15.227  67.186  1.00  0.00    -0.217 C  
HETATM   13  C   UNL     1     -11.196  15.832  67.472  1.00  0.00    -0.218 C  
HETATM   14  N   UNL     1     -11.186  15.205  69.892  1.00  0.00    -0.266 NA 
HETATM   15  C   UNL     1     -11.393  16.284  68.920  1.00  0.00    -0.317 C  
HETATM   16  C   UNL     1      -9.644  14.086  68.243  1.00  0.00    -0.224 C  
HETATM   17  C   UNL     1      -9.867  14.595  69.673  1.00  0.00     0.185 C  
BRANCH  12  18
HETATM   18  C   UNL     1      -9.847  14.588  65.754  1.00  0.00    -0.314 C  
BRANCH  18  19
HETATM   19  O   UNL     1     -10.745  15.274  64.886  1.00  0.00    -0.419 OA 
HETATM   20  C   UNL     1     -11.739  14.409  64.353  1.00  0.00    -0.375 C  
ENDBRANCH  18  19
ENDBRANCH  12  18
BRANCH  14  21
HETATM   21  C   UNL     1     -12.291  14.231  69.899  1.00  0.00    -0.324 C  
BRANCH  21  22
HETATM   22  C   UNL     1     -12.560  13.612  71.284  1.00  0.00    -0.435 C  
BRANCH  22  23
HETATM   23  C   UNL     1     -12.652  12.120  71.200  1.00  0.00    -0.260 A  
HETATM   24  C   UNL     1     -13.302  11.259  72.057  1.00  0.00    -0.386 A  
HETATM   25  C   UNL     1     -13.160   9.903  71.648  1.00  0.00    -0.538 A  
HETATM   26  C   UNL     1     -12.412   9.776  70.500  1.00  0.00    -0.058 A  
HETATM   27  S   UNL     1     -11.879  11.287  69.916  1.00  0.00    -0.388 SA 
ENDBRANCH  22  23
ENDBRANCH  21  22
ENDBRANCH  14  21
ENDBRANCH   4  12
ENDBRANCH   2   3
TORSDOF 8
ENDMDL
MODEL       52
REMARK 921   NORMALIZED FREE ENERGY PREDICTED BY IDOCK:   -4.72 KCAL/MOL
REMARK 922        TOTAL FREE ENERGY PREDICTED BY IDOCK:   -7.44 KCAL/MOL
REMARK 923 INTER-LIGAND FREE ENERGY PREDICTED BY IDOCK:   -7.14 KCAL/MOL
REMARK 924 INTRA-LIGAND FREE ENERGY PREDICTED BY IDOCK:   -0.30 KCAL/MOL
REMARK 927      BINDING AFFINITY PREDICTED BY RF-SCORE:    0.00 PKD
ROOT
HETATM    1  C   UNL     1      -7.698   9.224  64.111  1.00  0.00    -0.120 C  
HETATM    2  C   UNL     1      -8.978   9.385  64.912  1.00  0.00    -0.256 C  
ENDROOT
BRANCH   2   3
HETATM    3  C   UNL     1      -9.715  10.693  64.677  1.00  0.00    -0.302 C  
HETATM    4  N   UNL     1     -10.012  11.501  65.795  1.00  0.00    -0.224 N  
HETATM    5  O   UNL     1     -10.085  10.969  63.531  1.00  0.00    -0.319 OA 
BRANCH   4   6
HETATM    6  C   UNL     1     -10.759  12.702  65.470  1.00  0.00    -0.274 A  
HETATM    7  C   UNL     1     -12.149  12.697  65.315  1.00  0.00    -0.519 A  
HETATM    8  C   UNL     1     -12.833  13.853  64.918  1.00  0.00    -0.221 A  
HETATM    9  C   UNL     1     -10.078  13.916  65.295  1.00  0.00    -0.328 A  
HETATM   10  C   UNL     1     -12.138  15.034  64.678  1.00  0.00    -0.330 A  
HETATM   11  C   UNL     1     -10.759  15.067  64.872  1.00  0.00    -0.420 A  
ENDBRANCH   4   6
BRANCH   4  12
HETATM   12  C   UNL     1      -9.358  11.425  67.201  1.00  0.00    -0.172 C  
HETATM   13  C   UNL     1      -9.437  10.006  67.869  1.00  0.00    -0.159 C  
HETATM   14  N   UNL     1     -11.512  10.521  69.163  1.00  0.00    -0.259 NA 
HETATM   15  C   UNL     1     -10.857   9.581  68.247  1.00  0.00    -0.145 C  
HETATM   16  C   UNL     1     -10.057  12.358  68.239  1.00  0.00    -0.227 C  
HETATM   17  C   UNL     1     -11.469  11.873  68.591  1.00  0.00    -0.294 C  
BRANCH  12  18
HETATM   18  C   UNL     1      -7.834  11.796  67.129  1.00  0.00    -0.166 C  
BRANCH  18  19
HETATM   19  O   UNL     1      -7.595  13.190  67.292  1.00  0.00    -0.152 OA 
HETATM   20  C   UNL     1      -6.320  13.453  67.862  1.00  0.00    -0.151 C  
ENDBRANCH  18  19
ENDBRANCH  12  18
BRANCH  14  21
HETATM   21  C   UNL     1     -10.976  10.443  70.533  1.00  0.00    -0.195 C  
BRANCH  21  22
HETATM   22  C   UNL     1     -11.778   9.510  71.458  1.00  0.00    -0.472 C  
BRANCH  22  23
HETATM   23  C   UNL     1     -10.880   8.525  72.141  1.00  0.00    -0.357 A  
HETATM   24  C   UNL     1     -11.228   7.534  73.034  1.00  0.00    -0.373 A  
HETATM   25  C   UNL     1     -10.091   6.799  73.473  1.00  0.00    -0.294 A  
HETATM   26  C   UNL     1      -8.923   7.248  72.901  1.00  0.00    -0.134 A  
HETATM   27  S   UNL     1      -9.193   8.556  71.841  1.00  0.00    -0.272 SA 
ENDBRANCH  22  23
ENDBRANCH  21  22
ENDBRANCH  14  21
ENDBRANCH   4  12
ENDBRANCH   2   3
TORSDOF 8
ENDMDL
MODEL       53
REMARK 921   NORMALIZED FREE ENERGY PREDICTED BY IDOCK:   -4.72 KCAL/MOL
REMARK 922        TOTAL FREE ENERGY PREDICTED BY IDOCK:   -7.44 KCAL/MOL
REMARK 923 INTER-LIGAND FREE ENERGY PREDICTED BY IDOCK:   -7.65 KCAL/MOL
REMARK 924 INTRA-LIGAND FREE ENERGY PREDICTED BY IDOCK:    0.21 KCAL/MOL
REMARK 927      BINDING AFFINITY PREDICTED BY RF-SCORE:    0.00 PKD
ROOT
HETATM    1  C   UNL     1     -12.408  10.673  70.990  1.00  0.00    -0.507 C  
HETATM    2  C   UNL     1     -12.227  10.986  69.515  1.00  0.00    -0.352 C  
ENDROOT
BRANCH   2   3
HETATM    3  C   UNL     1     -10.801  10.847  69.006  1.00  0.00    -0.230 C  
HETATM    4  N   UNL     1     -10.417  11.611  67.884  1.00  0.00    -0.187 N  
HETATM    5  O   UNL     1     -10.055  10.026  69.548  1.00  0.00    -0.201 OA 
BRANCH   4   6
HETATM    6  C   UNL     1      -9.054  11.370  67.449  1.00  0.00    -0.160 A  
HETATM    7  C   UNL     1      -7.948  11.738  68.223  1.00  0.00    -0.147 A  
HETATM    8  C   UNL     1      -6.644  11.569  67.740  1.00  0.00    -0.068 A  
HETATM    9  C   UNL     1      -8.819  10.755  66.210  1.00  0.00    -0.182 A  
HETATM   10  C   UNL     1      -6.425  11.024  66.479  1.00  0.00    -0.132 A  
HETATM   11  C   UNL     1      -7.515  10.611  65.715  1.00  0.00    -0.114 A  
ENDBRANCH   4   6
BRANCH   4  12
HETATM   12  C   UNL     1     -11.137  12.865  67.318  1.00  0.00    -0.274 C  
HETATM   13  C   UNL     1     -10.165  14.007  66.856  1.00  0.00    -0.260 C  
HETATM   14  N   UNL     1     -10.290  15.250  69.021  1.00  0.00    -0.232 NA 
HETATM   15  C   UNL     1      -9.404  14.672  68.004  1.00  0.00    -0.198 C  
HETATM   16  C   UNL     1     -12.047  13.564  68.377  1.00  0.00    -0.293 C  
HETATM   17  C   UNL     1     -11.229  14.224  69.494  1.00  0.00    -0.243 C  
BRANCH  12  18
HETATM   18  C   UNL     1     -12.008  12.492  66.066  1.00  0.00    -0.392 C  
BRANCH  18  19
HETATM   19  O   UNL     1     -11.449  12.960  64.843  1.00  0.00    -0.299 OA 
HETATM   20  C   UNL     1     -11.627  12.031  63.782  1.00  0.00    -0.476 C  
ENDBRANCH  18  19
ENDBRANCH  12  18
BRANCH  14  21
HETATM   21  C   UNL     1     -10.949  16.485  68.560  1.00  0.00    -0.350 C  
BRANCH  21  22
HETATM   22  C   UNL     1     -10.255  17.773  69.041  1.00  0.00    -0.290 C  
BRANCH  22  23
HETATM   23  C   UNL     1      -9.919  18.668  67.890  1.00  0.00    -0.350 A  
HETATM   24  C   UNL     1     -10.778  19.227  66.968  1.00  0.00    -0.565 A  
HETATM   25  C   UNL     1     -10.083  20.021  66.014  1.00  0.00    -0.559 A  
HETATM   26  C   UNL     1      -8.725  20.043  66.239  1.00  0.00    -0.289 A  
HETATM   27  S   UNL     1      -8.289  19.107  67.595  1.00  0.00    -0.296 SA 
ENDBRANCH  22  23
ENDBRANCH  21  22
ENDBRANCH  14  21
ENDBRANCH   4  12
ENDBRANCH   2   3
TORSDOF 8
ENDMDL
MODEL       54
REMARK 921   NORMALIZED FREE ENERGY PREDICTED BY IDOCK:   -4.72 KCAL/MOL
REMARK 922        TOTAL FREE ENERGY PREDICTED BY IDOCK:   -7.43 KCAL/MOL
REMARK 923 INTER-LIGAND FREE ENERGY PREDICTED BY IDOCK:   -7.10 KCAL/MOL
REMARK 924 INTRA-LIGAND FREE ENERGY PREDICTED BY IDOCK:   -0.34 KCAL/MOL
REMARK 927      BINDING AFFINITY PREDICTED BY RF-SCORE:    0.00 PKD
ROOT
HETATM    1  C   UNL     1     -13.680  14.343  71.185  1.00  0.00    -0.297 C  
HETATM    2  C   UNL     1     -12.512  13.937  70.304  1.00  0.00    -0.380 C  
ENDROOT
BRANCH   2   3
HETATM    3  C   UNL     1     -11.618  15.085  69.864  1.00  0.00    -0.293 C  
HETATM    4  N   UNL     1     -10.850  14.921  68.693  1.00  0.00    -0.242 N  
HETATM    5  O   UNL     1     -11.546  16.089  70.581  1.00  0.00    -0.365 OA 
BRANCH   4   6
HETATM    6  C   UNL     1      -9.995  16.053  68.388  1.00  0.00    -0.220 A  
HETATM    7  C   UNL     1      -8.724  16.201  68.952  1.00  0.00    -0.248 A  
HETATM    8  C   UNL     1      -7.955  17.346  68.704  1.00  0.00    -0.271 A  
HETATM    9  C   UNL     1     -10.446  17.045  67.504  1.00  0.00    -0.334 A  
HETATM   10  C   UNL     1      -8.444  18.357  67.882  1.00  0.00    -0.274 A  
HETATM   11  C   UNL     1      -9.689  18.203  67.277  1.00  0.00    -0.297 A  
ENDBRANCH   4   6
BRANCH   4  12
HETATM   12  C   UNL     1     -11.072  13.870  67.572  1.00  0.00    -0.286 C  
HETATM   13  C   UNL     1     -11.400  12.428  68.100  1.00  0.00    -0.341 C  
HETATM   14  N   UNL     1      -9.030  11.642  67.991  1.00  0.00    -0.169 NA 
HETATM   15  C   UNL     1     -10.232  11.756  68.824  1.00  0.00    -0.160 C  
HETATM   16  C   UNL     1      -9.801  13.657  66.690  1.00  0.00    -0.284 C  
HETATM   17  C   UNL     1      -8.672  12.966  67.463  1.00  0.00    -0.190 C  
BRANCH  12  18
HETATM   18  C   UNL     1     -12.270  14.285  66.646  1.00  0.00    -0.381 C  
BRANCH  18  19
HETATM   19  O   UNL     1     -12.210  13.678  65.358  1.00  0.00    -0.390 OA 
HETATM   20  C   UNL     1     -12.298  14.635  64.311  1.00  0.00    -0.349 C  
ENDBRANCH  18  19
ENDBRANCH  12  18
BRANCH  14  21
HETATM   21  C   UNL     1      -9.159  10.608  66.950  1.00  0.00    -0.155 C  
BRANCH  21  22
HETATM   22  C   UNL     1      -7.933  10.506  66.024  1.00  0.00    -0.149 C  
BRANCH  22  23
HETATM   23  C   UNL     1      -8.346  10.279  64.603  1.00  0.00    -0.169 A  
HETATM   24  C   UNL     1      -7.741   9.476  63.660  1.00  0.00    -0.125 A  
HETATM   25  C   UNL     1      -8.425   9.523  62.413  1.00  0.00    -0.191 A  
HETATM   26  C   UNL     1      -9.523  10.352  62.447  1.00  0.00    -0.219 A  
HETATM   27  S   UNL     1      -9.728  11.077  63.977  1.00  0.00    -0.315 SA 
ENDBRANCH  22  23
ENDBRANCH  21  22
ENDBRANCH  14  21
ENDBRANCH   4  12
ENDBRANCH   2   3
TORSDOF 8
ENDMDL
MODEL       55
REMARK 921   NORMALIZED FREE ENERGY PREDICTED BY IDOCK:   -4.70 KCAL/MOL
REMARK 922        TOTAL FREE ENERGY PREDICTED BY IDOCK:   -7.40 KCAL/MOL
REMARK 923 INTER-LIGAND FREE ENERGY PREDICTED BY IDOCK:   -7.10 KCAL/MOL
REMARK 924 INTRA-LIGAND FREE ENERGY PREDICTED BY IDOCK:   -0.30 KCAL/MOL
REMARK 927      BINDING AFFINITY PREDICTED BY RF-SCORE:    0.00 PKD
ROOT
HETATM    1  C   UNL     1     -12.415  12.096  64.094  1.00  0.00    -0.497 C  
HETATM    2  C   UNL     1     -11.222  12.221  65.026  1.00  0.00    -0.367 C  
ENDROOT
BRANCH   2   3
HETATM    3  C   UNL     1     -11.470  13.062  66.267  1.00  0.00    -0.337 C  
HETATM    4  N   UNL     1     -10.751  12.747  67.439  1.00  0.00    -0.228 N  
HETATM    5  O   UNL     1     -12.334  13.943  66.225  1.00  0.00    -0.453 OA 
BRANCH   4   6
HETATM    6  C   UNL     1     -11.094  13.577  68.579  1.00  0.00    -0.272 A  
HETATM    7  C   UNL     1     -10.446  14.789  68.841  1.00  0.00    -0.249 A  
HETATM    8  C   UNL     1     -10.740  15.527  69.995  1.00  0.00    -0.331 A  
HETATM    9  C   UNL     1     -12.102  13.161  69.463  1.00  0.00    -0.296 A  
HETATM   10  C   UNL     1     -11.692  15.068  70.901  1.00  0.00    -0.376 A  
HETATM   11  C   UNL     1     -12.377  13.885  70.631  1.00  0.00    -0.451 A  
ENDBRANCH   4   6
BRANCH   4  12
HETATM   12  C   UNL     1      -9.457  11.895  67.539  1.00  0.00    -0.176 C  
HETATM   13  C   UNL     1      -9.524  10.533  66.761  1.00  0.00    -0.190 C  
HETATM   14  N   UNL     1     -10.225   9.207  68.760  1.00  0.00    -0.204 NA 
HETATM   15  C   UNL     1     -10.512   9.530  67.359  1.00  0.00    -0.272 C  
HETATM   16  C   UNL     1      -9.134  11.464  69.005  1.00  0.00     0.069 C  
HETATM   17  C   UNL     1     -10.148  10.447  69.543  1.00  0.00    -0.219 C  
BRANCH  12  18
HETATM   18  C   UNL     1      -8.226  12.677  66.956  1.00  0.00    -0.108 C  
BRANCH  18  19
HETATM   19  O   UNL     1      -7.499  13.388  67.954  1.00  0.00    -0.116 OA 
HETATM   20  C   UNL     1      -6.973  14.614  67.462  1.00  0.00    -0.168 C  
ENDBRANCH  18  19
ENDBRANCH  12  18
BRANCH  14  21
HETATM   21  C   UNL     1      -9.042   8.341  68.910  1.00  0.00    -0.147 C  
BRANCH  21  22
HETATM   22  C   UNL     1      -9.364   6.950  69.488  1.00  0.00    -0.147 C  
BRANCH  22  23
HETATM   23  C   UNL     1     -10.425   7.035  70.540  1.00  0.00    -0.208 A  
HETATM   24  C   UNL     1     -11.728   6.592  70.472  1.00  0.00    -0.453 A  
HETATM   25  C   UNL     1     -12.438   6.856  71.677  1.00  0.00    -0.418 A  
HETATM   26  C   UNL     1     -11.657   7.485  72.619  1.00  0.00    -0.282 A  
HETATM   27  S   UNL     1     -10.073   7.761  72.053  1.00  0.00    -0.203 SA 
ENDBRANCH  22  23
ENDBRANCH  21  22
ENDBRANCH  14  21
ENDBRANCH   4  12
ENDBRANCH   2   3
TORSDOF 8
ENDMDL
MODEL       56
REMARK 921   NORMALIZED FREE ENERGY PREDICTED BY IDOCK:   -4.65 KCAL/MOL
REMARK 922        TOTAL FREE ENERGY PREDICTED BY IDOCK:   -7.33 KCAL/MOL
REMARK 923 INTER-LIGAND FREE ENERGY PREDICTED BY IDOCK:   -7.62 KCAL/MOL
REMARK 924 INTRA-LIGAND FREE ENERGY PREDICTED BY IDOCK:    0.29 KCAL/MOL
REMARK 927      BINDING AFFINITY PREDICTED BY RF-SCORE:    0.00 PKD
ROOT
HETATM    1  C   UNL     1      -8.796   7.390  66.009  1.00  0.00    -0.173 C  
HETATM    2  C   UNL     1     -10.059   7.994  66.599  1.00  0.00    -0.329 C  
ENDROOT
BRANCH   2   3
HETATM    3  C   UNL     1     -10.559   7.315  67.863  1.00  0.00    -0.202 C  
HETATM    4  N   UNL     1     -10.128   7.821  69.107  1.00  0.00    -0.191 N  
HETATM    5  O   UNL     1     -11.267   6.308  67.756  1.00  0.00    -0.325 OA 
BRANCH   4   6
HETATM    6  C   UNL     1     -10.622   7.074  70.248  1.00  0.00    -0.226 A  
HETATM    7  C   UNL     1     -11.956   7.145  70.665  1.00  0.00    -0.312 A  
HETATM    8  C   UNL     1     -12.385   6.479  71.820  1.00  0.00    -0.340 A  
HETATM    9  C   UNL     1      -9.745   6.254  70.974  1.00  0.00    -0.196 A  
HETATM   10  C   UNL     1     -11.489   5.726  72.572  1.00  0.00    -0.349 A  
HETATM   11  C   UNL     1     -10.168   5.609  72.145  1.00  0.00    -0.247 A  
ENDBRANCH   4   6
BRANCH   4  12
HETATM   12  C   UNL     1      -9.509   9.219  69.381  1.00  0.00    -0.168 C  
HETATM   13  C   UNL     1     -10.028   9.903  70.695  1.00  0.00    -0.094 C  
HETATM   14  N   UNL     1     -11.805  11.221  69.533  1.00  0.00    -0.326 NA 
HETATM   15  C   UNL     1     -11.502  10.307  70.638  1.00  0.00    -0.349 C  
HETATM   16  C   UNL     1      -9.852  10.257  68.267  1.00  0.00    -0.161 C  
HETATM   17  C   UNL     1     -11.339  10.634  68.269  1.00  0.00    -0.289 C  
BRANCH  12  18
HETATM   18  C   UNL     1      -7.947   9.121  69.521  1.00  0.00    -0.098 C  
BRANCH  18  19
HETATM   19  O   UNL     1      -7.434   9.932  70.573  1.00  0.00    -0.231 OA 
HETATM   20  C   UNL     1      -6.479  10.875  70.105  1.00  0.00    -0.145 C  
ENDBRANCH  18  19
ENDBRANCH  12  18
BRANCH  14  21
HETATM   21  C   UNL     1     -11.298  12.585  69.771  1.00  0.00    -0.040 C  
BRANCH  21  22
HETATM   22  C   UNL     1     -12.397  13.663  69.763  1.00  0.00    -0.285 C  
BRANCH  22  23
HETATM   23  C   UNL     1     -12.473  14.367  71.081  1.00  0.00    -0.359 A  
HETATM   24  C   UNL     1     -13.177  13.994  72.206  1.00  0.00    -0.558 A  
HETATM   25  C   UNL     1     -13.006  14.926  73.268  1.00  0.00    -0.635 A  
HETATM   26  C   UNL     1     -12.179  15.970  72.921  1.00  0.00    -0.517 A  
HETATM   27  S   UNL     1     -11.615  15.832  71.318  1.00  0.00    -0.472 SA 
ENDBRANCH  22  23
ENDBRANCH  21  22
ENDBRANCH  14  21
ENDBRANCH   4  12
ENDBRANCH   2   3
TORSDOF 8
ENDMDL
MODEL       57
REMARK 921   NORMALIZED FREE ENERGY PREDICTED BY IDOCK:   -4.63 KCAL/MOL
REMARK 922        TOTAL FREE ENERGY PREDICTED BY IDOCK:   -7.31 KCAL/MOL
REMARK 923 INTER-LIGAND FREE ENERGY PREDICTED BY IDOCK:   -7.14 KCAL/MOL
REMARK 924 INTRA-LIGAND FREE ENERGY PREDICTED BY IDOCK:   -0.17 KCAL/MOL
REMARK 927      BINDING AFFINITY PREDICTED BY RF-SCORE:    0.00 PKD
ROOT
HETATM    1  C   UNL     1      -6.923   8.297  73.183  1.00  0.00    -0.136 C  
HETATM    2  C   UNL     1      -7.398   7.576  71.934  1.00  0.00    -0.072 C  
ENDROOT
BRANCH   2   3
HETATM    3  C   UNL     1      -8.000   6.202  72.183  1.00  0.00    -0.109 C  
HETATM    4  N   UNL     1      -9.300   5.947  71.701  1.00  0.00    -0.149 N  
HETATM    5  O   UNL     1      -7.358   5.385  72.852  1.00  0.00    -0.088 OA 
BRANCH   4   6
HETATM    6  C   UNL     1      -9.800   4.625  72.032  1.00  0.00    -0.179 A  
HETATM    7  C   UNL     1     -10.560   4.382  73.181  1.00  0.00    -0.272 A  
HETATM    8  C   UNL     1     -10.959   3.082  73.518  1.00  0.00    -0.323 A  
HETATM    9  C   UNL     1      -9.516   3.543  71.186  1.00  0.00    -0.229 A  
HETATM   10  C   UNL     1     -10.608   2.006  72.707  1.00  0.00    -0.231 A  
HETATM   11  C   UNL     1      -9.891   2.239  71.536  1.00  0.00    -0.201 A  
ENDBRANCH   4   6
BRANCH   4  12
HETATM   12  C   UNL     1     -10.068   6.751  70.617  1.00  0.00    -0.187 C  
HETATM   13  C   UNL     1      -9.828   8.301  70.678  1.00  0.00    -0.203 C  
HETATM   14  N   UNL     1     -11.860   8.753  72.063  1.00  0.00    -0.356 NA 
HETATM   15  C   UNL     1     -10.415   8.967  71.924  1.00  0.00    -0.345 C  
HETATM   16  C   UNL     1     -11.617   6.614  70.754  1.00  0.00    -0.432 C  
HETATM   17  C   UNL     1     -12.149   7.314  72.011  1.00  0.00    -0.290 C  
BRANCH  12  18
HETATM   18  C   UNL     1      -9.642   6.294  69.176  1.00  0.00    -0.135 C  
BRANCH  18  19
HETATM   19  O   UNL     1     -10.698   5.655  68.464  1.00  0.00    -0.217 OA 
HETATM   20  C   UNL     1     -11.027   6.343  67.264  1.00  0.00    -0.392 C  
ENDBRANCH  18  19
ENDBRANCH  12  18
BRANCH  14  21
HETATM   21  C   UNL     1     -12.644   9.547  71.100  1.00  0.00    -0.301 C  
BRANCH  21  22
HETATM   22  C   UNL     1     -13.055  10.932  71.631  1.00  0.00    -0.538 C  
BRANCH  22  23
HETATM   23  C   UNL     1     -12.517  12.026  70.762  1.00  0.00    -0.279 A  
HETATM   24  C   UNL     1     -12.582  13.387  70.969  1.00  0.00    -0.425 A  
HETATM   25  C   UNL     1     -11.959  14.110  69.914  1.00  0.00    -0.398 A  
HETATM   26  C   UNL     1     -11.440  13.282  68.945  1.00  0.00    -0.298 A  
HETATM   27  S   UNL     1     -11.706  11.637  69.302  1.00  0.00    -0.349 SA 
ENDBRANCH  22  23
ENDBRANCH  21  22
ENDBRANCH  14  21
ENDBRANCH   4  12
ENDBRANCH   2   3
TORSDOF 8
ENDMDL
MODEL       58
REMARK 921   NORMALIZED FREE ENERGY PREDICTED BY IDOCK:   -4.61 KCAL/MOL
REMARK 922        TOTAL FREE ENERGY PREDICTED BY IDOCK:   -7.27 KCAL/MOL
REMARK 923 INTER-LIGAND FREE ENERGY PREDICTED BY IDOCK:   -7.36 KCAL/MOL
REMARK 924 INTRA-LIGAND FREE ENERGY PREDICTED BY IDOCK:    0.09 KCAL/MOL
REMARK 927      BINDING AFFINITY PREDICTED BY RF-SCORE:    0.00 PKD
ROOT
HETATM    1  C   UNL     1     -12.579  12.204  63.389  1.00  0.00    -0.584 C  
HETATM    2  C   UNL     1     -12.782  12.660  64.824  1.00  0.00    -0.460 C  
ENDROOT
BRANCH   2   3
HETATM    3  C   UNL     1     -11.950  13.866  65.231  1.00  0.00    -0.375 C  
HETATM    4  N   UNL     1     -11.317  13.843  66.491  1.00  0.00    -0.321 N  
HETATM    5  O   UNL     1     -11.914  14.844  64.478  1.00  0.00    -0.447 OA 
BRANCH   4   6
HETATM    6  C   UNL     1     -10.589  15.058  66.804  1.00  0.00    -0.301 A  
HETATM    7  C   UNL     1     -10.954  15.893  67.866  1.00  0.00    -0.327 A  
HETATM    8  C   UNL     1     -10.285  17.103  68.093  1.00  0.00    -0.332 A  
HETATM    9  C   UNL     1      -9.484  15.427  66.023  1.00  0.00    -0.381 A  
HETATM   10  C   UNL     1      -9.235  17.492  67.266  1.00  0.00    -0.240 A  
HETATM   11  C   UNL     1      -8.831  16.650  66.233  1.00  0.00    -0.348 A  
ENDBRANCH   4   6
BRANCH   4  12
HETATM   12  C   UNL     1     -11.037  12.595  67.372  1.00  0.00    -0.273 C  
HETATM   13  C   UNL     1      -9.673  12.651  68.147  1.00  0.00    -0.219 C  
HETATM   14  N   UNL     1      -8.416  11.366  66.409  1.00  0.00    -0.174 NA 
HETATM   15  C   UNL     1      -8.445  12.576  67.238  1.00  0.00    -0.185 C  
HETATM   16  C   UNL     1     -10.930  11.281  66.535  1.00  0.00    -0.303 C  
HETATM   17  C   UNL     1      -9.673  11.257  65.658  1.00  0.00    -0.230 C  
BRANCH  12  18
HETATM   18  C   UNL     1     -12.156  12.417  68.459  1.00  0.00    -0.075 C  
BRANCH  18  19
HETATM   19  O   UNL     1     -11.630  12.273  69.775  1.00  0.00    -0.288 OA 
HETATM   20  C   UNL     1     -12.383  11.352  70.555  1.00  0.00    -0.349 C  
ENDBRANCH  18  19
ENDBRANCH  12  18
BRANCH  14  21
HETATM   21  C   UNL     1      -8.086  10.157  67.185  1.00  0.00    -0.120 C  
BRANCH  21  22
HETATM   22  C   UNL     1      -7.246  10.441  68.444  1.00  0.00    -0.080 C  
BRANCH  22  23
HETATM   23  C   UNL     1      -7.851   9.797  69.653  1.00  0.00    -0.142 A  
HETATM   24  C   UNL     1      -9.186   9.634  69.951  1.00  0.00    -0.255 A  
HETATM   25  C   UNL     1      -9.370   8.977  71.200  1.00  0.00    -0.336 A  
HETATM   26  C   UNL     1      -8.176   8.660  71.807  1.00  0.00    -0.124 A  
HETATM   27  S   UNL     1      -6.836   9.157  70.878  1.00  0.00    -0.098 SA 
ENDBRANCH  22  23
ENDBRANCH  21  22
ENDBRANCH  14  21
ENDBRANCH   4  12
ENDBRANCH   2   3
TORSDOF 8
ENDMDL
MODEL       59
REMARK 921   NORMALIZED FREE ENERGY PREDICTED BY IDOCK:   -4.59 KCAL/MOL
REMARK 922        TOTAL FREE ENERGY PREDICTED BY IDOCK:   -7.24 KCAL/MOL
REMARK 923 INTER-LIGAND FREE ENERGY PREDICTED BY IDOCK:   -6.80 KCAL/MOL
REMARK 924 INTRA-LIGAND FREE ENERGY PREDICTED BY IDOCK:   -0.43 KCAL/MOL
REMARK 927      BINDING AFFINITY PREDICTED BY RF-SCORE:    0.00 PKD
ROOT
HETATM    1  C   UNL     1      -6.155  10.372  65.425  1.00  0.00    -0.132 C  
HETATM    2  C   UNL     1      -6.918  10.736  66.687  1.00  0.00    -0.129 C  
ENDROOT
BRANCH   2   3
HETATM    3  C   UNL     1      -7.767   9.614  67.263  1.00  0.00    -0.091 C  
HETATM    4  N   UNL     1      -9.154   9.830  67.397  1.00  0.00    -0.134 N  
HETATM    5  O   UNL     1      -7.206   8.585  67.652  1.00  0.00    -0.082 OA 
BRANCH   4   6
HETATM    6  C   UNL     1      -9.866   8.718  68.000  1.00  0.00    -0.169 A  
HETATM    7  C   UNL     1      -9.985   8.574  69.386  1.00  0.00    -0.194 A  
HETATM    8  C   UNL     1     -10.605   7.447  69.941  1.00  0.00    -0.245 A  
HETATM    9  C   UNL     1     -10.454   7.744  67.180  1.00  0.00    -0.413 A  
HETATM   10  C   UNL     1     -11.122   6.451  69.118  1.00  0.00    -0.428 A  
HETATM   11  C   UNL     1     -11.051   6.603  67.735  1.00  0.00    -0.332 A  
ENDBRANCH   4   6
BRANCH   4  12
HETATM   12  C   UNL     1     -10.001  10.920  66.687  1.00  0.00    -0.208 C  
HETATM   13  C   UNL     1      -9.414  12.371  66.812  1.00  0.00    -0.228 C  
HETATM   14  N   UNL     1     -10.808  12.969  68.799  1.00  0.00    -0.254 NA 
HETATM   15  C   UNL     1      -9.455  12.932  68.234  1.00  0.00    -0.206 C  
HETATM   16  C   UNL     1     -11.435  11.052  67.289  1.00  0.00    -0.164 C  
HETATM   17  C   UNL     1     -11.413  11.634  68.708  1.00  0.00    -0.285 C  
BRANCH  12  18
HETATM   18  C   UNL     1     -10.121  10.623  65.150  1.00  0.00    -0.307 C  
BRANCH  18  19
HETATM   19  O   UNL     1     -10.083  11.803  64.353  1.00  0.00    -0.262 OA 
HETATM   20  C   UNL     1      -9.834  11.517  62.983  1.00  0.00    -0.343 C  
ENDBRANCH  18  19
ENDBRANCH  12  18
BRANCH  14  21
HETATM   21  C   UNL     1     -11.638  14.034  68.208  1.00  0.00    -0.329 C  
BRANCH  21  22
HETATM   22  C   UNL     1     -11.540  15.378  68.952  1.00  0.00    -0.369 C  
BRANCH  22  23
HETATM   23  C   UNL     1     -11.026  16.458  68.052  1.00  0.00    -0.327 A  
HETATM   24  C   UNL     1     -10.883  17.800  68.330  1.00  0.00    -0.155 A  
HETATM   25  C   UNL     1     -10.363  18.516  67.215  1.00  0.00    -0.430 A  
HETATM   26  C   UNL     1     -10.125  17.700  66.132  1.00  0.00    -0.301 A  
HETATM   27  S   UNL     1     -10.531  16.076  66.456  1.00  0.00    -0.287 SA 
ENDBRANCH  22  23
ENDBRANCH  21  22
ENDBRANCH  14  21
ENDBRANCH   4  12
ENDBRANCH   2   3
TORSDOF 8
ENDMDL
MODEL       60
REMARK 921   NORMALIZED FREE ENERGY PREDICTED BY IDOCK:   -4.59 KCAL/MOL
REMARK 922        TOTAL FREE ENERGY PREDICTED BY IDOCK:   -7.24 KCAL/MOL
REMARK 923 INTER-LIGAND FREE ENERGY PREDICTED BY IDOCK:   -7.32 KCAL/MOL
REMARK 924 INTRA-LIGAND FREE ENERGY PREDICTED BY IDOCK:    0.09 KCAL/MOL
REMARK 927      BINDING AFFINITY PREDICTED BY RF-SCORE:    0.00 PKD
ROOT
HETATM    1  C   UNL     1      -6.662  19.956  66.005  1.00  0.00    -0.258 C  
HETATM    2  C   UNL     1      -7.108  18.558  65.614  1.00  0.00    -0.205 C  
ENDROOT
BRANCH   2   3
HETATM    3  C   UNL     1      -6.501  17.440  66.446  1.00  0.00    -0.248 C  
HETATM    4  N   UNL     1      -7.261  16.913  67.510  1.00  0.00    -0.143 N  
HETATM    5  O   UNL     1      -5.344  17.081  66.203  1.00  0.00    -0.350 OA 
BRANCH   4   6
HETATM    6  C   UNL     1      -6.574  15.886  68.271  1.00  0.00    -0.119 A  
HETATM    7  C   UNL     1      -6.310  14.618  67.742  1.00  0.00    -0.170 A  
HETATM    8  C   UNL     1      -5.720  13.619  68.527  1.00  0.00    -0.090 A  
HETATM    9  C   UNL     1      -6.160  16.154  69.584  1.00  0.00    -0.181 A  
HETATM   10  C   UNL     1      -5.379  13.875  69.852  1.00  0.00    -0.097 A  
HETATM   11  C   UNL     1      -5.595  15.147  70.379  1.00  0.00    -0.138 A  
ENDBRANCH   4   6
BRANCH   4  12
HETATM   12  C   UNL     1      -8.793  17.055  67.722  1.00  0.00    -0.223 C  
HETATM   13  C   UNL     1      -9.415  15.956  68.655  1.00  0.00    -0.214 C  
HETATM   14  N   UNL     1     -10.091  14.465  66.766  1.00  0.00    -0.261 NA 
HETATM   15  C   UNL     1      -9.391  14.551  68.052  1.00  0.00    -0.201 C  
HETATM   16  C   UNL     1      -9.599  16.908  66.394  1.00  0.00    -0.305 C  
HETATM   17  C   UNL     1      -9.552  15.476  65.847  1.00  0.00    -0.348 C  
BRANCH  12  18
HETATM   18  C   UNL     1      -9.141  18.439  68.377  1.00  0.00    -0.320 C  
BRANCH  18  19
HETATM   19  O   UNL     1     -10.258  19.076  67.764  1.00  0.00    -0.358 OA 
HETATM   20  C   UNL     1      -9.953  20.397  67.336  1.00  0.00    -0.416 C  
ENDBRANCH  18  19
ENDBRANCH  12  18
BRANCH  14  21
HETATM   21  C   UNL     1     -11.556  14.526  66.915  1.00  0.00    -0.385 C  
BRANCH  21  22
HETATM   22  C   UNL     1     -12.311  13.550  65.994  1.00  0.00    -0.486 C  
BRANCH  22  23
HETATM   23  C   UNL     1     -11.457  12.374  65.636  1.00  0.00    -0.367 A  
HETATM   24  C   UNL     1     -10.907  11.434  66.480  1.00  0.00    -0.334 A  
HETATM   25  C   UNL     1     -10.146  10.466  65.766  1.00  0.00    -0.329 A  
HETATM   26  C   UNL     1     -10.144  10.697  64.409  1.00  0.00    -0.349 A  
HETATM   27  S   UNL     1     -11.051  12.080  63.997  1.00  0.00    -0.424 SA 
ENDBRANCH  22  23
ENDBRANCH  21  22
ENDBRANCH  14  21
ENDBRANCH   4  12
ENDBRANCH   2   3
TORSDOF 8
ENDMDL
MODEL       61
REMARK 921   NORMALIZED FREE ENERGY PREDICTED BY IDOCK:   -4.59 KCAL/MOL
REMARK 922        TOTAL FREE ENERGY PREDICTED BY IDOCK:   -7.23 KCAL/MOL
REMARK 923 INTER-LIGAND FREE ENERGY PREDICTED BY IDOCK:   -7.20 KCAL/MOL
REMARK 924 INTRA-LIGAND FREE ENERGY PREDICTED BY IDOCK:   -0.03 KCAL/MOL
REMARK 927      BINDING AFFINITY PREDICTED BY RF-SCORE:    0.00 PKD
ROOT
HETATM    1  C   UNL     1     -10.019  20.144  67.339  1.00  0.00    -0.570 C  
HETATM    2  C   UNL     1      -9.951  18.788  66.659  1.00  0.00    -0.400 C  
ENDROOT
BRANCH   2   3
HETATM    3  C   UNL     1      -8.797  17.906  67.109  1.00  0.00    -0.247 C  
HETATM    4  N   UNL     1      -9.100  16.651  67.675  1.00  0.00    -0.206 N  
HETATM    5  O   UNL     1      -7.646  18.347  67.026  1.00  0.00    -0.212 OA 
BRANCH   4   6
HETATM    6  C   UNL     1      -7.933  15.908  68.115  1.00  0.00    -0.137 A  
HETATM    7  C   UNL     1      -6.949  15.468  67.224  1.00  0.00    -0.206 A  
HETATM    8  C   UNL     1      -5.877  14.682  67.666  1.00  0.00    -0.024 A  
HETATM    9  C   UNL     1      -7.775  15.608  69.477  1.00  0.00    -0.185 A  
HETATM   10  C   UNL     1      -5.770  14.330  69.009  1.00  0.00    -0.088 A  
HETATM   11  C   UNL     1      -6.718  14.799  69.916  1.00  0.00    -0.172 A  
ENDBRANCH   4   6
BRANCH   4  12
HETATM   12  C   UNL     1     -10.439  15.874  67.559  1.00  0.00    -0.298 C  
HETATM   13  C   UNL     1     -10.285  14.314  67.653  1.00  0.00    -0.237 C  
HETATM   14  N   UNL     1     -10.195  13.983  65.177  1.00  0.00    -0.378 NA 
HETATM   15  C   UNL     1      -9.551  13.694  66.462  1.00  0.00    -0.286 C  
HETATM   16  C   UNL     1     -11.142  16.090  66.181  1.00  0.00     0.027 C  
HETATM   17  C   UNL     1     -10.369  15.434  65.031  1.00  0.00    -0.329 C  
BRANCH  12  18
HETATM   18  C   UNL     1     -11.428  16.290  68.705  1.00  0.00    -0.289 C  
BRANCH  18  19
HETATM   19  O   UNL     1     -12.183  15.193  69.211  1.00  0.00    -0.262 OA 
HETATM   20  C   UNL     1     -12.470  15.334  70.596  1.00  0.00    -0.406 C  
ENDBRANCH  18  19
ENDBRANCH  12  18
BRANCH  14  21
HETATM   21  C   UNL     1     -11.440  13.218  64.983  1.00  0.00    -0.305 C  
BRANCH  21  22
HETATM   22  C   UNL     1     -11.408  12.285  63.759  1.00  0.00    -0.534 C  
BRANCH  22  23
HETATM   23  C   UNL     1     -10.313  11.272  63.881  1.00  0.00    -0.381 A  
HETATM   24  C   UNL     1     -10.085  10.385  64.912  1.00  0.00    -0.382 A  
HETATM   25  C   UNL     1      -8.938   9.580  64.670  1.00  0.00    -0.266 A  
HETATM   26  C   UNL     1      -8.334   9.874  63.468  1.00  0.00    -0.166 A  
HETATM   27  S   UNL     1      -9.144  11.122  62.636  1.00  0.00    -0.261 SA 
ENDBRANCH  22  23
ENDBRANCH  21  22
ENDBRANCH  14  21
ENDBRANCH   4  12
ENDBRANCH   2   3
TORSDOF 8
ENDMDL
MODEL       62
REMARK 921   NORMALIZED FREE ENERGY PREDICTED BY IDOCK:   -4.58 KCAL/MOL
REMARK 922        TOTAL FREE ENERGY PREDICTED BY IDOCK:   -7.23 KCAL/MOL
REMARK 923 INTER-LIGAND FREE ENERGY PREDICTED BY IDOCK:   -7.34 KCAL/MOL
REMARK 924 INTRA-LIGAND FREE ENERGY PREDICTED BY IDOCK:    0.12 KCAL/MOL
REMARK 927      BINDING AFFINITY PREDICTED BY RF-SCORE:    0.00 PKD
ROOT
HETATM    1  C   UNL     1      -8.491   8.857  64.756  1.00  0.00    -0.193 C  
HETATM    2  C   UNL     1      -9.743   9.588  65.210  1.00  0.00    -0.268 C  
ENDROOT
BRANCH   2   3
HETATM    3  C   UNL     1     -10.111   9.375  66.669  1.00  0.00    -0.262 C  
HETATM    4  N   UNL     1      -9.729  10.360  67.603  1.00  0.00    -0.166 N  
HETATM    5  O   UNL     1     -10.670   8.321  66.992  1.00  0.00    -0.307 OA 
BRANCH   4   6
HETATM    6  C   UNL     1     -10.085  10.039  68.973  1.00  0.00    -0.200 A  
HETATM    7  C   UNL     1      -9.142   9.589  69.902  1.00  0.00    -0.237 A  
HETATM    8  C   UNL     1      -9.529   9.208  71.194  1.00  0.00    -0.331 A  
HETATM    9  C   UNL     1     -11.417  10.173  69.394  1.00  0.00    -0.202 A  
HETATM   10  C   UNL     1     -10.865   9.277  71.577  1.00  0.00    -0.442 A  
HETATM   11  C   UNL     1     -11.809   9.766  70.676  1.00  0.00    -0.360 A  
ENDBRANCH   4   6
BRANCH   4  12
HETATM   12  C   UNL     1      -9.311  11.823  67.297  1.00  0.00    -0.171 C  
HETATM   13  C   UNL     1      -9.635  12.837  68.452  1.00  0.00    -0.175 C  
HETATM   14  N   UNL     1     -11.823  13.546  67.472  1.00  0.00    -0.363 NA 
HETATM   15  C   UNL     1     -11.132  13.062  68.672  1.00  0.00    -0.269 C  
HETATM   16  C   UNL     1     -10.064  12.418  66.065  1.00  0.00    -0.269 C  
HETATM   17  C   UNL     1     -11.555  12.636  66.351  1.00  0.00    -0.384 C  
BRANCH  12  18
HETATM   18  C   UNL     1      -7.765  11.921  67.044  1.00  0.00    -0.146 C  
BRANCH  18  19
HETATM   19  O   UNL     1      -7.233  13.205  67.358  1.00  0.00    -0.155 OA 
HETATM   20  C   UNL     1      -5.898  13.128  67.840  1.00  0.00    -0.132 C  
ENDBRANCH  18  19
ENDBRANCH  12  18
BRANCH  14  21
HETATM   21  C   UNL     1     -11.515  14.956  67.173  1.00  0.00    -0.335 C  
BRANCH  21  22
HETATM   22  C   UNL     1     -11.494  15.862  68.418  1.00  0.00    -0.348 C  
BRANCH  22  23
HETATM   23  C   UNL     1     -10.432  16.911  68.305  1.00  0.00    -0.352 A  
HETATM   24  C   UNL     1     -10.571  18.222  67.904  1.00  0.00    -0.392 A  
HETATM   25  C   UNL     1      -9.327  18.912  67.920  1.00  0.00    -0.338 A  
HETATM   26  C   UNL     1      -8.287  18.111  68.333  1.00  0.00    -0.299 A  
HETATM   27  S   UNL     1      -8.807  16.528  68.695  1.00  0.00    -0.245 SA 
ENDBRANCH  22  23
ENDBRANCH  21  22
ENDBRANCH  14  21
ENDBRANCH   4  12
ENDBRANCH   2   3
TORSDOF 8
ENDMDL
MODEL       63
REMARK 921   NORMALIZED FREE ENERGY PREDICTED BY IDOCK:   -4.58 KCAL/MOL
REMARK 922        TOTAL FREE ENERGY PREDICTED BY IDOCK:   -7.22 KCAL/MOL
REMARK 923 INTER-LIGAND FREE ENERGY PREDICTED BY IDOCK:   -7.13 KCAL/MOL
REMARK 924 INTRA-LIGAND FREE ENERGY PREDICTED BY IDOCK:   -0.09 KCAL/MOL
REMARK 927      BINDING AFFINITY PREDICTED BY RF-SCORE:    0.00 PKD
ROOT
HETATM    1  C   UNL     1     -12.769  13.974  65.756  1.00  0.00    -0.487 C  
HETATM    2  C   UNL     1     -11.259  14.125  65.696  1.00  0.00    -0.308 C  
ENDROOT
BRANCH   2   3
HETATM    3  C   UNL     1     -10.759  15.558  65.774  1.00  0.00    -0.353 C  
HETATM    4  N   UNL     1     -10.374  16.062  67.034  1.00  0.00    -0.288 N  
HETATM    5  O   UNL     1     -10.770  16.248  64.749  1.00  0.00    -0.680 OA 
BRANCH   4   6
HETATM    6  C   UNL     1      -9.958  17.452  67.009  1.00  0.00    -0.295 A  
HETATM    7  C   UNL     1      -8.780  17.866  66.378  1.00  0.00    -0.249 A  
HETATM    8  C   UNL     1      -8.361  19.202  66.442  1.00  0.00    -0.326 A  
HETATM    9  C   UNL     1     -10.749  18.425  67.638  1.00  0.00    -0.390 A  
HETATM   10  C   UNL     1      -9.118  20.144  67.131  1.00  0.00    -0.489 A  
HETATM   11  C   UNL     1     -10.317  19.756  67.725  1.00  0.00    -0.573 A  
ENDBRANCH   4   6
BRANCH   4  12
HETATM   12  C   UNL     1     -10.031  15.237  68.304  1.00  0.00    -0.222 C  
HETATM   13  C   UNL     1      -9.248  16.043  69.400  1.00  0.00    -0.202 C  
HETATM   14  N   UNL     1      -6.998  15.278  68.627  1.00  0.00    -0.107 NA 
HETATM   15  C   UNL     1      -7.829  16.432  68.983  1.00  0.00    -0.231 C  
HETATM   16  C   UNL     1      -9.092  14.027  67.998  1.00  0.00    -0.190 C  
HETATM   17  C   UNL     1      -7.681  14.479  67.601  1.00  0.00    -0.179 C  
BRANCH  12  18
HETATM   18  C   UNL     1     -11.337  14.705  68.995  1.00  0.00    -0.277 C  
BRANCH  18  19
HETATM   19  O   UNL     1     -12.221  15.750  69.387  1.00  0.00    -0.313 OA 
HETATM   20  C   UNL     1     -12.899  15.452  70.600  1.00  0.00    -0.430 C  
ENDBRANCH  18  19
ENDBRANCH  12  18
BRANCH  14  21
HETATM   21  C   UNL     1      -6.584  14.495  69.805  1.00  0.00    -0.158 C  
BRANCH  21  22
HETATM   22  C   UNL     1      -5.422  13.525  69.525  1.00  0.00    -0.088 C  
BRANCH  22  23
HETATM   23  C   UNL     1      -5.829  12.107  69.779  1.00  0.00    -0.123 A  
HETATM   24  C   UNL     1      -6.550  11.268  68.956  1.00  0.00    -0.079 A  
HETATM   25  C   UNL     1      -6.744   9.989  69.548  1.00  0.00    -0.059 A  
HETATM   26  C   UNL     1      -6.167   9.893  70.793  1.00  0.00    -0.093 A  
HETATM   27  S   UNL     1      -5.395  11.343  71.251  1.00  0.00     0.056 SA 
ENDBRANCH  22  23
ENDBRANCH  21  22
ENDBRANCH  14  21
ENDBRANCH   4  12
ENDBRANCH   2   3
TORSDOF 8
ENDMDL
MODEL       64
REMARK 921   NORMALIZED FREE ENERGY PREDICTED BY IDOCK:   -4.57 KCAL/MOL
REMARK 922        TOTAL FREE ENERGY PREDICTED BY IDOCK:   -7.22 KCAL/MOL
REMARK 923 INTER-LIGAND FREE ENERGY PREDICTED BY IDOCK:   -6.75 KCAL/MOL
REMARK 924 INTRA-LIGAND FREE ENERGY PREDICTED BY IDOCK:   -0.47 KCAL/MOL
REMARK 927      BINDING AFFINITY PREDICTED BY RF-SCORE:    0.00 PKD
ROOT
HETATM    1  C   UNL     1      -6.256   7.828  68.683  1.00  0.00    -0.036 C  
HETATM    2  C   UNL     1      -7.576   7.078  68.674  1.00  0.00    -0.108 C  
ENDROOT
BRANCH   2   3
HETATM    3  C   UNL     1      -8.023   6.560  70.031  1.00  0.00    -0.116 C  
HETATM    4  N   UNL     1      -9.319   6.892  70.477  1.00  0.00    -0.159 N  
HETATM    5  O   UNL     1      -7.217   5.925  70.719  1.00  0.00    -0.075 OA 
BRANCH   4   6
HETATM    6  C   UNL     1      -9.631   6.390  71.802  1.00  0.00    -0.152 A  
HETATM    7  C   UNL     1      -9.255   7.072  72.965  1.00  0.00    -0.163 A  
HETATM    8  C   UNL     1      -9.495   6.522  74.231  1.00  0.00    -0.253 A  
HETATM    9  C   UNL     1     -10.326   5.180  71.941  1.00  0.00    -0.275 A  
HETATM   10  C   UNL     1     -10.122   5.286  74.353  1.00  0.00    -0.272 A  
HETATM   11  C   UNL     1     -10.543   4.616  73.206  1.00  0.00    -0.284 A  
ENDBRANCH   4   6
BRANCH   4  12
HETATM   12  C   UNL     1     -10.502   7.404  69.610  1.00  0.00    -0.232 C  
HETATM   13  C   UNL     1     -10.117   8.557  68.617  1.00  0.00    -0.207 C  
HETATM   14  N   UNL     1     -10.821  10.386  70.169  1.00  0.00    -0.288 NA 
HETATM   15  C   UNL     1      -9.749   9.870  69.311  1.00  0.00    -0.208 C  
HETATM   16  C   UNL     1     -11.649   8.025  70.468  1.00  0.00    -0.141 C  
HETATM   17  C   UNL     1     -11.227   9.346  71.124  1.00  0.00    -0.357 C  
BRANCH  12  18
HETATM   18  C   UNL     1     -11.094   6.244  68.733  1.00  0.00    -0.346 C  
BRANCH  18  19
HETATM   19  O   UNL     1     -11.114   6.557  67.343  1.00  0.00    -0.357 OA 
HETATM   20  C   UNL     1     -10.643   5.479  66.545  1.00  0.00    -0.279 C  
ENDBRANCH  18  19
ENDBRANCH  12  18
BRANCH  14  21
HETATM   21  C   UNL     1     -11.943  10.948  69.397  1.00  0.00    -0.322 C  
BRANCH  21  22
HETATM   22  C   UNL     1     -11.704  12.393  68.922  1.00  0.00    -0.372 C  
BRANCH  22  23
HETATM   23  C   UNL     1     -11.650  12.468  67.428  1.00  0.00    -0.370 A  
HETATM   24  C   UNL     1     -11.046  11.590  66.553  1.00  0.00    -0.341 A  
HETATM   25  C   UNL     1     -11.205  12.002  65.200  1.00  0.00    -0.368 A  
HETATM   26  C   UNL     1     -11.923  13.171  65.088  1.00  0.00    -0.394 A  
HETATM   27  S   UNL     1     -12.400  13.774  66.610  1.00  0.00    -0.274 SA 
ENDBRANCH  22  23
ENDBRANCH  21  22
ENDBRANCH  14  21
ENDBRANCH   4  12
ENDBRANCH   2   3
TORSDOF 8
ENDMDL
MODEL       65
REMARK 921   NORMALIZED FREE ENERGY PREDICTED BY IDOCK:   -4.55 KCAL/MOL
REMARK 922        TOTAL FREE ENERGY PREDICTED BY IDOCK:   -7.19 KCAL/MOL
REMARK 923 INTER-LIGAND FREE ENERGY PREDICTED BY IDOCK:   -6.75 KCAL/MOL
REMARK 924 INTRA-LIGAND FREE ENERGY PREDICTED BY IDOCK:   -0.43 KCAL/MOL
REMARK 927      BINDING AFFINITY PREDICTED BY RF-SCORE:    0.00 PKD
ROOT
HETATM    1  C   UNL     1     -10.489   5.340  67.509  1.00  0.00    -0.193 C  
HETATM    2  C   UNL     1     -11.142   6.158  68.609  1.00  0.00    -0.378 C  
ENDROOT
BRANCH   2   3
HETATM    3  C   UNL     1     -10.269   6.394  69.831  1.00  0.00    -0.183 C  
HETATM    4  N   UNL     1      -9.795   7.700  70.070  1.00  0.00    -0.180 N  
HETATM    5  O   UNL     1      -9.953   5.425  70.530  1.00  0.00    -0.191 OA 
BRANCH   4   6
HETATM    6  C   UNL     1      -8.933   7.809  71.232  1.00  0.00    -0.134 A  
HETATM    7  C   UNL     1      -7.560   7.552  71.168  1.00  0.00    -0.081 A  
HETATM    8  C   UNL     1      -6.767   7.583  72.323  1.00  0.00    -0.055 A  
HETATM    9  C   UNL     1      -9.480   8.176  72.470  1.00  0.00    -0.339 A  
HETATM   10  C   UNL     1      -7.335   7.879  73.558  1.00  0.00    -0.166 A  
HETATM   11  C   UNL     1      -8.694   8.182  73.630  1.00  0.00    -0.309 A  
ENDBRANCH   4   6
BRANCH   4  12
HETATM   12  C   UNL     1     -10.350   9.019  69.465  1.00  0.00    -0.209 C  
HETATM   13  C   UNL     1     -10.653   8.941  67.927  1.00  0.00    -0.244 C  
HETATM   14  N   UNL     1      -8.438   9.882  67.250  1.00  0.00    -0.121 NA 
HETATM   15  C   UNL     1      -9.402   8.793  67.059  1.00  0.00    -0.157 C  
HETATM   16  C   UNL     1      -9.339  10.203  69.580  1.00  0.00    -0.215 C  
HETATM   17  C   UNL     1      -8.115  10.006  68.677  1.00  0.00    -0.102 C  
BRANCH  12  18
HETATM   18  C   UNL     1     -11.696   9.430  70.161  1.00  0.00    -0.015 C  
BRANCH  18  19
HETATM   19  O   UNL     1     -11.561  10.579  70.991  1.00  0.00    -0.330 OA 
HETATM   20  C   UNL     1     -12.814  11.030  71.489  1.00  0.00    -0.450 C  
ENDBRANCH  18  19
ENDBRANCH  12  18
BRANCH  14  21
HETATM   21  C   UNL     1      -8.883  11.145  66.634  1.00  0.00    -0.166 C  
BRANCH  21  22
HETATM   22  C   UNL     1      -9.165  11.031  65.125  1.00  0.00    -0.227 C  
BRANCH  22  23
HETATM   23  C   UNL     1     -10.452  11.705  64.764  1.00  0.00    -0.295 A  
HETATM   24  C   UNL     1     -10.992  11.892  63.509  1.00  0.00    -0.505 A  
HETATM   25  C   UNL     1     -12.233  12.585  63.568  1.00  0.00    -0.652 A  
HETATM   26  C   UNL     1     -12.599  12.899  64.857  1.00  0.00    -0.458 A  
HETATM   27  S   UNL     1     -11.447  12.364  65.995  1.00  0.00    -0.398 SA 
ENDBRANCH  22  23
ENDBRANCH  21  22
ENDBRANCH  14  21
ENDBRANCH   4  12
ENDBRANCH   2   3
TORSDOF 8
ENDMDL
MODEL       66
REMARK 921   NORMALIZED FREE ENERGY PREDICTED BY IDOCK:   -4.54 KCAL/MOL
REMARK 922        TOTAL FREE ENERGY PREDICTED BY IDOCK:   -7.16 KCAL/MOL
REMARK 923 INTER-LIGAND FREE ENERGY PREDICTED BY IDOCK:   -6.82 KCAL/MOL
REMARK 924 INTRA-LIGAND FREE ENERGY PREDICTED BY IDOCK:   -0.34 KCAL/MOL
REMARK 927      BINDING AFFINITY PREDICTED BY RF-SCORE:    0.00 PKD
ROOT
HETATM    1  C   UNL     1      -6.328  11.056  69.342  1.00  0.00    -0.083 C  
HETATM    2  C   UNL     1      -7.110   9.974  68.618  1.00  0.00    -0.078 C  
ENDROOT
BRANCH   2   3
HETATM    3  C   UNL     1      -8.140   9.253  69.472  1.00  0.00    -0.111 C  
HETATM    4  N   UNL     1      -9.506   9.493  69.213  1.00  0.00    -0.161 N  
HETATM    5  O   UNL     1      -7.747   8.538  70.399  1.00  0.00    -0.071 OA 
BRANCH   4   6
HETATM    6  C   UNL     1     -10.405   8.796  70.113  1.00  0.00    -0.208 A  
HETATM    7  C   UNL     1     -10.899   7.517  69.831  1.00  0.00    -0.250 A  
HETATM    8  C   UNL     1     -11.832   6.903  70.677  1.00  0.00    -0.418 A  
HETATM    9  C   UNL     1     -10.809   9.412  71.307  1.00  0.00    -0.431 A  
HETATM   10  C   UNL     1     -12.279   7.555  71.822  1.00  0.00    -0.345 A  
HETATM   11  C   UNL     1     -11.763   8.810  72.140  1.00  0.00    -0.433 A  
ENDBRANCH   4   6
BRANCH   4  12
HETATM   12  C   UNL     1     -10.118  10.106  67.924  1.00  0.00    -0.176 C  
HETATM   13  C   UNL     1      -9.364  11.379  67.400  1.00  0.00    -0.171 C  
HETATM   14  N   UNL     1     -10.883  12.990  68.559  1.00  0.00    -0.251 NA 
HETATM   15  C   UNL     1      -9.491  12.594  68.320  1.00  0.00    -0.203 C  
HETATM   16  C   UNL     1     -11.581  10.607  68.135  1.00  0.00    -0.217 C  
HETATM   17  C   UNL     1     -11.644  11.834  69.052  1.00  0.00    -0.311 C  
BRANCH  12  18
HETATM   18  C   UNL     1     -10.100   9.066  66.748  1.00  0.00    -0.274 C  
BRANCH  18  19
HETATM   19  O   UNL     1      -9.811   9.661  65.487  1.00  0.00    -0.302 OA 
HETATM   20  C   UNL     1      -8.737   9.010  64.821  1.00  0.00    -0.153 C  
ENDBRANCH  18  19
ENDBRANCH  12  18
BRANCH  14  21
HETATM   21  C   UNL     1     -11.495  13.641  67.387  1.00  0.00    -0.336 C  
BRANCH  21  22
HETATM   22  C   UNL     1     -11.778  15.141  67.591  1.00  0.00    -0.233 C  
BRANCH  22  23
HETATM   23  C   UNL     1     -10.570  15.967  67.276  1.00  0.00    -0.314 A  
HETATM   24  C   UNL     1      -9.618  15.745  66.304  1.00  0.00    -0.343 A  
HETATM   25  C   UNL     1      -8.612  16.751  66.314  1.00  0.00    -0.340 A  
HETATM   26  C   UNL     1      -8.830  17.703  67.284  1.00  0.00    -0.236 A  
HETATM   27  S   UNL     1     -10.242  17.382  68.185  1.00  0.00    -0.370 SA 
ENDBRANCH  22  23
ENDBRANCH  21  22
ENDBRANCH  14  21
ENDBRANCH   4  12
ENDBRANCH   2   3
TORSDOF 8
ENDMDL
MODEL       67
REMARK 921   NORMALIZED FREE ENERGY PREDICTED BY IDOCK:   -4.51 KCAL/MOL
REMARK 922        TOTAL FREE ENERGY PREDICTED BY IDOCK:   -7.13 KCAL/MOL
REMARK 923 INTER-LIGAND FREE ENERGY PREDICTED BY IDOCK:   -6.75 KCAL/MOL
REMARK 924 INTRA-LIGAND FREE ENERGY PREDICTED BY IDOCK:   -0.38 KCAL/MOL
REMARK 927      BINDING AFFINITY PREDICTED BY RF-SCORE:    0.00 PKD
ROOT
HETATM    1  C   UNL     1     -11.911  13.491  70.077  1.00  0.00    -0.371 C  
HETATM    2  C   UNL     1     -11.827  13.973  68.640  1.00  0.00    -0.396 C  
ENDROOT
BRANCH   2   3
HETATM    3  C   UNL     1     -11.523  15.454  68.482  1.00  0.00    -0.350 C  
HETATM    4  N   UNL     1     -10.398  15.826  67.717  1.00  0.00    -0.268 N  
HETATM    5  O   UNL     1     -12.230  16.272  69.080  1.00  0.00    -0.050 OA 
BRANCH   4   6
HETATM    6  C   UNL     1     -10.169  17.258  67.668  1.00  0.00    -0.333 A  
HETATM    7  C   UNL     1      -9.514  17.944  68.696  1.00  0.00    -0.301 A  
HETATM    8  C   UNL     1      -9.380  19.338  68.660  1.00  0.00    -0.446 A  
HETATM    9  C   UNL     1     -10.618  17.996  66.562  1.00  0.00    -0.263 A  
HETATM   10  C   UNL     1      -9.894  20.067  67.592  1.00  0.00    -0.548 A  
HETATM   11  C   UNL     1     -10.509  19.393  66.539  1.00  0.00    -0.572 A  
ENDBRANCH   4   6
BRANCH   4  12
HETATM   12  C   UNL     1      -9.634  14.944  66.693  1.00  0.00    -0.266 C  
HETATM   13  C   UNL     1      -9.475  13.445  67.130  1.00  0.00    -0.244 C  
HETATM   14  N   UNL     1      -7.207  13.777  68.126  1.00  0.00    -0.105 NA 
HETATM   15  C   UNL     1      -8.558  13.249  68.339  1.00  0.00    -0.130 C  
HETATM   16  C   UNL     1      -8.163  15.419  66.473  1.00  0.00    -0.101 C  
HETATM   17  C   UNL     1      -7.289  15.183  67.711  1.00  0.00    -0.164 C  
BRANCH  12  18
HETATM   18  C   UNL     1     -10.375  14.925  65.309  1.00  0.00    -0.396 C  
BRANCH  18  19
HETATM   19  O   UNL     1     -10.975  13.666  65.020  1.00  0.00    -0.314 OA 
HETATM   20  C   UNL     1     -12.385  13.766  64.870  1.00  0.00    -0.405 C  
ENDBRANCH  18  19
ENDBRANCH  12  18
BRANCH  14  21
HETATM   21  C   UNL     1      -6.410  12.938  67.212  1.00  0.00    -0.008 C  
BRANCH  21  22
HETATM   22  C   UNL     1      -6.505  11.432  67.515  1.00  0.00    -0.074 C  
BRANCH  22  23
HETATM   23  C   UNL     1      -6.914  10.661  66.299  1.00  0.00    -0.133 A  
HETATM   24  C   UNL     1      -8.168  10.196  65.968  1.00  0.00    -0.131 A  
HETATM   25  C   UNL     1      -8.162   9.499  64.728  1.00  0.00    -0.143 A  
HETATM   26  C   UNL     1      -6.910   9.457  64.156  1.00  0.00    -0.095 A  
HETATM   27  S   UNL     1      -5.745  10.253  65.113  1.00  0.00    -0.137 SA 
ENDBRANCH  22  23
ENDBRANCH  21  22
ENDBRANCH  14  21
ENDBRANCH   4  12
ENDBRANCH   2   3
TORSDOF 8
ENDMDL
MODEL       68
REMARK 921   NORMALIZED FREE ENERGY PREDICTED BY IDOCK:   -4.49 KCAL/MOL
REMARK 922        TOTAL FREE ENERGY PREDICTED BY IDOCK:   -7.10 KCAL/MOL
REMARK 923 INTER-LIGAND FREE ENERGY PREDICTED BY IDOCK:   -6.72 KCAL/MOL
REMARK 924 INTRA-LIGAND FREE ENERGY PREDICTED BY IDOCK:   -0.38 KCAL/MOL
REMARK 927      BINDING AFFINITY PREDICTED BY RF-SCORE:    0.00 PKD
ROOT
HETATM    1  C   UNL     1      -9.189  11.019  62.689  1.00  0.00    -0.363 C  
HETATM    2  C   UNL     1     -10.040  10.659  63.894  1.00  0.00    -0.356 C  
ENDROOT
BRANCH   2   3
HETATM    3  C   UNL     1     -10.353  11.821  64.822  1.00  0.00    -0.288 C  
HETATM    4  N   UNL     1     -10.003  11.700  66.183  1.00  0.00    -0.214 N  
HETATM    5  O   UNL     1     -10.960  12.797  64.368  1.00  0.00    -0.319 OA 
BRANCH   4   6
HETATM    6  C   UNL     1     -10.388  12.842  66.992  1.00  0.00    -0.234 A  
HETATM    7  C   UNL     1      -9.514  13.904  67.246  1.00  0.00    -0.239 A  
HETATM    8  C   UNL     1      -9.884  14.952  68.099  1.00  0.00    -0.218 A  
HETATM    9  C   UNL     1     -11.674  12.895  67.551  1.00  0.00    -0.422 A  
HETATM   10  C   UNL     1     -11.137  14.957  68.705  1.00  0.00    -0.274 A  
HETATM   11  C   UNL     1     -12.035  13.930  68.426  1.00  0.00    -0.391 A  
ENDBRANCH   4   6
BRANCH   4  12
HETATM   12  C   UNL     1      -8.996  10.693  66.802  1.00  0.00    -0.138 C  
HETATM   13  C   UNL     1      -9.175   9.217  66.299  1.00  0.00    -0.236 C  
HETATM   14  N   UNL     1     -10.618   8.536  68.223  1.00  0.00    -0.167 NA 
HETATM   15  C   UNL     1     -10.477   8.562  66.764  1.00  0.00    -0.238 C  
HETATM   16  C   UNL     1      -9.143  10.574  68.351  1.00  0.00    -0.148 C  
HETATM   17  C   UNL     1     -10.457   9.895  68.755  1.00  0.00    -0.213 C  
BRANCH  12  18
HETATM   18  C   UNL     1      -7.518  11.100  66.461  1.00  0.00    -0.131 C  
BRANCH  18  19
HETATM   19  O   UNL     1      -6.924  10.256  65.479  1.00  0.00    -0.127 OA 
HETATM   20  C   UNL     1      -5.539  10.526  65.308  1.00  0.00    -0.139 C  
ENDBRANCH  18  19
ENDBRANCH  12  18
BRANCH  14  21
HETATM   21  C   UNL     1      -9.731   7.546  68.860  1.00  0.00    -0.151 C  
BRANCH  21  22
HETATM   22  C   UNL     1     -10.346   6.137  68.956  1.00  0.00    -0.263 C  
BRANCH  22  23
HETATM   23  C   UNL     1     -10.572   5.743  70.382  1.00  0.00    -0.294 A  
HETATM   24  C   UNL     1      -9.984   4.712  71.083  1.00  0.00    -0.265 A  
HETATM   25  C   UNL     1     -10.459   4.648  72.423  1.00  0.00    -0.250 A  
HETATM   26  C   UNL     1     -11.386   5.628  72.699  1.00  0.00    -0.305 A  
HETATM   27  S   UNL     1     -11.687   6.620  71.345  1.00  0.00    -0.337 SA 
ENDBRANCH  22  23
ENDBRANCH  21  22
ENDBRANCH  14  21
ENDBRANCH   4  12
ENDBRANCH   2   3
TORSDOF 8
ENDMDL
MODEL       69
REMARK 921   NORMALIZED FREE ENERGY PREDICTED BY IDOCK:   -4.47 KCAL/MOL
REMARK 922        TOTAL FREE ENERGY PREDICTED BY IDOCK:   -7.06 KCAL/MOL
REMARK 923 INTER-LIGAND FREE ENERGY PREDICTED BY IDOCK:   -6.66 KCAL/MOL
REMARK 924 INTRA-LIGAND FREE ENERGY PREDICTED BY IDOCK:   -0.40 KCAL/MOL
REMARK 927      BINDING AFFINITY PREDICTED BY RF-SCORE:    0.00 PKD
ROOT
HETATM    1  C   UNL     1     -10.574  10.159  69.838  1.00  0.00    -0.331 C  
HETATM    2  C   UNL     1     -10.507  11.599  69.359  1.00  0.00     0.061 C  
ENDROOT
BRANCH   2   3
HETATM    3  C   UNL     1     -11.033  11.827  67.952  1.00  0.00    -0.221 C  
HETATM    4  N   UNL     1     -10.301  12.674  67.095  1.00  0.00    -0.231 N  
HETATM    5  O   UNL     1     -12.113  11.318  67.632  1.00  0.00    -0.600 OA 
BRANCH   4   6
HETATM    6  C   UNL     1     -10.912  12.864  65.793  1.00  0.00    -0.278 A  
HETATM    7  C   UNL     1     -11.823  13.895  65.540  1.00  0.00    -0.372 A  
HETATM    8  C   UNL     1     -12.460  14.003  64.297  1.00  0.00    -0.303 A  
HETATM    9  C   UNL     1     -10.595  11.990  64.743  1.00  0.00    -0.340 A  
HETATM   10  C   UNL     1     -12.191  13.086  63.286  1.00  0.00    -0.464 A  
HETATM   11  C   UNL     1     -11.252  12.081  63.508  1.00  0.00    -0.526 A  
ENDBRANCH   4   6
BRANCH   4  12
HETATM   12  C   UNL     1      -8.821  13.115  67.261  1.00  0.00    -0.208 C  
HETATM   13  C   UNL     1      -8.481  13.697  68.679  1.00  0.00    -0.038 C  
HETATM   14  N   UNL     1      -8.827  16.076  67.996  1.00  0.00    -0.175 NA 
HETATM   15  C   UNL     1      -9.159  15.036  68.975  1.00  0.00    -0.205 C  
HETATM   16  C   UNL     1      -8.426  14.269  66.287  1.00  0.00     0.603 C  
HETATM   17  C   UNL     1      -9.123  15.588  66.642  1.00  0.00    -0.279 C  
BRANCH  12  18
HETATM   18  C   UNL     1      -7.848  11.903  67.035  1.00  0.00    -0.152 C  
BRANCH  18  19
HETATM   19  O   UNL     1      -6.869  11.781  68.063  1.00  0.00    -0.067 OA 
HETATM   20  C   UNL     1      -5.549  11.704  67.538  1.00  0.00    -0.070 C  
ENDBRANCH  18  19
ENDBRANCH  12  18
BRANCH  14  21
HETATM   21  C   UNL     1      -7.452  16.581  68.152  1.00  0.00    -0.159 C  
BRANCH  21  22
HETATM   22  C   UNL     1      -7.378  17.997  68.752  1.00  0.00    -0.279 C  
BRANCH  22  23
HETATM   23  C   UNL     1      -8.470  18.869  68.215  1.00  0.00    -0.330 A  
HETATM   24  C   UNL     1      -9.641  19.246  68.837  1.00  0.00    -0.466 A  
HETATM   25  C   UNL     1     -10.436  20.080  68.003  1.00  0.00    -0.448 A  
HETATM   26  C   UNL     1      -9.848  20.312  66.780  1.00  0.00    -0.447 A  
HETATM   27  S   UNL     1      -8.343  19.524  66.636  1.00  0.00    -0.334 SA 
ENDBRANCH  22  23
ENDBRANCH  21  22
ENDBRANCH  14  21
ENDBRANCH   4  12
ENDBRANCH   2   3
TORSDOF 8
ENDMDL
MODEL       70
REMARK 921   NORMALIZED FREE ENERGY PREDICTED BY IDOCK:   -4.45 KCAL/MOL
REMARK 922        TOTAL FREE ENERGY PREDICTED BY IDOCK:   -7.04 KCAL/MOL
REMARK 923 INTER-LIGAND FREE ENERGY PREDICTED BY IDOCK:   -6.47 KCAL/MOL
REMARK 924 INTRA-LIGAND FREE ENERGY PREDICTED BY IDOCK:   -0.57 KCAL/MOL
REMARK 927      BINDING AFFINITY PREDICTED BY RF-SCORE:    0.00 PKD
ROOT
HETATM    1  C   UNL     1     -14.230   7.575  71.602  1.00  0.00    -0.592 C  
HETATM    2  C   UNL     1     -13.032   7.077  70.813  1.00  0.00     0.001 C  
ENDROOT
BRANCH   2   3
HETATM    3  C   UNL     1     -11.770   6.871  71.635  1.00  0.00    -0.304 C  
HETATM    4  N   UNL     1     -10.633   7.641  71.314  1.00  0.00    -0.218 N  
HETATM    5  O   UNL     1     -11.765   5.996  72.506  1.00  0.00    -0.292 OA 
BRANCH   4   6
HETATM    6  C   UNL     1      -9.469   7.335  72.124  1.00  0.00    -0.135 A  
HETATM    7  C   UNL     1      -8.601   6.282  71.816  1.00  0.00    -0.133 A  
HETATM    8  C   UNL     1      -7.533   5.958  72.663  1.00  0.00    -0.096 A  
HETATM    9  C   UNL     1      -9.193   8.107  73.263  1.00  0.00    -0.316 A  
HETATM   10  C   UNL     1      -7.312   6.687  73.828  1.00  0.00    -0.083 A  
HETATM   11  C   UNL     1      -8.141   7.767  74.125  1.00  0.00    -0.265 A  
ENDBRANCH   4   6
BRANCH   4  12
HETATM   12  C   UNL     1     -10.597   8.948  70.476  1.00  0.00    -0.220 C  
HETATM   13  C   UNL     1     -11.160   8.791  69.019  1.00  0.00     0.164 C  
HETATM   14  N   UNL     1      -8.916   8.393  67.991  1.00  0.00    -0.138 NA 
HETATM   15  C   UNL     1     -10.295   7.909  68.116  1.00  0.00    -0.200 C  
HETATM   16  C   UNL     1      -9.145   9.477  70.253  1.00  0.00    -0.296 C  
HETATM   17  C   UNL     1      -8.333   8.562  69.328  1.00  0.00    -0.120 C  
BRANCH  12  18
HETATM   18  C   UNL     1     -11.450  10.074  71.160  1.00  0.00    -0.354 C  
BRANCH  18  19
HETATM   19  O   UNL     1     -12.305  10.753  70.246  1.00  0.00    -0.308 OA 
HETATM   20  C   UNL     1     -12.007  12.141  70.162  1.00  0.00    -0.314 C  
ENDBRANCH  18  19
ENDBRANCH  12  18
BRANCH  14  21
HETATM   21  C   UNL     1      -8.813   9.596  67.147  1.00  0.00    -0.132 C  
BRANCH  21  22
HETATM   22  C   UNL     1      -9.607   9.497  65.831  1.00  0.00    -0.327 C  
BRANCH  22  23
HETATM   23  C   UNL     1     -10.402  10.741  65.585  1.00  0.00    -0.230 A  
HETATM   24  C   UNL     1     -11.123  11.484  66.495  1.00  0.00    -0.341 A  
HETATM   25  C   UNL     1     -11.754  12.602  65.881  1.00  0.00    -0.470 A  
HETATM   26  C   UNL     1     -11.492  12.677  64.532  1.00  0.00    -0.339 A  
HETATM   27  S   UNL     1     -10.492  11.400  64.005  1.00  0.00    -0.410 SA 
ENDBRANCH  22  23
ENDBRANCH  21  22
ENDBRANCH  14  21
ENDBRANCH   4  12
ENDBRANCH   2   3
TORSDOF 8
ENDMDL
MODEL       71
REMARK 921   NORMALIZED FREE ENERGY PREDICTED BY IDOCK:   -4.44 KCAL/MOL
REMARK 922        TOTAL FREE ENERGY PREDICTED BY IDOCK:   -7.02 KCAL/MOL
REMARK 923 INTER-LIGAND FREE ENERGY PREDICTED BY IDOCK:   -7.28 KCAL/MOL
REMARK 924 INTRA-LIGAND FREE ENERGY PREDICTED BY IDOCK:    0.25 KCAL/MOL
REMARK 927      BINDING AFFINITY PREDICTED BY RF-SCORE:    0.00 PKD
ROOT
HETATM    1  C   UNL     1      -8.667   9.544  64.460  1.00  0.00    -0.232 C  
HETATM    2  C   UNL     1      -9.920  10.245  64.956  1.00  0.00    -0.393 C  
ENDROOT
BRANCH   2   3
HETATM    3  C   UNL     1     -10.298   9.931  66.394  1.00  0.00    -0.176 C  
HETATM    4  N   UNL     1     -10.646  11.004  67.241  1.00  0.00    -0.231 N  
HETATM    5  O   UNL     1     -10.224   8.762  66.785  1.00  0.00    -0.266 OA 
BRANCH   4   6
HETATM    6  C   UNL     1     -10.944  10.603  68.603  1.00  0.00    -0.246 A  
HETATM    7  C   UNL     1     -12.228  10.711  69.148  1.00  0.00    -0.041 A  
HETATM    8  C   UNL     1     -12.468  10.395  70.492  1.00  0.00    -0.403 A  
HETATM    9  C   UNL     1      -9.920  10.096  69.418  1.00  0.00    -0.247 A  
HETATM   10  C   UNL     1     -11.429   9.961  71.309  1.00  0.00    -0.435 A  
HETATM   11  C   UNL     1     -10.154   9.806  70.769  1.00  0.00    -0.200 A  
ENDBRANCH   4   6
BRANCH   4  12
HETATM   12  C   UNL     1     -11.064  12.436  66.809  1.00  0.00    -0.285 C  
HETATM   13  C   UNL     1      -9.935  13.237  66.068  1.00  0.00    -0.297 C  
HETATM   14  N   UNL     1      -9.131  14.389  68.135  1.00  0.00    -0.187 NA 
HETATM   15  C   UNL     1      -8.747  13.598  66.962  1.00  0.00    -0.192 C  
HETATM   16  C   UNL     1     -11.423  13.348  68.025  1.00  0.00    -0.339 C  
HETATM   17  C   UNL     1     -10.191  13.689  68.873  1.00  0.00    -0.077 C  
BRANCH  12  18
HETATM   18  C   UNL     1     -12.290  12.389  65.829  1.00  0.00    -0.028 C  
BRANCH  18  19
HETATM   19  O   UNL     1     -11.987  12.913  64.539  1.00  0.00    -0.354 OA 
HETATM   20  C   UNL     1     -12.646  12.197  63.503  1.00  0.00    -0.506 C  
ENDBRANCH  18  19
ENDBRANCH  12  18
BRANCH  14  21
HETATM   21  C   UNL     1      -9.473  15.781  67.792  1.00  0.00    -0.212 C  
BRANCH  21  22
HETATM   22  C   UNL     1      -8.456  16.453  66.852  1.00  0.00    -0.254 C  
BRANCH  22  23
HETATM   23  C   UNL     1      -8.690  17.929  66.769  1.00  0.00    -0.254 A  
HETATM   24  C   UNL     1      -7.813  18.948  67.072  1.00  0.00    -0.253 A  
HETATM   25  C   UNL     1      -8.403  20.228  66.873  1.00  0.00    -0.348 A  
HETATM   26  C   UNL     1      -9.701  20.143  66.424  1.00  0.00    -0.415 A  
HETATM   27  S   UNL     1     -10.211  18.526  66.248  1.00  0.00    -0.406 SA 
ENDBRANCH  22  23
ENDBRANCH  21  22
ENDBRANCH  14  21
ENDBRANCH   4  12
ENDBRANCH   2   3
TORSDOF 8
ENDMDL
MODEL       72
REMARK 921   NORMALIZED FREE ENERGY PREDICTED BY IDOCK:   -4.42 KCAL/MOL
REMARK 922        TOTAL FREE ENERGY PREDICTED BY IDOCK:   -6.99 KCAL/MOL
REMARK 923 INTER-LIGAND FREE ENERGY PREDICTED BY IDOCK:   -6.98 KCAL/MOL
REMARK 924 INTRA-LIGAND FREE ENERGY PREDICTED BY IDOCK:   -0.01 KCAL/MOL
REMARK 927      BINDING AFFINITY PREDICTED BY RF-SCORE:    0.00 PKD
ROOT
HETATM    1  C   UNL     1     -10.791   4.598  73.745  1.00  0.00    -0.378 C  
HETATM    2  C   UNL     1     -10.623   4.889  72.264  1.00  0.00    -0.251 C  
ENDROOT
BRANCH   2   3
HETATM    3  C   UNL     1      -9.425   5.758  71.918  1.00  0.00    -0.151 C  
HETATM    4  N   UNL     1      -9.559   6.689  70.868  1.00  0.00    -0.175 N  
HETATM    5  O   UNL     1      -8.363   5.572  72.521  1.00  0.00    -0.114 OA 
BRANCH   4   6
HETATM    6  C   UNL     1      -8.346   7.435  70.586  1.00  0.00    -0.127 A  
HETATM    7  C   UNL     1      -7.808   8.354  71.493  1.00  0.00    -0.146 A  
HETATM    8  C   UNL     1      -6.684   9.121  71.159  1.00  0.00    -0.090 A  
HETATM    9  C   UNL     1      -7.682   7.244  69.365  1.00  0.00    -0.107 A  
HETATM   10  C   UNL     1      -6.076   8.973  69.915  1.00  0.00    -0.034 A  
HETATM   11  C   UNL     1      -6.573   8.029  69.020  1.00  0.00    -0.048 A  
ENDBRANCH   4   6
BRANCH   4  12
HETATM   12  C   UNL     1     -10.883   7.221  70.256  1.00  0.00    -0.245 C  
HETATM   13  C   UNL     1     -10.743   8.606  69.531  1.00  0.00    -0.189 C  
HETATM   14  N   UNL     1     -11.450   9.937  71.525  1.00  0.00    -0.333 NA 
HETATM   15  C   UNL     1     -10.438   9.769  70.476  1.00  0.00    -0.301 C  
HETATM   16  C   UNL     1     -11.981   7.482  71.335  1.00  0.00    -0.336 C  
HETATM   17  C   UNL     1     -11.628   8.668  72.242  1.00  0.00    -0.354 C  
BRANCH  12  18
HETATM   18  C   UNL     1     -11.448   6.218  69.188  1.00  0.00    -0.156 C  
BRANCH  18  19
HETATM   19  O   UNL     1     -10.425   5.470  68.537  1.00  0.00    -0.193 OA 
HETATM   20  C   UNL     1     -10.484   5.603  67.122  1.00  0.00    -0.270 C  
ENDBRANCH  18  19
ENDBRANCH  12  18
BRANCH  14  21
HETATM   21  C   UNL     1     -12.708  10.505  71.010  1.00  0.00    -0.408 C  
BRANCH  21  22
HETATM   22  C   UNL     1     -13.371  11.510  71.970  1.00  0.00    -0.397 C  
BRANCH  22  23
HETATM   23  C   UNL     1     -13.156  12.918  71.511  1.00  0.00    -0.298 A  
HETATM   24  C   UNL     1     -12.215  13.388  70.621  1.00  0.00    -0.427 A  
HETATM   25  C   UNL     1     -12.319  14.796  70.439  1.00  0.00    -0.402 A  
HETATM   26  C   UNL     1     -13.331  15.349  71.190  1.00  0.00    -0.508 A  
HETATM   27  S   UNL     1     -14.152  14.176  72.116  1.00  0.00    -0.545 SA 
ENDBRANCH  22  23
ENDBRANCH  21  22
ENDBRANCH  14  21
ENDBRANCH   4  12
ENDBRANCH   2   3
TORSDOF 8
ENDMDL
MODEL       73
REMARK 921   NORMALIZED FREE ENERGY PREDICTED BY IDOCK:   -4.41 KCAL/MOL
REMARK 922        TOTAL FREE ENERGY PREDICTED BY IDOCK:   -6.97 KCAL/MOL
REMARK 923 INTER-LIGAND FREE ENERGY PREDICTED BY IDOCK:   -6.81 KCAL/MOL
REMARK 924 INTRA-LIGAND FREE ENERGY PREDICTED BY IDOCK:   -0.16 KCAL/MOL
REMARK 927      BINDING AFFINITY PREDICTED BY RF-SCORE:    0.00 PKD
ROOT
HETATM    1  C   UNL     1     -10.565  18.921  65.769  1.00  0.00    -0.358 C  
HETATM    2  C   UNL     1      -9.703  18.060  66.675  1.00  0.00    -0.332 C  
ENDROOT
BRANCH   2   3
HETATM    3  C   UNL     1     -10.406  17.545  67.920  1.00  0.00    -0.371 C  
HETATM    4  N   UNL     1     -10.524  16.150  68.090  1.00  0.00    -0.268 N  
HETATM    5  O   UNL     1     -10.903  18.362  68.702  1.00  0.00     0.076 OA 
BRANCH   4   6
HETATM    6  C   UNL     1     -11.252  15.763  69.285  1.00  0.00    -0.324 A  
HETATM    7  C   UNL     1     -12.650  15.757  69.337  1.00  0.00     0.264 A  
HETATM    8  C   UNL     1     -13.324  15.460  70.528  1.00  0.00    -0.173 A  
HETATM    9  C   UNL     1     -10.546  15.387  70.437  1.00  0.00    -0.274 A  
HETATM   10  C   UNL     1     -12.611  15.158  71.684  1.00  0.00    -0.422 A  
HETATM   11  C   UNL     1     -11.219  15.116  71.636  1.00  0.00    -0.312 A  
ENDBRANCH   4   6
BRANCH   4  12
HETATM   12  C   UNL     1      -9.703  15.049  67.366  1.00  0.00    -0.216 C  
HETATM   13  C   UNL     1      -9.390  15.368  65.861  1.00  0.00    -0.329 C  
HETATM   14  N   UNL     1     -11.355  14.096  64.984  1.00  0.00    -0.334 NA 
HETATM   15  C   UNL     1     -10.627  15.369  64.961  1.00  0.00    -0.420 C  
HETATM   16  C   UNL     1     -10.457  13.683  67.302  1.00  0.00    -0.260 C  
HETATM   17  C   UNL     1     -11.676  13.741  66.373  1.00  0.00    -0.379 C  
BRANCH  12  18
HETATM   18  C   UNL     1      -8.316  14.832  68.070  1.00  0.00    -0.143 C  
BRANCH  18  19
HETATM   19  O   UNL     1      -7.218  14.920  67.167  1.00  0.00    -0.165 OA 
HETATM   20  C   UNL     1      -6.052  14.289  67.680  1.00  0.00    -0.053 C  
ENDBRANCH  18  19
ENDBRANCH  12  18
BRANCH  14  21
HETATM   21  C   UNL     1     -10.652  13.029  64.251  1.00  0.00    -0.412 C  
BRANCH  21  22
HETATM   22  C   UNL     1     -11.273  11.633  64.444  1.00  0.00    -0.360 C  
BRANCH  22  23
HETATM   23  C   UNL     1     -10.229  10.622  64.801  1.00  0.00    -0.331 A  
HETATM   24  C   UNL     1      -9.353   9.970  63.959  1.00  0.00    -0.324 A  
HETATM   25  C   UNL     1      -8.509   9.072  64.670  1.00  0.00    -0.194 A  
HETATM   26  C   UNL     1      -8.764   9.071  66.023  1.00  0.00    -0.160 A  
HETATM   27  S   UNL     1     -10.022  10.146  66.435  1.00  0.00    -0.243 SA 
ENDBRANCH  22  23
ENDBRANCH  21  22
ENDBRANCH  14  21
ENDBRANCH   4  12
ENDBRANCH   2   3
TORSDOF 8
ENDMDL
MODEL       74
REMARK 921   NORMALIZED FREE ENERGY PREDICTED BY IDOCK:   -4.39 KCAL/MOL
REMARK 922        TOTAL FREE ENERGY PREDICTED BY IDOCK:   -6.95 KCAL/MOL
REMARK 923 INTER-LIGAND FREE ENERGY PREDICTED BY IDOCK:   -7.13 KCAL/MOL
REMARK 924 INTRA-LIGAND FREE ENERGY PREDICTED BY IDOCK:    0.17 KCAL/MOL
REMARK 927      BINDING AFFINITY PREDICTED BY RF-SCORE:    0.00 PKD
ROOT
HETATM    1  C   UNL     1      -6.402  11.540  70.075  1.00  0.00    -0.116 C  
HETATM    2  C   UNL     1      -7.350  10.716  69.222  1.00  0.00    -0.119 C  
ENDROOT
BRANCH   2   3
HETATM    3  C   UNL     1      -8.195   9.715  69.993  1.00  0.00    -0.184 C  
HETATM    4  N   UNL     1      -9.564   9.610  69.671  1.00  0.00    -0.195 N  
HETATM    5  O   UNL     1      -7.671   9.082  70.915  1.00  0.00    -0.105 OA 
BRANCH   4   6
HETATM    6  C   UNL     1     -10.290   8.663  70.496  1.00  0.00    -0.202 A  
HETATM    7  C   UNL     1     -10.568   7.360  70.068  1.00  0.00    -0.241 A  
HETATM    8  C   UNL     1     -11.343   6.495  70.851  1.00  0.00    -0.393 A  
HETATM    9  C   UNL     1     -10.744   9.053  71.765  1.00  0.00    -0.437 A  
HETATM   10  C   UNL     1     -11.848   6.918  72.077  1.00  0.00    -0.345 A  
HETATM   11  C   UNL     1     -11.542   8.197  72.537  1.00  0.00    -0.468 A  
ENDBRANCH   4   6
BRANCH   4  12
HETATM   12  C   UNL     1     -10.257  10.107  68.373  1.00  0.00    -0.169 C  
HETATM   13  C   UNL     1      -9.696  11.467  67.827  1.00  0.00    -0.180 C  
HETATM   14  N   UNL     1     -11.434  12.859  68.963  1.00  0.00    -0.289 NA 
HETATM   15  C   UNL     1      -9.999  12.665  68.728  1.00  0.00    -0.010 C  
HETATM   16  C   UNL     1     -11.778  10.393  68.578  1.00  0.00    -0.039 C  
HETATM   17  C   UNL     1     -12.019  11.613  69.476  1.00  0.00    -0.317 C  
BRANCH  12  18
HETATM   18  C   UNL     1     -10.088   9.061  67.214  1.00  0.00    -0.234 C  
BRANCH  18  19
HETATM   19  O   UNL     1      -9.998   9.670  65.929  1.00  0.00    -0.285 OA 
HETATM   20  C   UNL     1      -8.893   9.179  65.181  1.00  0.00    -0.200 C  
ENDBRANCH  18  19
ENDBRANCH  12  18
BRANCH  14  21
HETATM   21  C   UNL     1     -12.133  13.396  67.782  1.00  0.00    -0.259 C  
BRANCH  21  22
HETATM   22  C   UNL     1     -11.184  13.905  66.681  1.00  0.00    -0.328 C  
BRANCH  22  23
HETATM   23  C   UNL     1     -11.440  13.206  65.382  1.00  0.00    -0.304 A  
HETATM   24  C   UNL     1     -12.650  12.818  64.849  1.00  0.00    -0.541 A  
HETATM   25  C   UNL     1     -12.488  12.173  63.591  1.00  0.00    -0.658 A  
HETATM   26  C   UNL     1     -11.169  12.092  63.208  1.00  0.00    -0.328 A  
HETATM   27  S   UNL     1     -10.126  12.789  64.363  1.00  0.00    -0.180 SA 
ENDBRANCH  22  23
ENDBRANCH  21  22
ENDBRANCH  14  21
ENDBRANCH   4  12
ENDBRANCH   2   3
TORSDOF 8
ENDMDL
MODEL       75
REMARK 921   NORMALIZED FREE ENERGY PREDICTED BY IDOCK:   -4.37 KCAL/MOL
REMARK 922        TOTAL FREE ENERGY PREDICTED BY IDOCK:   -6.92 KCAL/MOL
REMARK 923 INTER-LIGAND FREE ENERGY PREDICTED BY IDOCK:   -6.96 KCAL/MOL
REMARK 924 INTRA-LIGAND FREE ENERGY PREDICTED BY IDOCK:    0.05 KCAL/MOL
REMARK 927      BINDING AFFINITY PREDICTED BY RF-SCORE:    0.00 PKD
ROOT
HETATM    1  C   UNL     1     -12.513  12.109  63.452  1.00  0.00    -0.625 C  
HETATM    2  C   UNL     1     -11.312  12.503  64.293  1.00  0.00    -0.417 C  
ENDROOT
BRANCH   2   3
HETATM    3  C   UNL     1     -10.314  11.383  64.542  1.00  0.00    -0.313 C  
HETATM    4  N   UNL     1      -9.548  11.425  65.725  1.00  0.00    -0.227 N  
HETATM    5  O   UNL     1     -10.163  10.519  63.673  1.00  0.00    -0.257 OA 
BRANCH   4   6
HETATM    6  C   UNL     1      -8.593  10.338  65.845  1.00  0.00    -0.152 A  
HETATM    7  C   UNL     1      -7.212  10.558  65.852  1.00  0.00    -0.135 A  
HETATM    8  C   UNL     1      -6.313   9.484  65.884  1.00  0.00    -0.075 A  
HETATM    9  C   UNL     1      -9.054   9.017  65.950  1.00  0.00    -0.264 A  
HETATM   10  C   UNL     1      -6.782   8.174  65.917  1.00  0.00    -0.049 A  
HETATM   11  C   UNL     1      -8.155   7.942  65.955  1.00  0.00    -0.112 A  
ENDBRANCH   4   6
BRANCH   4  12
HETATM   12  C   UNL     1      -9.847  12.257  67.001  1.00  0.00    -0.205 C  
HETATM   13  C   UNL     1      -9.097  11.753  68.285  1.00  0.00    -0.187 C  
HETATM   14  N   UNL     1     -11.007  10.352  69.083  1.00  0.00    -0.227 NA 
HETATM   15  C   UNL     1      -9.572  10.386  68.780  1.00  0.00    -0.177 C  
HETATM   16  C   UNL     1     -11.352  12.206  67.413  1.00  0.00    -0.393 C  
HETATM   17  C   UNL     1     -11.766  10.817  67.915  1.00  0.00     0.027 C  
BRANCH  12  18
HETATM   18  C   UNL     1      -9.425  13.756  66.802  1.00  0.00    -0.275 C  
BRANCH  18  19
HETATM   19  O   UNL     1     -10.432  14.674  67.216  1.00  0.00    -0.262 OA 
HETATM   20  C   UNL     1     -10.623  15.720  66.272  1.00  0.00    -0.310 C  
ENDBRANCH  18  19
ENDBRANCH  12  18
BRANCH  14  21
HETATM   21  C   UNL     1     -11.339  11.071  70.326  1.00  0.00    -0.203 C  
BRANCH  21  22
HETATM   22  C   UNL     1     -12.432  10.383  71.164  1.00  0.00    -0.509 C  
BRANCH  22  23
HETATM   23  C   UNL     1     -12.013   9.005  71.571  1.00  0.00    -0.344 A  
HETATM   24  C   UNL     1     -10.809   8.607  72.111  1.00  0.00    -0.424 A  
HETATM   25  C   UNL     1     -10.782   7.206  72.362  1.00  0.00    -0.273 A  
HETATM   26  C   UNL     1     -11.960   6.587  72.011  1.00  0.00    -0.326 A  
HETATM   27  S   UNL     1     -13.094   7.690  71.375  1.00  0.00    -0.253 SA 
ENDBRANCH  22  23
ENDBRANCH  21  22
ENDBRANCH  14  21
ENDBRANCH   4  12
ENDBRANCH   2   3
TORSDOF 8
ENDMDL
MODEL       76
REMARK 921   NORMALIZED FREE ENERGY PREDICTED BY IDOCK:   -4.37 KCAL/MOL
REMARK 922        TOTAL FREE ENERGY PREDICTED BY IDOCK:   -6.92 KCAL/MOL
REMARK 923 INTER-LIGAND FREE ENERGY PREDICTED BY IDOCK:   -6.95 KCAL/MOL
REMARK 924 INTRA-LIGAND FREE ENERGY PREDICTED BY IDOCK:    0.03 KCAL/MOL
REMARK 927      BINDING AFFINITY PREDICTED BY RF-SCORE:    0.00 PKD
ROOT
HETATM    1  C   UNL     1      -6.820   8.439  73.515  1.00  0.00    -0.127 C  
HETATM    2  C   UNL     1      -8.215   8.174  72.976  1.00  0.00    -0.248 C  
ENDROOT
BRANCH   2   3
HETATM    3  C   UNL     1      -8.621   6.709  72.952  1.00  0.00    -0.118 C  
HETATM    4  N   UNL     1      -9.878   6.375  72.408  1.00  0.00    -0.167 N  
HETATM    5  O   UNL     1      -7.868   5.876  73.467  1.00  0.00    -0.104 OA 
BRANCH   4   6
HETATM    6  C   UNL     1     -10.190   4.959  72.476  1.00  0.00    -0.195 A  
HETATM    7  C   UNL     1     -11.154   4.450  73.352  1.00  0.00    -0.394 A  
HETATM    8  C   UNL     1     -11.375   3.070  73.456  1.00  0.00    -0.249 A  
HETATM    9  C   UNL     1      -9.506   4.057  71.648  1.00  0.00    -0.216 A  
HETATM   10  C   UNL     1     -10.639   2.179  72.680  1.00  0.00    -0.194 A  
HETATM   11  C   UNL     1      -9.707   2.675  71.771  1.00  0.00    -0.224 A  
ENDBRANCH   4   6
BRANCH   4  12
HETATM   12  C   UNL     1     -10.758   7.256  71.481  1.00  0.00    -0.219 C  
HETATM   13  C   UNL     1     -11.630   6.442  70.461  1.00  0.00    -0.424 C  
HETATM   14  N   UNL     1      -9.968   6.624  68.602  1.00  0.00    -0.143 NA 
HETATM   15  C   UNL     1     -10.811   5.719  69.390  1.00  0.00    -0.323 C  
HETATM   16  C   UNL     1      -9.911   8.199  70.568  1.00  0.00    -0.195 C  
HETATM   17  C   UNL     1      -9.126   7.420  69.506  1.00  0.00    -0.143 C  
BRANCH  12  18
HETATM   18  C   UNL     1     -11.758   8.127  72.321  1.00  0.00    -0.379 C  
BRANCH  18  19
HETATM   19  O   UNL     1     -12.819   8.664  71.537  1.00  0.00    -0.323 OA 
HETATM   20  C   UNL     1     -14.001   8.865  72.300  1.00  0.00    -0.466 C  
ENDBRANCH  18  19
ENDBRANCH  12  18
BRANCH  14  21
HETATM   21  C   UNL     1     -10.747   7.439  67.653  1.00  0.00    -0.207 C  
BRANCH  21  22
HETATM   22  C   UNL     1      -9.877   8.243  66.670  1.00  0.00    -0.337 C  
BRANCH  22  23
HETATM   23  C   UNL     1     -10.316   9.672  66.603  1.00  0.00    -0.208 A  
HETATM   24  C   UNL     1     -10.921  10.423  67.588  1.00  0.00    -0.374 A  
HETATM   25  C   UNL     1     -11.196  11.748  67.147  1.00  0.00    -0.375 A  
HETATM   26  C   UNL     1     -10.791  11.963  65.849  1.00  0.00    -0.297 A  
HETATM   27  S   UNL     1     -10.086  10.571  65.162  1.00  0.00    -0.296 SA 
ENDBRANCH  22  23
ENDBRANCH  21  22
ENDBRANCH  14  21
ENDBRANCH   4  12
ENDBRANCH   2   3
TORSDOF 8
ENDMDL
MODEL       77
REMARK 921   NORMALIZED FREE ENERGY PREDICTED BY IDOCK:   -4.35 KCAL/MOL
REMARK 922        TOTAL FREE ENERGY PREDICTED BY IDOCK:   -6.89 KCAL/MOL
REMARK 923 INTER-LIGAND FREE ENERGY PREDICTED BY IDOCK:   -6.82 KCAL/MOL
REMARK 924 INTRA-LIGAND FREE ENERGY PREDICTED BY IDOCK:   -0.07 KCAL/MOL
REMARK 927      BINDING AFFINITY PREDICTED BY RF-SCORE:    0.00 PKD
ROOT
HETATM    1  C   UNL     1     -10.501   5.105  66.444  1.00  0.00    -0.356 C  
HETATM    2  C   UNL     1     -11.138   6.358  67.020  1.00  0.00    -0.405 C  
ENDROOT
BRANCH   2   3
HETATM    3  C   UNL     1     -10.800   6.632  68.476  1.00  0.00    -0.258 C  
HETATM    4  N   UNL     1      -9.746   7.525  68.758  1.00  0.00    -0.149 N  
HETATM    5  O   UNL     1     -11.414   6.016  69.354  1.00  0.00    -0.372 OA 
BRANCH   4   6
HETATM    6  C   UNL     1      -9.472   7.682  70.175  1.00  0.00    -0.161 A  
HETATM    7  C   UNL     1     -10.351   8.350  71.035  1.00  0.00    -0.244 A  
HETATM    8  C   UNL     1     -10.021   8.559  72.380  1.00  0.00    -0.365 A  
HETATM    9  C   UNL     1      -8.289   7.157  70.716  1.00  0.00    -0.128 A  
HETATM   10  C   UNL     1      -8.811   8.096  72.888  1.00  0.00    -0.307 A  
HETATM   11  C   UNL     1      -7.946   7.389  72.055  1.00  0.00    -0.099 A  
ENDBRANCH   4   6
BRANCH   4  12
HETATM   12  C   UNL     1      -9.120   8.566  67.791  1.00  0.00    -0.135 C  
HETATM   13  C   UNL     1      -8.332   9.717  68.510  1.00  0.00    -0.117 C  
HETATM   14  N   UNL     1     -10.269  11.296  68.518  1.00  0.00    -0.198 NA 
HETATM   15  C   UNL     1      -9.222  10.659  69.323  1.00  0.00    -0.104 C  
HETATM   16  C   UNL     1     -10.194   9.326  66.951  1.00  0.00    -0.327 C  
HETATM   17  C   UNL     1     -11.044  10.265  67.816  1.00  0.00    -0.269 C  
BRANCH  12  18
HETATM   18  C   UNL     1      -8.103   7.878  66.812  1.00  0.00    -0.108 C  
BRANCH  18  19
HETATM   19  O   UNL     1      -8.427   8.085  65.441  1.00  0.00    -0.149 OA 
HETATM   20  C   UNL     1      -7.267   8.230  64.632  1.00  0.00    -0.083 C  
ENDBRANCH  18  19
ENDBRANCH  12  18
BRANCH  14  21
HETATM   21  C   UNL     1      -9.739  12.344  67.628  1.00  0.00    -0.195 C  
BRANCH  21  22
HETATM   22  C   UNL     1     -10.814  13.314  67.106  1.00  0.00    -0.268 C  
BRANCH  22  23
HETATM   23  C   UNL     1     -11.099  13.075  65.656  1.00  0.00    -0.276 A  
HETATM   24  C   UNL     1     -10.483  12.185  64.803  1.00  0.00    -0.332 A  
HETATM   25  C   UNL     1     -11.027  12.250  63.490  1.00  0.00    -0.521 A  
HETATM   26  C   UNL     1     -12.037  13.179  63.386  1.00  0.00    -0.486 A  
HETATM   27  S   UNL     1     -12.326  13.975  64.866  1.00  0.00    -0.410 SA 
ENDBRANCH  22  23
ENDBRANCH  21  22
ENDBRANCH  14  21
ENDBRANCH   4  12
ENDBRANCH   2   3
TORSDOF 8
ENDMDL
MODEL       78
REMARK 921   NORMALIZED FREE ENERGY PREDICTED BY IDOCK:   -4.35 KCAL/MOL
REMARK 922        TOTAL FREE ENERGY PREDICTED BY IDOCK:   -6.88 KCAL/MOL
REMARK 923 INTER-LIGAND FREE ENERGY PREDICTED BY IDOCK:   -6.51 KCAL/MOL
REMARK 924 INTRA-LIGAND FREE ENERGY PREDICTED BY IDOCK:   -0.37 KCAL/MOL
REMARK 927      BINDING AFFINITY PREDICTED BY RF-SCORE:    0.00 PKD
ROOT
HETATM    1  C   UNL     1      -8.172   7.790  74.528  1.00  0.00    -0.259 C  
HETATM    2  C   UNL     1      -7.852   7.940  73.051  1.00  0.00    -0.174 C  
ENDROOT
BRANCH   2   3
HETATM    3  C   UNL     1      -7.944   6.654  72.246  1.00  0.00    -0.100 C  
HETATM    4  N   UNL     1      -8.937   6.561  71.249  1.00  0.00    -0.142 N  
HETATM    5  O   UNL     1      -7.193   5.717  72.536  1.00  0.00    -0.083 OA 
BRANCH   4   6
HETATM    6  C   UNL     1      -8.972   5.278  70.572  1.00  0.00    -0.136 A  
HETATM    7  C   UNL     1      -9.578   4.152  71.139  1.00  0.00    -0.249 A  
HETATM    8  C   UNL     1      -9.523   2.907  70.500  1.00  0.00    -0.210 A  
HETATM    9  C   UNL     1      -8.376   5.143  69.309  1.00  0.00    -0.087 A  
HETATM   10  C   UNL     1      -8.867   2.770  69.280  1.00  0.00    -0.152 A  
HETATM   11  C   UNL     1      -8.297   3.892  68.682  1.00  0.00    -0.091 A  
ENDBRANCH   4   6
BRANCH   4  12
HETATM   12  C   UNL     1      -9.716   7.735  70.596  1.00  0.00    -0.177 C  
HETATM   13  C   UNL     1     -10.212   8.821  71.615  1.00  0.00    -0.394 C  
HETATM   14  N   UNL     1     -12.486   7.815  71.872  1.00  0.00    -0.311 NA 
HETATM   15  C   UNL     1     -11.298   8.321  72.569  1.00  0.00    -0.385 C  
HETATM   16  C   UNL     1     -11.029   7.266  69.892  1.00  0.00    -0.262 C  
HETATM   17  C   UNL     1     -12.084   6.792  70.898  1.00  0.00    -0.367 C  
BRANCH  12  18
HETATM   18  C   UNL     1      -8.819   8.488  69.550  1.00  0.00    -0.141 C  
BRANCH  18  19
HETATM   19  O   UNL     1      -9.274   9.811  69.281  1.00  0.00    -0.168 OA 
HETATM   20  C   UNL     1      -9.931   9.906  68.024  1.00  0.00    -0.152 C  
ENDBRANCH  18  19
ENDBRANCH  12  18
BRANCH  14  21
HETATM   21  C   UNL     1     -13.302   8.895  71.289  1.00  0.00    -0.181 C  
BRANCH  21  22
HETATM   22  C   UNL     1     -13.527  10.083  72.243  1.00  0.00    -0.346 C  
BRANCH  22  23
HETATM   23  C   UNL     1     -13.084  11.369  71.617  1.00  0.00    -0.393 A  
HETATM   24  C   UNL     1     -12.290  11.544  70.504  1.00  0.00    -0.432 A  
HETATM   25  C   UNL     1     -12.082  12.923  70.217  1.00  0.00    -0.377 A  
HETATM   26  C   UNL     1     -12.722  13.748  71.114  1.00  0.00    -0.362 A  
HETATM   27  S   UNL     1     -13.568  12.864  72.302  1.00  0.00    -0.379 SA 
ENDBRANCH  22  23
ENDBRANCH  21  22
ENDBRANCH  14  21
ENDBRANCH   4  12
ENDBRANCH   2   3
TORSDOF 8
ENDMDL
MODEL       79
REMARK 921   NORMALIZED FREE ENERGY PREDICTED BY IDOCK:   -4.34 KCAL/MOL
REMARK 922        TOTAL FREE ENERGY PREDICTED BY IDOCK:   -6.88 KCAL/MOL
REMARK 923 INTER-LIGAND FREE ENERGY PREDICTED BY IDOCK:   -7.15 KCAL/MOL
REMARK 924 INTRA-LIGAND FREE ENERGY PREDICTED BY IDOCK:    0.27 KCAL/MOL
REMARK 927      BINDING AFFINITY PREDICTED BY RF-SCORE:    0.00 PKD
ROOT
HETATM    1  C   UNL     1     -12.540  14.208  71.394  1.00  0.00    -0.445 C  
HETATM    2  C   UNL     1     -12.592  13.949  69.899  1.00  0.00    -0.172 C  
ENDROOT
BRANCH   2   3
HETATM    3  C   UNL     1     -11.698  12.818  69.417  1.00  0.00    -0.319 C  
HETATM    4  N   UNL     1     -11.079  12.949  68.158  1.00  0.00    -0.239 N  
HETATM    5  O   UNL     1     -11.600  11.802  70.113  1.00  0.00    -0.284 OA 
BRANCH   4   6
HETATM    6  C   UNL     1     -10.286  11.796  67.770  1.00  0.00    -0.194 A  
HETATM    7  C   UNL     1      -9.116  11.435  68.446  1.00  0.00    -0.179 A  
HETATM    8  C   UNL     1      -8.327  10.367  67.998  1.00  0.00    -0.118 A  
HETATM    9  C   UNL     1     -10.690  11.011  66.679  1.00  0.00    -0.305 A  
HETATM   10  C   UNL     1      -8.701   9.641  66.871  1.00  0.00    -0.139 A  
HETATM   11  C   UNL     1      -9.887   9.960  66.215  1.00  0.00    -0.308 A  
ENDBRANCH   4   6
BRANCH   4  12
HETATM   12  C   UNL     1     -10.877  14.259  67.348  1.00  0.00    -0.285 C  
HETATM   13  C   UNL     1      -9.465  14.385  66.674  1.00  0.00    -0.300 C  
HETATM   14  N   UNL     1      -8.478  15.713  68.547  1.00  0.00    -0.167 NA 
HETATM   15  C   UNL     1      -8.318  14.547  67.672  1.00  0.00    -0.180 C  
HETATM   16  C   UNL     1     -10.972  15.536  68.241  1.00  0.00    -0.305 C  
HETATM   17  C   UNL     1      -9.788  15.653  69.208  1.00  0.00    -0.269 C  
BRANCH  12  18
HETATM   18  C   UNL     1     -11.932  14.368  66.190  1.00  0.00    -0.369 C  
BRANCH  18  19
HETATM   19  O   UNL     1     -11.337  14.350  64.896  1.00  0.00    -0.345 OA 
HETATM   20  C   UNL     1     -11.889  13.336  64.067  1.00  0.00    -0.455 C  
ENDBRANCH  18  19
ENDBRANCH  12  18
BRANCH  14  21
HETATM   21  C   UNL     1      -8.231  16.985  67.845  1.00  0.00    -0.200 C  
BRANCH  21  22
HETATM   22  C   UNL     1      -6.740  17.360  67.753  1.00  0.00    -0.172 C  
BRANCH  22  23
HETATM   23  C   UNL     1      -6.312  18.163  68.942  1.00  0.00    -0.224 A  
HETATM   24  C   UNL     1      -5.559  17.749  70.021  1.00  0.00    -0.246 A  
HETATM   25  C   UNL     1      -5.361  18.801  70.959  1.00  0.00    -0.251 A  
HETATM   26  C   UNL     1      -5.963  19.975  70.566  1.00  0.00    -0.341 A  
HETATM   27  S   UNL     1      -6.769  19.809  69.073  1.00  0.00    -0.334 SA 
ENDBRANCH  22  23
ENDBRANCH  21  22
ENDBRANCH  14  21
ENDBRANCH   4  12
ENDBRANCH   2   3
TORSDOF 8
ENDMDL
MODEL       80
REMARK 921   NORMALIZED FREE ENERGY PREDICTED BY IDOCK:   -4.33 KCAL/MOL
REMARK 922        TOTAL FREE ENERGY PREDICTED BY IDOCK:   -6.85 KCAL/MOL
REMARK 923 INTER-LIGAND FREE ENERGY PREDICTED BY IDOCK:   -6.98 KCAL/MOL
REMARK 924 INTRA-LIGAND FREE ENERGY PREDICTED BY IDOCK:    0.13 KCAL/MOL
REMARK 927      BINDING AFFINITY PREDICTED BY RF-SCORE:    0.00 PKD
ROOT
HETATM    1  C   UNL     1      -6.242  13.430  68.985  1.00  0.00    -0.092 C  
HETATM    2  C   UNL     1      -6.714  12.845  67.666  1.00  0.00    -0.153 C  
ENDROOT
BRANCH   2   3
HETATM    3  C   UNL     1      -8.061  13.362  67.186  1.00  0.00    -0.083 C  
HETATM    4  N   UNL     1      -8.955  12.444  66.598  1.00  0.00    -0.208 N  
HETATM    5  O   UNL     1      -8.296  14.571  67.269  1.00  0.00    -0.190 OA 
BRANCH   4   6
HETATM    6  C   UNL     1     -10.191  13.045  66.131  1.00  0.00    -0.284 A  
HETATM    7  C   UNL     1     -11.142  13.573  67.011  1.00  0.00    -0.310 A  
HETATM    8  C   UNL     1     -12.363  14.071  66.537  1.00  0.00    -0.442 A  
HETATM    9  C   UNL     1     -10.460  13.100  64.755  1.00  0.00    -0.390 A  
HETATM   10  C   UNL     1     -12.648  14.054  65.175  1.00  0.00    -0.453 A  
HETATM   11  C   UNL     1     -11.692  13.573  64.283  1.00  0.00    -0.455 A  
ENDBRANCH   4   6
BRANCH   4  12
HETATM   12  C   UNL     1      -8.911  10.896  66.709  1.00  0.00    -0.150 C  
HETATM   13  C   UNL     1     -10.325  10.214  66.720  1.00  0.00    -0.285 C  
HETATM   14  N   UNL     1     -10.470  10.116  69.213  1.00  0.00    -0.210 NA 
HETATM   15  C   UNL     1     -11.146  10.516  67.974  1.00  0.00    -0.300 C  
HETATM   16  C   UNL     1      -8.259  10.408  68.042  1.00  0.00    -0.114 C  
HETATM   17  C   UNL     1      -9.134  10.724  69.261  1.00  0.00    -0.037 C  
BRANCH  12  18
HETATM   18  C   UNL     1      -8.127  10.270  65.501  1.00  0.00    -0.156 C  
BRANCH  18  19
HETATM   19  O   UNL     1      -6.870   9.720  65.883  1.00  0.00    -0.088 OA 
HETATM   20  C   UNL     1      -6.603   8.488  65.225  1.00  0.00    -0.063 C  
ENDBRANCH  18  19
ENDBRANCH  12  18
BRANCH  14  21
HETATM   21  C   UNL     1     -10.460   8.655  69.405  1.00  0.00    -0.218 C  
BRANCH  21  22
HETATM   22  C   UNL     1     -10.610   8.224  70.875  1.00  0.00    -0.239 C  
BRANCH  22  23
HETATM   23  C   UNL     1     -12.051   8.167  71.276  1.00  0.00    -0.288 A  
HETATM   24  C   UNL     1     -12.875   7.064  71.337  1.00  0.00    -0.407 A  
HETATM   25  C   UNL     1     -14.189   7.410  71.760  1.00  0.00    -0.544 A  
HETATM   26  C   UNL     1     -14.323   8.757  72.009  1.00  0.00    -0.377 A  
HETATM   27  S   UNL     1     -12.869   9.604  71.730  1.00  0.00    -0.445 SA 
ENDBRANCH  22  23
ENDBRANCH  21  22
ENDBRANCH  14  21
ENDBRANCH   4  12
ENDBRANCH   2   3
TORSDOF 8
ENDMDL
MODEL       81
REMARK 921   NORMALIZED FREE ENERGY PREDICTED BY IDOCK:   -4.30 KCAL/MOL
REMARK 922        TOTAL FREE ENERGY PREDICTED BY IDOCK:   -6.82 KCAL/MOL
REMARK 923 INTER-LIGAND FREE ENERGY PREDICTED BY IDOCK:   -8.01 KCAL/MOL
REMARK 924 INTRA-LIGAND FREE ENERGY PREDICTED BY IDOCK:    1.20 KCAL/MOL
REMARK 927      BINDING AFFINITY PREDICTED BY RF-SCORE:    0.00 PKD
ROOT
HETATM    1  C   UNL     1     -12.622  14.240  63.991  1.00  0.00    -0.007 C  
HETATM    2  C   UNL     1     -11.186  14.411  64.456  1.00  0.00    -0.314 C  
ENDROOT
BRANCH   2   3
HETATM    3  C   UNL     1     -10.794  15.838  64.801  1.00  0.00    -0.344 C  
HETATM    4  N   UNL     1     -10.313  16.100  66.101  1.00  0.00    -0.324 N  
HETATM    5  O   UNL     1     -10.972  16.723  63.959  1.00  0.00    -0.599 OA 
BRANCH   4   6
HETATM    6  C   UNL     1     -10.012  17.499  66.344  1.00  0.00    -0.325 A  
HETATM    7  C   UNL     1     -10.984  18.406  66.781  1.00  0.00     0.051 A  
HETATM    8  C   UNL     1     -10.685  19.767  66.927  1.00  0.00    -0.541 A  
HETATM    9  C   UNL     1      -8.710  17.977  66.132  1.00  0.00    -0.117 A  
HETATM   10  C   UNL     1      -9.407  20.240  66.645  1.00  0.00    -0.460 A  
HETATM   11  C   UNL     1      -8.417  19.342  66.252  1.00  0.00    -0.346 A  
ENDBRANCH   4   6
BRANCH   4  12
HETATM   12  C   UNL     1      -9.768  15.065  67.121  1.00  0.00    -0.226 C  
HETATM   13  C   UNL     1     -10.493  13.673  67.071  1.00  0.00    -0.270 C  
HETATM   14  N   UNL     1     -12.096  14.230  68.907  1.00  0.00    -0.314 NA 
HETATM   15  C   UNL     1     -11.949  13.721  67.540  1.00  0.00    -0.376 C  
HETATM   16  C   UNL     1      -9.956  15.524  68.601  1.00  0.00    -0.208 C  
HETATM   17  C   UNL     1     -11.432  15.536  69.017  1.00  0.00    -0.352 C  
BRANCH  12  18
HETATM   18  C   UNL     1      -8.245  14.778  66.867  1.00  0.00    -0.109 C  
BRANCH  18  19
HETATM   19  O   UNL     1      -7.618  14.111  67.959  1.00  0.00    -0.113 OA 
HETATM   20  C   UNL     1      -6.676  13.139  67.523  1.00  0.00    -0.152 C  
ENDBRANCH  18  19
ENDBRANCH  12  18
BRANCH  14  21
HETATM   21  C   UNL     1     -11.656  13.258  69.923  1.00  0.00    -0.190 C  
BRANCH  21  22
HETATM   22  C   UNL     1     -12.660  13.072  71.076  1.00  0.00    -0.386 C  
BRANCH  22  23
HETATM   23  C   UNL     1     -12.621  14.233  72.020  1.00  0.00    -0.298 A  
HETATM   24  C   UNL     1     -13.504  14.536  73.034  1.00  0.00    -0.418 A  
HETATM   25  C   UNL     1     -13.135  15.730  73.714  1.00  0.00    -0.525 A  
HETATM   26  C   UNL     1     -11.989  16.294  73.202  1.00  0.00    -0.461 A  
HETATM   27  S   UNL     1     -11.360  15.389  71.901  1.00  0.00    -0.290 SA 
ENDBRANCH  22  23
ENDBRANCH  21  22
ENDBRANCH  14  21
ENDBRANCH   4  12
ENDBRANCH   2   3
TORSDOF 8
ENDMDL
MODEL       82
REMARK 921   NORMALIZED FREE ENERGY PREDICTED BY IDOCK:   -4.30 KCAL/MOL
REMARK 922        TOTAL FREE ENERGY PREDICTED BY IDOCK:   -6.81 KCAL/MOL
REMARK 923 INTER-LIGAND FREE ENERGY PREDICTED BY IDOCK:   -6.56 KCAL/MOL
REMARK 924 INTRA-LIGAND FREE ENERGY PREDICTED BY IDOCK:   -0.26 KCAL/MOL
REMARK 927      BINDING AFFINITY PREDICTED BY RF-SCORE:    0.00 PKD
ROOT
HETATM    1  C   UNL     1      -8.411  15.151  68.888  1.00  0.00    -0.190 C  
HETATM    2  C   UNL     1      -8.459  13.725  68.368  1.00  0.00    -0.154 C  
ENDROOT
BRANCH   2   3
HETATM    3  C   UNL     1      -9.326  13.525  67.136  1.00  0.00    -0.240 C  
HETATM    4  N   UNL     1     -10.062  12.327  67.027  1.00  0.00    -0.212 N  
HETATM    5  O   UNL     1      -9.305  14.385  66.249  1.00  0.00    -0.283 OA 
BRANCH   4   6
HETATM    6  C   UNL     1     -10.819  12.213  65.794  1.00  0.00    -0.281 A  
HETATM    7  C   UNL     1     -10.308  11.570  64.662  1.00  0.00    -0.349 A  
HETATM    8  C   UNL     1     -11.027  11.549  63.459  1.00  0.00    -0.453 A  
HETATM    9  C   UNL     1     -12.106  12.767  65.715  1.00  0.00    -0.505 A  
HETATM   10  C   UNL     1     -12.272  12.164  63.374  1.00  0.00    -0.635 A  
HETATM   11  C   UNL     1     -12.814  12.770  64.506  1.00  0.00    -0.323 A  
ENDBRANCH   4   6
BRANCH   4  12
HETATM   12  C   UNL     1     -10.407  11.336  68.171  1.00  0.00    -0.186 C  
HETATM   13  C   UNL     1      -9.184  10.952  69.077  1.00  0.00    -0.128 C  
HETATM   14  N   UNL     1      -8.652   8.868  67.803  1.00  0.00    -0.125 NA 
HETATM   15  C   UNL     1      -8.122  10.119  68.358  1.00  0.00    -0.104 C  
HETATM   16  C   UNL     1     -10.916   9.959  67.639  1.00  0.00    -0.263 C  
HETATM   17  C   UNL     1      -9.805   9.164  66.943  1.00  0.00    -0.217 C  
BRANCH  12  18
HETATM   18  C   UNL     1     -11.493  11.944  69.128  1.00  0.00    -0.296 C  
BRANCH  18  19
HETATM   19  O   UNL     1     -11.794  11.097  70.233  1.00  0.00    -0.314 OA 
HETATM   20  C   UNL     1     -12.779  11.662  71.088  1.00  0.00    -0.325 C  
ENDBRANCH  18  19
ENDBRANCH  12  18
BRANCH  14  21
HETATM   21  C   UNL     1      -8.934   7.863  68.843  1.00  0.00    -0.141 C  
BRANCH  21  22
HETATM   22  C   UNL     1      -8.007   6.635  68.783  1.00  0.00    -0.118 C  
BRANCH  22  23
HETATM   23  C   UNL     1      -8.496   5.639  67.778  1.00  0.00    -0.102 A  
HETATM   24  C   UNL     1      -7.749   4.785  66.994  1.00  0.00    -0.091 A  
HETATM   25  C   UNL     1      -8.573   3.988  66.152  1.00  0.00    -0.110 A  
HETATM   26  C   UNL     1      -9.913   4.255  66.322  1.00  0.00    -0.211 A  
HETATM   27  S   UNL     1     -10.177   5.468  67.490  1.00  0.00    -0.201 SA 
ENDBRANCH  22  23
ENDBRANCH  21  22
ENDBRANCH  14  21
ENDBRANCH   4  12
ENDBRANCH   2   3
TORSDOF 8
ENDMDL
MODEL       83
REMARK 921   NORMALIZED FREE ENERGY PREDICTED BY IDOCK:   -4.25 KCAL/MOL
REMARK 922        TOTAL FREE ENERGY PREDICTED BY IDOCK:   -6.75 KCAL/MOL
REMARK 923 INTER-LIGAND FREE ENERGY PREDICTED BY IDOCK:   -6.97 KCAL/MOL
REMARK 924 INTRA-LIGAND FREE ENERGY PREDICTED BY IDOCK:    0.23 KCAL/MOL
REMARK 927      BINDING AFFINITY PREDICTED BY RF-SCORE:    0.00 PKD
ROOT
HETATM    1  C   UNL     1     -12.468  12.360  63.622  1.00  0.00    -0.610 C  
HETATM    2  C   UNL     1     -12.715  12.979  64.986  1.00  0.00    -0.475 C  
ENDROOT
BRANCH   2   3
HETATM    3  C   UNL     1     -11.862  14.198  65.297  1.00  0.00    -0.367 C  
HETATM    4  N   UNL     1     -11.202  14.249  66.542  1.00  0.00    -0.323 N  
HETATM    5  O   UNL     1     -11.830  15.124  64.480  1.00  0.00    -0.416 OA 
BRANCH   4   6
HETATM    6  C   UNL     1     -10.454  15.474  66.760  1.00  0.00    -0.295 A  
HETATM    7  C   UNL     1      -9.310  15.790  66.019  1.00  0.00    -0.384 A  
HETATM    8  C   UNL     1      -8.560  16.938  66.308  1.00  0.00    -0.319 A  
HETATM    9  C   UNL     1     -10.874  16.378  67.747  1.00  0.00    -0.306 A  
HETATM   10  C   UNL     1      -8.948  17.790  67.338  1.00  0.00    -0.240 A  
HETATM   11  C   UNL     1     -10.110  17.512  68.054  1.00  0.00    -0.332 A  
ENDBRANCH   4   6
BRANCH   4  12
HETATM   12  C   UNL     1     -10.918  13.059  67.497  1.00  0.00    -0.259 C  
HETATM   13  C   UNL     1      -9.527  13.136  68.222  1.00  0.00    -0.210 C  
HETATM   14  N   UNL     1      -8.356  11.708  66.537  1.00  0.00    -0.155 NA 
HETATM   15  C   UNL     1      -8.332  12.972  67.281  1.00  0.00    -0.185 C  
HETATM   16  C   UNL     1     -10.866  11.689  66.750  1.00  0.00    -0.322 C  
HETATM   17  C   UNL     1      -9.640  11.577  65.836  1.00  0.00    -0.230 C  
BRANCH  12  18
HETATM   18  C   UNL     1     -12.003  12.980  68.630  1.00  0.00    -0.263 C  
BRANCH  18  19
HETATM   19  O   UNL     1     -11.612  13.661  69.819  1.00  0.00    -0.279 OA 
HETATM   20  C   UNL     1     -12.654  14.479  70.335  1.00  0.00    -0.346 C  
ENDBRANCH  18  19
ENDBRANCH  12  18
BRANCH  14  21
HETATM   21  C   UNL     1      -8.025  10.548  67.384  1.00  0.00    -0.110 C  
BRANCH  21  22
HETATM   22  C   UNL     1      -7.967   9.217  66.612  1.00  0.00    -0.108 C  
BRANCH  22  23
HETATM   23  C   UNL     1      -7.033   9.309  65.446  1.00  0.00    -0.085 A  
HETATM   24  C   UNL     1      -5.815   9.951  65.380  1.00  0.00    -0.076 A  
HETATM   25  C   UNL     1      -5.220   9.822  64.094  1.00  0.00    -0.067 A  
HETATM   26  C   UNL     1      -5.997   9.087  63.228  1.00  0.00    -0.088 A  
HETATM   27  S   UNL     1      -7.443   8.559  63.960  1.00  0.00    -0.123 SA 
ENDBRANCH  22  23
ENDBRANCH  21  22
ENDBRANCH  14  21
ENDBRANCH   4  12
ENDBRANCH   2   3
TORSDOF 8
ENDMDL
MODEL       84
REMARK 921   NORMALIZED FREE ENERGY PREDICTED BY IDOCK:   -4.25 KCAL/MOL
REMARK 922        TOTAL FREE ENERGY PREDICTED BY IDOCK:   -6.74 KCAL/MOL
REMARK 923 INTER-LIGAND FREE ENERGY PREDICTED BY IDOCK:   -7.02 KCAL/MOL
REMARK 924 INTRA-LIGAND FREE ENERGY PREDICTED BY IDOCK:    0.28 KCAL/MOL
REMARK 927      BINDING AFFINITY PREDICTED BY RF-SCORE:    0.00 PKD
ROOT
HETATM    1  C   UNL     1     -12.421  13.114  70.824  1.00  0.00    -0.389 C  
HETATM    2  C   UNL     1     -12.059  13.725  69.481  1.00  0.00    -0.386 C  
ENDROOT
BRANCH   2   3
HETATM    3  C   UNL     1     -11.720  12.718  68.395  1.00  0.00    -0.339 C  
HETATM    4  N   UNL     1     -10.776  13.088  67.415  1.00  0.00    -0.243 N  
HETATM    5  O   UNL     1     -12.328  11.643  68.370  1.00  0.00    -0.417 OA 
BRANCH   4   6
HETATM    6  C   UNL     1     -10.559  12.077  66.397  1.00  0.00    -0.243 A  
HETATM    7  C   UNL     1      -9.723  10.974  66.607  1.00  0.00    -0.226 A  
HETATM    8  C   UNL     1      -9.466  10.059  65.578  1.00  0.00    -0.296 A  
HETATM    9  C   UNL     1     -11.194  12.196  65.152  1.00  0.00    -0.378 A  
HETATM   10  C   UNL     1     -10.047  10.228  64.325  1.00  0.00    -0.191 A  
HETATM   11  C   UNL     1     -10.917  11.296  64.114  1.00  0.00    -0.376 A  
ENDBRANCH   4   6
BRANCH   4  12
HETATM   12  C   UNL     1      -9.746  14.247  67.501  1.00  0.00    -0.223 C  
HETATM   13  C   UNL     1     -10.279  15.524  68.241  1.00  0.00    -0.222 C  
HETATM   14  N   UNL     1     -10.988  16.678  66.140  1.00  0.00     0.006 NA 
HETATM   15  C   UNL     1     -11.391  16.255  67.486  1.00  0.00     0.047 C  
HETATM   16  C   UNL     1      -9.327  14.784  66.097  1.00  0.00    -0.292 C  
HETATM   17  C   UNL     1     -10.476  15.520  65.395  1.00  0.00    -0.405 C  
BRANCH  12  18
HETATM   18  C   UNL     1      -8.458  13.793  68.276  1.00  0.00    -0.173 C  
BRANCH  18  19
HETATM   19  O   UNL     1      -7.300  13.749  67.448  1.00  0.00    -0.171 OA 
HETATM   20  C   UNL     1      -6.098  13.756  68.207  1.00  0.00    -0.111 C  
ENDBRANCH  18  19
ENDBRANCH  12  18
BRANCH  14  21
HETATM   21  C   UNL     1     -10.061  17.822  66.161  1.00  0.00    -0.304 C  
BRANCH  21  22
HETATM   22  C   UNL     1      -9.968  18.518  67.531  1.00  0.00    -0.354 C  
BRANCH  22  23
HETATM   23  C   UNL     1      -8.551  18.866  67.866  1.00  0.00    -0.294 A  
HETATM   24  C   UNL     1      -8.093  19.703  68.860  1.00  0.00    -0.263 A  
HETATM   25  C   UNL     1      -6.672  19.787  68.864  1.00  0.00    -0.362 A  
HETATM   26  C   UNL     1      -6.098  19.013  67.881  1.00  0.00    -0.206 A  
HETATM   27  S   UNL     1      -7.267  18.191  66.952  1.00  0.00    -0.214 SA 
ENDBRANCH  22  23
ENDBRANCH  21  22
ENDBRANCH  14  21
ENDBRANCH   4  12
ENDBRANCH   2   3
TORSDOF 8
ENDMDL
MODEL       85
REMARK 921   NORMALIZED FREE ENERGY PREDICTED BY IDOCK:   -4.23 KCAL/MOL
REMARK 922        TOTAL FREE ENERGY PREDICTED BY IDOCK:   -6.71 KCAL/MOL
REMARK 923 INTER-LIGAND FREE ENERGY PREDICTED BY IDOCK:   -6.58 KCAL/MOL
REMARK 924 INTRA-LIGAND FREE ENERGY PREDICTED BY IDOCK:   -0.14 KCAL/MOL
REMARK 927      BINDING AFFINITY PREDICTED BY RF-SCORE:    0.00 PKD
ROOT
HETATM    1  C   UNL     1      -8.211  10.082  63.208  1.00  0.00    -0.162 C  
HETATM    2  C   UNL     1      -7.670   9.976  64.623  1.00  0.00    -0.146 C  
ENDROOT
BRANCH   2   3
HETATM    3  C   UNL     1      -8.343   8.920  65.485  1.00  0.00    -0.136 C  
HETATM    4  N   UNL     1      -8.681   9.258  66.811  1.00  0.00    -0.126 N  
HETATM    5  O   UNL     1      -8.509   7.789  65.016  1.00  0.00    -0.128 OA 
BRANCH   4   6
HETATM    6  C   UNL     1      -9.275   8.168  67.562  1.00  0.00    -0.137 A  
HETATM    7  C   UNL     1     -10.484   7.573  67.185  1.00  0.00    -0.407 A  
HETATM    8  C   UNL     1     -11.075   6.580  67.976  1.00  0.00    -0.332 A  
HETATM    9  C   UNL     1      -8.632   7.686  68.713  1.00  0.00    -0.129 A  
HETATM   10  C   UNL     1     -10.463   6.160  69.153  1.00  0.00    -0.310 A  
HETATM   11  C   UNL     1      -9.236   6.711  69.519  1.00  0.00    -0.143 A  
ENDBRANCH   4   6
BRANCH   4  12
HETATM   12  C   UNL     1      -8.805  10.687  67.407  1.00  0.00    -0.132 C  
HETATM   13  C   UNL     1      -9.813  10.796  68.606  1.00  0.00    -0.187 C  
HETATM   14  N   UNL     1     -11.730  11.523  67.175  1.00  0.00    -0.577 NA 
HETATM   15  C   UNL     1     -11.273  10.583  68.204  1.00  0.00    -0.293 C  
HETATM   16  C   UNL     1      -9.350  11.723  66.374  1.00  0.00    -0.229 C  
HETATM   17  C   UNL     1     -10.821  11.468  66.023  1.00  0.00    -0.276 C  
BRANCH  12  18
HETATM   18  C   UNL     1      -7.419  11.189  67.948  1.00  0.00    -0.094 C  
BRANCH  18  19
HETATM   19  O   UNL     1      -6.827  12.181  67.115  1.00  0.00    -0.144 OA 
HETATM   20  C   UNL     1      -5.413  12.045  67.042  1.00  0.00    -0.099 C  
ENDBRANCH  18  19
ENDBRANCH  12  18
BRANCH  14  21
HETATM   21  C   UNL     1     -11.930  12.885  67.703  1.00  0.00    -0.289 C  
BRANCH  21  22
HETATM   22  C   UNL     1     -12.212  13.935  66.612  1.00  0.00    -0.465 C  
BRANCH  22  23
HETATM   23  C   UNL     1     -11.213  15.048  66.664  1.00  0.00    -0.311 A  
HETATM   24  C   UNL     1     -10.342  15.457  65.676  1.00  0.00    -0.395 A  
HETATM   25  C   UNL     1      -9.539  16.552  66.102  1.00  0.00    -0.344 A  
HETATM   26  C   UNL     1      -9.824  16.942  67.391  1.00  0.00    -0.261 A  
HETATM   27  S   UNL     1     -11.053  15.988  68.089  1.00  0.00    -0.324 SA 
ENDBRANCH  22  23
ENDBRANCH  21  22
ENDBRANCH  14  21
ENDBRANCH   4  12
ENDBRANCH   2   3
TORSDOF 8
ENDMDL
MODEL       86
REMARK 921   NORMALIZED FREE ENERGY PREDICTED BY IDOCK:   -4.21 KCAL/MOL
REMARK 922        TOTAL FREE ENERGY PREDICTED BY IDOCK:   -6.69 KCAL/MOL
REMARK 923 INTER-LIGAND FREE ENERGY PREDICTED BY IDOCK:   -6.28 KCAL/MOL
REMARK 924 INTRA-LIGAND FREE ENERGY PREDICTED BY IDOCK:   -0.40 KCAL/MOL
REMARK 927      BINDING AFFINITY PREDICTED BY RF-SCORE:    0.00 PKD
ROOT
HETATM    1  C   UNL     1     -11.068   4.768  73.350  1.00  0.00    -0.422 C  
HETATM    2  C   UNL     1     -10.868   6.029  72.528  1.00  0.00    -0.286 C  
ENDROOT
BRANCH   2   3
HETATM    3  C   UNL     1     -10.357   5.795  71.116  1.00  0.00    -0.227 C  
HETATM    4  N   UNL     1      -9.976   6.916  70.351  1.00  0.00    -0.179 N  
HETATM    5  O   UNL     1     -10.355   4.643  70.669  1.00  0.00    -0.182 OA 
BRANCH   4   6
HETATM    6  C   UNL     1      -9.549   6.590  69.003  1.00  0.00    -0.132 A  
HETATM    7  C   UNL     1     -10.458   6.412  67.954  1.00  0.00    -0.276 A  
HETATM    8  C   UNL     1     -10.023   6.016  66.683  1.00  0.00    -0.211 A  
HETATM    9  C   UNL     1      -8.182   6.436  68.726  1.00  0.00    -0.121 A  
HETATM   10  C   UNL     1      -8.670   5.797  66.440  1.00  0.00    -0.128 A  
HETATM   11  C   UNL     1      -7.748   6.013  67.462  1.00  0.00    -0.097 A  
ENDBRANCH   4   6
BRANCH   4  12
HETATM   12  C   UNL     1      -9.649   8.339  70.879  1.00  0.00    -0.165 C  
HETATM   13  C   UNL     1     -10.812   9.001  71.700  1.00  0.00    -0.437 C  
HETATM   14  N   UNL     1     -11.746  10.241  69.741  1.00  0.00    -0.222 NA 
HETATM   15  C   UNL     1     -12.044   9.341  70.860  1.00  0.00    -0.233 C  
HETATM   16  C   UNL     1      -9.385   9.360  69.728  1.00  0.00    -0.217 C  
HETATM   17  C   UNL     1     -10.658   9.673  68.932  1.00  0.00    -0.217 C  
BRANCH  12  18
HETATM   18  C   UNL     1      -8.399   8.309  71.828  1.00  0.00    -0.148 C  
BRANCH  18  19
HETATM   19  O   UNL     1      -8.725   8.605  73.183  1.00  0.00    -0.371 OA 
HETATM   20  C   UNL     1      -8.028   7.768  74.097  1.00  0.00    -0.206 C  
ENDBRANCH  18  19
ENDBRANCH  12  18
BRANCH  14  21
HETATM   21  C   UNL     1     -11.493  11.624  70.180  1.00  0.00    -0.118 C  
BRANCH  21  22
HETATM   22  C   UNL     1     -12.113  12.689  69.255  1.00  0.00    -0.218 C  
BRANCH  22  23
HETATM   23  C   UNL     1     -11.163  13.076  68.165  1.00  0.00    -0.272 A  
HETATM   24  C   UNL     1      -9.796  13.238  68.245  1.00  0.00    -0.231 A  
HETATM   25  C   UNL     1      -9.237  13.617  66.993  1.00  0.00    -0.254 A  
HETATM   26  C   UNL     1     -10.189  13.729  66.005  1.00  0.00    -0.308 A  
HETATM   27  S   UNL     1     -11.754  13.382  66.585  1.00  0.00    -0.406 SA 
ENDBRANCH  22  23
ENDBRANCH  21  22
ENDBRANCH  14  21
ENDBRANCH   4  12
ENDBRANCH   2   3
TORSDOF 8
ENDMDL
MODEL       87
REMARK 921   NORMALIZED FREE ENERGY PREDICTED BY IDOCK:   -4.18 KCAL/MOL
REMARK 922        TOTAL FREE ENERGY PREDICTED BY IDOCK:   -6.64 KCAL/MOL
REMARK 923 INTER-LIGAND FREE ENERGY PREDICTED BY IDOCK:   -7.20 KCAL/MOL
REMARK 924 INTRA-LIGAND FREE ENERGY PREDICTED BY IDOCK:    0.56 KCAL/MOL
REMARK 927      BINDING AFFINITY PREDICTED BY RF-SCORE:    0.00 PKD
ROOT
HETATM    1  C   UNL     1     -10.217  11.060  64.929  1.00  0.00    -0.373 C  
HETATM    2  C   UNL     1      -9.315  10.723  66.104  1.00  0.00    -0.209 C  
ENDROOT
BRANCH   2   3
HETATM    3  C   UNL     1      -9.521   9.335  66.687  1.00  0.00    -0.191 C  
HETATM    4  N   UNL     1      -9.357   9.165  68.077  1.00  0.00    -0.137 N  
HETATM    5  O   UNL     1      -9.758   8.397  65.918  1.00  0.00    -0.148 OA 
BRANCH   4   6
HETATM    6  C   UNL     1      -9.528   7.795  68.526  1.00  0.00    -0.148 A  
HETATM    7  C   UNL     1     -10.748   7.120  68.408  1.00  0.00    -0.192 A  
HETATM    8  C   UNL     1     -10.907   5.827  68.926  1.00  0.00    -0.305 A  
HETATM    9  C   UNL     1      -8.448   7.114  69.105  1.00  0.00    -0.133 A  
HETATM   10  C   UNL     1      -9.847   5.189  69.563  1.00  0.00    -0.278 A  
HETATM   11  C   UNL     1      -8.614   5.832  69.648  1.00  0.00    -0.116 A  
ENDBRANCH   4   6
BRANCH   4  12
HETATM   12  C   UNL     1      -9.363  10.278  69.160  1.00  0.00    -0.204 C  
HETATM   13  C   UNL     1      -9.940   9.820  70.546  1.00  0.00    -0.258 C  
HETATM   14  N   UNL     1     -12.250  10.649  70.073  1.00  0.00    -0.309 NA 
HETATM   15  C   UNL     1     -11.438   9.512  70.519  1.00  0.00    -0.276 C  
HETATM   16  C   UNL     1     -10.265  11.490  68.770  1.00  0.00    -0.204 C  
HETATM   17  C   UNL     1     -11.755  11.125  68.775  1.00  0.00    -0.326 C  
BRANCH  12  18
HETATM   18  C   UNL     1      -7.906  10.796  69.437  1.00  0.00    -0.087 C  
BRANCH  18  19
HETATM   19  O   UNL     1      -7.357  11.515  68.337  1.00  0.00    -0.084 OA 
HETATM   20  C   UNL     1      -6.287  12.364  68.733  1.00  0.00    -0.078 C  
ENDBRANCH  18  19
ENDBRANCH  12  18
BRANCH  14  21
HETATM   21  C   UNL     1     -12.346  11.709  71.092  1.00  0.00    -0.246 C  
BRANCH  21  22
HETATM   22  C   UNL     1     -12.493  13.123  70.501  1.00  0.00    -0.322 C  
BRANCH  22  23
HETATM   23  C   UNL     1     -12.499  14.161  71.579  1.00  0.00    -0.341 A  
HETATM   24  C   UNL     1     -13.206  14.155  72.762  1.00  0.00    -0.604 A  
HETATM   25  C   UNL     1     -12.955  15.325  73.532  1.00  0.00    -0.634 A  
HETATM   26  C   UNL     1     -12.068  16.178  72.916  1.00  0.00    -0.541 A  
HETATM   27  S   UNL     1     -11.542  15.573  71.412  1.00  0.00    -0.457 SA 
ENDBRANCH  22  23
ENDBRANCH  21  22
ENDBRANCH  14  21
ENDBRANCH   4  12
ENDBRANCH   2   3
TORSDOF 8
ENDMDL
MODEL       88
REMARK 921   NORMALIZED FREE ENERGY PREDICTED BY IDOCK:   -4.17 KCAL/MOL
REMARK 922        TOTAL FREE ENERGY PREDICTED BY IDOCK:   -6.63 KCAL/MOL
REMARK 923 INTER-LIGAND FREE ENERGY PREDICTED BY IDOCK:   -6.16 KCAL/MOL
REMARK 924 INTRA-LIGAND FREE ENERGY PREDICTED BY IDOCK:   -0.47 KCAL/MOL
REMARK 927      BINDING AFFINITY PREDICTED BY RF-SCORE:    0.00 PKD
ROOT
HETATM    1  C   UNL     1      -6.365  12.268  69.542  1.00  0.00    -0.121 C  
HETATM    2  C   UNL     1      -7.323  11.197  69.051  1.00  0.00    -0.120 C  
ENDROOT
BRANCH   2   3
HETATM    3  C   UNL     1      -8.079  11.553  67.781  1.00  0.00    -0.133 C  
HETATM    4  N   UNL     1      -9.255  10.834  67.483  1.00  0.00    -0.143 N  
HETATM    5  O   UNL     1      -7.604  12.408  67.027  1.00  0.00    -0.132 OA 
BRANCH   4   6
HETATM    6  C   UNL     1      -9.875  11.217  66.227  1.00  0.00    -0.214 A  
HETATM    7  C   UNL     1     -10.936  12.126  66.167  1.00  0.00    -0.335 A  
HETATM    8  C   UNL     1     -11.569  12.413  64.950  1.00  0.00    -0.392 A  
HETATM    9  C   UNL     1      -9.411  10.661  65.026  1.00  0.00    -0.259 A  
HETATM   10  C   UNL     1     -11.146  11.800  63.775  1.00  0.00    -0.513 A  
HETATM   11  C   UNL     1     -10.061  10.927  63.813  1.00  0.00    -0.413 A  
ENDBRANCH   4   6
BRANCH   4  12
HETATM   12  C   UNL     1     -10.100   9.978  68.464  1.00  0.00    -0.169 C  
HETATM   13  C   UNL     1      -9.262   8.946  69.300  1.00  0.00    -0.145 C  
HETATM   14  N   UNL     1      -9.671   7.050  67.724  1.00  0.00    -0.133 NA 
HETATM   15  C   UNL     1      -8.662   7.817  68.460  1.00  0.00    -0.128 C  
HETATM   16  C   UNL     1     -11.152   9.088  67.731  1.00  0.00     0.190 C  
HETATM   17  C   UNL     1     -10.493   7.965  66.921  1.00  0.00    -0.318 C  
BRANCH  12  18
HETATM   18  C   UNL     1     -10.842  10.890  69.505  1.00  0.00    -0.238 C  
BRANCH  18  19
HETATM   19  O   UNL     1     -12.258  10.744  69.458  1.00  0.00    -0.314 OA 
HETATM   20  C   UNL     1     -12.813  10.485  70.741  1.00  0.00    -0.367 C  
ENDBRANCH  18  19
ENDBRANCH  12  18
BRANCH  14  21
HETATM   21  C   UNL     1     -10.460   6.165  68.600  1.00  0.00    -0.236 C  
BRANCH  21  22
HETATM   22  C   UNL     1      -9.603   5.178  69.413  1.00  0.00    -0.225 C  
BRANCH  22  23
HETATM   23  C   UNL     1     -10.145   5.006  70.798  1.00  0.00    -0.237 A  
HETATM   24  C   UNL     1      -9.958   3.947  71.659  1.00  0.00    -0.223 A  
HETATM   25  C   UNL     1     -10.640   4.144  72.893  1.00  0.00    -0.245 A  
HETATM   26  C   UNL     1     -11.317   5.342  72.932  1.00  0.00    -0.303 A  
HETATM   27  S   UNL     1     -11.136   6.225  71.485  1.00  0.00    -0.290 SA 
ENDBRANCH  22  23
ENDBRANCH  21  22
ENDBRANCH  14  21
ENDBRANCH   4  12
ENDBRANCH   2   3
TORSDOF 8
ENDMDL
MODEL       89
REMARK 921   NORMALIZED FREE ENERGY PREDICTED BY IDOCK:   -4.13 KCAL/MOL
REMARK 922        TOTAL FREE ENERGY PREDICTED BY IDOCK:   -6.56 KCAL/MOL
REMARK 923 INTER-LIGAND FREE ENERGY PREDICTED BY IDOCK:   -6.78 KCAL/MOL
REMARK 924 INTRA-LIGAND FREE ENERGY PREDICTED BY IDOCK:    0.21 KCAL/MOL
REMARK 927      BINDING AFFINITY PREDICTED BY RF-SCORE:    0.00 PKD
ROOT
HETATM    1  C   UNL     1      -8.875   5.992  65.525  1.00  0.00    -0.083 C  
HETATM    2  C   UNL     1      -9.092   7.093  66.548  1.00  0.00    -0.182 C  
ENDROOT
BRANCH   2   3
HETATM    3  C   UNL     1      -9.782   6.648  67.827  1.00  0.00    -0.123 C  
HETATM    4  N   UNL     1      -9.563   7.400  68.999  1.00  0.00    -0.148 N  
HETATM    5  O   UNL     1     -10.453   5.611  67.808  1.00  0.00    -0.208 OA 
BRANCH   4   6
HETATM    6  C   UNL     1     -10.228   6.865  70.173  1.00  0.00    -0.192 A  
HETATM    7  C   UNL     1     -11.614   6.941  70.345  1.00  0.00    -0.385 A  
HETATM    8  C   UNL     1     -12.219   6.491  71.526  1.00  0.00    -0.328 A  
HETATM    9  C   UNL     1      -9.469   6.252  71.182  1.00  0.00    -0.183 A  
HETATM   10  C   UNL     1     -11.446   5.951  72.550  1.00  0.00    -0.347 A  
HETATM   11  C   UNL     1     -10.070   5.826  72.375  1.00  0.00    -0.207 A  
ENDBRANCH   4   6
BRANCH   4  12
HETATM   12  C   UNL     1      -9.011   8.848  69.089  1.00  0.00    -0.140 C  
HETATM   13  C   UNL     1      -9.690   9.725  70.201  1.00  0.00    -0.299 C  
HETATM   14  N   UNL     1     -11.357  10.748  68.645  1.00  0.00    -0.273 NA 
HETATM   15  C   UNL     1     -11.158  10.050  69.919  1.00  0.00    -0.288 C  
HETATM   16  C   UNL     1      -9.253   9.665  67.780  1.00  0.00    -0.135 C  
HETATM   17  C   UNL     1     -10.739   9.974  67.560  1.00  0.00    -0.281 C  
BRANCH  12  18
HETATM   18  C   UNL     1      -7.474   8.842  69.408  1.00  0.00    -0.077 C  
BRANCH  18  19
HETATM   19  O   UNL     1      -7.136   9.664  70.521  1.00  0.00    -0.115 OA 
HETATM   20  C   UNL     1      -6.186  10.664  70.180  1.00  0.00    -0.125 C  
ENDBRANCH  18  19
ENDBRANCH  12  18
BRANCH  14  21
HETATM   21  C   UNL     1     -10.912  12.152  68.694  1.00  0.00    -0.245 C  
BRANCH  21  22
HETATM   22  C   UNL     1     -11.986  13.157  68.238  1.00  0.00    -0.328 C  
BRANCH  22  23
HETATM   23  C   UNL     1     -11.787  13.547  66.807  1.00  0.00    -0.406 A  
HETATM   24  C   UNL     1     -12.285  12.929  65.680  1.00  0.00    -0.519 A  
HETATM   25  C   UNL     1     -11.874  13.593  64.490  1.00  0.00    -0.445 A  
HETATM   26  C   UNL     1     -11.083  14.690  64.747  1.00  0.00    -0.384 A  
HETATM   27  S   UNL     1     -10.833  14.918  66.418  1.00  0.00    -0.329 SA 
ENDBRANCH  22  23
ENDBRANCH  21  22
ENDBRANCH  14  21
ENDBRANCH   4  12
ENDBRANCH   2   3
TORSDOF 8
ENDMDL
MODEL       90
REMARK 921   NORMALIZED FREE ENERGY PREDICTED BY IDOCK:   -4.12 KCAL/MOL
REMARK 922        TOTAL FREE ENERGY PREDICTED BY IDOCK:   -6.55 KCAL/MOL
REMARK 923 INTER-LIGAND FREE ENERGY PREDICTED BY IDOCK:   -6.15 KCAL/MOL
REMARK 924 INTRA-LIGAND FREE ENERGY PREDICTED BY IDOCK:   -0.40 KCAL/MOL
REMARK 927      BINDING AFFINITY PREDICTED BY RF-SCORE:    0.00 PKD
ROOT
HETATM    1  C   UNL     1     -12.268  12.102  63.803  1.00  0.00    -0.630 C  
HETATM    2  C   UNL     1     -11.052  12.242  64.703  1.00  0.00    -0.358 C  
ENDROOT
BRANCH   2   3
HETATM    3  C   UNL     1     -11.287  13.046  65.971  1.00  0.00    -0.310 C  
HETATM    4  N   UNL     1     -10.602  12.660  67.141  1.00  0.00    -0.234 N  
HETATM    5  O   UNL     1     -12.115  13.963  65.947  1.00  0.00    -0.384 OA 
BRANCH   4   6
HETATM    6  C   UNL     1     -10.932  13.460  68.306  1.00  0.00    -0.259 A  
HETATM    7  C   UNL     1     -10.175  14.575  68.682  1.00  0.00    -0.243 A  
HETATM    8  C   UNL     1     -10.467  15.279  69.858  1.00  0.00    -0.277 A  
HETATM    9  C   UNL     1     -12.039  13.115  69.095  1.00  0.00    -0.261 A  
HETATM   10  C   UNL     1     -11.525  14.883  70.671  1.00  0.00    -0.313 A  
HETATM   11  C   UNL     1     -12.315  13.802  70.286  1.00  0.00    -0.407 A  
ENDBRANCH   4   6
BRANCH   4  12
HETATM   12  C   UNL     1      -9.345  11.752  67.231  1.00  0.00    -0.171 C  
HETATM   13  C   UNL     1      -9.446  10.433  66.385  1.00  0.00    -0.209 C  
HETATM   14  N   UNL     1     -10.250   9.042  68.300  1.00  0.00    -0.197 NA 
HETATM   15  C   UNL     1     -10.487   9.443  66.910  1.00  0.00    -0.211 C  
HETATM   16  C   UNL     1      -9.078  11.239  68.681  1.00  0.00    -0.153 C  
HETATM   17  C   UNL     1     -10.144  10.240  69.144  1.00  0.00    -0.218 C  
BRANCH  12  18
HETATM   18  C   UNL     1      -8.070  12.511  66.716  1.00  0.00     0.050 C  
BRANCH  18  19
HETATM   19  O   UNL     1      -6.958  12.383  67.596  1.00  0.00    -0.104 OA 
HETATM   20  C   UNL     1      -6.279  13.618  67.784  1.00  0.00    -0.152 C  
ENDBRANCH  18  19
ENDBRANCH  12  18
BRANCH  14  21
HETATM   21  C   UNL     1      -9.106   8.123  68.436  1.00  0.00    -0.136 C  
BRANCH  21  22
HETATM   22  C   UNL     1      -9.516   6.653  68.639  1.00  0.00    -0.128 C  
BRANCH  22  23
HETATM   23  C   UNL     1      -9.576   5.923  67.334  1.00  0.00    -0.113 A  
HETATM   24  C   UNL     1     -10.578   5.103  66.862  1.00  0.00    -0.234 A  
HETATM   25  C   UNL     1     -10.272   4.583  65.574  1.00  0.00    -0.251 A  
HETATM   26  C   UNL     1      -9.054   5.024  65.106  1.00  0.00    -0.123 A  
HETATM   27  S   UNL     1      -8.280   6.057  66.219  1.00  0.00    -0.123 SA 
ENDBRANCH  22  23
ENDBRANCH  21  22
ENDBRANCH  14  21
ENDBRANCH   4  12
ENDBRANCH   2   3
TORSDOF 8
ENDMDL
MODEL       91
REMARK 921   NORMALIZED FREE ENERGY PREDICTED BY IDOCK:   -4.11 KCAL/MOL
REMARK 922        TOTAL FREE ENERGY PREDICTED BY IDOCK:   -6.53 KCAL/MOL
REMARK 923 INTER-LIGAND FREE ENERGY PREDICTED BY IDOCK:   -6.81 KCAL/MOL
REMARK 924 INTRA-LIGAND FREE ENERGY PREDICTED BY IDOCK:    0.28 KCAL/MOL
REMARK 927      BINDING AFFINITY PREDICTED BY RF-SCORE:    0.00 PKD
ROOT
HETATM    1  C   UNL     1      -8.295  15.820  68.926  1.00  0.00    -0.213 C  
HETATM    2  C   UNL     1      -8.106  14.539  68.133  1.00  0.00    -0.137 C  
ENDROOT
BRANCH   2   3
HETATM    3  C   UNL     1      -9.195  14.255  67.112  1.00  0.00    -0.223 C  
HETATM    4  N   UNL     1      -9.325  12.939  66.624  1.00  0.00    -0.245 N  
HETATM    5  O   UNL     1      -9.880  15.196  66.698  1.00  0.00    -0.236 OA 
BRANCH   4   6
HETATM    6  C   UNL     1     -10.360  12.784  65.619  1.00  0.00    -0.279 A  
HETATM    7  C   UNL     1     -10.074  12.390  64.308  1.00  0.00    -0.305 A  
HETATM    8  C   UNL     1     -11.083  12.330  63.338  1.00  0.00    -0.487 A  
HETATM    9  C   UNL     1     -11.698  13.040  65.956  1.00  0.00    -0.442 A  
HETATM   10  C   UNL     1     -12.395  12.656  63.667  1.00  0.00    -0.584 A  
HETATM   11  C   UNL     1     -12.703  13.006  64.980  1.00  0.00    -0.475 A  
ENDBRANCH   4   6
BRANCH   4  12
HETATM   12  C   UNL     1      -8.753  11.645  67.266  1.00  0.00    -0.159 C  
HETATM   13  C   UNL     1      -9.442  10.325  66.769  1.00  0.00    -0.198 C  
HETATM   14  N   UNL     1     -11.058  10.227  68.673  1.00  0.00    -0.249 NA 
HETATM   15  C   UNL     1     -10.898  10.184  67.216  1.00  0.00    -0.230 C  
HETATM   16  C   UNL     1      -8.953  11.604  68.814  1.00  0.00    -0.016 C  
HETATM   17  C   UNL     1     -10.429  11.446  69.200  1.00  0.00    -0.127 C  
BRANCH  12  18
HETATM   18  C   UNL     1      -7.223  11.493  66.947  1.00  0.00    -0.137 C  
BRANCH  18  19
HETATM   19  O   UNL     1      -6.799  10.133  66.908  1.00  0.00    -0.081 OA 
HETATM   20  C   UNL     1      -5.522   9.988  66.300  1.00  0.00    -0.046 C  
ENDBRANCH  18  19
ENDBRANCH  12  18
BRANCH  14  21
HETATM   21  C   UNL     1     -10.593   8.993  69.330  1.00  0.00    -0.221 C  
BRANCH  21  22
HETATM   22  C   UNL     1     -10.558   9.087  70.867  1.00  0.00    -0.316 C  
BRANCH  22  23
HETATM   23  C   UNL     1     -10.575   7.726  71.491  1.00  0.00    -0.213 A  
HETATM   24  C   UNL     1     -10.614   6.501  70.860  1.00  0.00    -0.275 A  
HETATM   25  C   UNL     1     -10.624   5.428  71.795  1.00  0.00    -0.286 A  
HETATM   26  C   UNL     1     -10.590   5.867  73.099  1.00  0.00    -0.245 A  
HETATM   27  S   UNL     1     -10.550   7.568  73.198  1.00  0.00    -0.386 SA 
ENDBRANCH  22  23
ENDBRANCH  21  22
ENDBRANCH  14  21
ENDBRANCH   4  12
ENDBRANCH   2   3
TORSDOF 8
ENDMDL
MODEL       92
REMARK 921   NORMALIZED FREE ENERGY PREDICTED BY IDOCK:   -4.09 KCAL/MOL
REMARK 922        TOTAL FREE ENERGY PREDICTED BY IDOCK:   -6.51 KCAL/MOL
REMARK 923 INTER-LIGAND FREE ENERGY PREDICTED BY IDOCK:   -6.26 KCAL/MOL
REMARK 924 INTRA-LIGAND FREE ENERGY PREDICTED BY IDOCK:   -0.24 KCAL/MOL
REMARK 927      BINDING AFFINITY PREDICTED BY RF-SCORE:    0.00 PKD
ROOT
HETATM    1  C   UNL     1     -12.155  10.605  70.782  1.00  0.00    -0.474 C  
HETATM    2  C   UNL     1     -12.376  11.318  69.459  1.00  0.00    -0.243 C  
ENDROOT
BRANCH   2   3
HETATM    3  C   UNL     1     -11.823  12.732  69.399  1.00  0.00    -0.300 C  
HETATM    4  N   UNL     1     -10.969  13.068  68.328  1.00  0.00    -0.248 N  
HETATM    5  O   UNL     1     -12.085  13.513  70.320  1.00  0.00    -0.335 OA 
BRANCH   4   6
HETATM    6  C   UNL     1     -10.458  14.425  68.388  1.00  0.00    -0.246 A  
HETATM    7  C   UNL     1      -9.272  14.746  69.056  1.00  0.00    -0.145 A  
HETATM    8  C   UNL     1      -8.846  16.076  69.169  1.00  0.00    -0.245 A  
HETATM    9  C   UNL     1     -11.167  15.463  67.765  1.00  0.00    -0.321 A  
HETATM   10  C   UNL     1      -9.597  17.105  68.609  1.00  0.00    -0.281 A  
HETATM   11  C   UNL     1     -10.757  16.797  67.901  1.00  0.00    -0.347 A  
ENDBRANCH   4   6
BRANCH   4  12
HETATM   12  C   UNL     1     -10.811  12.304  66.985  1.00  0.00    -0.250 C  
HETATM   13  C   UNL     1     -10.755  10.743  67.139  1.00  0.00    -0.324 C  
HETATM   14  N   UNL     1      -8.258  10.645  67.174  1.00  0.00    -0.120 NA 
HETATM   15  C   UNL     1      -9.496  10.238  67.846  1.00  0.00    -0.141 C  
HETATM   16  C   UNL     1      -9.476  12.648  66.252  1.00  0.00    -0.207 C  
HETATM   17  C   UNL     1      -8.252  12.104  66.999  1.00  0.00    -0.164 C  
BRANCH  12  18
HETATM   18  C   UNL     1     -12.013  12.611  66.022  1.00  0.00    -0.417 C  
BRANCH  18  19
HETATM   19  O   UNL     1     -11.604  13.223  64.803  1.00  0.00    -0.312 OA 
HETATM   20  C   UNL     1     -12.221  14.489  64.606  1.00  0.00    -0.460 C  
ENDBRANCH  18  19
ENDBRANCH  12  18
BRANCH  14  21
HETATM   21  C   UNL     1      -8.022   9.901  65.924  1.00  0.00    -0.115 C  
BRANCH  21  22
HETATM   22  C   UNL     1      -6.900   8.852  66.033  1.00  0.00    -0.076 C  
BRANCH  22  23
HETATM   23  C   UNL     1      -7.370   7.508  65.569  1.00  0.00    -0.071 A  
HETATM   24  C   UNL     1      -6.808   6.695  64.609  1.00  0.00    -0.049 A  
HETATM   25  C   UNL     1      -7.547   5.491  64.440  1.00  0.00    -0.074 A  
HETATM   26  C   UNL     1      -8.639   5.424  65.274  1.00  0.00    -0.151 A  
HETATM   27  S   UNL     1      -8.778   6.812  66.255  1.00  0.00    -0.148 SA 
ENDBRANCH  22  23
ENDBRANCH  21  22
ENDBRANCH  14  21
ENDBRANCH   4  12
ENDBRANCH   2   3
TORSDOF 8
ENDMDL
MODEL       93
REMARK 921   NORMALIZED FREE ENERGY PREDICTED BY IDOCK:   -4.08 KCAL/MOL
REMARK 922        TOTAL FREE ENERGY PREDICTED BY IDOCK:   -6.49 KCAL/MOL
REMARK 923 INTER-LIGAND FREE ENERGY PREDICTED BY IDOCK:   -7.12 KCAL/MOL
REMARK 924 INTRA-LIGAND FREE ENERGY PREDICTED BY IDOCK:    0.63 KCAL/MOL
REMARK 927      BINDING AFFINITY PREDICTED BY RF-SCORE:    0.00 PKD
ROOT
HETATM    1  C   UNL     1     -13.360  13.120  71.868  1.00  0.00    -0.546 C  
HETATM    2  C   UNL     1     -12.541  13.468  70.637  1.00  0.00    -0.345 C  
ENDROOT
BRANCH   2   3
HETATM    3  C   UNL     1     -11.789  12.299  70.022  1.00  0.00    -0.296 C  
HETATM    4  N   UNL     1     -10.953  12.553  68.915  1.00  0.00    -0.240 N  
HETATM    5  O   UNL     1     -11.987  11.164  70.468  1.00  0.00    -0.336 OA 
BRANCH   4   6
HETATM    6  C   UNL     1     -10.319  11.366  68.372  1.00  0.00    -0.195 A  
HETATM    7  C   UNL     1     -10.974  10.516  67.474  1.00  0.00    -0.365 A  
HETATM    8  C   UNL     1     -10.369   9.332  67.032  1.00  0.00    -0.325 A  
HETATM    9  C   UNL     1      -9.009  11.041  68.755  1.00  0.00    -0.153 A  
HETATM   10  C   UNL     1      -9.096   8.985  67.476  1.00  0.00    -0.145 A  
HETATM   11  C   UNL     1      -8.414   9.844  68.334  1.00  0.00    -0.111 A  
ENDBRANCH   4   6
BRANCH   4  12
HETATM   12  C   UNL     1     -10.394  13.930  68.465  1.00  0.00    -0.244 C  
HETATM   13  C   UNL     1     -11.497  14.954  68.017  1.00  0.00    -0.355 C  
HETATM   14  N   UNL     1     -11.305  14.390  65.590  1.00  0.00    -0.323 NA 
HETATM   15  C   UNL     1     -12.216  14.560  66.726  1.00  0.00    -0.203 C  
HETATM   16  C   UNL     1      -9.466  13.821  67.214  1.00  0.00    -0.236 C  
HETATM   17  C   UNL     1     -10.245  13.439  65.950  1.00  0.00    -0.299 C  
BRANCH  12  18
HETATM   18  C   UNL     1      -9.599  14.619  69.630  1.00  0.00     0.266 C  
BRANCH  18  19
HETATM   19  O   UNL     1      -8.682  15.606  69.167  1.00  0.00    -0.217 OA 
HETATM   20  C   UNL     1      -7.364  15.383  69.650  1.00  0.00    -0.177 C  
ENDBRANCH  18  19
ENDBRANCH  12  18
BRANCH  14  21
HETATM   21  C   UNL     1     -10.796  15.674  65.076  1.00  0.00    -0.450 C  
BRANCH  21  22
HETATM   22  C   UNL     1      -9.430  16.076  65.662  1.00  0.00    -0.175 C  
BRANCH  22  23
HETATM   23  C   UNL     1      -9.474  17.458  66.234  1.00  0.00    -0.226 A  
HETATM   24  C   UNL     1     -10.580  18.246  66.473  1.00  0.00    -0.313 A  
HETATM   25  C   UNL     1     -10.219  19.508  67.022  1.00  0.00    -0.540 A  
HETATM   26  C   UNL     1      -8.858  19.640  67.186  1.00  0.00    -0.312 A  
HETATM   27  S   UNL     1      -8.017  18.247  66.675  1.00  0.00    -0.260 SA 
ENDBRANCH  22  23
ENDBRANCH  21  22
ENDBRANCH  14  21
ENDBRANCH   4  12
ENDBRANCH   2   3
TORSDOF 8
ENDMDL
MODEL       94
REMARK 921   NORMALIZED FREE ENERGY PREDICTED BY IDOCK:   -4.08 KCAL/MOL
REMARK 922        TOTAL FREE ENERGY PREDICTED BY IDOCK:   -6.49 KCAL/MOL
REMARK 923 INTER-LIGAND FREE ENERGY PREDICTED BY IDOCK:   -6.77 KCAL/MOL
REMARK 924 INTRA-LIGAND FREE ENERGY PREDICTED BY IDOCK:    0.27 KCAL/MOL
REMARK 927      BINDING AFFINITY PREDICTED BY RF-SCORE:    0.00 PKD
ROOT
HETATM    1  C   UNL     1      -5.741  11.201  66.169  1.00  0.00    -0.129 C  
HETATM    2  C   UNL     1      -6.632  11.419  67.380  1.00  0.00    -0.090 C  
ENDROOT
BRANCH   2   3
HETATM    3  C   UNL     1      -7.895  12.218  67.105  1.00  0.00    -0.149 C  
HETATM    4  N   UNL     1      -9.099  11.513  66.898  1.00  0.00    -0.174 N  
HETATM    5  O   UNL     1      -7.811  13.447  67.007  1.00  0.00    -0.074 OA 
BRANCH   4   6
HETATM    6  C   UNL     1     -10.234  12.364  66.597  1.00  0.00    -0.224 A  
HETATM    7  C   UNL     1     -10.811  13.205  67.555  1.00  0.00    -0.269 A  
HETATM    8  C   UNL     1     -11.959  13.953  67.259  1.00  0.00    -0.446 A  
HETATM    9  C   UNL     1     -10.789  12.352  65.308  1.00  0.00    -0.324 A  
HETATM   10  C   UNL     1     -12.542  13.877  65.997  1.00  0.00    -0.467 A  
HETATM   11  C   UNL     1     -11.952  13.079  65.019  1.00  0.00    -0.438 A  
ENDBRANCH   4   6
BRANCH   4  12
HETATM   12  C   UNL     1      -9.394  10.039  67.286  1.00  0.00    -0.148 C  
HETATM   13  C   UNL     1     -10.898   9.758  67.638  1.00  0.00    -0.301 C  
HETATM   14  N   UNL     1     -10.573  10.052  70.099  1.00  0.00    -0.282 NA 
HETATM   15  C   UNL     1     -11.366  10.437  68.927  1.00  0.00    -0.219 C  
HETATM   16  C   UNL     1      -8.626   9.590  68.569  1.00  0.00    -0.119 C  
HETATM   17  C   UNL     1      -9.149  10.291  69.828  1.00  0.00    -0.057 C  
BRANCH  12  18
HETATM   18  C   UNL     1      -9.027   9.067  66.108  1.00  0.00    -0.177 C  
BRANCH  18  19
HETATM   19  O   UNL     1      -9.531   9.507  64.850  1.00  0.00    -0.259 OA 
HETATM   20  C   UNL     1      -8.568   9.375  63.812  1.00  0.00    -0.211 C  
ENDBRANCH  18  19
ENDBRANCH  12  18
BRANCH  14  21
HETATM   21  C   UNL     1     -10.864   8.681  70.553  1.00  0.00    -0.228 C  
BRANCH  21  22
HETATM   22  C   UNL     1     -11.395   8.607  71.997  1.00  0.00    -0.432 C  
BRANCH  22  23
HETATM   23  C   UNL     1     -11.061   7.292  72.629  1.00  0.00    -0.313 A  
HETATM   24  C   UNL     1     -11.688   6.078  72.447  1.00  0.00    -0.322 A  
HETATM   25  C   UNL     1     -11.085   5.052  73.227  1.00  0.00    -0.406 A  
HETATM   26  C   UNL     1     -10.024   5.514  73.972  1.00  0.00    -0.207 A  
HETATM   27  S   UNL     1      -9.757   7.181  73.735  1.00  0.00    -0.302 SA 
ENDBRANCH  22  23
ENDBRANCH  21  22
ENDBRANCH  14  21
ENDBRANCH   4  12
ENDBRANCH   2   3
TORSDOF 8
ENDMDL
MODEL       95
REMARK 921   NORMALIZED FREE ENERGY PREDICTED BY IDOCK:   -4.05 KCAL/MOL
REMARK 922        TOTAL FREE ENERGY PREDICTED BY IDOCK:   -6.45 KCAL/MOL
REMARK 923 INTER-LIGAND FREE ENERGY PREDICTED BY IDOCK:   -6.17 KCAL/MOL
REMARK 924 INTRA-LIGAND FREE ENERGY PREDICTED BY IDOCK:   -0.28 KCAL/MOL
REMARK 927      BINDING AFFINITY PREDICTED BY RF-SCORE:    0.00 PKD
ROOT
HETATM    1  C   UNL     1      -8.724   5.100  73.934  1.00  0.00    -0.118 C  
HETATM    2  C   UNL     1      -9.012   6.165  72.891  1.00  0.00    -0.125 C  
ENDROOT
BRANCH   2   3
HETATM    3  C   UNL     1      -8.929   5.685  71.451  1.00  0.00    -0.140 C  
HETATM    4  N   UNL     1      -9.074   6.638  70.422  1.00  0.00    -0.152 N  
HETATM    5  O   UNL     1      -8.805   4.476  71.235  1.00  0.00    -0.116 OA 
BRANCH   4   6
HETATM    6  C   UNL     1      -9.027   6.072  69.087  1.00  0.00    -0.124 A  
HETATM    7  C   UNL     1     -10.168   5.579  68.446  1.00  0.00    -0.242 A  
HETATM    8  C   UNL     1     -10.079   4.962  67.191  1.00  0.00    -0.228 A  
HETATM    9  C   UNL     1      -7.803   6.003  68.404  1.00  0.00    -0.106 A  
HETATM   10  C   UNL     1      -8.847   4.836  66.555  1.00  0.00    -0.111 A  
HETATM   11  C   UNL     1      -7.709   5.362  67.161  1.00  0.00    -0.096 A  
ENDBRANCH   4   6
BRANCH   4  12
HETATM   12  C   UNL     1      -8.932   8.179  70.550  1.00  0.00    -0.145 C  
HETATM   13  C   UNL     1      -9.724   8.798  71.756  1.00  0.00    -0.380 C  
HETATM   14  N   UNL     1     -11.735   9.372  70.387  1.00  0.00    -0.200 NA 
HETATM   15  C   UNL     1     -11.243   8.715  71.602  1.00  0.00    -0.309 C  
HETATM   16  C   UNL     1      -9.499   8.939  69.310  1.00  0.00    -0.161 C  
HETATM   17  C   UNL     1     -11.026   8.834  69.218  1.00  0.00     0.014 C  
BRANCH  12  18
HETATM   18  C   UNL     1      -7.429   8.587  70.753  1.00  0.00    -0.072 C  
BRANCH  18  19
HETATM   19  O   UNL     1      -7.138   8.983  72.090  1.00  0.00    -0.320 OA 
HETATM   20  C   UNL     1      -5.847   8.558  72.507  1.00  0.00    -0.067 C  
ENDBRANCH  18  19
ENDBRANCH  12  18
BRANCH  14  21
HETATM   21  C   UNL     1     -11.686  10.842  70.480  1.00  0.00    -0.342 C  
BRANCH  21  22
HETATM   22  C   UNL     1     -12.738  11.436  71.435  1.00  0.00    -0.489 C  
BRANCH  22  23
HETATM   23  C   UNL     1     -12.850  12.919  71.260  1.00  0.00    -0.270 A  
HETATM   24  C   UNL     1     -12.094  13.739  70.450  1.00  0.00    -0.421 A  
HETATM   25  C   UNL     1     -12.496  15.100  70.559  1.00  0.00    -0.429 A  
HETATM   26  C   UNL     1     -13.539  15.271  71.440  1.00  0.00    -0.514 A  
HETATM   27  S   UNL     1     -14.031  13.796  72.139  1.00  0.00    -0.511 SA 
ENDBRANCH  22  23
ENDBRANCH  21  22
ENDBRANCH  14  21
ENDBRANCH   4  12
ENDBRANCH   2   3
TORSDOF 8
ENDMDL
MODEL       96
REMARK 921   NORMALIZED FREE ENERGY PREDICTED BY IDOCK:   -4.05 KCAL/MOL
REMARK 922        TOTAL FREE ENERGY PREDICTED BY IDOCK:   -6.45 KCAL/MOL
REMARK 923 INTER-LIGAND FREE ENERGY PREDICTED BY IDOCK:   -6.19 KCAL/MOL
REMARK 924 INTRA-LIGAND FREE ENERGY PREDICTED BY IDOCK:   -0.26 KCAL/MOL
REMARK 927      BINDING AFFINITY PREDICTED BY RF-SCORE:    0.00 PKD
ROOT
HETATM    1  C   UNL     1      -8.040   4.939  74.205  1.00  0.00    -0.100 C  
HETATM    2  C   UNL     1      -8.340   5.901  73.070  1.00  0.00    -0.117 C  
ENDROOT
BRANCH   2   3
HETATM    3  C   UNL     1      -9.749   6.473  73.076  1.00  0.00    -0.155 C  
HETATM    4  N   UNL     1     -10.344   6.790  71.838  1.00  0.00    -0.197 N  
HETATM    5  O   UNL     1     -10.293   6.699  74.161  1.00  0.00    -0.356 OA 
BRANCH   4   6
HETATM    6  C   UNL     1     -11.668   7.373  71.955  1.00  0.00    -0.288 A  
HETATM    7  C   UNL     1     -12.832   6.601  71.883  1.00  0.00    -0.209 A  
HETATM    8  C   UNL     1     -14.097   7.201  71.915  1.00  0.00    -0.379 A  
HETATM    9  C   UNL     1     -11.803   8.758  72.140  1.00  0.00    -0.436 A  
HETATM   10  C   UNL     1     -14.217   8.583  72.027  1.00  0.00    -0.535 A  
HETATM   11  C   UNL     1     -13.068   9.362  72.145  1.00  0.00    -0.526 A  
ENDBRANCH   4   6
BRANCH   4  12
HETATM   12  C   UNL     1      -9.907   6.286  70.435  1.00  0.00    -0.176 C  
HETATM   13  C   UNL     1      -8.419   6.625  70.068  1.00  0.00    -0.139 C  
HETATM   14  N   UNL     1      -9.001   8.718  68.832  1.00  0.00    -0.134 NA 
HETATM   15  C   UNL     1      -8.158   8.119  69.871  1.00  0.00    -0.115 C  
HETATM   16  C   UNL     1     -10.729   6.940  69.280  1.00  0.00    -0.265 C  
HETATM   17  C   UNL     1     -10.413   8.432  69.121  1.00  0.00    -0.206 C  
BRANCH  12  18
HETATM   18  C   UNL     1     -10.043   4.725  70.336  1.00  0.00    -0.231 C  
BRANCH  18  19
HETATM   19  O   UNL     1      -8.802   4.078  70.069  1.00  0.00    -0.071 OA 
HETATM   20  C   UNL     1      -8.742   2.778  70.643  1.00  0.00    -0.072 C  
ENDBRANCH  18  19
ENDBRANCH  12  18
BRANCH  14  21
HETATM   21  C   UNL     1      -8.587   8.327  67.473  1.00  0.00    -0.129 C  
BRANCH  21  22
HETATM   22  C   UNL     1      -9.353   9.063  66.358  1.00  0.00    -0.264 C  
BRANCH  22  23
HETATM   23  C   UNL     1      -9.440  10.530  66.641  1.00  0.00    -0.168 A  
HETATM   24  C   UNL     1     -10.561  11.333  66.635  1.00  0.00    -0.309 A  
HETATM   25  C   UNL     1     -10.243  12.684  66.949  1.00  0.00    -0.242 A  
HETATM   26  C   UNL     1      -8.899  12.865  67.185  1.00  0.00    -0.210 A  
HETATM   27  S   UNL     1      -8.021  11.413  67.024  1.00  0.00    -0.163 SA 
ENDBRANCH  22  23
ENDBRANCH  21  22
ENDBRANCH  14  21
ENDBRANCH   4  12
ENDBRANCH   2   3
TORSDOF 8
ENDMDL
MODEL       97
REMARK 921   NORMALIZED FREE ENERGY PREDICTED BY IDOCK:   -4.05 KCAL/MOL
REMARK 922        TOTAL FREE ENERGY PREDICTED BY IDOCK:   -6.45 KCAL/MOL
REMARK 923 INTER-LIGAND FREE ENERGY PREDICTED BY IDOCK:   -6.13 KCAL/MOL
REMARK 924 INTRA-LIGAND FREE ENERGY PREDICTED BY IDOCK:   -0.31 KCAL/MOL
REMARK 927      BINDING AFFINITY PREDICTED BY RF-SCORE:    0.00 PKD
ROOT
HETATM    1  C   UNL     1     -14.061   8.195  71.616  1.00  0.00    -0.504 C  
HETATM    2  C   UNL     1     -12.634   8.230  72.135  1.00  0.00    -0.379 C  
ENDROOT
BRANCH   2   3
HETATM    3  C   UNL     1     -11.852   6.942  71.934  1.00  0.00    -0.315 C  
HETATM    4  N   UNL     1     -10.560   7.027  71.377  1.00  0.00    -0.217 N  
HETATM    5  O   UNL     1     -12.400   5.867  72.202  1.00  0.00    -0.182 OA 
BRANCH   4   6
HETATM    6  C   UNL     1      -9.918   5.740  71.182  1.00  0.00    -0.192 A  
HETATM    7  C   UNL     1      -8.943   5.253  72.059  1.00  0.00    -0.144 A  
HETATM    8  C   UNL     1      -8.280   4.046  71.800  1.00  0.00    -0.090 A  
HETATM    9  C   UNL     1     -10.271   4.948  70.079  1.00  0.00    -0.313 A  
HETATM   10  C   UNL     1      -8.589   3.304  70.664  1.00  0.00    -0.116 A  
HETATM   11  C   UNL     1      -9.590   3.754  69.805  1.00  0.00    -0.253 A  
ENDBRANCH   4   6
BRANCH   4  12
HETATM   12  C   UNL     1      -9.665   8.293  71.286  1.00  0.00    -0.176 C  
HETATM   13  C   UNL     1     -10.434   9.592  70.855  1.00  0.00    -0.382 C  
HETATM   14  N   UNL     1      -9.870   9.352  68.432  1.00  0.00    -0.156 NA 
HETATM   15  C   UNL     1     -10.941   9.558  69.412  1.00  0.00    -0.170 C  
HETATM   16  C   UNL     1      -8.542   8.157  70.209  1.00  0.00    -0.131 C  
HETATM   17  C   UNL     1      -9.109   8.146  68.784  1.00  0.00    -0.144 C  
BRANCH  12  18
HETATM   18  C   UNL     1      -9.002   8.610  72.673  1.00  0.00    -0.045 C  
BRANCH  18  19
HETATM   19  O   UNL     1      -7.579   8.603  72.622  1.00  0.00    -0.325 OA 
HETATM   20  C   UNL     1      -7.000   8.186  73.851  1.00  0.00    -0.131 C  
ENDBRANCH  18  19
ENDBRANCH  12  18
BRANCH  14  21
HETATM   21  C   UNL     1      -9.028  10.548  68.254  1.00  0.00    -0.139 C  
BRANCH  21  22
HETATM   22  C   UNL     1      -9.210  11.235  66.888  1.00  0.00    -0.184 C  
BRANCH  22  23
HETATM   23  C   UNL     1      -9.925  12.542  67.032  1.00  0.00    -0.214 A  
HETATM   24  C   UNL     1      -9.378  13.804  67.125  1.00  0.00    -0.240 A  
HETATM   25  C   UNL     1     -10.382  14.804  67.258  1.00  0.00    -0.247 A  
HETATM   26  C   UNL     1     -11.653  14.276  67.258  1.00  0.00    -0.377 A  
HETATM   27  S   UNL     1     -11.637  12.578  67.104  1.00  0.00    -0.366 SA 
ENDBRANCH  22  23
ENDBRANCH  21  22
ENDBRANCH  14  21
ENDBRANCH   4  12
ENDBRANCH   2   3
TORSDOF 8
ENDMDL
MODEL       98
REMARK 921   NORMALIZED FREE ENERGY PREDICTED BY IDOCK:   -4.05 KCAL/MOL
REMARK 922        TOTAL FREE ENERGY PREDICTED BY IDOCK:   -6.44 KCAL/MOL
REMARK 923 INTER-LIGAND FREE ENERGY PREDICTED BY IDOCK:   -6.03 KCAL/MOL
REMARK 924 INTRA-LIGAND FREE ENERGY PREDICTED BY IDOCK:   -0.42 KCAL/MOL
REMARK 927      BINDING AFFINITY PREDICTED BY RF-SCORE:    0.00 PKD
ROOT
HETATM    1  C   UNL     1     -11.597  12.982  69.265  1.00  0.00    -0.367 C  
HETATM    2  C   UNL     1     -11.790  11.549  68.799  1.00  0.00    -0.394 C  
ENDROOT
BRANCH   2   3
HETATM    3  C   UNL     1     -11.735  10.507  69.904  1.00  0.00    -0.294 C  
HETATM    4  N   UNL     1     -10.775   9.480  69.803  1.00  0.00    -0.229 N  
HETATM    5  O   UNL     1     -12.572  10.560  70.812  1.00  0.00    -0.331 OA 
BRANCH   4   6
HETATM    6  C   UNL     1     -10.837   8.510  70.882  1.00  0.00    -0.232 A  
HETATM    7  C   UNL     1     -11.683   7.397  70.837  1.00  0.00    -0.325 A  
HETATM    8  C   UNL     1     -11.783   6.525  71.928  1.00  0.00    -0.371 A  
HETATM    9  C   UNL     1     -10.033   8.684  72.018  1.00  0.00    -0.399 A  
HETATM   10  C   UNL     1     -11.033   6.748  73.078  1.00  0.00    -0.293 A  
HETATM   11  C   UNL     1     -10.152   7.827  73.121  1.00  0.00    -0.390 A  
ENDBRANCH   4   6
BRANCH   4  12
HETATM   12  C   UNL     1      -9.507   9.472  68.908  1.00  0.00    -0.155 C  
HETATM   13  C   UNL     1      -9.796   9.719  67.385  1.00  0.00    -0.219 C  
HETATM   14  N   UNL     1      -9.883   7.288  66.811  1.00  0.00    -0.210 NA 
HETATM   15  C   UNL     1     -10.566   8.582  66.711  1.00  0.00    -0.157 C  
HETATM   16  C   UNL     1      -8.771   8.095  68.922  1.00  0.00    -0.137 C  
HETATM   17  C   UNL     1      -9.582   7.000  68.219  1.00  0.00    -0.134 C  
BRANCH  12  18
HETATM   18  C   UNL     1      -8.500  10.591  69.354  1.00  0.00    -0.094 C  
BRANCH  18  19
HETATM   19  O   UNL     1      -7.920  11.285  68.253  1.00  0.00    -0.119 OA 
HETATM   20  C   UNL     1      -7.842  12.686  68.485  1.00  0.00    -0.104 C  
ENDBRANCH  18  19
ENDBRANCH  12  18
BRANCH  14  21
HETATM   21  C   UNL     1      -8.707   7.200  65.927  1.00  0.00    -0.130 C  
BRANCH  21  22
HETATM   22  C   UNL     1      -8.118   5.781  65.821  1.00  0.00    -0.116 C  
BRANCH  22  23
HETATM   23  C   UNL     1      -8.884   4.951  64.839  1.00  0.00    -0.152 A  
HETATM   24  C   UNL     1      -9.904   4.058  65.092  1.00  0.00    -0.203 A  
HETATM   25  C   UNL     1     -10.382   3.453  63.897  1.00  0.00    -0.231 A  
HETATM   26  C   UNL     1      -9.718   3.903  62.778  1.00  0.00    -0.138 A  
HETATM   27  S   UNL     1      -8.518   5.049  63.168  1.00  0.00    -0.101 SA 
ENDBRANCH  22  23
ENDBRANCH  21  22
ENDBRANCH  14  21
ENDBRANCH   4  12
ENDBRANCH   2   3
TORSDOF 8
ENDMDL
MODEL       99
REMARK 921   NORMALIZED FREE ENERGY PREDICTED BY IDOCK:   -4.04 KCAL/MOL
REMARK 922        TOTAL FREE ENERGY PREDICTED BY IDOCK:   -6.44 KCAL/MOL
REMARK 923 INTER-LIGAND FREE ENERGY PREDICTED BY IDOCK:   -6.44 KCAL/MOL
REMARK 924 INTRA-LIGAND FREE ENERGY PREDICTED BY IDOCK:    0.01 KCAL/MOL
REMARK 927      BINDING AFFINITY PREDICTED BY RF-SCORE:    0.00 PKD
ROOT
HETATM    1  C   UNL     1      -6.836   6.940  72.812  1.00  0.00    -0.070 C  
HETATM    2  C   UNL     1      -7.571   8.143  72.246  1.00  0.00    -0.147 C  
ENDROOT
BRANCH   2   3
HETATM    3  C   UNL     1      -9.082   8.097  72.401  1.00  0.00    -0.215 C  
HETATM    4  N   UNL     1      -9.877   8.334  71.261  1.00  0.00    -0.167 N  
HETATM    5  O   UNL     1      -9.558   7.919  73.527  1.00  0.00    -0.284 OA 
BRANCH   4   6
HETATM    6  C   UNL     1     -11.304   8.315  71.524  1.00  0.00    -0.268 A  
HETATM    7  C   UNL     1     -12.064   7.145  71.430  1.00  0.00    -0.381 A  
HETATM    8  C   UNL     1     -13.453   7.172  71.608  1.00  0.00    -0.397 A  
HETATM    9  C   UNL     1     -11.960   9.503  71.881  1.00  0.00    -0.381 A  
HETATM   10  C   UNL     1     -14.102   8.371  71.891  1.00  0.00    -0.516 A  
HETATM   11  C   UNL     1     -13.353   9.537  72.033  1.00  0.00    -0.535 A  
ENDBRANCH   4   6
BRANCH   4  12
HETATM   12  C   UNL     1      -9.423   8.266  69.777  1.00  0.00    -0.163 C  
HETATM   13  C   UNL     1      -8.182   9.168  69.444  1.00  0.00    -0.118 C  
HETATM   14  N   UNL     1      -9.559  11.098  68.650  1.00  0.00    -0.196 NA 
HETATM   15  C   UNL     1      -8.469  10.668  69.533  1.00  0.00     0.026 C  
HETATM   16  C   UNL     1     -10.522   8.774  68.790  1.00  0.00    -0.214 C  
HETATM   17  C   UNL     1     -10.753  10.285  68.914  1.00  0.00    -0.227 C  
BRANCH  12  18
HETATM   18  C   UNL     1      -9.023   6.800  69.381  1.00  0.00    -0.137 C  
BRANCH  18  19
HETATM   19  O   UNL     1     -10.135   6.019  68.954  1.00  0.00    -0.153 OA 
HETATM   20  C   UNL     1      -9.736   4.759  68.433  1.00  0.00    -0.146 C  
ENDBRANCH  18  19
ENDBRANCH  12  18
BRANCH  14  21
HETATM   21  C   UNL     1      -9.162  11.118  67.231  1.00  0.00    -0.160 C  
BRANCH  21  22
HETATM   22  C   UNL     1     -10.231  10.546  66.282  1.00  0.00    -0.296 C  
BRANCH  22  23
HETATM   23  C   UNL     1      -9.628  10.133  64.976  1.00  0.00    -0.299 A  
HETATM   24  C   UNL     1      -8.849   9.028  64.709  1.00  0.00    -0.165 A  
HETATM   25  C   UNL     1      -8.457   8.977  63.342  1.00  0.00    -0.176 A  
HETATM   26  C   UNL     1      -8.949  10.037  62.615  1.00  0.00    -0.269 A  
HETATM   27  S   UNL     1      -9.878  11.094  63.578  1.00  0.00    -0.390 SA 
ENDBRANCH  22  23
ENDBRANCH  21  22
ENDBRANCH  14  21
ENDBRANCH   4  12
ENDBRANCH   2   3
TORSDOF 8
ENDMDL
MODEL      100
REMARK 921   NORMALIZED FREE ENERGY PREDICTED BY IDOCK:   -4.04 KCAL/MOL
REMARK 922        TOTAL FREE ENERGY PREDICTED BY IDOCK:   -6.43 KCAL/MOL
REMARK 923 INTER-LIGAND FREE ENERGY PREDICTED BY IDOCK:   -7.54 KCAL/MOL
REMARK 924 INTRA-LIGAND FREE ENERGY PREDICTED BY IDOCK:    1.10 KCAL/MOL
REMARK 927      BINDING AFFINITY PREDICTED BY RF-SCORE:    0.00 PKD
ROOT
HETATM    1  C   UNL     1     -12.594  13.007  70.850  1.00  0.00    -0.364 C  
HETATM    2  C   UNL     1     -11.908  11.867  70.119  1.00  0.00    -0.390 C  
ENDROOT
BRANCH   2   3
HETATM    3  C   UNL     1     -11.865  10.554  70.884  1.00  0.00    -0.355 C  
HETATM    4  N   UNL     1     -10.961   9.562  70.454  1.00  0.00    -0.257 N  
HETATM    5  O   UNL     1     -12.666  10.379  71.807  1.00  0.00    -0.416 OA 
BRANCH   4   6
HETATM    6  C   UNL     1     -11.032   8.331  71.219  1.00  0.00    -0.243 A  
HETATM    7  C   UNL     1     -10.480   8.216  72.499  1.00  0.00    -0.409 A  
HETATM    8  C   UNL     1     -10.490   6.991  73.180  1.00  0.00    -0.335 A  
HETATM    9  C   UNL     1     -11.665   7.206  70.669  1.00  0.00    -0.348 A  
HETATM   10  C   UNL     1     -11.058   5.865  72.593  1.00  0.00    -0.322 A  
HETATM   11  C   UNL     1     -11.652   5.974  71.338  1.00  0.00    -0.211 A  
ENDBRANCH   4   6
BRANCH   4  12
HETATM   12  C   UNL     1      -9.726   9.760  69.533  1.00  0.00    -0.212 C  
HETATM   13  C   UNL     1      -9.749  11.096  68.709  1.00  0.00    -0.194 C  
HETATM   14  N   UNL     1     -10.754  10.047  66.675  1.00  0.00    -0.114 NA 
HETATM   15  C   UNL     1     -10.846  11.144  67.644  1.00  0.00    -0.247 C  
HETATM   16  C   UNL     1      -9.611   8.655  68.436  1.00  0.00    -0.157 C  
HETATM   17  C   UNL     1     -10.726   8.763  67.390  1.00  0.00    -0.146 C  
BRANCH  12  18
HETATM   18  C   UNL     1      -8.400   9.782  70.374  1.00  0.00    -0.065 C  
BRANCH  18  19
HETATM   19  O   UNL     1      -7.441  10.707  69.870  1.00  0.00    -0.133 OA 
HETATM   20  C   UNL     1      -6.194  10.607  70.546  1.00  0.00    -0.096 C  
ENDBRANCH  18  19
ENDBRANCH  12  18
BRANCH  14  21
HETATM   21  C   UNL     1      -9.637  10.219  65.730  1.00  0.00    -0.224 C  
BRANCH  21  22
HETATM   22  C   UNL     1     -10.088  10.470  64.279  1.00  0.00    -0.380 C  
BRANCH  22  23
HETATM   23  C   UNL     1     -10.846  11.756  64.164  1.00  0.00    -0.360 A  
HETATM   24  C   UNL     1     -12.045  11.982  63.524  1.00  0.00    -0.628 A  
HETATM   25  C   UNL     1     -12.449  13.342  63.627  1.00  0.00    -0.316 A  
HETATM   26  C   UNL     1     -11.550  14.104  64.339  1.00  0.00    -0.362 A  
HETATM   27  S   UNL     1     -10.221  13.183  64.880  1.00  0.00    -0.250 SA 
ENDBRANCH  22  23
ENDBRANCH  21  22
ENDBRANCH  14  21
ENDBRANCH   4  12
ENDBRANCH   2   3
TORSDOF 8
ENDMDL
MODEL      101
REMARK 921   NORMALIZED FREE ENERGY PREDICTED BY IDOCK:   -4.04 KCAL/MOL
REMARK 922        TOTAL FREE ENERGY PREDICTED BY IDOCK:   -6.43 KCAL/MOL
REMARK 923 INTER-LIGAND FREE ENERGY PREDICTED BY IDOCK:   -6.03 KCAL/MOL
REMARK 924 INTRA-LIGAND FREE ENERGY PREDICTED BY IDOCK:   -0.39 KCAL/MOL
REMARK 927      BINDING AFFINITY PREDICTED BY RF-SCORE:    0.00 PKD
ROOT
HETATM    1  C   UNL     1      -5.302   9.288  69.754  1.00  0.00    -0.033 C  
HETATM    2  C   UNL     1      -6.519   8.505  69.295  1.00  0.00    -0.042 C  
ENDROOT
BRANCH   2   3
HETATM    3  C   UNL     1      -7.252   7.762  70.400  1.00  0.00    -0.058 C  
HETATM    4  N   UNL     1      -8.661   7.722  70.355  1.00  0.00    -0.136 N  
HETATM    5  O   UNL     1      -6.595   7.279  71.327  1.00  0.00    -0.043 OA 
BRANCH   4   6
HETATM    6  C   UNL     1      -9.265   7.031  71.479  1.00  0.00    -0.153 A  
HETATM    7  C   UNL     1      -9.718   5.711  71.386  1.00  0.00    -0.204 A  
HETATM    8  C   UNL     1     -10.373   5.097  72.462  1.00  0.00    -0.254 A  
HETATM    9  C   UNL     1      -9.413   7.696  72.705  1.00  0.00    -0.243 A  
HETATM   10  C   UNL     1     -10.578   5.793  73.650  1.00  0.00    -0.302 A  
HETATM   11  C   UNL     1     -10.092   7.093  73.773  1.00  0.00    -0.391 A  
ENDBRANCH   4   6
BRANCH   4  12
HETATM   12  C   UNL     1      -9.564   8.012  69.126  1.00  0.00    -0.156 C  
HETATM   13  C   UNL     1      -9.123   9.263  68.287  1.00  0.00    -0.128 C  
HETATM   14  N   UNL     1     -10.678  10.833  69.455  1.00  0.00    -0.227 NA 
HETATM   15  C   UNL     1      -9.297  10.592  69.024  1.00  0.00    -0.196 C  
HETATM   16  C   UNL     1     -11.037   8.340  69.527  1.00  0.00     0.039 C  
HETATM   17  C   UNL     1     -11.150   9.690  70.247  1.00  0.00    -0.276 C  
BRANCH  12  18
HETATM   18  C   UNL     1      -9.567   6.793  68.135  1.00  0.00    -0.122 C  
BRANCH  18  19
HETATM   19  O   UNL     1     -10.823   6.609  67.488  1.00  0.00    -0.275 OA 
HETATM   20  C   UNL     1     -10.760   5.620  66.469  1.00  0.00    -0.226 C  
ENDBRANCH  18  19
ENDBRANCH  12  18
BRANCH  14  21
HETATM   21  C   UNL     1     -11.568  11.180  68.333  1.00  0.00    -0.306 C  
BRANCH  21  22
HETATM   22  C   UNL     1     -11.272  12.559  67.714  1.00  0.00    -0.318 C  
BRANCH  22  23
HETATM   23  C   UNL     1     -11.240  12.484  66.220  1.00  0.00    -0.315 A  
HETATM   24  C   UNL     1     -10.545  11.596  65.427  1.00  0.00    -0.331 A  
HETATM   25  C   UNL     1     -10.761  11.844  64.043  1.00  0.00    -0.428 A  
HETATM   26  C   UNL     1     -11.611  12.905  63.827  1.00  0.00    -0.475 A  
HETATM   27  S   UNL     1     -12.143  13.604  65.288  1.00  0.00    -0.434 SA 
ENDBRANCH  22  23
ENDBRANCH  21  22
ENDBRANCH  14  21
ENDBRANCH   4  12
ENDBRANCH   2   3
TORSDOF 8
ENDMDL
MODEL      102
REMARK 921   NORMALIZED FREE ENERGY PREDICTED BY IDOCK:   -4.04 KCAL/MOL
REMARK 922        TOTAL FREE ENERGY PREDICTED BY IDOCK:   -6.43 KCAL/MOL
REMARK 923 INTER-LIGAND FREE ENERGY PREDICTED BY IDOCK:   -6.60 KCAL/MOL
REMARK 924 INTRA-LIGAND FREE ENERGY PREDICTED BY IDOCK:    0.17 KCAL/MOL
REMARK 927      BINDING AFFINITY PREDICTED BY RF-SCORE:    0.00 PKD
ROOT
HETATM    1  C   UNL     1      -8.112   8.080  74.352  1.00  0.00    -0.300 C  
HETATM    2  C   UNL     1      -8.449   8.342  72.895  1.00  0.00    -0.260 C  
ENDROOT
BRANCH   2   3
HETATM    3  C   UNL     1      -8.239   7.154  71.969  1.00  0.00    -0.099 C  
HETATM    4  N   UNL     1      -9.258   6.842  71.046  1.00  0.00    -0.156 N  
HETATM    5  O   UNL     1      -7.220   6.470  72.104  1.00  0.00    -0.083 OA 
BRANCH   4   6
HETATM    6  C   UNL     1      -8.982   5.665  70.243  1.00  0.00    -0.139 A  
HETATM    7  C   UNL     1      -7.977   5.644  69.271  1.00  0.00    -0.096 A  
HETATM    8  C   UNL     1      -7.788   4.521  68.454  1.00  0.00    -0.079 A  
HETATM    9  C   UNL     1      -9.744   4.502  70.431  1.00  0.00    -0.287 A  
HETATM   10  C   UNL     1      -8.599   3.400  68.602  1.00  0.00    -0.123 A  
HETATM   11  C   UNL     1      -9.575   3.389  69.597  1.00  0.00    -0.160 A  
ENDBRANCH   4   6
BRANCH   4  12
HETATM   12  C   UNL     1     -10.411   7.771  70.578  1.00  0.00    -0.205 C  
HETATM   13  C   UNL     1     -10.889   7.508  69.106  1.00  0.00    -0.105 C  
HETATM   14  N   UNL     1      -9.428   9.277  68.114  1.00  0.00    -0.137 NA 
HETATM   15  C   UNL     1      -9.848   7.874  68.046  1.00  0.00    -0.165 C  
HETATM   16  C   UNL     1     -10.001   9.277  70.567  1.00  0.00    -0.307 C  
HETATM   17  C   UNL     1      -8.969   9.586  69.475  1.00  0.00    -0.181 C  
BRANCH  12  18
HETATM   18  C   UNL     1     -11.676   7.595  71.492  1.00  0.00    -0.281 C  
BRANCH  18  19
HETATM   19  O   UNL     1     -12.002   8.776  72.219  1.00  0.00    -0.365 OA 
HETATM   20  C   UNL     1     -13.406   8.988  72.294  1.00  0.00    -0.467 C  
ENDBRANCH  18  19
ENDBRANCH  12  18
BRANCH  14  21
HETATM   21  C   UNL     1     -10.461  10.202  67.617  1.00  0.00    -0.245 C  
BRANCH  21  22
HETATM   22  C   UNL     1     -10.256  10.627  66.151  1.00  0.00    -0.308 C  
BRANCH  22  23
HETATM   23  C   UNL     1     -11.087  11.827  65.816  1.00  0.00    -0.297 A  
HETATM   24  C   UNL     1     -11.779  12.651  66.677  1.00  0.00    -0.464 A  
HETATM   25  C   UNL     1     -12.459  13.688  65.981  1.00  0.00    -0.477 A  
HETATM   26  C   UNL     1     -12.263  13.624  64.620  1.00  0.00    -0.409 A  
HETATM   27  S   UNL     1     -11.265  12.313  64.182  1.00  0.00    -0.405 SA 
ENDBRANCH  22  23
ENDBRANCH  21  22
ENDBRANCH  14  21
ENDBRANCH   4  12
ENDBRANCH   2   3
TORSDOF 8
ENDMDL
MODEL      103
REMARK 921   NORMALIZED FREE ENERGY PREDICTED BY IDOCK:   -4.00 KCAL/MOL
REMARK 922        TOTAL FREE ENERGY PREDICTED BY IDOCK:   -6.38 KCAL/MOL
REMARK 923 INTER-LIGAND FREE ENERGY PREDICTED BY IDOCK:   -5.76 KCAL/MOL
REMARK 924 INTRA-LIGAND FREE ENERGY PREDICTED BY IDOCK:   -0.62 KCAL/MOL
REMARK 927      BINDING AFFINITY PREDICTED BY RF-SCORE:    0.00 PKD
ROOT
HETATM    1  C   UNL     1      -8.543   6.823  66.112  1.00  0.00    -0.146 C  
HETATM    2  C   UNL     1      -9.842   7.207  66.798  1.00  0.00    -0.272 C  
ENDROOT
BRANCH   2   3
HETATM    3  C   UNL     1     -10.060   8.703  66.956  1.00  0.00    -0.272 C  
HETATM    4  N   UNL     1     -10.048   9.244  68.258  1.00  0.00    -0.177 N  
HETATM    5  O   UNL     1     -10.306   9.376  65.950  1.00  0.00    -0.191 OA 
BRANCH   4   6
HETATM    6  C   UNL     1     -10.313  10.670  68.304  1.00  0.00    -0.177 A  
HETATM    7  C   UNL     1     -11.612  11.185  68.372  1.00  0.00    -0.376 A  
HETATM    8  C   UNL     1     -11.842  12.567  68.331  1.00  0.00    -0.353 A  
HETATM    9  C   UNL     1      -9.244  11.577  68.272  1.00  0.00    -0.186 A  
HETATM   10  C   UNL     1     -10.776  13.454  68.227  1.00  0.00    -0.273 A  
HETATM   11  C   UNL     1      -9.474  12.958  68.203  1.00  0.00    -0.218 A  
ENDBRANCH   4   6
BRANCH   4  12
HETATM   12  C   UNL     1      -9.465   8.585  69.537  1.00  0.00    -0.165 C  
HETATM   13  C   UNL     1      -9.953   7.112  69.778  1.00  0.00    -0.180 C  
HETATM   14  N   UNL     1     -11.820   7.779  71.302  1.00  0.00    -0.291 NA 
HETATM   15  C   UNL     1     -11.442   7.004  70.116  1.00  0.00    -0.256 C  
HETATM   16  C   UNL     1      -9.889   9.330  70.842  1.00  0.00    -0.363 C  
HETATM   17  C   UNL     1     -11.386   9.172  71.136  1.00  0.00    -0.322 C  
BRANCH  12  18
HETATM   18  C   UNL     1      -7.898   8.526  69.471  1.00  0.00    -0.097 C  
BRANCH  18  19
HETATM   19  O   UNL     1      -7.386   7.207  69.637  1.00  0.00    -0.080 OA 
HETATM   20  C   UNL     1      -6.445   7.127  70.699  1.00  0.00    -0.043 C  
ENDBRANCH  18  19
ENDBRANCH  12  18
BRANCH  14  21
HETATM   21  C   UNL     1     -11.350   7.160  72.555  1.00  0.00    -0.279 C  
BRANCH  21  22
HETATM   22  C   UNL     1     -11.816   5.704  72.738  1.00  0.00    -0.164 C  
BRANCH  22  23
HETATM   23  C   UNL     1     -10.672   4.813  73.107  1.00  0.00    -0.243 A  
HETATM   24  C   UNL     1     -10.718   3.513  73.562  1.00  0.00    -0.307 A  
HETATM   25  C   UNL     1      -9.417   2.995  73.812  1.00  0.00    -0.113 A  
HETATM   26  C   UNL     1      -8.426   3.911  73.539  1.00  0.00    -0.088 A  
HETATM   27  S   UNL     1      -9.063   5.393  72.986  1.00  0.00    -0.127 SA 
ENDBRANCH  22  23
ENDBRANCH  21  22
ENDBRANCH  14  21
ENDBRANCH   4  12
ENDBRANCH   2   3
TORSDOF 8
ENDMDL
MODEL      104
REMARK 921   NORMALIZED FREE ENERGY PREDICTED BY IDOCK:   -3.96 KCAL/MOL
REMARK 922        TOTAL FREE ENERGY PREDICTED BY IDOCK:   -6.32 KCAL/MOL
REMARK 923 INTER-LIGAND FREE ENERGY PREDICTED BY IDOCK:   -6.31 KCAL/MOL
REMARK 924 INTRA-LIGAND FREE ENERGY PREDICTED BY IDOCK:   -0.01 KCAL/MOL
REMARK 927      BINDING AFFINITY PREDICTED BY RF-SCORE:    0.00 PKD
ROOT
HETATM    1  C   UNL     1     -13.515   9.374  72.090  1.00  0.00    -0.543 C  
HETATM    2  C   UNL     1     -12.814   8.129  71.574  1.00  0.00    -0.319 C  
ENDROOT
BRANCH   2   3
HETATM    3  C   UNL     1     -11.423   7.899  72.144  1.00  0.00    -0.324 C  
HETATM    4  N   UNL     1     -10.388   7.553  71.252  1.00  0.00    -0.193 N  
HETATM    5  O   UNL     1     -11.266   7.959  73.367  1.00  0.00    -0.275 OA 
BRANCH   4   6
HETATM    6  C   UNL     1      -9.112   7.309  71.900  1.00  0.00    -0.133 A  
HETATM    7  C   UNL     1      -8.402   8.322  72.553  1.00  0.00    -0.235 A  
HETATM    8  C   UNL     1      -7.134   8.076  73.097  1.00  0.00    -0.126 A  
HETATM    9  C   UNL     1      -8.555   6.022  71.874  1.00  0.00    -0.137 A  
HETATM   10  C   UNL     1      -6.561   6.812  73.001  1.00  0.00    -0.067 A  
HETATM   11  C   UNL     1      -7.275   5.782  72.393  1.00  0.00    -0.090 A  
ENDBRANCH   4   6
BRANCH   4  12
HETATM   12  C   UNL     1     -10.382   7.740  69.711  1.00  0.00    -0.221 C  
HETATM   13  C   UNL     1      -8.951   7.933  69.094  1.00  0.00    -0.145 C  
HETATM   14  N   UNL     1      -9.068  10.430  69.122  1.00  0.00    -0.186 NA 
HETATM   15  C   UNL     1      -8.281   9.250  69.492  1.00  0.00    -0.121 C  
HETATM   16  C   UNL     1     -11.152   9.020  69.258  1.00  0.00     0.037 C  
HETATM   17  C   UNL     1     -10.425  10.306  69.671  1.00  0.00    -0.253 C  
BRANCH  12  18
HETATM   18  C   UNL     1     -11.007   6.491  68.993  1.00  0.00    -0.321 C  
BRANCH  18  19
HETATM   19  O   UNL     1     -10.120   5.891  68.053  1.00  0.00    -0.138 OA 
HETATM   20  C   UNL     1     -10.765   5.601  66.819  1.00  0.00    -0.284 C  
ENDBRANCH  18  19
ENDBRANCH  12  18
BRANCH  14  21
HETATM   21  C   UNL     1      -9.042  10.696  67.673  1.00  0.00    -0.142 C  
BRANCH  21  22
HETATM   22  C   UNL     1      -9.797  11.974  67.265  1.00  0.00    -0.200 C  
BRANCH  22  23
HETATM   23  C   UNL     1     -10.377  11.843  65.891  1.00  0.00    -0.242 A  
HETATM   24  C   UNL     1      -9.895  11.108  64.830  1.00  0.00    -0.316 A  
HETATM   25  C   UNL     1     -10.722  11.238  63.680  1.00  0.00    -0.438 A  
HETATM   26  C   UNL     1     -11.804  12.060  63.901  1.00  0.00    -0.448 A  
HETATM   27  S   UNL     1     -11.820  12.678  65.490  1.00  0.00    -0.447 SA 
ENDBRANCH  22  23
ENDBRANCH  21  22
ENDBRANCH  14  21
ENDBRANCH   4  12
ENDBRANCH   2   3
TORSDOF 8
ENDMDL
MODEL      105
REMARK 921   NORMALIZED FREE ENERGY PREDICTED BY IDOCK:   -3.95 KCAL/MOL
REMARK 922        TOTAL FREE ENERGY PREDICTED BY IDOCK:   -6.31 KCAL/MOL
REMARK 923 INTER-LIGAND FREE ENERGY PREDICTED BY IDOCK:   -6.42 KCAL/MOL
REMARK 924 INTRA-LIGAND FREE ENERGY PREDICTED BY IDOCK:    0.12 KCAL/MOL
REMARK 927      BINDING AFFINITY PREDICTED BY RF-SCORE:    0.00 PKD
ROOT
HETATM    1  C   UNL     1      -6.755   6.873  74.338  1.00  0.00    -0.083 C  
HETATM    2  C   UNL     1      -7.860   5.905  73.955  1.00  0.00    -0.098 C  
ENDROOT
BRANCH   2   3
HETATM    3  C   UNL     1      -7.960   5.608  72.468  1.00  0.00    -0.103 C  
HETATM    4  N   UNL     1      -9.243   5.451  71.905  1.00  0.00    -0.138 N  
HETATM    5  O   UNL     1      -6.919   5.450  71.823  1.00  0.00    -0.066 OA 
BRANCH   4   6
HETATM    6  C   UNL     1      -9.228   5.123  70.491  1.00  0.00    -0.146 A  
HETATM    7  C   UNL     1      -9.610   3.865  70.014  1.00  0.00    -0.269 A  
HETATM    8  C   UNL     1      -9.505   3.550  68.653  1.00  0.00    -0.209 A  
HETATM    9  C   UNL     1      -8.813   6.086  69.559  1.00  0.00    -0.125 A  
HETATM   10  C   UNL     1      -9.024   4.491  67.748  1.00  0.00    -0.131 A  
HETATM   11  C   UNL     1      -8.683   5.763  68.202  1.00  0.00    -0.107 A  
ENDBRANCH   4   6
BRANCH   4  12
HETATM   12  C   UNL     1     -10.594   5.913  72.516  1.00  0.00    -0.218 C  
HETATM   13  C   UNL     1     -11.658   6.363  71.454  1.00  0.00    -0.368 C  
HETATM   14  N   UNL     1     -11.071   8.787  71.610  1.00  0.00    -0.301 NA 
HETATM   15  C   UNL     1     -11.285   7.647  70.713  1.00  0.00    -0.268 C  
HETATM   16  C   UNL     1     -10.439   7.167  73.434  1.00  0.00    -0.410 C  
HETATM   17  C   UNL     1     -10.081   8.426  72.634  1.00  0.00    -0.251 C  
BRANCH  12  18
HETATM   18  C   UNL     1     -11.257   4.756  73.345  1.00  0.00    -0.343 C  
BRANCH  18  19
HETATM   19  O   UNL     1     -10.416   3.614  73.472  1.00  0.00    -0.148 OA 
HETATM   20  C   UNL     1     -11.147   2.398  73.388  1.00  0.00    -0.188 C  
ENDBRANCH  18  19
ENDBRANCH  12  18
BRANCH  14  21
HETATM   21  C   UNL     1     -12.330   9.311  72.168  1.00  0.00    -0.328 C  
BRANCH  21  22
HETATM   22  C   UNL     1     -13.243   9.972  71.119  1.00  0.00    -0.441 C  
BRANCH  22  23
HETATM   23  C   UNL     1     -12.852  11.398  70.884  1.00  0.00    -0.232 A  
HETATM   24  C   UNL     1     -12.091  11.913  69.856  1.00  0.00    -0.344 A  
HETATM   25  C   UNL     1     -11.930  13.321  69.976  1.00  0.00    -0.399 A  
HETATM   26  C   UNL     1     -12.571  13.832  71.082  1.00  0.00    -0.373 A  
HETATM   27  S   UNL     1     -13.363  12.615  71.977  1.00  0.00    -0.337 SA 
ENDBRANCH  22  23
ENDBRANCH  21  22
ENDBRANCH  14  21
ENDBRANCH   4  12
ENDBRANCH   2   3
TORSDOF 8
ENDMDL
MODEL      106
REMARK 921   NORMALIZED FREE ENERGY PREDICTED BY IDOCK:   -3.94 KCAL/MOL
REMARK 922        TOTAL FREE ENERGY PREDICTED BY IDOCK:   -6.28 KCAL/MOL
REMARK 923 INTER-LIGAND FREE ENERGY PREDICTED BY IDOCK:   -5.89 KCAL/MOL
REMARK 924 INTRA-LIGAND FREE ENERGY PREDICTED BY IDOCK:   -0.39 KCAL/MOL
REMARK 927      BINDING AFFINITY PREDICTED BY RF-SCORE:    0.00 PKD
ROOT
HETATM    1  C   UNL     1     -11.900  14.684  69.288  1.00  0.00    -0.357 C  
HETATM    2  C   UNL     1     -11.479  13.894  68.061  1.00  0.00    -0.339 C  
ENDROOT
BRANCH   2   3
HETATM    3  C   UNL     1      -9.990  13.604  67.971  1.00  0.00    -0.247 C  
HETATM    4  N   UNL     1      -9.563  12.267  68.107  1.00  0.00    -0.209 N  
HETATM    5  O   UNL     1      -9.207  14.551  67.848  1.00  0.00    -0.187 OA 
BRANCH   4   6
HETATM    6  C   UNL     1      -8.122  12.103  68.053  1.00  0.00    -0.155 A  
HETATM    7  C   UNL     1      -7.459  11.713  66.885  1.00  0.00    -0.131 A  
HETATM    8  C   UNL     1      -6.077  11.481  66.885  1.00  0.00    -0.146 A  
HETATM    9  C   UNL     1      -7.353  12.332  69.205  1.00  0.00     0.091 A  
HETATM   10  C   UNL     1      -5.336  11.643  68.052  1.00  0.00    -0.045 A  
HETATM   11  C   UNL     1      -5.975  12.075  69.212  1.00  0.00    -0.081 A  
ENDBRANCH   4   6
BRANCH   4  12
HETATM   12  C   UNL     1     -10.433  10.990  67.961  1.00  0.00    -0.189 C  
HETATM   13  C   UNL     1     -11.743  11.004  68.826  1.00  0.00    -0.383 C  
HETATM   14  N   UNL     1     -10.721   9.759  70.738  1.00  0.00    -0.321 NA 
HETATM   15  C   UNL     1     -11.486  10.942  70.333  1.00  0.00    -0.275 C  
HETATM   16  C   UNL     1      -9.692   9.701  68.439  1.00  0.00    -0.163 C  
HETATM   17  C   UNL     1      -9.478   9.689  69.957  1.00  0.00    -0.240 C  
BRANCH  12  18
HETATM   18  C   UNL     1     -10.889  10.791  66.472  1.00  0.00    -0.130 C  
BRANCH  18  19
HETATM   19  O   UNL     1     -10.193   9.736  65.815  1.00  0.00    -0.264 OA 
HETATM   20  C   UNL     1      -9.778  10.102  64.506  1.00  0.00    -0.293 C  
ENDBRANCH  18  19
ENDBRANCH  12  18
BRANCH  14  21
HETATM   21  C   UNL     1     -11.521   8.522  70.684  1.00  0.00    -0.228 C  
BRANCH  21  22
HETATM   22  C   UNL     1     -10.677   7.236  70.752  1.00  0.00    -0.248 C  
BRANCH  22  23
HETATM   23  C   UNL     1     -10.549   6.748  72.161  1.00  0.00    -0.211 A  
HETATM   24  C   UNL     1     -10.124   7.449  73.269  1.00  0.00    -0.367 A  
HETATM   25  C   UNL     1     -10.133   6.640  74.440  1.00  0.00    -0.343 A  
HETATM   26  C   UNL     1     -10.566   5.358  74.188  1.00  0.00    -0.240 A  
HETATM   27  S   UNL     1     -10.955   5.128  72.545  1.00  0.00    -0.184 SA 
ENDBRANCH  22  23
ENDBRANCH  21  22
ENDBRANCH  14  21
ENDBRANCH   4  12
ENDBRANCH   2   3
TORSDOF 8
ENDMDL
MODEL      107
REMARK 921   NORMALIZED FREE ENERGY PREDICTED BY IDOCK:   -3.92 KCAL/MOL
REMARK 922        TOTAL FREE ENERGY PREDICTED BY IDOCK:   -6.25 KCAL/MOL
REMARK 923 INTER-LIGAND FREE ENERGY PREDICTED BY IDOCK:   -6.44 KCAL/MOL
REMARK 924 INTRA-LIGAND FREE ENERGY PREDICTED BY IDOCK:    0.19 KCAL/MOL
REMARK 927      BINDING AFFINITY PREDICTED BY RF-SCORE:    0.00 PKD
ROOT
HETATM    1  C   UNL     1      -8.482   6.492  65.700  1.00  0.00    -0.146 C  
HETATM    2  C   UNL     1      -8.112   7.591  66.680  1.00  0.00    -0.123 C  
ENDROOT
BRANCH   2   3
HETATM    3  C   UNL     1      -8.859   7.543  68.003  1.00  0.00    -0.127 C  
HETATM    4  N   UNL     1      -8.972   8.734  68.748  1.00  0.00    -0.138 N  
HETATM    5  O   UNL     1      -9.280   6.454  68.407  1.00  0.00    -0.122 OA 
BRANCH   4   6
HETATM    6  C   UNL     1      -9.660   8.571  70.016  1.00  0.00    -0.169 A  
HETATM    7  C   UNL     1      -9.025   8.791  71.242  1.00  0.00    -0.295 A  
HETATM    8  C   UNL     1      -9.690   8.545  72.451  1.00  0.00    -0.357 A  
HETATM    9  C   UNL     1     -11.006   8.174  70.029  1.00  0.00    -0.199 A  
HETATM   10  C   UNL     1     -11.002   8.082  72.451  1.00  0.00    -0.402 A  
HETATM   11  C   UNL     1     -11.662   7.902  71.237  1.00  0.00    -0.313 A  
ENDBRANCH   4   6
BRANCH   4  12
HETATM   12  C   UNL     1      -8.765  10.183  68.229  1.00  0.00    -0.120 C  
HETATM   13  C   UNL     1      -9.693  11.248  68.913  1.00  0.00    -0.141 C  
HETATM   14  N   UNL     1     -11.441  11.150  67.129  1.00  0.00    -0.473 NA 
HETATM   15  C   UNL     1     -11.175  11.085  68.570  1.00  0.00    -0.268 C  
HETATM   16  C   UNL     1      -9.097  10.329  66.710  1.00  0.00    -0.161 C  
HETATM   17  C   UNL     1     -10.596  10.173  66.430  1.00  0.00    -0.085 C  
BRANCH  12  18
HETATM   18  C   UNL     1      -7.289  10.659  68.475  1.00  0.00    -0.090 C  
BRANCH  18  19
HETATM   19  O   UNL     1      -7.118  11.300  69.736  1.00  0.00    -0.084 OA 
HETATM   20  C   UNL     1      -5.905  10.917  70.371  1.00  0.00    -0.128 C  
ENDBRANCH  18  19
ENDBRANCH  12  18
BRANCH  14  21
HETATM   21  C   UNL     1     -11.325  12.518  66.593  1.00  0.00    -0.334 C  
BRANCH  21  22
HETATM   22  C   UNL     1     -11.808  13.607  67.570  1.00  0.00    -0.416 C  
BRANCH  22  23
HETATM   23  C   UNL     1     -11.230  14.942  67.218  1.00  0.00    -0.345 A  
HETATM   24  C   UNL     1     -11.076  16.044  68.032  1.00  0.00    -0.334 A  
HETATM   25  C   UNL     1     -10.490  17.136  67.334  1.00  0.00    -0.334 A  
HETATM   26  C   UNL     1     -10.215  16.833  66.020  1.00  0.00    -0.346 A  
HETATM   27  S   UNL     1     -10.666  15.237  65.626  1.00  0.00    -0.388 SA 
ENDBRANCH  22  23
ENDBRANCH  21  22
ENDBRANCH  14  21
ENDBRANCH   4  12
ENDBRANCH   2   3
TORSDOF 8
ENDMDL
MODEL      108
REMARK 921   NORMALIZED FREE ENERGY PREDICTED BY IDOCK:   -3.91 KCAL/MOL
REMARK 922        TOTAL FREE ENERGY PREDICTED BY IDOCK:   -6.25 KCAL/MOL
REMARK 923 INTER-LIGAND FREE ENERGY PREDICTED BY IDOCK:   -6.21 KCAL/MOL
REMARK 924 INTRA-LIGAND FREE ENERGY PREDICTED BY IDOCK:   -0.04 KCAL/MOL
REMARK 927      BINDING AFFINITY PREDICTED BY RF-SCORE:    0.00 PKD
ROOT
HETATM    1  C   UNL     1      -7.243  14.479  69.005  1.00  0.00    -0.130 C  
HETATM    2  C   UNL     1      -7.527  13.184  68.264  1.00  0.00    -0.129 C  
ENDROOT
BRANCH   2   3
HETATM    3  C   UNL     1      -8.717  13.238  67.320  1.00  0.00    -0.214 C  
HETATM    4  N   UNL     1      -8.971  12.117  66.504  1.00  0.00    -0.203 N  
HETATM    5  O   UNL     1      -9.376  14.281  67.254  1.00  0.00    -0.199 OA 
BRANCH   4   6
HETATM    6  C   UNL     1     -10.099  12.287  65.606  1.00  0.00    -0.252 A  
HETATM    7  C   UNL     1     -11.384  12.586  66.072  1.00  0.00    -0.386 A  
HETATM    8  C   UNL     1     -12.469  12.662  65.189  1.00  0.00    -0.531 A  
HETATM    9  C   UNL     1      -9.913  12.145  64.223  1.00  0.00    -0.262 A  
HETATM   10  C   UNL     1     -12.284  12.448  63.826  1.00  0.00    -0.626 A  
HETATM   11  C   UNL     1     -11.003  12.194  63.342  1.00  0.00    -0.480 A  
ENDBRANCH   4   6
BRANCH   4  12
HETATM   12  C   UNL     1      -8.427  10.676  66.701  1.00  0.00    -0.137 C  
HETATM   13  C   UNL     1      -9.320   9.559  66.053  1.00  0.00    -0.273 C  
HETATM   14  N   UNL     1     -10.580   9.078  68.157  1.00  0.00    -0.203 NA 
HETATM   15  C   UNL     1     -10.682   9.390  66.728  1.00  0.00    -0.059 C  
HETATM   16  C   UNL     1      -8.357  10.262  68.205  1.00  0.00    -0.118 C  
HETATM   17  C   UNL     1      -9.750  10.092  68.822  1.00  0.00    -0.172 C  
BRANCH  12  18
HETATM   18  C   UNL     1      -6.999  10.526  66.065  1.00  0.00    -0.134 C  
BRANCH  18  19
HETATM   19  O   UNL     1      -7.034   9.972  64.753  1.00  0.00    -0.127 OA 
HETATM   20  C   UNL     1      -5.930  10.395  63.964  1.00  0.00    -0.103 C  
ENDBRANCH  18  19
ENDBRANCH  12  18
BRANCH  14  21
HETATM   21  C   UNL     1     -10.132   7.696  68.404  1.00  0.00    -0.186 C  
BRANCH  21  22
HETATM   22  C   UNL     1     -11.004   6.631  67.714  1.00  0.00    -0.367 C  
BRANCH  22  23
HETATM   23  C   UNL     1     -10.172   5.709  66.879  1.00  0.00    -0.227 A  
HETATM   24  C   UNL     1     -10.599   4.777  65.958  1.00  0.00    -0.300 A  
HETATM   25  C   UNL     1      -9.506   4.084  65.365  1.00  0.00    -0.172 A  
HETATM   26  C   UNL     1      -8.290   4.510  65.848  1.00  0.00    -0.114 A  
HETATM   27  S   UNL     1      -8.463   5.739  67.017  1.00  0.00    -0.106 SA 
ENDBRANCH  22  23
ENDBRANCH  21  22
ENDBRANCH  14  21
ENDBRANCH   4  12
ENDBRANCH   2   3
TORSDOF 8
ENDMDL
MODEL      109
REMARK 921   NORMALIZED FREE ENERGY PREDICTED BY IDOCK:   -3.90 KCAL/MOL
REMARK 922        TOTAL FREE ENERGY PREDICTED BY IDOCK:   -6.23 KCAL/MOL
REMARK 923 INTER-LIGAND FREE ENERGY PREDICTED BY IDOCK:   -7.62 KCAL/MOL
REMARK 924 INTRA-LIGAND FREE ENERGY PREDICTED BY IDOCK:    1.39 KCAL/MOL
REMARK 927      BINDING AFFINITY PREDICTED BY RF-SCORE:    0.00 PKD
ROOT
HETATM    1  C   UNL     1      -9.267  16.769  67.592  1.00  0.00    -0.223 C  
HETATM    2  C   UNL     1      -9.292  15.353  68.137  1.00  0.00    -0.197 C  
ENDROOT
BRANCH   2   3
HETATM    3  C   UNL     1     -10.319  15.110  69.231  1.00  0.00    -0.257 C  
HETATM    4  N   UNL     1     -11.398  14.245  68.952  1.00  0.00    -0.257 N  
HETATM    5  O   UNL     1     -10.209  15.726  70.296  1.00  0.00    -0.256 OA 
BRANCH   4   6
HETATM    6  C   UNL     1     -12.346  14.119  70.044  1.00  0.00    -0.344 A  
HETATM    7  C   UNL     1     -13.280  15.117  70.339  1.00  0.00    -0.169 A  
HETATM    8  C   UNL     1     -14.127  15.004  71.450  1.00  0.00    -0.576 A  
HETATM    9  C   UNL     1     -12.335  12.966  70.843  1.00  0.00    -0.365 A  
HETATM   10  C   UNL     1     -14.057  13.888  72.277  1.00  0.00    -0.632 A  
HETATM   11  C   UNL     1     -13.163  12.864  71.970  1.00  0.00    -0.549 A  
ENDBRANCH   4   6
BRANCH   4  12
HETATM   12  C   UNL     1     -11.486  13.203  67.805  1.00  0.00    -0.313 C  
HETATM   13  C   UNL     1     -12.022  11.798  68.255  1.00  0.00    -0.236 C  
HETATM   14  N   UNL     1      -9.745  10.825  68.595  1.00  0.00    -0.178 NA 
HETATM   15  C   UNL     1     -11.070  11.044  69.185  1.00  0.00    -0.243 C  
HETATM   16  C   UNL     1     -10.092  12.880  67.180  1.00  0.00    -0.243 C  
HETATM   17  C   UNL     1      -9.189  12.110  68.151  1.00  0.00    -0.197 C  
BRANCH  12  18
HETATM   18  C   UNL     1     -12.449  13.701  66.670  1.00  0.00    -0.240 C  
BRANCH  18  19
HETATM   19  O   UNL     1     -11.811  14.581  65.749  1.00  0.00    -0.362 OA 
HETATM   20  C   UNL     1     -12.215  14.337  64.407  1.00  0.00    -0.447 C  
ENDBRANCH  18  19
ENDBRANCH  12  18
BRANCH  14  21
HETATM   21  C   UNL     1      -9.757   9.793  67.544  1.00  0.00    -0.157 C  
BRANCH  21  22
HETATM   22  C   UNL     1      -8.874   8.573  67.866  1.00  0.00    -0.137 C  
BRANCH  22  23
HETATM   23  C   UNL     1      -9.551   7.660  68.840  1.00  0.00    -0.150 A  
HETATM   24  C   UNL     1     -10.884   7.314  68.899  1.00  0.00    -0.119 A  
HETATM   25  C   UNL     1     -11.150   6.422  69.974  1.00  0.00    -0.442 A  
HETATM   26  C   UNL     1     -10.018   6.115  70.695  1.00  0.00    -0.188 A  
HETATM   27  S   UNL     1      -8.638   6.905  70.080  1.00  0.00    -0.142 SA 
ENDBRANCH  22  23
ENDBRANCH  21  22
ENDBRANCH  14  21
ENDBRANCH   4  12
ENDBRANCH   2   3
TORSDOF 8
ENDMDL
MODEL      110
REMARK 921   NORMALIZED FREE ENERGY PREDICTED BY IDOCK:   -3.90 KCAL/MOL
REMARK 922        TOTAL FREE ENERGY PREDICTED BY IDOCK:   -6.22 KCAL/MOL
REMARK 923 INTER-LIGAND FREE ENERGY PREDICTED BY IDOCK:   -6.33 KCAL/MOL
REMARK 924 INTRA-LIGAND FREE ENERGY PREDICTED BY IDOCK:    0.11 KCAL/MOL
REMARK 927      BINDING AFFINITY PREDICTED BY RF-SCORE:    0.00 PKD
ROOT
HETATM    1  C   UNL     1      -8.080   5.205  69.855  1.00  0.00    -0.082 C  
HETATM    2  C   UNL     1      -8.262   6.712  69.897  1.00  0.00    -0.127 C  
ENDROOT
BRANCH   2   3
HETATM    3  C   UNL     1      -7.737   7.451  68.677  1.00  0.00    -0.120 C  
HETATM    4  N   UNL     1      -8.671   7.937  67.739  1.00  0.00    -0.127 N  
HETATM    5  O   UNL     1      -6.515   7.540  68.518  1.00  0.00    -0.042 OA 
BRANCH   4   6
HETATM    6  C   UNL     1      -8.066   8.584  66.590  1.00  0.00    -0.104 A  
HETATM    7  C   UNL     1      -7.314   9.758  66.704  1.00  0.00    -0.094 A  
HETATM    8  C   UNL     1      -6.813  10.406  65.568  1.00  0.00    -0.125 A  
HETATM    9  C   UNL     1      -8.238   8.031  65.312  1.00  0.00    -0.148 A  
HETATM   10  C   UNL     1      -7.051   9.885  64.299  1.00  0.00    -0.131 A  
HETATM   11  C   UNL     1      -7.760   8.693  64.172  1.00  0.00    -0.129 A  
ENDBRANCH   4   6
BRANCH   4  12
HETATM   12  C   UNL     1     -10.191   8.156  67.964  1.00  0.00    -0.212 C  
HETATM   13  C   UNL     1     -10.785   9.382  67.183  1.00  0.00    -0.234 C  
HETATM   14  N   UNL     1     -10.551  10.963  69.105  1.00  0.00    -0.212 NA 
HETATM   15  C   UNL     1     -10.277  10.735  67.683  1.00  0.00    -0.189 C  
HETATM   16  C   UNL     1     -10.539   8.468  69.454  1.00  0.00    -0.203 C  
HETATM   17  C   UNL     1     -10.018   9.842  69.892  1.00  0.00    -0.252 C  
BRANCH  12  18
HETATM   18  C   UNL     1     -11.011   6.899  67.503  1.00  0.00    -0.270 C  
BRANCH  18  19
HETATM   19  O   UNL     1     -10.186   5.772  67.225  1.00  0.00    -0.161 OA 
HETATM   20  C   UNL     1     -10.642   5.042  66.093  1.00  0.00    -0.265 C  
ENDBRANCH  18  19
ENDBRANCH  12  18
BRANCH  14  21
HETATM   21  C   UNL     1     -11.973  11.244  69.369  1.00  0.00    -0.341 C  
BRANCH  21  22
HETATM   22  C   UNL     1     -12.297  11.444  70.861  1.00  0.00    -0.483 C  
BRANCH  22  23
HETATM   23  C   UNL     1     -12.721  12.853  71.137  1.00  0.00    -0.276 A  
HETATM   24  C   UNL     1     -13.581  13.307  72.114  1.00  0.00    -0.655 A  
HETATM   25  C   UNL     1     -13.742  14.720  72.059  1.00  0.00    -0.527 A  
HETATM   26  C   UNL     1     -13.001  15.294  71.051  1.00  0.00    -0.462 A  
HETATM   27  S   UNL     1     -12.118  14.133  70.169  1.00  0.00    -0.364 SA 
ENDBRANCH  22  23
ENDBRANCH  21  22
ENDBRANCH  14  21
ENDBRANCH   4  12
ENDBRANCH   2   3
TORSDOF 8
ENDMDL
MODEL      111
REMARK 921   NORMALIZED FREE ENERGY PREDICTED BY IDOCK:   -3.89 KCAL/MOL
REMARK 922        TOTAL FREE ENERGY PREDICTED BY IDOCK:   -6.21 KCAL/MOL
REMARK 923 INTER-LIGAND FREE ENERGY PREDICTED BY IDOCK:   -6.28 KCAL/MOL
REMARK 924 INTRA-LIGAND FREE ENERGY PREDICTED BY IDOCK:    0.07 KCAL/MOL
REMARK 927      BINDING AFFINITY PREDICTED BY RF-SCORE:    0.00 PKD
ROOT
HETATM    1  C   UNL     1     -12.890  13.933  65.341  1.00  0.00    -0.466 C  
HETATM    2  C   UNL     1     -11.725  12.958  65.333  1.00  0.00    -0.413 C  
ENDROOT
BRANCH   2   3
HETATM    3  C   UNL     1     -10.459  13.474  65.997  1.00  0.00    -0.299 C  
HETATM    4  N   UNL     1     -10.184  13.062  67.317  1.00  0.00    -0.237 N  
HETATM    5  O   UNL     1      -9.755  14.283  65.384  1.00  0.00    -0.252 OA 
BRANCH   4   6
HETATM    6  C   UNL     1      -8.979  13.647  67.875  1.00  0.00    -0.195 A  
HETATM    7  C   UNL     1      -7.700  13.213  67.509  1.00  0.00    -0.168 A  
HETATM    8  C   UNL     1      -6.557  13.739  68.126  1.00  0.00    -0.126 A  
HETATM    9  C   UNL     1      -9.081  14.679  68.820  1.00  0.00    -0.178 A  
HETATM   10  C   UNL     1      -6.676  14.711  69.114  1.00  0.00    -0.117 A  
HETATM   11  C   UNL     1      -7.940  15.186  69.457  1.00  0.00    -0.175 A  
ENDBRANCH   4   6
BRANCH   4  12
HETATM   12  C   UNL     1     -10.801  11.849  68.064  1.00  0.00    -0.216 C  
HETATM   13  C   UNL     1      -9.824  11.157  69.080  1.00  0.00    -0.132 C  
HETATM   14  N   UNL     1      -9.062   9.418  67.454  1.00  0.00    -0.127 NA 
HETATM   15  C   UNL     1      -8.645  10.446  68.413  1.00  0.00    -0.128 C  
HETATM   16  C   UNL     1     -11.206  10.692  67.098  1.00  0.00    -0.177 C  
HETATM   17  C   UNL     1      -9.983  10.008  66.474  1.00  0.00    -0.225 C  
BRANCH  12  18
HETATM   18  C   UNL     1     -12.063  12.286  68.891  1.00  0.00    -0.126 C  
BRANCH  18  19
HETATM   19  O   UNL     1     -11.728  12.836  70.162  1.00  0.00    -0.269 OA 
HETATM   20  C   UNL     1     -12.390  14.071  70.402  1.00  0.00    -0.359 C  
ENDBRANCH  18  19
ENDBRANCH  12  18
BRANCH  14  21
HETATM   21  C   UNL     1      -9.594   8.213  68.113  1.00  0.00    -0.149 C  
BRANCH  21  22
HETATM   22  C   UNL     1      -9.017   7.971  69.520  1.00  0.00    -0.148 C  
BRANCH  22  23
HETATM   23  C   UNL     1     -10.107   7.725  70.515  1.00  0.00    -0.192 A  
HETATM   24  C   UNL     1     -11.276   7.016  70.339  1.00  0.00    -0.339 A  
HETATM   25  C   UNL     1     -12.070   7.006  71.520  1.00  0.00    -0.392 A  
HETATM   26  C   UNL     1     -11.482   7.700  72.553  1.00  0.00    -0.352 A  
HETATM   27  S   UNL     1      -9.980   8.367  72.099  1.00  0.00    -0.324 SA 
ENDBRANCH  22  23
ENDBRANCH  21  22
ENDBRANCH  14  21
ENDBRANCH   4  12
ENDBRANCH   2   3
TORSDOF 8
ENDMDL
MODEL      112
REMARK 921   NORMALIZED FREE ENERGY PREDICTED BY IDOCK:   -3.88 KCAL/MOL
REMARK 922        TOTAL FREE ENERGY PREDICTED BY IDOCK:   -6.20 KCAL/MOL
REMARK 923 INTER-LIGAND FREE ENERGY PREDICTED BY IDOCK:   -6.23 KCAL/MOL
REMARK 924 INTRA-LIGAND FREE ENERGY PREDICTED BY IDOCK:    0.03 KCAL/MOL
REMARK 927      BINDING AFFINITY PREDICTED BY RF-SCORE:    0.00 PKD
ROOT
HETATM    1  C   UNL     1     -12.703   9.667  71.889  1.00  0.00    -0.499 C  
HETATM    2  C   UNL     1     -11.438   9.737  71.052  1.00  0.00    -0.458 C  
ENDROOT
BRANCH   2   3
HETATM    3  C   UNL     1     -11.492  10.724  69.897  1.00  0.00    -0.321 C  
HETATM    4  N   UNL     1     -10.379  10.802  69.036  1.00  0.00    -0.207 N  
HETATM    5  O   UNL     1     -12.476  11.464  69.794  1.00  0.00    -0.209 OA 
BRANCH   4   6
HETATM    6  C   UNL     1     -10.511  11.807  67.996  1.00  0.00    -0.199 A  
HETATM    7  C   UNL     1     -11.480  11.718  66.992  1.00  0.00    -0.368 A  
HETATM    8  C   UNL     1     -11.530  12.657  65.954  1.00  0.00    -0.407 A  
HETATM    9  C   UNL     1      -9.640  12.907  67.979  1.00  0.00    -0.221 A  
HETATM   10  C   UNL     1     -10.614  13.705  65.909  1.00  0.00    -0.289 A  
HETATM   11  C   UNL     1      -9.672  13.832  66.927  1.00  0.00    -0.265 A  
ENDBRANCH   4   6
BRANCH   4  12
HETATM   12  C   UNL     1      -9.248   9.751  68.874  1.00  0.00    -0.155 C  
HETATM   13  C   UNL     1      -8.696   9.624  67.409  1.00  0.00    -0.130 C  
HETATM   14  N   UNL     1     -10.188   7.709  66.811  1.00  0.00    -0.276 NA 
HETATM   15  C   UNL     1      -9.704   9.037  66.420  1.00  0.00    -0.268 C  
HETATM   16  C   UNL     1      -9.722   8.303  69.214  1.00  0.00    -0.177 C  
HETATM   17  C   UNL     1     -10.717   7.764  68.180  1.00  0.00    -0.051 C  
BRANCH  12  18
HETATM   18  C   UNL     1      -8.017  10.110  69.780  1.00  0.00    -0.161 C  
BRANCH  18  19
HETATM   19  O   UNL     1      -8.000   9.380  71.004  1.00  0.00    -0.303 OA 
HETATM   20  C   UNL     1      -6.689   8.959  71.357  1.00  0.00    -0.085 C  
ENDBRANCH  18  19
ENDBRANCH  12  18
BRANCH  14  21
HETATM   21  C   UNL     1      -9.174   6.658  66.613  1.00  0.00    -0.157 C  
BRANCH  21  22
HETATM   22  C   UNL     1      -9.765   5.305  66.177  1.00  0.00    -0.179 C  
BRANCH  22  23
HETATM   23  C   UNL     1      -9.506   4.246  67.203  1.00  0.00    -0.181 A  
HETATM   24  C   UNL     1      -9.647   4.336  68.572  1.00  0.00    -0.202 A  
HETATM   25  C   UNL     1      -9.299   3.117  69.218  1.00  0.00    -0.223 A  
HETATM   26  C   UNL     1      -8.910   2.143  68.327  1.00  0.00    -0.111 A  
HETATM   27  S   UNL     1      -8.958   2.697  66.715  1.00  0.00    -0.127 SA 
ENDBRANCH  22  23
ENDBRANCH  21  22
ENDBRANCH  14  21
ENDBRANCH   4  12
ENDBRANCH   2   3
TORSDOF 8
ENDMDL
MODEL      113
REMARK 921   NORMALIZED FREE ENERGY PREDICTED BY IDOCK:   -3.87 KCAL/MOL
REMARK 922        TOTAL FREE ENERGY PREDICTED BY IDOCK:   -6.18 KCAL/MOL
REMARK 923 INTER-LIGAND FREE ENERGY PREDICTED BY IDOCK:   -6.40 KCAL/MOL
REMARK 924 INTRA-LIGAND FREE ENERGY PREDICTED BY IDOCK:    0.22 KCAL/MOL
REMARK 927      BINDING AFFINITY PREDICTED BY RF-SCORE:    0.00 PKD
ROOT
HETATM    1  C   UNL     1     -12.110  12.123  63.396  1.00  0.00    -0.608 C  
HETATM    2  C   UNL     1     -12.588  12.511  64.784  1.00  0.00    -0.493 C  
ENDROOT
BRANCH   2   3
HETATM    3  C   UNL     1     -11.961  13.778  65.342  1.00  0.00    -0.379 C  
HETATM    4  N   UNL     1     -10.995  13.651  66.362  1.00  0.00    -0.296 N  
HETATM    5  O   UNL     1     -12.364  14.871  64.931  1.00  0.00    -0.300 OA 
BRANCH   4   6
HETATM    6  C   UNL     1     -10.494  14.919  66.858  1.00  0.00    -0.280 A  
HETATM    7  C   UNL     1     -11.134  15.624  67.882  1.00  0.00    -0.324 A  
HETATM    8  C   UNL     1     -10.675  16.886  68.283  1.00  0.00    -0.377 A  
HETATM    9  C   UNL     1      -9.333  15.474  66.298  1.00  0.00    -0.355 A  
HETATM   10  C   UNL     1      -9.564  17.458  67.670  1.00  0.00    -0.261 A  
HETATM   11  C   UNL     1      -8.889  16.748  66.680  1.00  0.00    -0.286 A  
ENDBRANCH   4   6
BRANCH   4  12
HETATM   12  C   UNL     1     -10.200  12.372  66.739  1.00  0.00    -0.219 C  
HETATM   13  C   UNL     1     -11.101  11.117  67.019  1.00  0.00    -0.339 C  
HETATM   14  N   UNL     1     -11.164  11.477  69.492  1.00  0.00    -0.253 NA 
HETATM   15  C   UNL     1     -11.957  11.242  68.281  1.00  0.00    -0.145 C  
HETATM   16  C   UNL     1      -9.385  12.540  68.060  1.00  0.00    -0.205 C  
HETATM   17  C   UNL     1     -10.295  12.644  69.290  1.00  0.00     0.323 C  
BRANCH  12  18
HETATM   18  C   UNL     1      -9.218  11.962  65.584  1.00  0.00    -0.053 C  
BRANCH  18  19
HETATM   19  O   UNL     1      -9.112  10.551  65.423  1.00  0.00    -0.169 OA 
HETATM   20  C   UNL     1      -9.295  10.152  64.070  1.00  0.00    -0.287 C  
ENDBRANCH  18  19
ENDBRANCH  12  18
BRANCH  14  21
HETATM   21  C   UNL     1     -10.440  10.273  69.937  1.00  0.00    -0.256 C  
BRANCH  21  22
HETATM   22  C   UNL     1     -10.542   9.092  68.953  1.00  0.00    -0.214 C  
BRANCH  22  23
HETATM   23  C   UNL     1      -9.333   8.214  69.037  1.00  0.00    -0.147 A  
HETATM   24  C   UNL     1      -8.205   8.241  68.246  1.00  0.00    -0.128 A  
HETATM   25  C   UNL     1      -7.268   7.241  68.630  1.00  0.00    -0.090 A  
HETATM   26  C   UNL     1      -7.708   6.491  69.697  1.00  0.00    -0.103 A  
HETATM   27  S   UNL     1      -9.249   6.987  70.232  1.00  0.00    -0.155 SA 
ENDBRANCH  22  23
ENDBRANCH  21  22
ENDBRANCH  14  21
ENDBRANCH   4  12
ENDBRANCH   2   3
TORSDOF 8
ENDMDL
MODEL      114
REMARK 921   NORMALIZED FREE ENERGY PREDICTED BY IDOCK:   -3.83 KCAL/MOL
REMARK 922        TOTAL FREE ENERGY PREDICTED BY IDOCK:   -6.12 KCAL/MOL
REMARK 923 INTER-LIGAND FREE ENERGY PREDICTED BY IDOCK:   -5.71 KCAL/MOL
REMARK 924 INTRA-LIGAND FREE ENERGY PREDICTED BY IDOCK:   -0.41 KCAL/MOL
REMARK 927      BINDING AFFINITY PREDICTED BY RF-SCORE:    0.00 PKD
ROOT
HETATM    1  C   UNL     1     -13.579   8.887  72.269  1.00  0.00    -0.513 C  
HETATM    2  C   UNL     1     -12.124   8.458  72.350  1.00  0.00    -0.443 C  
ENDROOT
BRANCH   2   3
HETATM    3  C   UNL     1     -11.756   7.284  71.457  1.00  0.00    -0.289 C  
HETATM    4  N   UNL     1     -10.653   7.428  70.590  1.00  0.00    -0.220 N  
HETATM    5  O   UNL     1     -12.471   6.277  71.475  1.00  0.00    -0.142 OA 
BRANCH   4   6
HETATM    6  C   UNL     1     -10.414   6.271  69.747  1.00  0.00    -0.232 A  
HETATM    7  C   UNL     1      -9.639   5.187  70.171  1.00  0.00    -0.247 A  
HETATM    8  C   UNL     1      -9.356   4.121  69.306  1.00  0.00    -0.237 A  
HETATM    9  C   UNL     1     -10.967   6.225  68.458  1.00  0.00    -0.421 A  
HETATM   10  C   UNL     1      -9.851   4.122  68.005  1.00  0.00    -0.088 A  
HETATM   11  C   UNL     1     -10.662   5.173  67.583  1.00  0.00     0.052 A  
ENDBRANCH   4   6
BRANCH   4  12
HETATM   12  C   UNL     1      -9.522   8.487  70.686  1.00  0.00    -0.174 C  
HETATM   13  C   UNL     1     -10.037   9.966  70.798  1.00  0.00    -0.073 C  
HETATM   14  N   UNL     1      -9.870  10.411  68.344  1.00  0.00    -0.157 NA 
HETATM   15  C   UNL     1     -10.728  10.475  69.532  1.00  0.00    -0.255 C  
HETATM   16  C   UNL     1      -8.612   8.510  69.417  1.00  0.00    -0.128 C  
HETATM   17  C   UNL     1      -9.354   9.045  68.186  1.00  0.00    -0.142 C  
BRANCH  12  18
HETATM   18  C   UNL     1      -8.625   8.234  71.950  1.00  0.00    -0.168 C  
BRANCH  18  19
HETATM   19  O   UNL     1      -7.293   7.856  71.617  1.00  0.00    -0.063 OA 
HETATM   20  C   UNL     1      -6.329   8.531  72.414  1.00  0.00    -0.080 C  
ENDBRANCH  18  19
ENDBRANCH  12  18
BRANCH  14  21
HETATM   21  C   UNL     1      -8.817  11.442  68.350  1.00  0.00    -0.167 C  
BRANCH  21  22
HETATM   22  C   UNL     1      -9.055  12.574  67.334  1.00  0.00    -0.185 C  
BRANCH  22  23
HETATM   23  C   UNL     1      -9.628  12.042  66.057  1.00  0.00    -0.234 A  
HETATM   24  C   UNL     1      -9.011  11.248  65.114  1.00  0.00    -0.047 A  
HETATM   25  C   UNL     1      -9.880  10.949  64.027  1.00  0.00    -0.377 A  
HETATM   26  C   UNL     1     -11.124  11.519  64.178  1.00  0.00    -0.344 A  
HETATM   27  S   UNL     1     -11.243  12.416  65.623  1.00  0.00    -0.335 SA 
ENDBRANCH  22  23
ENDBRANCH  21  22
ENDBRANCH  14  21
ENDBRANCH   4  12
ENDBRANCH   2   3
TORSDOF 8
ENDMDL
MODEL      115
REMARK 921   NORMALIZED FREE ENERGY PREDICTED BY IDOCK:   -3.83 KCAL/MOL
REMARK 922        TOTAL FREE ENERGY PREDICTED BY IDOCK:   -6.12 KCAL/MOL
REMARK 923 INTER-LIGAND FREE ENERGY PREDICTED BY IDOCK:   -7.39 KCAL/MOL
REMARK 924 INTRA-LIGAND FREE ENERGY PREDICTED BY IDOCK:    1.27 KCAL/MOL
REMARK 927      BINDING AFFINITY PREDICTED BY RF-SCORE:    0.00 PKD
ROOT
HETATM    1  C   UNL     1      -9.926  17.420  67.314  1.00  0.00    -0.302 C  
HETATM    2  C   UNL     1      -9.638  16.050  67.904  1.00  0.00    -0.219 C  
ENDROOT
BRANCH   2   3
HETATM    3  C   UNL     1     -10.542  15.652  69.059  1.00  0.00    -0.234 C  
HETATM    4  N   UNL     1     -11.452  14.593  68.858  1.00  0.00    -0.281 N  
HETATM    5  O   UNL     1     -10.495  16.309  70.104  1.00  0.00    -0.227 OA 
BRANCH   4   6
HETATM    6  C   UNL     1     -12.300  14.323  70.004  1.00  0.00    -0.346 A  
HETATM    7  C   UNL     1     -12.111  13.207  70.826  1.00  0.00    -0.290 A  
HETATM    8  C   UNL     1     -12.997  12.926  71.875  1.00  0.00    -0.405 A  
HETATM    9  C   UNL     1     -13.355  15.197  70.308  1.00  0.00     0.049 A  
HETATM   10  C   UNL     1     -14.082  13.762  72.121  1.00  0.00    -0.604 A  
HETATM   11  C   UNL     1     -14.257  14.902  71.340  1.00  0.00    -0.558 A  
ENDBRANCH   4   6
BRANCH   4  12
HETATM   12  C   UNL     1     -11.402  13.520  67.738  1.00  0.00    -0.296 C  
HETATM   13  C   UNL     1     -11.777  12.073  68.219  1.00  0.00    -0.396 C  
HETATM   14  N   UNL     1      -9.407  11.382  68.609  1.00  0.00    -0.177 NA 
HETATM   15  C   UNL     1     -10.757  11.458  69.178  1.00  0.00    -0.189 C  
HETATM   16  C   UNL     1      -9.971  13.346  67.136  1.00  0.00    -0.242 C  
HETATM   17  C   UNL     1      -8.998  12.711  68.137  1.00  0.00    -0.199 C  
BRANCH  12  18
HETATM   18  C   UNL     1     -12.401  13.874  66.579  1.00  0.00    -0.404 C  
BRANCH  18  19
HETATM   19  O   UNL     1     -11.769  14.532  65.486  1.00  0.00    -0.347 OA 
HETATM   20  C   UNL     1     -12.236  14.054  64.231  1.00  0.00    -0.418 C  
ENDBRANCH  18  19
ENDBRANCH  12  18
BRANCH  14  21
HETATM   21  C   UNL     1      -9.284  10.330  67.585  1.00  0.00    -0.144 C  
BRANCH  21  22
HETATM   22  C   UNL     1      -8.005  10.441  66.734  1.00  0.00    -0.117 C  
BRANCH  22  23
HETATM   23  C   UNL     1      -8.283  10.127  65.298  1.00  0.00    -0.157 A  
HETATM   24  C   UNL     1      -9.312  10.592  64.508  1.00  0.00    -0.299 A  
HETATM   25  C   UNL     1      -9.246  10.062  63.189  1.00  0.00    -0.313 A  
HETATM   26  C   UNL     1      -8.172   9.218  63.016  1.00  0.00    -0.177 A  
HETATM   27  S   UNL     1      -7.249   9.060  64.441  1.00  0.00    -0.100 SA 
ENDBRANCH  22  23
ENDBRANCH  21  22
ENDBRANCH  14  21
ENDBRANCH   4  12
ENDBRANCH   2   3
TORSDOF 8
ENDMDL
MODEL      116
REMARK 921   NORMALIZED FREE ENERGY PREDICTED BY IDOCK:   -3.82 KCAL/MOL
REMARK 922        TOTAL FREE ENERGY PREDICTED BY IDOCK:   -6.11 KCAL/MOL
REMARK 923 INTER-LIGAND FREE ENERGY PREDICTED BY IDOCK:   -5.88 KCAL/MOL
REMARK 924 INTRA-LIGAND FREE ENERGY PREDICTED BY IDOCK:   -0.23 KCAL/MOL
REMARK 927      BINDING AFFINITY PREDICTED BY RF-SCORE:    0.00 PKD
ROOT
HETATM    1  C   UNL     1     -10.418   6.609  72.818  1.00  0.00    -0.243 C  
HETATM    2  C   UNL     1      -9.515   7.336  71.837  1.00  0.00    -0.163 C  
ENDROOT
BRANCH   2   3
HETATM    3  C   UNL     1      -9.320   6.628  70.506  1.00  0.00    -0.166 C  
HETATM    4  N   UNL     1      -9.057   7.415  69.366  1.00  0.00    -0.139 N  
HETATM    5  O   UNL     1      -9.465   5.403  70.458  1.00  0.00    -0.154 OA 
BRANCH   4   6
HETATM    6  C   UNL     1      -8.936   6.650  68.139  1.00  0.00    -0.121 A  
HETATM    7  C   UNL     1      -7.697   6.378  67.549  1.00  0.00    -0.101 A  
HETATM    8  C   UNL     1      -7.615   5.709  66.321  1.00  0.00    -0.091 A  
HETATM    9  C   UNL     1     -10.090   6.164  67.507  1.00  0.00    -0.189 A  
HETATM   10  C   UNL     1      -8.772   5.295  65.668  1.00  0.00    -0.146 A  
HETATM   11  C   UNL     1     -10.011   5.518  66.265  1.00  0.00    -0.174 A  
ENDBRANCH   4   6
BRANCH   4  12
HETATM   12  C   UNL     1      -8.561   8.887  69.342  1.00  0.00    -0.133 C  
HETATM   13  C   UNL     1      -9.345   9.843  70.310  1.00  0.00    -0.142 C  
HETATM   14  N   UNL     1     -10.932  10.636  68.549  1.00  0.00    -0.229 NA 
HETATM   15  C   UNL     1     -10.799  10.079  69.899  1.00  0.00    -0.285 C  
HETATM   16  C   UNL     1      -8.738   9.556  67.942  1.00  0.00    -0.119 C  
HETATM   17  C   UNL     1     -10.214   9.782  67.594  1.00  0.00    -0.213 C  
BRANCH  12  18
HETATM   18  C   UNL     1      -7.050   8.974  69.760  1.00  0.00    -0.055 C  
BRANCH  18  19
HETATM   19  O   UNL     1      -6.837   9.819  70.887  1.00  0.00    -0.253 OA 
HETATM   20  C   UNL     1      -5.493   9.768  71.347  1.00  0.00    -0.074 C  
ENDBRANCH  18  19
ENDBRANCH  12  18
BRANCH  14  21
HETATM   21  C   UNL     1     -10.539  12.055  68.482  1.00  0.00    -0.231 C  
BRANCH  21  22
HETATM   22  C   UNL     1     -11.720  13.013  68.245  1.00  0.00    -0.390 C  
BRANCH  22  23
HETATM   23  C   UNL     1     -11.680  13.588  66.864  1.00  0.00    -0.384 A  
HETATM   24  C   UNL     1     -12.142  13.025  65.694  1.00  0.00    -0.507 A  
HETATM   25  C   UNL     1     -11.922  13.877  64.576  1.00  0.00    -0.464 A  
HETATM   26  C   UNL     1     -11.305  15.056  64.928  1.00  0.00    -0.417 A  
HETATM   27  S   UNL     1     -10.989  15.135  66.602  1.00  0.00    -0.297 SA 
ENDBRANCH  22  23
ENDBRANCH  21  22
ENDBRANCH  14  21
ENDBRANCH   4  12
ENDBRANCH   2   3
TORSDOF 8
ENDMDL
MODEL      117
REMARK 921   NORMALIZED FREE ENERGY PREDICTED BY IDOCK:   -3.80 KCAL/MOL
REMARK 922        TOTAL FREE ENERGY PREDICTED BY IDOCK:   -6.08 KCAL/MOL
REMARK 923 INTER-LIGAND FREE ENERGY PREDICTED BY IDOCK:   -6.15 KCAL/MOL
REMARK 924 INTRA-LIGAND FREE ENERGY PREDICTED BY IDOCK:    0.07 KCAL/MOL
REMARK 927      BINDING AFFINITY PREDICTED BY RF-SCORE:    0.00 PKD
ROOT
HETATM    1  C   UNL     1     -12.288   8.648  72.231  1.00  0.00    -0.449 C  
HETATM    2  C   UNL     1     -10.940   9.105  71.702  1.00  0.00    -0.445 C  
ENDROOT
BRANCH   2   3
HETATM    3  C   UNL     1     -11.010  10.050  70.514  1.00  0.00    -0.326 C  
HETATM    4  N   UNL     1     -10.076   9.879  69.471  1.00  0.00    -0.207 N  
HETATM    5  O   UNL     1     -11.834  10.970  70.535  1.00  0.00    -0.331 OA 
BRANCH   4   6
HETATM    6  C   UNL     1     -10.197  10.861  68.408  1.00  0.00    -0.178 A  
HETATM    7  C   UNL     1     -11.335  10.949  67.600  1.00  0.00    -0.345 A  
HETATM    8  C   UNL     1     -11.389  11.850  66.528  1.00  0.00    -0.403 A  
HETATM    9  C   UNL     1      -9.143  11.754  68.165  1.00  0.00    -0.185 A  
HETATM   10  C   UNL     1     -10.308  12.682  66.253  1.00  0.00    -0.269 A  
HETATM   11  C   UNL     1      -9.185  12.637  67.077  1.00  0.00    -0.212 A  
ENDBRANCH   4   6
BRANCH   4  12
HETATM   12  C   UNL     1      -9.218   8.618  69.184  1.00  0.00    -0.152 C  
HETATM   13  C   UNL     1      -9.034   8.302  67.657  1.00  0.00    -0.140 C  
HETATM   14  N   UNL     1     -10.942   6.690  67.565  1.00  0.00    -0.333 NA 
HETATM   15  C   UNL     1     -10.324   7.872  66.956  1.00  0.00    -0.341 C  
HETATM   16  C   UNL     1      -9.860   7.313  69.753  1.00  0.00    -0.177 C  
HETATM   17  C   UNL     1     -11.139   6.925  69.002  1.00  0.00    -0.136 C  
BRANCH  12  18
HETATM   18  C   UNL     1      -7.774   8.776  69.780  1.00  0.00    -0.084 C  
BRANCH  18  19
HETATM   19  O   UNL     1      -7.649   9.910  70.632  1.00  0.00    -0.288 OA 
HETATM   20  C   UNL     1      -6.482  10.670  70.346  1.00  0.00    -0.100 C  
ENDBRANCH  18  19
ENDBRANCH  12  18
BRANCH  14  21
HETATM   21  C   UNL     1     -10.205   5.449  67.267  1.00  0.00    -0.214 C  
BRANCH  21  22
HETATM   22  C   UNL     1     -10.708   4.718  66.009  1.00  0.00    -0.211 C  
BRANCH  22  23
HETATM   23  C   UNL     1      -9.588   4.464  65.048  1.00  0.00    -0.170 A  
HETATM   24  C   UNL     1      -8.429   5.190  64.881  1.00  0.00    -0.149 A  
HETATM   25  C   UNL     1      -7.604   4.639  63.861  1.00  0.00    -0.071 A  
HETATM   26  C   UNL     1      -8.156   3.515  63.290  1.00  0.00    -0.080 A  
HETATM   27  S   UNL     1      -9.668   3.127  63.978  1.00  0.00    -0.156 SA 
ENDBRANCH  22  23
ENDBRANCH  21  22
ENDBRANCH  14  21
ENDBRANCH   4  12
ENDBRANCH   2   3
TORSDOF 8
ENDMDL
MODEL      118
REMARK 921   NORMALIZED FREE ENERGY PREDICTED BY IDOCK:   -3.76 KCAL/MOL
REMARK 922        TOTAL FREE ENERGY PREDICTED BY IDOCK:   -6.02 KCAL/MOL
REMARK 923 INTER-LIGAND FREE ENERGY PREDICTED BY IDOCK:   -6.14 KCAL/MOL
REMARK 924 INTRA-LIGAND FREE ENERGY PREDICTED BY IDOCK:    0.12 KCAL/MOL
REMARK 927      BINDING AFFINITY PREDICTED BY RF-SCORE:    0.00 PKD
ROOT
HETATM    1  C   UNL     1      -8.391   5.533  65.762  1.00  0.00    -0.129 C  
HETATM    2  C   UNL     1      -9.083   6.716  66.417  1.00  0.00    -0.172 C  
ENDROOT
BRANCH   2   3
HETATM    3  C   UNL     1      -9.755   6.406  67.745  1.00  0.00    -0.121 C  
HETATM    4  N   UNL     1      -9.491   7.256  68.839  1.00  0.00    -0.144 N  
HETATM    5  O   UNL     1     -10.451   5.390  67.835  1.00  0.00    -0.188 OA 
BRANCH   4   6
HETATM    6  C   UNL     1     -10.141   6.847  70.070  1.00  0.00    -0.182 A  
HETATM    7  C   UNL     1     -11.530   6.894  70.231  1.00  0.00    -0.373 A  
HETATM    8  C   UNL     1     -12.123   6.572  71.459  1.00  0.00    -0.363 A  
HETATM    9  C   UNL     1      -9.365   6.393  71.147  1.00  0.00    -0.166 A  
HETATM   10  C   UNL     1     -11.337   6.192  72.542  1.00  0.00    -0.328 A  
HETATM   11  C   UNL     1      -9.956   6.097  72.384  1.00  0.00    -0.187 A  
ENDBRANCH   4   6
BRANCH   4  12
HETATM   12  C   UNL     1      -8.902   8.692  68.785  1.00  0.00    -0.139 C  
HETATM   13  C   UNL     1      -9.296   9.592  70.009  1.00  0.00    -0.276 C  
HETATM   14  N   UNL     1     -11.247  10.643  68.852  1.00  0.00    -0.256 NA 
HETATM   15  C   UNL     1     -10.782   9.950  70.058  1.00  0.00    -0.292 C  
HETATM   16  C   UNL     1      -9.414   9.504  67.553  1.00  0.00    -0.155 C  
HETATM   17  C   UNL     1     -10.904   9.846  67.667  1.00  0.00    -0.257 C  
BRANCH  12  18
HETATM   18  C   UNL     1      -7.333   8.652  68.752  1.00  0.00    -0.083 C  
BRANCH  18  19
HETATM   19  O   UNL     1      -6.791   9.186  67.548  1.00  0.00    -0.075 OA 
HETATM   20  C   UNL     1      -5.708   8.408  67.056  1.00  0.00    -0.042 C  
ENDBRANCH  18  19
ENDBRANCH  12  18
BRANCH  14  21
HETATM   21  C   UNL     1     -10.773  12.036  68.783  1.00  0.00    -0.220 C  
BRANCH  21  22
HETATM   22  C   UNL     1     -11.755  13.054  69.391  1.00  0.00    -0.386 C  
BRANCH  22  23
HETATM   23  C   UNL     1     -11.345  14.458  69.070  1.00  0.00    -0.269 A  
HETATM   24  C   UNL     1     -11.071  15.485  69.947  1.00  0.00    -0.318 A  
HETATM   25  C   UNL     1     -10.718  16.682  69.262  1.00  0.00    -0.337 A  
HETATM   26  C   UNL     1     -10.732  16.528  67.894  1.00  0.00    -0.337 A  
HETATM   27  S   UNL     1     -11.174  14.946  67.436  1.00  0.00    -0.344 SA 
ENDBRANCH  22  23
ENDBRANCH  21  22
ENDBRANCH  14  21
ENDBRANCH   4  12
ENDBRANCH   2   3
TORSDOF 8
ENDMDL
MODEL      119
REMARK 921   NORMALIZED FREE ENERGY PREDICTED BY IDOCK:   -3.76 KCAL/MOL
REMARK 922        TOTAL FREE ENERGY PREDICTED BY IDOCK:   -6.02 KCAL/MOL
REMARK 923 INTER-LIGAND FREE ENERGY PREDICTED BY IDOCK:   -6.06 KCAL/MOL
REMARK 924 INTRA-LIGAND FREE ENERGY PREDICTED BY IDOCK:    0.05 KCAL/MOL
REMARK 927      BINDING AFFINITY PREDICTED BY RF-SCORE:    0.00 PKD
ROOT
HETATM    1  C   UNL     1     -12.152  10.309  71.027  1.00  0.00    -0.487 C  
HETATM    2  C   UNL     1     -11.022  10.292  70.013  1.00  0.00    -0.371 C  
ENDROOT
BRANCH   2   3
HETATM    3  C   UNL     1     -11.276  11.119  68.763  1.00  0.00    -0.253 C  
HETATM    4  N   UNL     1     -10.197  11.345  67.884  1.00  0.00    -0.179 N  
HETATM    5  O   UNL     1     -12.395  11.615  68.597  1.00  0.00    -0.394 OA 
BRANCH   4   6
HETATM    6  C   UNL     1     -10.531  12.184  66.748  1.00  0.00    -0.218 A  
HETATM    7  C   UNL     1     -11.405  11.762  65.741  1.00  0.00    -0.309 A  
HETATM    8  C   UNL     1     -11.643  12.560  64.614  1.00  0.00    -0.396 A  
HETATM    9  C   UNL     1      -9.963  13.462  66.638  1.00  0.00    -0.277 A  
HETATM   10  C   UNL     1     -11.017  13.795  64.482  1.00  0.00    -0.399 A  
HETATM   11  C   UNL     1     -10.180  14.249  65.498  1.00  0.00    -0.379 A  
ENDBRANCH   4   6
BRANCH   4  12
HETATM   12  C   UNL     1      -8.865  10.551  67.818  1.00  0.00    -0.125 C  
HETATM   13  C   UNL     1      -8.239  10.467  66.380  1.00  0.00    -0.140 C  
HETATM   14  N   UNL     1      -9.269   8.251  65.854  1.00  0.00    -0.161 NA 
HETATM   15  C   UNL     1      -9.061   9.630  65.399  1.00  0.00    -0.215 C  
HETATM   16  C   UNL     1      -9.037   9.055  68.230  1.00  0.00    -0.133 C  
HETATM   17  C   UNL     1      -9.854   8.264  67.201  1.00  0.00    -0.217 C  
BRANCH  12  18
HETATM   18  C   UNL     1      -7.775  11.209  68.737  1.00  0.00    -0.136 C  
BRANCH  18  19
HETATM   19  O   UNL     1      -6.970  12.161  68.046  1.00  0.00    -0.076 OA 
HETATM   20  C   UNL     1      -5.916  12.661  68.859  1.00  0.00    -0.074 C  
ENDBRANCH  18  19
ENDBRANCH  12  18
BRANCH  14  21
HETATM   21  C   UNL     1      -8.050   7.430  65.748  1.00  0.00    -0.129 C  
BRANCH  21  22
HETATM   22  C   UNL     1      -8.228   5.991  66.266  1.00  0.00    -0.118 C  
BRANCH  22  23
HETATM   23  C   UNL     1      -8.946   5.141  65.265  1.00  0.00    -0.142 A  
HETATM   24  C   UNL     1     -10.085   4.387  65.450  1.00  0.00    -0.238 A  
HETATM   25  C   UNL     1     -10.466   3.708  64.259  1.00  0.00    -0.224 A  
HETATM   26  C   UNL     1      -9.613   3.967  63.211  1.00  0.00    -0.149 A  
HETATM   27  S   UNL     1      -8.352   5.023  63.661  1.00  0.00    -0.123 SA 
ENDBRANCH  22  23
ENDBRANCH  21  22
ENDBRANCH  14  21
ENDBRANCH   4  12
ENDBRANCH   2   3
TORSDOF 8
ENDMDL
MODEL      120
REMARK 921   NORMALIZED FREE ENERGY PREDICTED BY IDOCK:   -3.75 KCAL/MOL
REMARK 922        TOTAL FREE ENERGY PREDICTED BY IDOCK:   -6.00 KCAL/MOL
REMARK 923 INTER-LIGAND FREE ENERGY PREDICTED BY IDOCK:   -6.15 KCAL/MOL
REMARK 924 INTRA-LIGAND FREE ENERGY PREDICTED BY IDOCK:    0.15 KCAL/MOL
REMARK 927      BINDING AFFINITY PREDICTED BY RF-SCORE:    0.00 PKD
ROOT
HETATM    1  C   UNL     1      -8.430   8.413  66.287  1.00  0.00    -0.132 C  
HETATM    2  C   UNL     1      -7.693   8.301  67.610  1.00  0.00    -0.099 C  
ENDROOT
BRANCH   2   3
HETATM    3  C   UNL     1      -8.072   7.094  68.451  1.00  0.00    -0.124 C  
HETATM    4  N   UNL     1      -8.261   7.279  69.836  1.00  0.00    -0.131 N  
HETATM    5  O   UNL     1      -8.137   5.987  67.905  1.00  0.00    -0.104 OA 
BRANCH   4   6
HETATM    6  C   UNL     1      -8.573   6.058  70.555  1.00  0.00    -0.137 A  
HETATM    7  C   UNL     1      -7.754   5.562  71.574  1.00  0.00    -0.106 A  
HETATM    8  C   UNL     1      -8.035   4.338  72.194  1.00  0.00    -0.090 A  
HETATM    9  C   UNL     1      -9.729   5.333  70.224  1.00  0.00    -0.261 A  
HETATM   10  C   UNL     1      -9.146   3.593  71.807  1.00  0.00    -0.166 A  
HETATM   11  C   UNL     1      -9.997   4.095  70.824  1.00  0.00    -0.192 A  
ENDBRANCH   4   6
BRANCH   4  12
HETATM   12  C   UNL     1      -8.505   8.624  70.573  1.00  0.00    -0.150 C  
HETATM   13  C   UNL     1      -9.374   8.494  71.873  1.00  0.00    -0.337 C  
HETATM   14  N   UNL     1     -11.522   9.050  70.721  1.00  0.00    -0.279 NA 
HETATM   15  C   UNL     1     -10.829   8.106  71.605  1.00  0.00    -0.249 C  
HETATM   16  C   UNL     1      -9.298   9.650  69.702  1.00  0.00    -0.226 C  
HETATM   17  C   UNL     1     -10.752   9.216  69.482  1.00  0.00    -0.215 C  
BRANCH  12  18
HETATM   18  C   UNL     1      -7.145   9.274  71.013  1.00  0.00    -0.078 C  
BRANCH  18  19
HETATM   19  O   UNL     1      -6.976  10.596  70.510  1.00  0.00    -0.280 OA 
HETATM   20  C   UNL     1      -5.637  11.055  70.650  1.00  0.00    -0.132 C  
ENDBRANCH  18  19
ENDBRANCH  12  18
BRANCH  14  21
HETATM   21  C   UNL     1     -11.840  10.323  71.392  1.00  0.00    -0.283 C  
BRANCH  21  22
HETATM   22  C   UNL     1     -12.884  11.171  70.643  1.00  0.00    -0.271 C  
BRANCH  22  23
HETATM   23  C   UNL     1     -12.982  12.546  71.227  1.00  0.00    -0.208 A  
HETATM   24  C   UNL     1     -13.636  12.938  72.376  1.00  0.00    -0.577 A  
HETATM   25  C   UNL     1     -13.508  14.337  72.604  1.00  0.00    -0.623 A  
HETATM   26  C   UNL     1     -12.764  14.961  71.629  1.00  0.00    -0.330 A  
HETATM   27  S   UNL     1     -12.224  13.866  70.439  1.00  0.00    -0.374 SA 
ENDBRANCH  22  23
ENDBRANCH  21  22
ENDBRANCH  14  21
ENDBRANCH   4  12
ENDBRANCH   2   3
TORSDOF 8
ENDMDL
MODEL      121
REMARK 921   NORMALIZED FREE ENERGY PREDICTED BY IDOCK:   -3.75 KCAL/MOL
REMARK 922        TOTAL FREE ENERGY PREDICTED BY IDOCK:   -6.00 KCAL/MOL
REMARK 923 INTER-LIGAND FREE ENERGY PREDICTED BY IDOCK:   -6.09 KCAL/MOL
REMARK 924 INTRA-LIGAND FREE ENERGY PREDICTED BY IDOCK:    0.08 KCAL/MOL
REMARK 927      BINDING AFFINITY PREDICTED BY RF-SCORE:    0.00 PKD
ROOT
HETATM    1  C   UNL     1      -5.494  11.002  65.963  1.00  0.00    -0.149 C  
HETATM    2  C   UNL     1      -6.841  10.858  66.649  1.00  0.00    -0.127 C  
ENDROOT
BRANCH   2   3
HETATM    3  C   UNL     1      -7.520  12.172  67.001  1.00  0.00    -0.086 C  
HETATM    4  N   UNL     1      -8.927  12.233  66.935  1.00  0.00    -0.203 N  
HETATM    5  O   UNL     1      -6.816  13.151  67.266  1.00  0.00    -0.139 OA 
BRANCH   4   6
HETATM    6  C   UNL     1      -9.473  13.542  67.242  1.00  0.00    -0.230 A  
HETATM    7  C   UNL     1     -10.026  14.368  66.258  1.00  0.00    -0.320 A  
HETATM    8  C   UNL     1     -10.469  15.661  66.570  1.00  0.00    -0.303 A  
HETATM    9  C   UNL     1      -9.448  14.012  68.564  1.00  0.00    -0.191 A  
HETATM   10  C   UNL     1     -10.373  16.142  67.872  1.00  0.00    -0.277 A  
HETATM   11  C   UNL     1      -9.866  15.314  68.871  1.00  0.00    -0.221 A  
ENDBRANCH   4   6
BRANCH   4  12
HETATM   12  C   UNL     1      -9.913  11.034  66.916  1.00  0.00    -0.196 C  
HETATM   13  C   UNL     1     -11.309  11.342  67.565  1.00  0.00    -0.360 C  
HETATM   14  N   UNL     1     -10.679  10.436  69.808  1.00  0.00    -0.267 NA 
HETATM   15  C   UNL     1     -11.249  11.572  69.076  1.00  0.00    -0.262 C  
HETATM   16  C   UNL     1      -9.389   9.813  67.736  1.00  0.00    -0.148 C  
HETATM   17  C   UNL     1      -9.366  10.097  69.243  1.00  0.00    -0.215 C  
BRANCH  12  18
HETATM   18  C   UNL     1     -10.203  10.571  65.444  1.00  0.00    -0.270 C  
BRANCH  18  19
HETATM   19  O   UNL     1     -10.934  11.536  64.694  1.00  0.00    -0.317 OA 
HETATM   20  C   UNL     1     -10.332  11.804  63.434  1.00  0.00    -0.439 C  
ENDBRANCH  18  19
ENDBRANCH  12  18
BRANCH  14  21
HETATM   21  C   UNL     1     -11.603   9.290  69.881  1.00  0.00     0.107 C  
BRANCH  21  22
HETATM   22  C   UNL     1     -11.309   8.333  71.051  1.00  0.00    -0.299 C  
BRANCH  22  23
HETATM   23  C   UNL     1     -10.686   7.062  70.566  1.00  0.00    -0.238 A  
HETATM   24  C   UNL     1      -9.726   6.293  71.188  1.00  0.00    -0.194 A  
HETATM   25  C   UNL     1      -9.378   5.154  70.411  1.00  0.00    -0.210 A  
HETATM   26  C   UNL     1     -10.082   5.089  69.229  1.00  0.00    -0.200 A  
HETATM   27  S   UNL     1     -11.156   6.402  69.055  1.00  0.00    -0.332 SA 
ENDBRANCH  22  23
ENDBRANCH  21  22
ENDBRANCH  14  21
ENDBRANCH   4  12
ENDBRANCH   2   3
TORSDOF 8
ENDMDL
MODEL      122
REMARK 921   NORMALIZED FREE ENERGY PREDICTED BY IDOCK:   -3.75 KCAL/MOL
REMARK 922        TOTAL FREE ENERGY PREDICTED BY IDOCK:   -6.00 KCAL/MOL
REMARK 923 INTER-LIGAND FREE ENERGY PREDICTED BY IDOCK:   -5.65 KCAL/MOL
REMARK 924 INTRA-LIGAND FREE ENERGY PREDICTED BY IDOCK:   -0.36 KCAL/MOL
REMARK 927      BINDING AFFINITY PREDICTED BY RF-SCORE:    0.00 PKD
ROOT
HETATM    1  C   UNL     1      -5.127   7.171  71.711  1.00  0.00    -0.028 C  
HETATM    2  C   UNL     1      -6.020   8.283  71.189  1.00  0.00    -0.034 C  
ENDROOT
BRANCH   2   3
HETATM    3  C   UNL     1      -7.509   8.044  71.377  1.00  0.00    -0.071 C  
HETATM    4  N   UNL     1      -8.391   8.521  70.385  1.00  0.00    -0.117 N  
HETATM    5  O   UNL     1      -7.897   7.504  72.418  1.00  0.00    -0.092 OA 
BRANCH   4   6
HETATM    6  C   UNL     1      -9.792   8.286  70.682  1.00  0.00    -0.182 A  
HETATM    7  C   UNL     1     -10.568   9.207  71.392  1.00  0.00    -0.412 A  
HETATM    8  C   UNL     1     -11.895   8.917  71.737  1.00  0.00    -0.429 A  
HETATM    9  C   UNL     1     -10.402   7.097  70.255  1.00  0.00    -0.214 A  
HETATM   10  C   UNL     1     -12.467   7.702  71.369  1.00  0.00    -0.359 A  
HETATM   11  C   UNL     1     -11.720   6.794  70.622  1.00  0.00    -0.440 A  
ENDBRANCH   4   6
BRANCH   4  12
HETATM   12  C   UNL     1      -8.027   8.928  68.931  1.00  0.00    -0.104 C  
HETATM   13  C   UNL     1      -6.925  10.042  68.834  1.00  0.00    -0.062 C  
HETATM   14  N   UNL     1      -8.568  11.918  68.658  1.00  0.00    -0.092 NA 
HETATM   15  C   UNL     1      -7.382  11.407  69.353  1.00  0.00     0.015 C  
HETATM   16  C   UNL     1      -9.238   9.541  68.159  1.00  0.00    -0.134 C  
HETATM   17  C   UNL     1      -9.639  10.914  68.713  1.00  0.00    -0.189 C  
BRANCH  12  18
HETATM   18  C   UNL     1      -7.482   7.696  68.125  1.00  0.00    -0.108 C  
BRANCH  18  19
HETATM   19  O   UNL     1      -8.240   7.424  66.950  1.00  0.00    -0.117 OA 
HETATM   20  C   UNL     1      -7.416   7.298  65.799  1.00  0.00    -0.084 C  
ENDBRANCH  18  19
ENDBRANCH  12  18
BRANCH  14  21
HETATM   21  C   UNL     1      -8.267  12.384  67.293  1.00  0.00    -0.184 C  
BRANCH  21  22
HETATM   22  C   UNL     1      -8.849  13.773  66.971  1.00  0.00    -0.230 C  
BRANCH  22  23
HETATM   23  C   UNL     1     -10.126  13.657  66.199  1.00  0.00    -0.306 A  
HETATM   24  C   UNL     1     -10.287  13.529  64.836  1.00  0.00    -0.395 A  
HETATM   25  C   UNL     1     -11.661  13.452  64.473  1.00  0.00    -0.405 A  
HETATM   26  C   UNL     1     -12.497  13.520  65.564  1.00  0.00    -0.491 A  
HETATM   27  S   UNL     1     -11.629  13.680  67.023  1.00  0.00    -0.382 SA 
ENDBRANCH  22  23
ENDBRANCH  21  22
ENDBRANCH  14  21
ENDBRANCH   4  12
ENDBRANCH   2   3
TORSDOF 8
ENDMDL
MODEL      123
REMARK 921   NORMALIZED FREE ENERGY PREDICTED BY IDOCK:   -3.72 KCAL/MOL
REMARK 922        TOTAL FREE ENERGY PREDICTED BY IDOCK:   -5.97 KCAL/MOL
REMARK 923 INTER-LIGAND FREE ENERGY PREDICTED BY IDOCK:   -6.31 KCAL/MOL
REMARK 924 INTRA-LIGAND FREE ENERGY PREDICTED BY IDOCK:    0.34 KCAL/MOL
REMARK 927      BINDING AFFINITY PREDICTED BY RF-SCORE:    0.00 PKD
ROOT
HETATM    1  C   UNL     1      -5.293  12.441  70.130  1.00  0.00    -0.113 C  
HETATM    2  C   UNL     1      -6.371  13.429  69.719  1.00  0.00    -0.083 C  
ENDROOT
BRANCH   2   3
HETATM    3  C   UNL     1      -7.508  12.829  68.908  1.00  0.00     0.022 C  
HETATM    4  N   UNL     1      -8.352  13.705  68.195  1.00  0.00    -0.158 N  
HETATM    5  O   UNL     1      -7.692  11.608  68.956  1.00  0.00    -0.097 OA 
BRANCH   4   6
HETATM    6  C   UNL     1      -9.433  13.038  67.494  1.00  0.00    -0.198 A  
HETATM    7  C   UNL     1      -9.292  12.562  66.186  1.00  0.00    -0.136 A  
HETATM    8  C   UNL     1     -10.378  11.997  65.504  1.00  0.00    -0.298 A  
HETATM    9  C   UNL     1     -10.671  12.861  68.131  1.00  0.00    -0.258 A  
HETATM   10  C   UNL     1     -11.620  11.893  66.123  1.00  0.00    -0.299 A  
HETATM   11  C   UNL     1     -11.764  12.321  67.441  1.00  0.00    -0.405 A  
ENDBRANCH   4   6
BRANCH   4  12
HETATM   12  C   UNL     1      -8.058  15.181  67.815  1.00  0.00    -0.146 C  
HETATM   13  C   UNL     1      -8.360  16.211  68.960  1.00  0.00    -0.247 C  
HETATM   14  N   UNL     1     -10.658  16.743  68.135  1.00  0.00    -0.336 NA 
HETATM   15  C   UNL     1      -9.847  16.346  69.290  1.00  0.00    -0.240 C  
HETATM   16  C   UNL     1      -8.940  15.683  66.629  1.00  0.00    -0.317 C  
HETATM   17  C   UNL     1     -10.416  15.814  67.024  1.00  0.00    -0.309 C  
BRANCH  12  18
HETATM   18  C   UNL     1      -6.545  15.370  67.438  1.00  0.00    -0.116 C  
BRANCH  18  19
HETATM   19  O   UNL     1      -6.044  16.656  67.790  1.00  0.00    -0.121 OA 
HETATM   20  C   UNL     1      -5.572  17.375  66.658  1.00  0.00    -0.192 C  
ENDBRANCH  18  19
ENDBRANCH  12  18
BRANCH  14  21
HETATM   21  C   UNL     1     -10.469  18.159  67.771  1.00  0.00    -0.404 C  
BRANCH  21  22
HETATM   22  C   UNL     1      -9.935  19.027  68.924  1.00  0.00    -0.460 C  
BRANCH  22  23
HETATM   23  C   UNL     1      -8.656  19.704  68.543  1.00  0.00    -0.296 A  
HETATM   24  C   UNL     1      -7.506  19.835  69.292  1.00  0.00    -0.206 A  
HETATM   25  C   UNL     1      -6.498  20.551  68.589  1.00  0.00    -0.295 A  
HETATM   26  C   UNL     1      -6.907  20.938  67.333  1.00  0.00    -0.375 A  
HETATM   27  S   UNL     1      -8.506  20.444  67.003  1.00  0.00    -0.232 SA 
ENDBRANCH  22  23
ENDBRANCH  21  22
ENDBRANCH  14  21
ENDBRANCH   4  12
ENDBRANCH   2   3
TORSDOF 8
ENDMDL
MODEL      124
REMARK 921   NORMALIZED FREE ENERGY PREDICTED BY IDOCK:   -3.71 KCAL/MOL
REMARK 922        TOTAL FREE ENERGY PREDICTED BY IDOCK:   -5.95 KCAL/MOL
REMARK 923 INTER-LIGAND FREE ENERGY PREDICTED BY IDOCK:   -5.77 KCAL/MOL
REMARK 924 INTRA-LIGAND FREE ENERGY PREDICTED BY IDOCK:   -0.18 KCAL/MOL
REMARK 927      BINDING AFFINITY PREDICTED BY RF-SCORE:    0.00 PKD
ROOT
HETATM    1  C   UNL     1      -6.936  14.358  67.484  1.00  0.00    -0.182 C  
HETATM    2  C   UNL     1      -8.369  14.193  67.958  1.00  0.00    -0.160 C  
ENDROOT
BRANCH   2   3
HETATM    3  C   UNL     1      -9.385  13.971  66.849  1.00  0.00    -0.257 C  
HETATM    4  N   UNL     1      -9.799  12.650  66.580  1.00  0.00    -0.250 N  
HETATM    5  O   UNL     1      -9.760  14.941  66.183  1.00  0.00    -0.271 OA 
BRANCH   4   6
HETATM    6  C   UNL     1     -10.732  12.540  65.474  1.00  0.00    -0.271 A  
HETATM    7  C   UNL     1     -12.112  12.690  65.645  1.00  0.00    -0.502 A  
HETATM    8  C   UNL     1     -12.995  12.496  64.575  1.00  0.00    -0.215 A  
HETATM    9  C   UNL     1     -10.251  12.269  64.184  1.00  0.00    -0.376 A  
HETATM   10  C   UNL     1     -12.510  12.156  63.315  1.00  0.00    -0.528 A  
HETATM   11  C   UNL     1     -11.135  12.048  63.119  1.00  0.00    -0.265 A  
ENDBRANCH   4   6
BRANCH   4  12
HETATM   12  C   UNL     1      -9.646  11.416  67.511  1.00  0.00    -0.167 C  
HETATM   13  C   UNL     1      -8.159  10.973  67.749  1.00  0.00    -0.116 C  
HETATM   14  N   UNL     1      -8.181   9.256  65.932  1.00  0.00    -0.113 NA 
HETATM   15  C   UNL     1      -7.477  10.410  66.500  1.00  0.00    -0.119 C  
HETATM   16  C   UNL     1     -10.322  10.136  66.926  1.00  0.00    -0.298 C  
HETATM   17  C   UNL     1      -9.586   9.610  65.688  1.00  0.00    -0.271 C  
BRANCH  12  18
HETATM   18  C   UNL     1     -10.253  11.708  68.930  1.00  0.00    -0.125 C  
BRANCH  18  19
HETATM   19  O   UNL     1     -11.658  11.938  68.894  1.00  0.00    -0.259 OA 
HETATM   20  C   UNL     1     -12.022  13.133  69.572  1.00  0.00    -0.294 C  
ENDBRANCH  18  19
ENDBRANCH  12  18
BRANCH  14  21
HETATM   21  C   UNL     1      -8.013   8.036  66.741  1.00  0.00    -0.103 C  
BRANCH  21  22
HETATM   22  C   UNL     1      -7.012   7.030  66.143  1.00  0.00    -0.065 C  
BRANCH  22  23
HETATM   23  C   UNL     1      -7.716   5.982  65.339  1.00  0.00    -0.091 A  
HETATM   24  C   UNL     1      -8.943   5.404  65.583  1.00  0.00    -0.160 A  
HETATM   25  C   UNL     1      -9.275   4.437  64.593  1.00  0.00    -0.156 A  
HETATM   26  C   UNL     1      -8.298   4.312  63.632  1.00  0.00    -0.100 A  
HETATM   27  S   UNL     1      -6.981   5.355  63.923  1.00  0.00    -0.048 SA 
ENDBRANCH  22  23
ENDBRANCH  21  22
ENDBRANCH  14  21
ENDBRANCH   4  12
ENDBRANCH   2   3
TORSDOF 8
ENDMDL
MODEL      125
REMARK 921   NORMALIZED FREE ENERGY PREDICTED BY IDOCK:   -3.69 KCAL/MOL
REMARK 922        TOTAL FREE ENERGY PREDICTED BY IDOCK:   -5.92 KCAL/MOL
REMARK 923 INTER-LIGAND FREE ENERGY PREDICTED BY IDOCK:   -5.63 KCAL/MOL
REMARK 924 INTRA-LIGAND FREE ENERGY PREDICTED BY IDOCK:   -0.29 KCAL/MOL
REMARK 927      BINDING AFFINITY PREDICTED BY RF-SCORE:    0.00 PKD
ROOT
HETATM    1  C   UNL     1     -12.608  12.075  63.633  1.00  0.00    -0.605 C  
HETATM    2  C   UNL     1     -11.523  12.664  64.518  1.00  0.00    -0.389 C  
ENDROOT
BRANCH   2   3
HETATM    3  C   UNL     1     -11.976  13.027  65.923  1.00  0.00    -0.435 C  
HETATM    4  N   UNL     1     -11.037  12.932  66.970  1.00  0.00    -0.266 N  
HETATM    5  O   UNL     1     -13.160  13.328  66.106  1.00  0.00     0.010 OA 
BRANCH   4   6
HETATM    6  C   UNL     1     -11.580  13.255  68.277  1.00  0.00    -0.334 A  
HETATM    7  C   UNL     1     -11.680  14.571  68.739  1.00  0.00    -0.362 A  
HETATM    8  C   UNL     1     -12.130  14.847  70.037  1.00  0.00    -0.387 A  
HETATM    9  C   UNL     1     -12.018  12.223  69.121  1.00  0.00    -0.303 A  
HETATM   10  C   UNL     1     -12.494  13.809  70.890  1.00  0.00    -0.451 A  
HETATM   11  C   UNL     1     -12.443  12.496  70.428  1.00  0.00    -0.215 A  
ENDBRANCH   4   6
BRANCH   4  12
HETATM   12  C   UNL     1      -9.491  12.868  66.836  1.00  0.00    -0.237 C  
HETATM   13  C   UNL     1      -8.978  11.739  65.873  1.00  0.00    -0.060 C  
HETATM   14  N   UNL     1      -8.614  10.078  67.705  1.00  0.00    -0.118 NA 
HETATM   15  C   UNL     1      -9.227  10.323  66.395  1.00  0.00    -0.158 C  
HETATM   16  C   UNL     1      -8.784  12.545  68.189  1.00  0.00    -0.190 C  
HETATM   17  C   UNL     1      -9.056  11.109  68.654  1.00  0.00    -0.166 C  
BRANCH  12  18
HETATM   18  C   UNL     1      -8.922  14.220  66.275  1.00  0.00     0.033 C  
BRANCH  18  19
HETATM   19  O   UNL     1      -8.417  15.074  67.296  1.00  0.00    -0.170 OA 
HETATM   20  C   UNL     1      -8.513  16.447  66.943  1.00  0.00    -0.221 C  
ENDBRANCH  18  19
ENDBRANCH  12  18
BRANCH  14  21
HETATM   21  C   UNL     1      -7.149   9.940  67.626  1.00  0.00    -0.087 C  
BRANCH  21  22
HETATM   22  C   UNL     1      -6.590   8.788  68.481  1.00  0.00    -0.059 C  
BRANCH  22  23
HETATM   23  C   UNL     1      -7.132   7.468  68.029  1.00  0.00    -0.084 A  
HETATM   24  C   UNL     1      -7.221   6.980  66.743  1.00  0.00    -0.076 A  
HETATM   25  C   UNL     1      -7.801   5.681  66.712  1.00  0.00    -0.101 A  
HETATM   26  C   UNL     1      -8.130   5.222  67.967  1.00  0.00    -0.099 A  
HETATM   27  S   UNL     1      -7.745   6.356  69.181  1.00  0.00    -0.103 SA 
ENDBRANCH  22  23
ENDBRANCH  21  22
ENDBRANCH  14  21
ENDBRANCH   4  12
ENDBRANCH   2   3
TORSDOF 8
ENDMDL
MODEL      126
REMARK 921   NORMALIZED FREE ENERGY PREDICTED BY IDOCK:   -3.67 KCAL/MOL
REMARK 922        TOTAL FREE ENERGY PREDICTED BY IDOCK:   -5.90 KCAL/MOL
REMARK 923 INTER-LIGAND FREE ENERGY PREDICTED BY IDOCK:   -5.97 KCAL/MOL
REMARK 924 INTRA-LIGAND FREE ENERGY PREDICTED BY IDOCK:    0.07 KCAL/MOL
REMARK 927      BINDING AFFINITY PREDICTED BY RF-SCORE:    0.00 PKD
ROOT
HETATM    1  C   UNL     1      -5.325   8.550  66.621  1.00  0.00    -0.032 C  
HETATM    2  C   UNL     1      -6.795   8.435  66.258  1.00  0.00    -0.073 C  
ENDROOT
BRANCH   2   3
HETATM    3  C   UNL     1      -7.512   9.763  66.077  1.00  0.00    -0.102 C  
HETATM    4  N   UNL     1      -8.877   9.836  66.424  1.00  0.00    -0.144 N  
HETATM    5  O   UNL     1      -6.895  10.707  65.572  1.00  0.00    -0.126 OA 
BRANCH   4   6
HETATM    6  C   UNL     1      -9.480  11.131  66.169  1.00  0.00    -0.204 A  
HETATM    7  C   UNL     1     -10.425  11.328  65.157  1.00  0.00    -0.351 A  
HETATM    8  C   UNL     1     -10.927  12.606  64.879  1.00  0.00    -0.326 A  
HETATM    9  C   UNL     1      -9.108  12.236  66.950  1.00  0.00    -0.208 A  
HETATM   10  C   UNL     1     -10.496  13.706  65.614  1.00  0.00    -0.304 A  
HETATM   11  C   UNL     1      -9.589  13.519  66.655  1.00  0.00    -0.282 A  
ENDBRANCH   4   6
BRANCH   4  12
HETATM   12  C   UNL     1      -9.665   8.847  67.325  1.00  0.00    -0.181 C  
HETATM   13  C   UNL     1     -10.910   9.483  68.039  1.00  0.00    -0.225 C  
HETATM   14  N   UNL     1      -9.677   9.997  70.151  1.00  0.00    -0.196 NA 
HETATM   15  C   UNL     1     -10.548  10.526  69.097  1.00  0.00    -0.229 C  
HETATM   16  C   UNL     1      -8.805   8.298  68.508  1.00  0.00    -0.137 C  
HETATM   17  C   UNL     1      -8.488   9.384  69.543  1.00  0.00    -0.152 C  
BRANCH  12  18
HETATM   18  C   UNL     1     -10.207   7.636  66.485  1.00  0.00    -0.108 C  
BRANCH  18  19
HETATM   19  O   UNL     1     -10.935   6.699  67.273  1.00  0.00    -0.340 OA 
HETATM   20  C   UNL     1     -10.495   5.364  67.060  1.00  0.00    -0.257 C  
ENDBRANCH  18  19
ENDBRANCH  12  18
BRANCH  14  21
HETATM   21  C   UNL     1     -10.391   9.103  71.079  1.00  0.00    -0.293 C  
BRANCH  21  22
HETATM   22  C   UNL     1      -9.507   8.560  72.217  1.00  0.00    -0.365 C  
BRANCH  22  23
HETATM   23  C   UNL     1      -9.990   7.222  72.685  1.00  0.00    -0.184 A  
HETATM   24  C   UNL     1     -10.196   6.797  73.979  1.00  0.00    -0.399 A  
HETATM   25  C   UNL     1     -10.656   5.451  74.025  1.00  0.00    -0.305 A  
HETATM   26  C   UNL     1     -10.787   4.899  72.771  1.00  0.00    -0.228 A  
HETATM   27  S   UNL     1     -10.353   5.998  71.542  1.00  0.00    -0.221 SA 
ENDBRANCH  22  23
ENDBRANCH  21  22
ENDBRANCH  14  21
ENDBRANCH   4  12
ENDBRANCH   2   3
TORSDOF 8
ENDMDL
MODEL      127
REMARK 921   NORMALIZED FREE ENERGY PREDICTED BY IDOCK:   -3.66 KCAL/MOL
REMARK 922        TOTAL FREE ENERGY PREDICTED BY IDOCK:   -5.87 KCAL/MOL
REMARK 923 INTER-LIGAND FREE ENERGY PREDICTED BY IDOCK:   -5.23 KCAL/MOL
REMARK 924 INTRA-LIGAND FREE ENERGY PREDICTED BY IDOCK:   -0.64 KCAL/MOL
REMARK 927      BINDING AFFINITY PREDICTED BY RF-SCORE:    0.00 PKD
ROOT
HETATM    1  C   UNL     1      -6.464  13.252  69.126  1.00  0.00    -0.106 C  
HETATM    2  C   UNL     1      -6.715  12.925  67.665  1.00  0.00    -0.153 C  
ENDROOT
BRANCH   2   3
HETATM    3  C   UNL     1      -8.039  13.434  67.118  1.00  0.00    -0.083 C  
HETATM    4  N   UNL     1      -9.027  12.487  66.778  1.00  0.00    -0.211 N  
HETATM    5  O   UNL     1      -8.177  14.647  66.929  1.00  0.00    -0.190 OA 
BRANCH   4   6
HETATM    6  C   UNL     1     -10.233  13.072  66.220  1.00  0.00    -0.288 A  
HETATM    7  C   UNL     1     -11.352  13.365  67.007  1.00  0.00    -0.346 A  
HETATM    8  C   UNL     1     -12.532  13.850  66.429  1.00  0.00    -0.414 A  
HETATM    9  C   UNL     1     -10.299  13.352  64.847  1.00  0.00    -0.382 A  
HETATM   10  C   UNL     1     -12.608  14.056  65.054  1.00  0.00    -0.416 A  
HETATM   11  C   UNL     1     -11.487  13.812  64.264  1.00  0.00    -0.363 A  
ENDBRANCH   4   6
BRANCH   4  12
HETATM   12  C   UNL     1      -9.097  11.006  67.237  1.00  0.00    -0.138 C  
HETATM   13  C   UNL     1      -7.750  10.217  67.067  1.00  0.00    -0.100 C  
HETATM   14  N   UNL     1      -8.366   9.270  64.837  1.00  0.00    -0.148 NA 
HETATM   15  C   UNL     1      -7.348   9.992  65.608  1.00  0.00    -0.127 C  
HETATM   16  C   UNL     1     -10.120  10.168  66.406  1.00  0.00    -0.300 C  
HETATM   17  C   UNL     1      -9.656   9.962  64.959  1.00  0.00    -0.297 C  
BRANCH  12  18
HETATM   18  C   UNL     1      -9.477  10.909  68.757  1.00  0.00    -0.190 C  
BRANCH  18  19
HETATM   19  O   UNL     1     -10.734  10.276  68.975  1.00  0.00    -0.202 OA 
HETATM   20  C   UNL     1     -11.433  10.836  70.079  1.00  0.00    -0.331 C  
ENDBRANCH  18  19
ENDBRANCH  12  18
BRANCH  14  21
HETATM   21  C   UNL     1      -8.429   7.839  65.185  1.00  0.00    -0.060 C  
BRANCH  21  22
HETATM   22  C   UNL     1      -7.049   7.200  65.423  1.00  0.00    -0.064 C  
BRANCH  22  23
HETATM   23  C   UNL     1      -7.025   6.431  66.708  1.00  0.00    -0.067 A  
HETATM   24  C   UNL     1      -7.891   6.531  67.775  1.00  0.00    -0.111 A  
HETATM   25  C   UNL     1      -7.541   5.635  68.823  1.00  0.00    -0.088 A  
HETATM   26  C   UNL     1      -6.428   4.883  68.521  1.00  0.00    -0.037 A  
HETATM   27  S   UNL     1      -5.804   5.259  66.980  1.00  0.00    -0.019 SA 
ENDBRANCH  22  23
ENDBRANCH  21  22
ENDBRANCH  14  21
ENDBRANCH   4  12
ENDBRANCH   2   3
TORSDOF 8
ENDMDL
MODEL      128
REMARK 921   NORMALIZED FREE ENERGY PREDICTED BY IDOCK:   -3.65 KCAL/MOL
REMARK 922        TOTAL FREE ENERGY PREDICTED BY IDOCK:   -5.87 KCAL/MOL
REMARK 923 INTER-LIGAND FREE ENERGY PREDICTED BY IDOCK:   -6.08 KCAL/MOL
REMARK 924 INTRA-LIGAND FREE ENERGY PREDICTED BY IDOCK:    0.21 KCAL/MOL
REMARK 927      BINDING AFFINITY PREDICTED BY RF-SCORE:    0.00 PKD
ROOT
HETATM    1  C   UNL     1     -14.120   8.698  71.976  1.00  0.00    -0.523 C  
HETATM    2  C   UNL     1     -12.682   9.162  72.129  1.00  0.00    -0.467 C  
ENDROOT
BRANCH   2   3
HETATM    3  C   UNL     1     -12.062   9.741  70.868  1.00  0.00    -0.321 C  
HETATM    4  N   UNL     1     -10.774   9.303  70.498  1.00  0.00    -0.237 N  
HETATM    5  O   UNL     1     -12.678  10.617  70.252  1.00  0.00    -0.319 OA 
BRANCH   4   6
HETATM    6  C   UNL     1     -10.253   9.950  69.308  1.00  0.00    -0.209 A  
HETATM    7  C   UNL     1      -9.070  10.697  69.322  1.00  0.00    -0.117 A  
HETATM    8  C   UNL     1      -8.636  11.379  68.178  1.00  0.00    -0.153 A  
HETATM    9  C   UNL     1     -10.951   9.839  68.095  1.00  0.00    -0.228 A  
HETATM   10  C   UNL     1      -9.375  11.319  67.000  1.00  0.00    -0.183 A  
HETATM   11  C   UNL     1     -10.532  10.543  66.958  1.00  0.00    -0.304 A  
ENDBRANCH   4   6
BRANCH   4  12
HETATM   12  C   UNL     1     -10.044   8.025  70.993  1.00  0.00    -0.186 C  
HETATM   13  C   UNL     1      -8.873   7.553  70.060  1.00  0.00    -0.144 C  
HETATM   14  N   UNL     1     -10.285   5.925  68.794  1.00  0.00    -0.171 NA 
HETATM   15  C   UNL     1      -9.340   7.042  68.696  1.00  0.00    -0.136 C  
HETATM   16  C   UNL     1     -10.987   6.782  71.057  1.00  0.00    -0.297 C  
HETATM   17  C   UNL     1     -11.408   6.307  69.661  1.00  0.00    -0.422 C  
BRANCH  12  18
HETATM   18  C   UNL     1      -9.412   8.257  72.412  1.00  0.00    -0.287 C  
BRANCH  18  19
HETATM   19  O   UNL     1      -8.077   8.749  72.350  1.00  0.00    -0.368 OA 
HETATM   20  C   UNL     1      -7.235   8.135  73.317  1.00  0.00    -0.127 C  
ENDBRANCH  18  19
ENDBRANCH  12  18
BRANCH  14  21
HETATM   21  C   UNL     1      -9.632   4.666  69.196  1.00  0.00    -0.175 C  
BRANCH  21  22
HETATM   22  C   UNL     1      -8.387   4.321  68.359  1.00  0.00    -0.098 C  
BRANCH  22  23
HETATM   23  C   UNL     1      -8.762   3.581  67.113  1.00  0.00    -0.119 A  
HETATM   24  C   UNL     1      -8.601   2.240  66.840  1.00  0.00    -0.117 A  
HETATM   25  C   UNL     1      -9.076   1.906  65.541  1.00  0.00    -0.079 A  
HETATM   26  C   UNL     1      -9.583   2.997  64.871  1.00  0.00    -0.099 A  
HETATM   27  S   UNL     1      -9.482   4.421  65.804  1.00  0.00    -0.190 SA 
ENDBRANCH  22  23
ENDBRANCH  21  22
ENDBRANCH  14  21
ENDBRANCH   4  12
ENDBRANCH   2   3
TORSDOF 8
ENDMDL
MODEL      129
REMARK 921   NORMALIZED FREE ENERGY PREDICTED BY IDOCK:   -3.65 KCAL/MOL
REMARK 922        TOTAL FREE ENERGY PREDICTED BY IDOCK:   -5.86 KCAL/MOL
REMARK 923 INTER-LIGAND FREE ENERGY PREDICTED BY IDOCK:   -5.49 KCAL/MOL
REMARK 924 INTRA-LIGAND FREE ENERGY PREDICTED BY IDOCK:   -0.37 KCAL/MOL
REMARK 927      BINDING AFFINITY PREDICTED BY RF-SCORE:    0.00 PKD
ROOT
HETATM    1  C   UNL     1      -6.259   8.128  71.748  1.00  0.00    -0.045 C  
HETATM    2  C   UNL     1      -7.315   8.093  70.658  1.00  0.00    -0.053 C  
ENDROOT
BRANCH   2   3
HETATM    3  C   UNL     1      -8.708   8.501  71.108  1.00  0.00    -0.174 C  
HETATM    4  N   UNL     1      -9.719   8.610  70.131  1.00  0.00    -0.169 N  
HETATM    5  O   UNL     1      -8.888   8.786  72.297  1.00  0.00    -0.367 OA 
BRANCH   4   6
HETATM    6  C   UNL     1     -10.998   9.051  70.656  1.00  0.00    -0.257 A  
HETATM    7  C   UNL     1     -11.332  10.405  70.766  1.00  0.00    -0.370 A  
HETATM    8  C   UNL     1     -12.540  10.804  71.353  1.00  0.00    -0.516 A  
HETATM    9  C   UNL     1     -11.941   8.102  71.078  1.00  0.00    -0.257 A  
HETATM   10  C   UNL     1     -13.435   9.853  71.834  1.00  0.00    -0.467 A  
HETATM   11  C   UNL     1     -13.137   8.500  71.690  1.00  0.00    -0.368 A  
ENDBRANCH   4   6
BRANCH   4  12
HETATM   12  C   UNL     1      -9.704   8.004  68.701  1.00  0.00    -0.159 C  
HETATM   13  C   UNL     1      -8.362   8.235  67.921  1.00  0.00    -0.128 C  
HETATM   14  N   UNL     1      -9.175  10.286  66.747  1.00  0.00    -0.156 NA 
HETATM   15  C   UNL     1      -8.104   9.698  67.558  1.00  0.00    -0.114 C  
HETATM   16  C   UNL     1     -10.784   8.639  67.769  1.00  0.00    -0.178 C  
HETATM   17  C   UNL     1     -10.464  10.099  67.428  1.00  0.00    -0.256 C  
BRANCH  12  18
HETATM   18  C   UNL     1      -9.925   6.450  68.751  1.00  0.00    -0.147 C  
BRANCH  18  19
HETATM   19  O   UNL     1     -10.988   6.015  67.908  1.00  0.00    -0.302 OA 
HETATM   20  C   UNL     1     -10.516   5.287  66.782  1.00  0.00    -0.273 C  
ENDBRANCH  18  19
ENDBRANCH  12  18
BRANCH  14  21
HETATM   21  C   UNL     1      -9.166   9.796  65.358  1.00  0.00    -0.227 C  
BRANCH  21  22
HETATM   22  C   UNL     1      -7.878  10.143  64.589  1.00  0.00    -0.144 C  
BRANCH  22  23
HETATM   23  C   UNL     1      -7.263   8.919  63.985  1.00  0.00    -0.095 A  
HETATM   24  C   UNL     1      -7.673   8.224  62.868  1.00  0.00    -0.132 A  
HETATM   25  C   UNL     1      -6.834   7.104  62.608  1.00  0.00    -0.053 A  
HETATM   26  C   UNL     1      -5.817   6.985  63.527  1.00  0.00    -0.036 A  
HETATM   27  S   UNL     1      -5.875   8.217  64.705  1.00  0.00    -0.045 SA 
ENDBRANCH  22  23
ENDBRANCH  21  22
ENDBRANCH  14  21
ENDBRANCH   4  12
ENDBRANCH   2   3
TORSDOF 8
ENDMDL
MODEL      130
REMARK 921   NORMALIZED FREE ENERGY PREDICTED BY IDOCK:   -3.64 KCAL/MOL
REMARK 922        TOTAL FREE ENERGY PREDICTED BY IDOCK:   -5.85 KCAL/MOL
REMARK 923 INTER-LIGAND FREE ENERGY PREDICTED BY IDOCK:   -5.50 KCAL/MOL
REMARK 924 INTRA-LIGAND FREE ENERGY PREDICTED BY IDOCK:   -0.35 KCAL/MOL
REMARK 927      BINDING AFFINITY PREDICTED BY RF-SCORE:    0.00 PKD
ROOT
HETATM    1  C   UNL     1      -5.125  12.386  67.829  1.00  0.00    -0.087 C  
HETATM    2  C   UNL     1      -6.569  12.228  67.386  1.00  0.00    -0.154 C  
ENDROOT
BRANCH   2   3
HETATM    3  C   UNL     1      -6.795  11.170  66.319  1.00  0.00    -0.055 C  
HETATM    4  N   UNL     1      -8.102  10.670  66.143  1.00  0.00    -0.149 N  
HETATM    5  O   UNL     1      -5.821  10.741  65.692  1.00  0.00    -0.131 OA 
BRANCH   4   6
HETATM    6  C   UNL     1      -8.202   9.631  65.134  1.00  0.00    -0.134 A  
HETATM    7  C   UNL     1      -8.016   8.278  65.436  1.00  0.00    -0.127 A  
HETATM    8  C   UNL     1      -8.036   7.306  64.427  1.00  0.00    -0.106 A  
HETATM    9  C   UNL     1      -8.489   9.979  63.805  1.00  0.00    -0.181 A  
HETATM   10  C   UNL     1      -8.250   7.673  63.102  1.00  0.00     0.013 A  
HETATM   11  C   UNL     1      -8.482   9.011  62.792  1.00  0.00    -0.206 A  
ENDBRANCH   4   6
BRANCH   4  12
HETATM   12  C   UNL     1      -9.424  11.321  66.632  1.00  0.00    -0.186 C  
HETATM   13  C   UNL     1      -9.406  11.752  68.142  1.00  0.00    -0.190 C  
HETATM   14  N   UNL     1     -10.465   9.639  68.955  1.00  0.00    -0.209 NA 
HETATM   15  C   UNL     1      -9.348  10.576  69.118  1.00  0.00    -0.187 C  
HETATM   16  C   UNL     1     -10.641  10.347  66.543  1.00  0.00    -0.220 C  
HETATM   17  C   UNL     1     -10.535   9.199  67.555  1.00  0.00    -0.270 C  
BRANCH  12  18
HETATM   18  C   UNL     1      -9.748  12.617  65.806  1.00  0.00    -0.175 C  
BRANCH  18  19
HETATM   19  O   UNL     1     -10.778  12.416  64.843  1.00  0.00    -0.275 OA 
HETATM   20  C   UNL     1     -11.370  13.640  64.428  1.00  0.00    -0.374 C  
ENDBRANCH  18  19
ENDBRANCH  12  18
BRANCH  14  21
HETATM   21  C   UNL     1     -11.736  10.180  69.467  1.00  0.00    -0.061 C  
BRANCH  21  22
HETATM   22  C   UNL     1     -11.850  10.142  71.002  1.00  0.00    -0.475 C  
BRANCH  22  23
HETATM   23  C   UNL     1     -11.376   8.831  71.546  1.00  0.00    -0.304 A  
HETATM   24  C   UNL     1     -10.206   8.564  72.223  1.00  0.00    -0.395 A  
HETATM   25  C   UNL     1     -10.105   7.189  72.578  1.00  0.00    -0.211 A  
HETATM   26  C   UNL     1     -11.196   6.459  72.166  1.00  0.00    -0.279 A  
HETATM   27  S   UNL     1     -12.338   7.425  71.349  1.00  0.00    -0.370 SA 
ENDBRANCH  22  23
ENDBRANCH  21  22
ENDBRANCH  14  21
ENDBRANCH   4  12
ENDBRANCH   2   3
TORSDOF 8
ENDMDL
MODEL      131
REMARK 921   NORMALIZED FREE ENERGY PREDICTED BY IDOCK:   -3.63 KCAL/MOL
REMARK 922        TOTAL FREE ENERGY PREDICTED BY IDOCK:   -5.83 KCAL/MOL
REMARK 923 INTER-LIGAND FREE ENERGY PREDICTED BY IDOCK:   -5.54 KCAL/MOL
REMARK 924 INTRA-LIGAND FREE ENERGY PREDICTED BY IDOCK:   -0.29 KCAL/MOL
REMARK 927      BINDING AFFINITY PREDICTED BY RF-SCORE:    0.00 PKD
ROOT
HETATM    1  C   UNL     1     -12.917  10.703  71.216  1.00  0.00    -0.513 C  
HETATM    2  C   UNL     1     -11.873   9.667  70.839  1.00  0.00    -0.403 C  
ENDROOT
BRANCH   2   3
HETATM    3  C   UNL     1     -11.666   8.568  71.868  1.00  0.00    -0.341 C  
HETATM    4  N   UNL     1     -10.751   7.538  71.568  1.00  0.00    -0.218 N  
HETATM    5  O   UNL     1     -12.351   8.580  72.896  1.00  0.00    -0.275 OA 
BRANCH   4   6
HETATM    6  C   UNL     1     -10.662   6.514  72.592  1.00  0.00    -0.231 A  
HETATM    7  C   UNL     1      -9.687   6.545  73.595  1.00  0.00    -0.210 A  
HETATM    8  C   UNL     1      -9.573   5.500  74.521  1.00  0.00    -0.176 A  
HETATM    9  C   UNL     1     -11.573   5.446  72.588  1.00  0.00    -0.270 A  
HETATM   10  C   UNL     1     -10.437   4.410  74.462  1.00  0.00    -0.295 A  
HETATM   11  C   UNL     1     -11.442   4.387  73.497  1.00  0.00    -0.274 A  
ENDBRANCH   4   6
BRANCH   4  12
HETATM   12  C   UNL     1      -9.637   7.565  70.487  1.00  0.00    -0.168 C  
HETATM   13  C   UNL     1     -10.125   8.049  69.075  1.00  0.00    -0.206 C  
HETATM   14  N   UNL     1     -10.526   5.738  68.211  1.00  0.00    -0.215 NA 
HETATM   15  C   UNL     1     -11.090   7.079  68.392  1.00  0.00     0.001 C  
HETATM   16  C   UNL     1      -9.040   6.150  70.204  1.00  0.00    -0.156 C  
HETATM   17  C   UNL     1     -10.048   5.230  69.504  1.00  0.00    -0.252 C  
BRANCH  12  18
HETATM   18  C   UNL     1      -8.473   8.532  70.908  1.00  0.00    -0.152 C  
BRANCH  18  19
HETATM   19  O   UNL     1      -7.290   8.343  70.138  1.00  0.00    -0.056 OA 
HETATM   20  C   UNL     1      -6.116   8.397  70.938  1.00  0.00    -0.034 C  
ENDBRANCH  18  19
ENDBRANCH  12  18
BRANCH  14  21
HETATM   21  C   UNL     1      -9.508   5.691  67.147  1.00  0.00    -0.117 C  
BRANCH  21  22
HETATM   22  C   UNL     1      -8.921   4.287  66.915  1.00  0.00    -0.128 C  
BRANCH  22  23
HETATM   23  C   UNL     1      -9.398   3.709  65.619  1.00  0.00    -0.162 A  
HETATM   24  C   UNL     1     -10.447   4.134  64.833  1.00  0.00    -0.193 A  
HETATM   25  C   UNL     1     -10.597   3.326  63.672  1.00  0.00    -0.258 A  
HETATM   26  C   UNL     1      -9.661   2.319  63.609  1.00  0.00    -0.127 A  
HETATM   27  S   UNL     1      -8.606   2.345  64.948  1.00  0.00    -0.110 SA 
ENDBRANCH  22  23
ENDBRANCH  21  22
ENDBRANCH  14  21
ENDBRANCH   4  12
ENDBRANCH   2   3
TORSDOF 8
ENDMDL
MODEL      132
REMARK 921   NORMALIZED FREE ENERGY PREDICTED BY IDOCK:   -3.63 KCAL/MOL
REMARK 922        TOTAL FREE ENERGY PREDICTED BY IDOCK:   -5.83 KCAL/MOL
REMARK 923 INTER-LIGAND FREE ENERGY PREDICTED BY IDOCK:   -5.87 KCAL/MOL
REMARK 924 INTRA-LIGAND FREE ENERGY PREDICTED BY IDOCK:    0.04 KCAL/MOL
REMARK 927      BINDING AFFINITY PREDICTED BY RF-SCORE:    0.00 PKD
ROOT
HETATM    1  C   UNL     1     -12.528  12.865  65.205  1.00  0.00    -0.561 C  
HETATM    2  C   UNL     1     -12.062  13.190  66.613  1.00  0.00    -0.409 C  
ENDROOT
BRANCH   2   3
HETATM    3  C   UNL     1     -11.605  11.990  67.426  1.00  0.00    -0.318 C  
HETATM    4  N   UNL     1     -10.301  11.498  67.212  1.00  0.00    -0.201 N  
HETATM    5  O   UNL     1     -12.410  11.450  68.191  1.00  0.00    -0.502 OA 
BRANCH   4   6
HETATM    6  C   UNL     1      -9.980  10.323  68.001  1.00  0.00    -0.153 A  
HETATM    7  C   UNL     1      -9.800  10.382  69.387  1.00  0.00    -0.235 A  
HETATM    8  C   UNL     1      -9.408   9.248  70.111  1.00  0.00    -0.258 A  
HETATM    9  C   UNL     1      -9.834   9.080  67.367  1.00  0.00    -0.244 A  
HETATM   10  C   UNL     1      -9.197   8.036  69.459  1.00  0.00    -0.152 A  
HETATM   11  C   UNL     1      -9.416   7.952  68.086  1.00  0.00    -0.154 A  
ENDBRANCH   4   6
BRANCH   4  12
HETATM   12  C   UNL     1      -9.123  12.244  66.529  1.00  0.00    -0.188 C  
HETATM   13  C   UNL     1      -7.707  11.841  67.074  1.00  0.00    -0.158 C  
HETATM   14  N   UNL     1      -7.591  13.724  68.713  1.00  0.00    -0.125 NA 
HETATM   15  C   UNL     1      -7.455  12.277  68.518  1.00  0.00    -0.113 C  
HETATM   16  C   UNL     1      -9.177  13.788  66.758  1.00  0.00    -0.255 C  
HETATM   17  C   UNL     1      -8.902  14.165  68.218  1.00  0.00    -0.187 C  
BRANCH  12  18
HETATM   18  C   UNL     1      -9.100  11.959  64.985  1.00  0.00     0.310 C  
BRANCH  18  19
HETATM   19  O   UNL     1      -9.811  10.777  64.631  1.00  0.00    -0.253 OA 
HETATM   20  C   UNL     1      -9.038   9.913  63.808  1.00  0.00    -0.256 C  
ENDBRANCH  18  19
ENDBRANCH  12  18
BRANCH  14  21
HETATM   21  C   UNL     1      -6.461  14.480  68.143  1.00  0.00    -0.139 C  
BRANCH  21  22
HETATM   22  C   UNL     1      -6.146  15.784  68.898  1.00  0.00    -0.113 C  
BRANCH  22  23
HETATM   23  C   UNL     1      -6.784  16.962  68.232  1.00  0.00    -0.159 A  
HETATM   24  C   UNL     1      -7.340  18.076  68.823  1.00  0.00    -0.279 A  
HETATM   25  C   UNL     1      -7.855  18.984  67.856  1.00  0.00    -0.301 A  
HETATM   26  C   UNL     1      -7.673  18.537  66.567  1.00  0.00    -0.255 A  
HETATM   27  S   UNL     1      -6.888  17.024  66.522  1.00  0.00    -0.215 SA 
ENDBRANCH  22  23
ENDBRANCH  21  22
ENDBRANCH  14  21
ENDBRANCH   4  12
ENDBRANCH   2   3
TORSDOF 8
ENDMDL
MODEL      133
REMARK 921   NORMALIZED FREE ENERGY PREDICTED BY IDOCK:   -3.62 KCAL/MOL
REMARK 922        TOTAL FREE ENERGY PREDICTED BY IDOCK:   -5.82 KCAL/MOL
REMARK 923 INTER-LIGAND FREE ENERGY PREDICTED BY IDOCK:   -5.92 KCAL/MOL
REMARK 924 INTRA-LIGAND FREE ENERGY PREDICTED BY IDOCK:    0.09 KCAL/MOL
REMARK 927      BINDING AFFINITY PREDICTED BY RF-SCORE:    0.00 PKD
ROOT
HETATM    1  C   UNL     1     -10.476   5.344  66.671  1.00  0.00    -0.356 C  
HETATM    2  C   UNL     1     -10.976   6.228  67.800  1.00  0.00    -0.427 C  
ENDROOT
BRANCH   2   3
HETATM    3  C   UNL     1     -10.646   7.704  67.646  1.00  0.00    -0.224 C  
HETATM    4  N   UNL     1     -10.708   8.523  68.792  1.00  0.00    -0.119 N  
HETATM    5  O   UNL     1     -10.402   8.144  66.518  1.00  0.00    -0.273 OA 
BRANCH   4   6
HETATM    6  C   UNL     1     -10.423   9.922  68.531  1.00  0.00    -0.205 A  
HETATM    7  C   UNL     1      -9.139  10.373  68.206  1.00  0.00    -0.145 A  
HETATM    8  C   UNL     1      -8.876  11.739  68.041  1.00  0.00    -0.164 A  
HETATM    9  C   UNL     1     -11.456  10.868  68.608  1.00  0.00    -0.380 A  
HETATM   10  C   UNL     1      -9.896  12.675  68.191  1.00  0.00    -0.226 A  
HETATM   11  C   UNL     1     -11.189  12.237  68.469  1.00  0.00    -0.316 A  
ENDBRANCH   4   6
BRANCH   4  12
HETATM   12  C   UNL     1     -10.701   8.058  70.273  1.00  0.00    -0.239 C  
HETATM   13  C   UNL     1      -9.868   8.981  71.231  1.00  0.00    -0.376 C  
HETATM   14  N   UNL     1      -7.793   7.597  71.072  1.00  0.00    -0.088 NA 
HETATM   15  C   UNL     1      -8.362   8.945  70.967  1.00  0.00    -0.191 C  
HETATM   16  C   UNL     1     -10.046   6.652  70.458  1.00  0.00    -0.209 C  
HETATM   17  C   UNL     1      -8.535   6.682  70.195  1.00  0.00    -0.136 C  
BRANCH  12  18
HETATM   18  C   UNL     1     -12.159   8.019  70.854  1.00  0.00    -0.152 C  
BRANCH  18  19
HETATM   19  O   UNL     1     -12.580   9.275  71.378  1.00  0.00    -0.314 OA 
HETATM   20  C   UNL     1     -13.473   9.126  72.474  1.00  0.00    -0.428 C  
ENDBRANCH  18  19
ENDBRANCH  12  18
BRANCH  14  21
HETATM   21  C   UNL     1      -7.698   7.130  72.466  1.00  0.00    -0.088 C  
BRANCH  21  22
HETATM   22  C   UNL     1      -7.390   5.627  72.595  1.00  0.00    -0.095 C  
BRANCH  22  23
HETATM   23  C   UNL     1      -8.539   4.891  73.211  1.00  0.00    -0.102 A  
HETATM   24  C   UNL     1      -9.596   5.410  73.926  1.00  0.00    -0.142 A  
HETATM   25  C   UNL     1     -10.492   4.391  74.357  1.00  0.00    -0.309 A  
HETATM   26  C   UNL     1     -10.092   3.137  73.956  1.00  0.00    -0.128 A  
HETATM   27  S   UNL     1      -8.638   3.186  73.066  1.00  0.00    -0.081 SA 
ENDBRANCH  22  23
ENDBRANCH  21  22
ENDBRANCH  14  21
ENDBRANCH   4  12
ENDBRANCH   2   3
TORSDOF 8
ENDMDL
MODEL      134
REMARK 921   NORMALIZED FREE ENERGY PREDICTED BY IDOCK:   -3.62 KCAL/MOL
REMARK 922        TOTAL FREE ENERGY PREDICTED BY IDOCK:   -5.82 KCAL/MOL
REMARK 923 INTER-LIGAND FREE ENERGY PREDICTED BY IDOCK:   -5.92 KCAL/MOL
REMARK 924 INTRA-LIGAND FREE ENERGY PREDICTED BY IDOCK:    0.10 KCAL/MOL
REMARK 927      BINDING AFFINITY PREDICTED BY RF-SCORE:    0.00 PKD
ROOT
HETATM    1  C   UNL     1      -6.437   5.973  71.432  1.00  0.00    -0.049 C  
HETATM    2  C   UNL     1      -7.678   6.372  70.653  1.00  0.00    -0.105 C  
ENDROOT
BRANCH   2   3
HETATM    3  C   UNL     1      -7.700   5.903  69.207  1.00  0.00    -0.094 C  
HETATM    4  N   UNL     1      -8.859   6.152  68.444  1.00  0.00    -0.114 N  
HETATM    5  O   UNL     1      -6.734   5.267  68.774  1.00  0.00    -0.047 OA 
BRANCH   4   6
HETATM    6  C   UNL     1      -8.798   5.624  67.093  1.00  0.00    -0.106 A  
HETATM    7  C   UNL     1      -7.898   6.115  66.141  1.00  0.00    -0.105 A  
HETATM    8  C   UNL     1      -7.919   5.644  64.821  1.00  0.00    -0.119 A  
HETATM    9  C   UNL     1      -9.667   4.591  66.711  1.00  0.00    -0.224 A  
HETATM   10  C   UNL     1      -8.835   4.669  64.437  1.00  0.00    -0.152 A  
HETATM   11  C   UNL     1      -9.706   4.138  65.385  1.00  0.00    -0.201 A  
ENDBRANCH   4   6
BRANCH   4  12
HETATM   12  C   UNL     1      -9.982   7.177  68.759  1.00  0.00    -0.163 C  
HETATM   13  C   UNL     1     -10.774   7.670  67.497  1.00  0.00    -0.280 C  
HETATM   14  N   UNL     1      -9.372   9.716  67.182  1.00  0.00    -0.137 NA 
HETATM   15  C   UNL     1      -9.939   8.524  66.541  1.00  0.00    -0.280 C  
HETATM   16  C   UNL     1      -9.431   8.497  69.386  1.00  0.00    -0.161 C  
HETATM   17  C   UNL     1      -8.618   9.317  68.377  1.00  0.00    -0.124 C  
BRANCH  12  18
HETATM   18  C   UNL     1     -11.046   6.557  69.734  1.00  0.00    -0.370 C  
BRANCH  18  19
HETATM   19  O   UNL     1     -11.279   7.364  70.884  1.00  0.00    -0.258 OA 
HETATM   20  C   UNL     1     -12.585   7.177  71.414  1.00  0.00    -0.394 C  
ENDBRANCH  18  19
ENDBRANCH  12  18
BRANCH  14  21
HETATM   21  C   UNL     1     -10.386  10.753  67.443  1.00  0.00    -0.211 C  
BRANCH  21  22
HETATM   22  C   UNL     1      -9.955  12.164  67.001  1.00  0.00    -0.213 C  
BRANCH  22  23
HETATM   23  C   UNL     1     -10.733  12.615  65.804  1.00  0.00    -0.268 A  
HETATM   24  C   UNL     1     -10.866  11.981  64.588  1.00  0.00    -0.357 A  
HETATM   25  C   UNL     1     -11.685  12.725  63.693  1.00  0.00    -0.587 A  
HETATM   26  C   UNL     1     -12.148  13.894  64.254  1.00  0.00    -0.440 A  
HETATM   27  S   UNL     1     -11.594  14.096  65.854  1.00  0.00    -0.358 SA 
ENDBRANCH  22  23
ENDBRANCH  21  22
ENDBRANCH  14  21
ENDBRANCH   4  12
ENDBRANCH   2   3
TORSDOF 8
ENDMDL
MODEL      135
REMARK 921   NORMALIZED FREE ENERGY PREDICTED BY IDOCK:   -3.61 KCAL/MOL
REMARK 922        TOTAL FREE ENERGY PREDICTED BY IDOCK:   -5.80 KCAL/MOL
REMARK 923 INTER-LIGAND FREE ENERGY PREDICTED BY IDOCK:   -6.08 KCAL/MOL
REMARK 924 INTRA-LIGAND FREE ENERGY PREDICTED BY IDOCK:    0.29 KCAL/MOL
REMARK 927      BINDING AFFINITY PREDICTED BY RF-SCORE:    0.00 PKD
ROOT
HETATM    1  C   UNL     1      -6.688   7.951  73.691  1.00  0.00    -0.112 C  
HETATM    2  C   UNL     1      -7.966   7.186  73.394  1.00  0.00    -0.122 C  
ENDROOT
BRANCH   2   3
HETATM    3  C   UNL     1      -7.916   6.327  72.141  1.00  0.00    -0.108 C  
HETATM    4  N   UNL     1      -9.081   6.232  71.352  1.00  0.00    -0.143 N  
HETATM    5  O   UNL     1      -6.884   5.694  71.896  1.00  0.00    -0.063 OA 
BRANCH   4   6
HETATM    6  C   UNL     1      -8.945   5.351  70.207  1.00  0.00    -0.135 A  
HETATM    7  C   UNL     1      -9.675   4.164  70.089  1.00  0.00    -0.278 A  
HETATM    8  C   UNL     1      -9.461   3.292  69.013  1.00  0.00    -0.187 A  
HETATM    9  C   UNL     1      -8.050   5.683  69.178  1.00  0.00    -0.096 A  
HETATM   10  C   UNL     1      -8.519   3.598  68.036  1.00  0.00    -0.108 A  
HETATM   11  C   UNL     1      -7.817   4.799  68.116  1.00  0.00    -0.082 A  
ENDBRANCH   4   6
BRANCH   4  12
HETATM   12  C   UNL     1     -10.306   7.186  71.378  1.00  0.00    -0.196 C  
HETATM   13  C   UNL     1     -10.975   7.408  69.975  1.00  0.00    -0.264 C  
HETATM   14  N   UNL     1      -9.699   9.502  69.487  1.00  0.00    -0.179 NA 
HETATM   15  C   UNL     1     -10.096   8.180  68.989  1.00  0.00    -0.205 C  
HETATM   16  C   UNL     1      -9.932   8.630  71.839  1.00  0.00    -0.392 C  
HETATM   17  C   UNL     1      -9.066   9.359  70.804  1.00  0.00    -0.204 C  
BRANCH  12  18
HETATM   18  C   UNL     1     -11.431   6.627  72.320  1.00  0.00    -0.283 C  
BRANCH  18  19
HETATM   19  O   UNL     1     -10.925   5.764  73.334  1.00  0.00    -0.268 OA 
HETATM   20  C   UNL     1     -11.519   4.473  73.283  1.00  0.00    -0.219 C  
ENDBRANCH  18  19
ENDBRANCH  12  18
BRANCH  14  21
HETATM   21  C   UNL     1     -10.810  10.470  69.468  1.00  0.00    -0.256 C  
BRANCH  21  22
HETATM   22  C   UNL     1     -11.413  10.692  68.069  1.00  0.00    -0.289 C  
BRANCH  22  23
HETATM   23  C   UNL     1     -11.587  12.150  67.781  1.00  0.00    -0.342 A  
HETATM   24  C   UNL     1     -11.666  13.192  68.680  1.00  0.00    -0.362 A  
HETATM   25  C   UNL     1     -11.836  14.443  68.024  1.00  0.00    -0.361 A  
HETATM   26  C   UNL     1     -11.878  14.315  66.654  1.00  0.00    -0.421 A  
HETATM   27  S   UNL     1     -11.717  12.692  66.160  1.00  0.00    -0.408 SA 
ENDBRANCH  22  23
ENDBRANCH  21  22
ENDBRANCH  14  21
ENDBRANCH   4  12
ENDBRANCH   2   3
TORSDOF 8
ENDMDL
MODEL      136
REMARK 921   NORMALIZED FREE ENERGY PREDICTED BY IDOCK:   -3.60 KCAL/MOL
REMARK 922        TOTAL FREE ENERGY PREDICTED BY IDOCK:   -5.79 KCAL/MOL
REMARK 923 INTER-LIGAND FREE ENERGY PREDICTED BY IDOCK:   -6.36 KCAL/MOL
REMARK 924 INTRA-LIGAND FREE ENERGY PREDICTED BY IDOCK:    0.57 KCAL/MOL
REMARK 927      BINDING AFFINITY PREDICTED BY RF-SCORE:    0.00 PKD
ROOT
HETATM    1  C   UNL     1     -12.039  12.118  64.241  1.00  0.00    -0.465 C  
HETATM    2  C   UNL     1     -11.036  12.344  65.358  1.00  0.00    -0.335 C  
ENDROOT
BRANCH   2   3
HETATM    3  C   UNL     1     -11.649  12.534  66.736  1.00  0.00    -0.382 C  
HETATM    4  N   UNL     1     -11.086  11.828  67.819  1.00  0.00    -0.227 N  
HETATM    5  O   UNL     1     -12.655  13.244  66.845  1.00  0.00    -0.184 OA 
BRANCH   4   6
HETATM    6  C   UNL     1     -11.773  12.041  69.079  1.00  0.00    -0.325 A  
HETATM    7  C   UNL     1     -11.831  13.296  69.695  1.00  0.00    -0.391 A  
HETATM    8  C   UNL     1     -12.429  13.455  70.952  1.00  0.00    -0.439 A  
HETATM    9  C   UNL     1     -12.400  10.961  69.719  1.00  0.00    -0.326 A  
HETATM   10  C   UNL     1     -12.984  12.361  71.609  1.00  0.00    -0.409 A  
HETATM   11  C   UNL     1     -12.975  11.114  70.989  1.00  0.00    -0.338 A  
ENDBRANCH   4   6
BRANCH   4  12
HETATM   12  C   UNL     1      -9.682  11.168  67.873  1.00  0.00    -0.174 C  
HETATM   13  C   UNL     1      -9.217  10.537  66.513  1.00  0.00    -0.183 C  
HETATM   14  N   UNL     1     -10.018   8.240  67.086  1.00  0.00    -0.213 NA 
HETATM   15  C   UNL     1     -10.034   9.316  66.089  1.00  0.00    -0.277 C  
HETATM   16  C   UNL     1      -9.620   9.970  68.873  1.00  0.00    -0.181 C  
HETATM   17  C   UNL     1     -10.444   8.772  68.387  1.00  0.00    -0.176 C  
BRANCH  12  18
HETATM   18  C   UNL     1      -8.585  12.219  68.271  1.00  0.00    -0.172 C  
BRANCH  18  19
HETATM   19  O   UNL     1      -8.104  12.965  67.157  1.00  0.00    -0.173 OA 
HETATM   20  C   UNL     1      -7.347  14.100  67.559  1.00  0.00    -0.175 C  
ENDBRANCH  18  19
ENDBRANCH  12  18
BRANCH  14  21
HETATM   21  C   UNL     1      -8.727   7.532  67.133  1.00  0.00    -0.121 C  
BRANCH  21  22
HETATM   22  C   UNL     1      -8.864   6.004  67.270  1.00  0.00    -0.107 C  
BRANCH  22  23
HETATM   23  C   UNL     1      -8.583   5.561  68.672  1.00  0.00    -0.103 A  
HETATM   24  C   UNL     1      -7.359   5.322  69.259  1.00  0.00    -0.058 A  
HETATM   25  C   UNL     1      -7.497   4.907  70.613  1.00  0.00    -0.065 A  
HETATM   26  C   UNL     1      -8.813   4.846  71.013  1.00  0.00    -0.126 A  
HETATM   27  S   UNL     1      -9.881   5.284  69.757  1.00  0.00    -0.234 SA 
ENDBRANCH  22  23
ENDBRANCH  21  22
ENDBRANCH  14  21
ENDBRANCH   4  12
ENDBRANCH   2   3
TORSDOF 8
ENDMDL
MODEL      137
REMARK 921   NORMALIZED FREE ENERGY PREDICTED BY IDOCK:   -3.59 KCAL/MOL
REMARK 922        TOTAL FREE ENERGY PREDICTED BY IDOCK:   -5.77 KCAL/MOL
REMARK 923 INTER-LIGAND FREE ENERGY PREDICTED BY IDOCK:   -5.76 KCAL/MOL
REMARK 924 INTRA-LIGAND FREE ENERGY PREDICTED BY IDOCK:   -0.01 KCAL/MOL
REMARK 927      BINDING AFFINITY PREDICTED BY RF-SCORE:    0.00 PKD
ROOT
HETATM    1  C   UNL     1     -14.171   7.239  71.661  1.00  0.00    -0.558 C  
HETATM    2  C   UNL     1     -13.047   8.188  72.039  1.00  0.00    -0.317 C  
ENDROOT
BRANCH   2   3
HETATM    3  C   UNL     1     -12.801   9.311  71.046  1.00  0.00    -0.140 C  
HETATM    4  N   UNL     1     -11.572   9.333  70.355  1.00  0.00    -0.222 N  
HETATM    5  O   UNL     1     -13.654  10.197  70.928  1.00  0.00    -0.274 OA 
BRANCH   4   6
HETATM    6  C   UNL     1     -11.417  10.470  69.467  1.00  0.00    -0.272 A  
HETATM    7  C   UNL     1     -11.424  11.788  69.936  1.00  0.00    -0.285 A  
HETATM    8  C   UNL     1     -11.356  12.869  69.047  1.00  0.00    -0.341 A  
HETATM    9  C   UNL     1     -11.261  10.260  68.089  1.00  0.00    -0.294 A  
HETATM   10  C   UNL     1     -11.274  12.647  67.675  1.00  0.00    -0.329 A  
HETATM   11  C   UNL     1     -11.221  11.340  67.197  1.00  0.00    -0.344 A  
ENDBRANCH   4   6
BRANCH   4  12
HETATM   12  C   UNL     1     -10.576   8.154  70.186  1.00  0.00    -0.237 C  
HETATM   13  C   UNL     1     -10.226   7.414  71.525  1.00  0.00    -0.205 C  
HETATM   14  N   UNL     1      -8.153   8.747  71.943  1.00  0.00    -0.330 NA 
HETATM   15  C   UNL     1      -9.418   8.264  72.507  1.00  0.00    -0.286 C  
HETATM   16  C   UNL     1      -9.185   8.616  69.648  1.00  0.00    -0.157 C  
HETATM   17  C   UNL     1      -8.416   9.450  70.681  1.00  0.00    -0.193 C  
BRANCH  12  18
HETATM   18  C   UNL     1     -11.159   7.064  69.217  1.00  0.00    -0.127 C  
BRANCH  18  19
HETATM   19  O   UNL     1     -10.365   6.880  68.049  1.00  0.00    -0.169 OA 
HETATM   20  C   UNL     1     -11.158   6.641  66.894  1.00  0.00    -0.249 C  
ENDBRANCH  18  19
ENDBRANCH  12  18
BRANCH  14  21
HETATM   21  C   UNL     1      -7.144   7.679  71.823  1.00  0.00    -0.063 C  
BRANCH  21  22
HETATM   22  C   UNL     1      -6.493   7.291  73.164  1.00  0.00    -0.064 C  
BRANCH  22  23
HETATM   23  C   UNL     1      -6.620   5.822  73.420  1.00  0.00    -0.074 A  
HETATM   24  C   UNL     1      -6.161   5.105  74.504  1.00  0.00    -0.063 A  
HETATM   25  C   UNL     1      -6.468   3.720  74.388  1.00  0.00    -0.039 A  
HETATM   26  C   UNL     1      -7.149   3.429  73.228  1.00  0.00    -0.042 A  
HETATM   27  S   UNL     1      -7.414   4.820  72.278  1.00  0.00    -0.086 SA 
ENDBRANCH  22  23
ENDBRANCH  21  22
ENDBRANCH  14  21
ENDBRANCH   4  12
ENDBRANCH   2   3
TORSDOF 8
ENDMDL
MODEL      138
REMARK 921   NORMALIZED FREE ENERGY PREDICTED BY IDOCK:   -3.59 KCAL/MOL
REMARK 922        TOTAL FREE ENERGY PREDICTED BY IDOCK:   -5.77 KCAL/MOL
REMARK 923 INTER-LIGAND FREE ENERGY PREDICTED BY IDOCK:   -5.87 KCAL/MOL
REMARK 924 INTRA-LIGAND FREE ENERGY PREDICTED BY IDOCK:    0.10 KCAL/MOL
REMARK 927      BINDING AFFINITY PREDICTED BY RF-SCORE:    0.00 PKD
ROOT
HETATM    1  C   UNL     1     -12.451  13.811  71.136  1.00  0.00    -0.450 C  
HETATM    2  C   UNL     1     -12.445  13.769  69.618  1.00  0.00    -0.176 C  
ENDROOT
BRANCH   2   3
HETATM    3  C   UNL     1     -11.353  14.598  68.961  1.00  0.00    -0.277 C  
HETATM    4  N   UNL     1     -10.683  14.054  67.847  1.00  0.00    -0.238 N  
HETATM    5  O   UNL     1     -11.049  15.684  69.465  1.00  0.00    -0.253 OA 
BRANCH   4   6
HETATM    6  C   UNL     1      -9.628  14.902  67.325  1.00  0.00    -0.215 A  
HETATM    7  C   UNL     1      -8.325  14.870  67.833  1.00  0.00    -0.149 A  
HETATM    8  C   UNL     1      -7.348  15.759  67.366  1.00  0.00    -0.229 A  
HETATM    9  C   UNL     1      -9.908  15.795  66.279  1.00  0.00    -0.320 A  
HETATM   10  C   UNL     1      -7.658  16.690  66.379  1.00  0.00    -0.297 A  
HETATM   11  C   UNL     1      -8.939  16.703  65.831  1.00  0.00    -0.134 A  
ENDBRANCH   4   6
BRANCH   4  12
HETATM   12  C   UNL     1     -11.159  12.875  66.955  1.00  0.00    -0.278 C  
HETATM   13  C   UNL     1     -11.688  11.636  67.760  1.00  0.00    -0.315 C  
HETATM   14  N   UNL     1      -9.499  10.430  67.709  1.00  0.00    -0.144 NA 
HETATM   15  C   UNL     1     -10.601  10.906  68.551  1.00  0.00    -0.190 C  
HETATM   16  C   UNL     1     -10.010  12.282  66.080  1.00  0.00    -0.260 C  
HETATM   17  C   UNL     1      -8.961  11.550  66.926  1.00  0.00    -0.179 C  
BRANCH  12  18
HETATM   18  C   UNL     1     -12.333  13.326  66.014  1.00  0.00    -0.386 C  
BRANCH  18  19
HETATM   19  O   UNL     1     -12.385  12.583  64.800  1.00  0.00    -0.456 OA 
HETATM   20  C   UNL     1     -12.529  13.425  63.663  1.00  0.00    -0.242 C  
ENDBRANCH  18  19
ENDBRANCH  12  18
BRANCH  14  21
HETATM   21  C   UNL     1      -9.877   9.265  66.889  1.00  0.00    -0.214 C  
BRANCH  21  22
HETATM   22  C   UNL     1      -8.922   8.066  67.042  1.00  0.00    -0.156 C  
BRANCH  22  23
HETATM   23  C   UNL     1      -7.617   8.488  67.642  1.00  0.00    -0.098 A  
HETATM   24  C   UNL     1      -7.357   8.845  68.947  1.00  0.00    -0.075 A  
HETATM   25  C   UNL     1      -5.990   9.191  69.136  1.00  0.00    -0.042 A  
HETATM   26  C   UNL     1      -5.256   9.085  67.976  1.00  0.00    -0.034 A  
HETATM   27  S   UNL     1      -6.214   8.574  66.661  1.00  0.00    -0.059 SA 
ENDBRANCH  22  23
ENDBRANCH  21  22
ENDBRANCH  14  21
ENDBRANCH   4  12
ENDBRANCH   2   3
TORSDOF 8
ENDMDL
MODEL      139
REMARK 921   NORMALIZED FREE ENERGY PREDICTED BY IDOCK:   -3.58 KCAL/MOL
REMARK 922        TOTAL FREE ENERGY PREDICTED BY IDOCK:   -5.75 KCAL/MOL
REMARK 923 INTER-LIGAND FREE ENERGY PREDICTED BY IDOCK:   -5.76 KCAL/MOL
REMARK 924 INTRA-LIGAND FREE ENERGY PREDICTED BY IDOCK:    0.00 KCAL/MOL
REMARK 927      BINDING AFFINITY PREDICTED BY RF-SCORE:    0.00 PKD
ROOT
HETATM    1  C   UNL     1     -12.104  11.438  69.420  1.00  0.00    -0.358 C  
HETATM    2  C   UNL     1     -10.713  10.830  69.403  1.00  0.00    -0.272 C  
ENDROOT
BRANCH   2   3
HETATM    3  C   UNL     1     -10.557   9.623  68.492  1.00  0.00    -0.220 C  
HETATM    4  N   UNL     1      -9.832   8.514  68.974  1.00  0.00    -0.178 N  
HETATM    5  O   UNL     1     -11.013   9.682  67.345  1.00  0.00    -0.247 OA 
BRANCH   4   6
HETATM    6  C   UNL     1      -9.700   7.435  68.012  1.00  0.00    -0.144 A  
HETATM    7  C   UNL     1      -8.485   7.139  67.385  1.00  0.00    -0.122 A  
HETATM    8  C   UNL     1      -8.407   6.147  66.398  1.00  0.00    -0.120 A  
HETATM    9  C   UNL     1     -10.821   6.657  67.683  1.00  0.00    -0.393 A  
HETATM   10  C   UNL     1      -9.542   5.431  66.030  1.00  0.00    -0.149 A  
HETATM   11  C   UNL     1     -10.750   5.683  66.677  1.00  0.00    -0.339 A  
ENDBRANCH   4   6
BRANCH   4  12
HETATM   12  C   UNL     1      -9.484   8.197  70.453  1.00  0.00    -0.163 C  
HETATM   13  C   UNL     1      -9.271   6.670  70.749  1.00  0.00    -0.155 C  
HETATM   14  N   UNL     1     -11.623   6.294  71.507  1.00  0.00    -0.302 NA 
HETATM   15  C   UNL     1     -10.545   5.835  70.624  1.00  0.00    -0.277 C  
HETATM   16  C   UNL     1     -10.625   8.606  71.438  1.00  0.00    -0.334 C  
HETATM   17  C   UNL     1     -11.869   7.724  71.277  1.00  0.00    -0.295 C  
BRANCH  12  18
HETATM   18  C   UNL     1      -8.158   8.920  70.883  1.00  0.00    -0.166 C  
BRANCH  18  19
HETATM   19  O   UNL     1      -7.847   8.733  72.260  1.00  0.00    -0.343 OA 
HETATM   20  C   UNL     1      -6.451   8.565  72.476  1.00  0.00    -0.084 C  
ENDBRANCH  18  19
ENDBRANCH  12  18
BRANCH  14  21
HETATM   21  C   UNL     1     -11.377   5.958  72.921  1.00  0.00    -0.226 C  
BRANCH  21  22
HETATM   22  C   UNL     1     -11.615   4.474  73.254  1.00  0.00    -0.254 C  
BRANCH  22  23
HETATM   23  C   UNL     1     -10.330   3.707  73.251  1.00  0.00    -0.163 A  
HETATM   24  C   UNL     1     -10.070   2.485  72.668  1.00  0.00    -0.228 A  
HETATM   25  C   UNL     1      -8.725   2.074  72.886  1.00  0.00    -0.063 A  
HETATM   26  C   UNL     1      -8.008   2.990  73.621  1.00  0.00    -0.068 A  
HETATM   27  S   UNL     1      -8.954   4.342  74.052  1.00  0.00    -0.093 SA 
ENDBRANCH  22  23
ENDBRANCH  21  22
ENDBRANCH  14  21
ENDBRANCH   4  12
ENDBRANCH   2   3
TORSDOF 8
ENDMDL
MODEL      140
REMARK 921   NORMALIZED FREE ENERGY PREDICTED BY IDOCK:   -3.57 KCAL/MOL
REMARK 922        TOTAL FREE ENERGY PREDICTED BY IDOCK:   -5.74 KCAL/MOL
REMARK 923 INTER-LIGAND FREE ENERGY PREDICTED BY IDOCK:   -5.17 KCAL/MOL
REMARK 924 INTRA-LIGAND FREE ENERGY PREDICTED BY IDOCK:   -0.57 KCAL/MOL
REMARK 927      BINDING AFFINITY PREDICTED BY RF-SCORE:    0.00 PKD
ROOT
HETATM    1  C   UNL     1      -9.082   9.183  71.515  1.00  0.00    -0.118 C  
HETATM    2  C   UNL     1      -9.867   8.923  70.241  1.00  0.00    -0.211 C  
ENDROOT
BRANCH   2   3
HETATM    3  C   UNL     1      -9.169   8.021  69.236  1.00  0.00    -0.152 C  
HETATM    4  N   UNL     1      -8.737   8.588  68.020  1.00  0.00    -0.141 N  
HETATM    5  O   UNL     1      -9.066   6.817  69.491  1.00  0.00    -0.141 OA 
BRANCH   4   6
HETATM    6  C   UNL     1      -8.127   7.635  67.111  1.00  0.00    -0.118 A  
HETATM    7  C   UNL     1      -6.742   7.449  67.046  1.00  0.00    -0.069 A  
HETATM    8  C   UNL     1      -6.176   6.583  66.101  1.00  0.00    -0.038 A  
HETATM    9  C   UNL     1      -8.938   6.872  66.258  1.00  0.00    -0.172 A  
HETATM   10  C   UNL     1      -6.988   5.885  65.212  1.00  0.00    -0.063 A  
HETATM   11  C   UNL     1      -8.372   6.026  65.295  1.00  0.00    -0.148 A  
ENDBRANCH   4   6
BRANCH   4  12
HETATM   12  C   UNL     1      -8.535  10.097  67.714  1.00  0.00    -0.114 C  
HETATM   13  C   UNL     1      -9.768  10.996  68.080  1.00  0.00    -0.180 C  
HETATM   14  N   UNL     1     -10.736  10.939  65.777  1.00  0.00    -0.162 NA 
HETATM   15  C   UNL     1     -10.998  10.742  67.206  1.00  0.00    -0.297 C  
HETATM   16  C   UNL     1      -8.316  10.377  66.193  1.00  0.00    -0.149 C  
HETATM   17  C   UNL     1      -9.586  10.120  65.372  1.00  0.00    -0.264 C  
BRANCH  12  18
HETATM   18  C   UNL     1      -7.314  10.672  68.517  1.00  0.00    -0.090 C  
BRANCH  18  19
HETATM   19  O   UNL     1      -6.987  12.008  68.145  1.00  0.00    -0.069 OA 
HETATM   20  C   UNL     1      -6.451  12.750  69.233  1.00  0.00    -0.105 C  
ENDBRANCH  18  19
ENDBRANCH  12  18
BRANCH  14  21
HETATM   21  C   UNL     1     -10.604  12.361  65.416  1.00  0.00    -0.284 C  
BRANCH  21  22
HETATM   22  C   UNL     1     -11.820  13.216  65.816  1.00  0.00    -0.442 C  
BRANCH  22  23
HETATM   23  C   UNL     1     -11.429  14.294  66.779  1.00  0.00    -0.367 A  
HETATM   24  C   UNL     1     -11.638  14.335  68.141  1.00  0.00    -0.365 A  
HETATM   25  C   UNL     1     -11.127  15.532  68.716  1.00  0.00    -0.291 A  
HETATM   26  C   UNL     1     -10.547  16.358  67.781  1.00  0.00    -0.321 A  
HETATM   27  S   UNL     1     -10.621  15.695  66.212  1.00  0.00    -0.299 SA 
ENDBRANCH  22  23
ENDBRANCH  21  22
ENDBRANCH  14  21
ENDBRANCH   4  12
ENDBRANCH   2   3
TORSDOF 8
ENDMDL
MODEL      141
REMARK 921   NORMALIZED FREE ENERGY PREDICTED BY IDOCK:   -3.57 KCAL/MOL
REMARK 922        TOTAL FREE ENERGY PREDICTED BY IDOCK:   -5.74 KCAL/MOL
REMARK 923 INTER-LIGAND FREE ENERGY PREDICTED BY IDOCK:   -5.48 KCAL/MOL
REMARK 924 INTRA-LIGAND FREE ENERGY PREDICTED BY IDOCK:   -0.25 KCAL/MOL
REMARK 927      BINDING AFFINITY PREDICTED BY RF-SCORE:    0.00 PKD
ROOT
HETATM    1  C   UNL     1      -5.262   7.937  66.380  1.00  0.00    -0.025 C  
HETATM    2  C   UNL     1      -6.021   9.054  67.075  1.00  0.00    -0.057 C  
ENDROOT
BRANCH   2   3
HETATM    3  C   UNL     1      -6.952   9.848  66.173  1.00  0.00    -0.102 C  
HETATM    4  N   UNL     1      -8.318   9.915  66.518  1.00  0.00    -0.124 N  
HETATM    5  O   UNL     1      -6.494  10.348  65.141  1.00  0.00    -0.125 OA 
BRANCH   4   6
HETATM    6  C   UNL     1      -9.128  10.655  65.569  1.00  0.00    -0.190 A  
HETATM    7  C   UNL     1      -9.506  10.118  64.334  1.00  0.00    -0.368 A  
HETATM    8  C   UNL     1     -10.217  10.887  63.403  1.00  0.00    -0.356 A  
HETATM    9  C   UNL     1      -9.548  11.957  65.881  1.00  0.00    -0.248 A  
HETATM   10  C   UNL     1     -10.567  12.202  63.696  1.00  0.00    -0.504 A  
HETATM   11  C   UNL     1     -10.236  12.735  64.940  1.00  0.00    -0.294 A  
ENDBRANCH   4   6
BRANCH   4  12
HETATM   12  C   UNL     1      -8.947   9.602  67.903  1.00  0.00    -0.118 C  
HETATM   13  C   UNL     1      -8.361   8.322  68.599  1.00  0.00    -0.125 C  
HETATM   14  N   UNL     1     -10.156   6.806  67.746  1.00  0.00    -0.144 NA 
HETATM   15  C   UNL     1      -8.711   7.017  67.882  1.00  0.00    -0.125 C  
HETATM   16  C   UNL     1     -10.476   9.303  67.814  1.00  0.00    -0.313 C  
HETATM   17  C   UNL     1     -10.764   7.977  67.100  1.00  0.00    -0.215 C  
BRANCH  12  18
HETATM   18  C   UNL     1      -8.718  10.792  68.902  1.00  0.00    -0.152 C  
BRANCH  18  19
HETATM   19  O   UNL     1      -7.422  10.778  69.492  1.00  0.00    -0.142 OA 
HETATM   20  C   UNL     1      -6.675  11.945  69.173  1.00  0.00    -0.105 C  
ENDBRANCH  18  19
ENDBRANCH  12  18
BRANCH  14  21
HETATM   21  C   UNL     1     -10.796   6.438  69.022  1.00  0.00    -0.327 C  
BRANCH  21  22
HETATM   22  C   UNL     1     -10.140   5.230  69.717  1.00  0.00    -0.334 C  
BRANCH  22  23
HETATM   23  C   UNL     1     -10.038   5.448  71.194  1.00  0.00    -0.212 A  
HETATM   24  C   UNL     1     -11.049   5.419  72.130  1.00  0.00    -0.234 A  
HETATM   25  C   UNL     1     -10.561   5.679  73.441  1.00  0.00    -0.288 A  
HETATM   26  C   UNL     1      -9.201   5.893  73.462  1.00  0.00    -0.131 A  
HETATM   27  S   UNL     1      -8.515   5.786  71.905  1.00  0.00    -0.127 SA 
ENDBRANCH  22  23
ENDBRANCH  21  22
ENDBRANCH  14  21
ENDBRANCH   4  12
ENDBRANCH   2   3
TORSDOF 8
ENDMDL
MODEL      142
REMARK 921   NORMALIZED FREE ENERGY PREDICTED BY IDOCK:   -3.55 KCAL/MOL
REMARK 922        TOTAL FREE ENERGY PREDICTED BY IDOCK:   -5.72 KCAL/MOL
REMARK 923 INTER-LIGAND FREE ENERGY PREDICTED BY IDOCK:   -5.65 KCAL/MOL
REMARK 924 INTRA-LIGAND FREE ENERGY PREDICTED BY IDOCK:   -0.07 KCAL/MOL
REMARK 927      BINDING AFFINITY PREDICTED BY RF-SCORE:    0.00 PKD
ROOT
HETATM    1  C   UNL     1      -6.442   6.898  64.213  1.00  0.00    -0.036 C  
HETATM    2  C   UNL     1      -6.486   7.662  65.524  1.00  0.00    -0.042 C  
ENDROOT
BRANCH   2   3
HETATM    3  C   UNL     1      -7.563   7.202  66.493  1.00  0.00    -0.092 C  
HETATM    4  N   UNL     1      -8.150   8.163  67.341  1.00  0.00    -0.120 N  
HETATM    5  O   UNL     1      -7.836   5.999  66.549  1.00  0.00    -0.101 OA 
BRANCH   4   6
HETATM    6  C   UNL     1      -9.131   7.615  68.260  1.00  0.00    -0.136 A  
HETATM    7  C   UNL     1     -10.299   6.986  67.815  1.00  0.00    -0.255 A  
HETATM    8  C   UNL     1     -11.268   6.541  68.724  1.00  0.00    -0.319 A  
HETATM    9  C   UNL     1      -8.920   7.717  69.643  1.00  0.00    -0.140 A  
HETATM   10  C   UNL     1     -11.079   6.712  70.093  1.00  0.00    -0.384 A  
HETATM   11  C   UNL     1      -9.901   7.296  70.552  1.00  0.00    -0.183 A  
ENDBRANCH   4   6
BRANCH   4  12
HETATM   12  C   UNL     1      -8.121   9.706  67.165  1.00  0.00    -0.110 C  
HETATM   13  C   UNL     1      -9.375  10.442  67.754  1.00  0.00    -0.155 C  
HETATM   14  N   UNL     1     -10.605  10.492  65.579  1.00  0.00    -0.135 NA 
HETATM   15  C   UNL     1     -10.674  10.146  67.002  1.00  0.00    -0.196 C  
HETATM   16  C   UNL     1      -8.113  10.138  65.665  1.00  0.00    -0.149 C  
HETATM   17  C   UNL     1      -9.444   9.831  64.969  1.00  0.00    -0.272 C  
BRANCH  12  18
HETATM   18  C   UNL     1      -6.868  10.326  67.880  1.00  0.00    -0.074 C  
BRANCH  18  19
HETATM   19  O   UNL     1      -7.196  10.985  69.099  1.00  0.00    -0.101 OA 
HETATM   20  C   UNL     1      -6.485  12.206  69.257  1.00  0.00    -0.111 C  
ENDBRANCH  18  19
ENDBRANCH  12  18
BRANCH  14  21
HETATM   21  C   UNL     1     -10.643  11.947  65.349  1.00  0.00    -0.271 C  
BRANCH  21  22
HETATM   22  C   UNL     1     -11.900  12.630  65.917  1.00  0.00    -0.499 C  
BRANCH  22  23
HETATM   23  C   UNL     1     -11.540  13.840  66.722  1.00  0.00    -0.370 A  
HETATM   24  C   UNL     1     -11.870  14.120  68.030  1.00  0.00    -0.400 A  
HETATM   25  C   UNL     1     -11.349  15.376  68.448  1.00  0.00    -0.345 A  
HETATM   26  C   UNL     1     -10.640  16.008  67.451  1.00  0.00    -0.316 A  
HETATM   27  S   UNL     1     -10.607  15.091  66.014  1.00  0.00    -0.338 SA 
ENDBRANCH  22  23
ENDBRANCH  21  22
ENDBRANCH  14  21
ENDBRANCH   4  12
ENDBRANCH   2   3
TORSDOF 8
ENDMDL
MODEL      143
REMARK 921   NORMALIZED FREE ENERGY PREDICTED BY IDOCK:   -3.55 KCAL/MOL
REMARK 922        TOTAL FREE ENERGY PREDICTED BY IDOCK:   -5.72 KCAL/MOL
REMARK 923 INTER-LIGAND FREE ENERGY PREDICTED BY IDOCK:   -7.41 KCAL/MOL
REMARK 924 INTRA-LIGAND FREE ENERGY PREDICTED BY IDOCK:    1.69 KCAL/MOL
REMARK 927      BINDING AFFINITY PREDICTED BY RF-SCORE:    0.00 PKD
ROOT
HETATM    1  C   UNL     1     -10.411   7.068  66.913  1.00  0.00    -0.356 C  
HETATM    2  C   UNL     1      -9.961   7.459  68.309  1.00  0.00    -0.182 C  
ENDROOT
BRANCH   2   3
HETATM    3  C   UNL     1     -10.217   6.409  69.378  1.00  0.00    -0.192 C  
HETATM    4  N   UNL     1      -9.886   6.722  70.713  1.00  0.00    -0.183 N  
HETATM    5  O   UNL     1     -10.642   5.302  69.033  1.00  0.00    -0.188 OA 
BRANCH   4   6
HETATM    6  C   UNL     1     -10.124   5.638  71.647  1.00  0.00    -0.195 A  
HETATM    7  C   UNL     1      -9.228   4.574  71.798  1.00  0.00    -0.179 A  
HETATM    8  C   UNL     1      -9.524   3.498  72.647  1.00  0.00    -0.171 A  
HETATM    9  C   UNL     1     -11.290   5.637  72.428  1.00  0.00    -0.327 A  
HETATM   10  C   UNL     1     -10.718   3.475  73.362  1.00  0.00    -0.303 A  
HETATM   11  C   UNL     1     -11.599   4.549  73.256  1.00  0.00    -0.254 A  
ENDBRANCH   4   6
BRANCH   4  12
HETATM   12  C   UNL     1      -9.642   8.136  71.306  1.00  0.00    -0.162 C  
HETATM   13  C   UNL     1     -10.620   8.519  72.473  1.00  0.00    -0.308 C  
HETATM   14  N   UNL     1     -12.229   9.720  70.985  1.00  0.00    -0.329 NA 
HETATM   15  C   UNL     1     -12.072   8.699  72.026  1.00  0.00    -0.375 C  
HETATM   16  C   UNL     1      -9.859   9.273  70.258  1.00  0.00    -0.265 C  
HETATM   17  C   UNL     1     -11.333   9.417  69.861  1.00  0.00    -0.093 C  
BRANCH  12  18
HETATM   18  C   UNL     1      -8.189   8.254  71.891  1.00  0.00    -0.149 C  
BRANCH  18  19
HETATM   19  O   UNL     1      -8.172   8.687  73.248  1.00  0.00    -0.411 OA 
HETATM   20  C   UNL     1      -7.136   8.064  73.996  1.00  0.00    -0.144 C  
ENDBRANCH  18  19
ENDBRANCH  12  18
BRANCH  14  21
HETATM   21  C   UNL     1     -12.075  11.089  71.507  1.00  0.00     0.056 C  
BRANCH  21  22
HETATM   22  C   UNL     1     -12.087  12.173  70.414  1.00  0.00    -0.395 C  
BRANCH  22  23
HETATM   23  C   UNL     1     -12.444  13.511  70.983  1.00  0.00    -0.369 A  
HETATM   24  C   UNL     1     -11.958  14.748  70.620  1.00  0.00    -0.371 A  
HETATM   25  C   UNL     1     -12.535  15.791  71.397  1.00  0.00    -0.513 A  
HETATM   26  C   UNL     1     -13.440  15.318  72.320  1.00  0.00    -0.450 A  
HETATM   27  S   UNL     1     -13.590  13.620  72.254  1.00  0.00    -0.605 SA 
ENDBRANCH  22  23
ENDBRANCH  21  22
ENDBRANCH  14  21
ENDBRANCH   4  12
ENDBRANCH   2   3
TORSDOF 8
ENDMDL
MODEL      144
REMARK 921   NORMALIZED FREE ENERGY PREDICTED BY IDOCK:   -3.54 KCAL/MOL
REMARK 922        TOTAL FREE ENERGY PREDICTED BY IDOCK:   -5.70 KCAL/MOL
REMARK 923 INTER-LIGAND FREE ENERGY PREDICTED BY IDOCK:   -5.94 KCAL/MOL
REMARK 924 INTRA-LIGAND FREE ENERGY PREDICTED BY IDOCK:    0.24 KCAL/MOL
REMARK 927      BINDING AFFINITY PREDICTED BY RF-SCORE:    0.00 PKD
ROOT
HETATM    1  C   UNL     1     -12.848  13.921  65.454  1.00  0.00    -0.466 C  
HETATM    2  C   UNL     1     -11.902  12.766  65.736  1.00  0.00    -0.484 C  
ENDROOT
BRANCH   2   3
HETATM    3  C   UNL     1     -10.513  13.179  66.194  1.00  0.00    -0.281 C  
HETATM    4  N   UNL     1     -10.104  12.814  67.494  1.00  0.00    -0.211 N  
HETATM    5  O   UNL     1      -9.821  13.873  65.442  1.00  0.00    -0.261 OA 
BRANCH   4   6
HETATM    6  C   UNL     1      -8.782  13.296  67.851  1.00  0.00    -0.192 A  
HETATM    7  C   UNL     1      -7.617  12.753  67.300  1.00  0.00    -0.116 A  
HETATM    8  C   UNL     1      -6.352  13.181  67.726  1.00  0.00    -0.156 A  
HETATM    9  C   UNL     1      -8.651  14.336  68.783  1.00  0.00    -0.101 A  
HETATM   10  C   UNL     1      -6.235  14.164  68.704  1.00  0.00    -0.088 A  
HETATM   11  C   UNL     1      -7.387  14.746  69.229  1.00  0.00    -0.168 A  
ENDBRANCH   4   6
BRANCH   4  12
HETATM   12  C   UNL     1     -10.732  11.717  68.396  1.00  0.00    -0.219 C  
HETATM   13  C   UNL     1      -9.701  10.981  69.322  1.00  0.00    -0.033 C  
HETATM   14  N   UNL     1      -9.343   9.083  67.734  1.00  0.00    -0.139 NA 
HETATM   15  C   UNL     1      -8.700  10.111  68.559  1.00  0.00    -0.123 C  
HETATM   16  C   UNL     1     -11.378  10.559  67.572  1.00  0.00    -0.181 C  
HETATM   17  C   UNL     1     -10.326   9.714  66.843  1.00  0.00    -0.238 C  
BRANCH  12  18
HETATM   18  C   UNL     1     -11.820  12.332  69.347  1.00  0.00    -0.310 C  
BRANCH  18  19
HETATM   19  O   UNL     1     -11.879  13.754  69.274  1.00  0.00    -0.300 OA 
HETATM   20  C   UNL     1     -12.620  14.315  70.350  1.00  0.00    -0.343 C  
ENDBRANCH  18  19
ENDBRANCH  12  18
BRANCH  14  21
HETATM   21  C   UNL     1      -9.899   7.980  68.538  1.00  0.00    -0.174 C  
BRANCH  21  22
HETATM   22  C   UNL     1     -10.451   6.817  67.693  1.00  0.00    -0.287 C  
BRANCH  22  23
HETATM   23  C   UNL     1     -10.030   5.495  68.253  1.00  0.00    -0.154 A  
HETATM   24  C   UNL     1      -9.956   5.116  69.576  1.00  0.00    -0.301 A  
HETATM   25  C   UNL     1      -9.506   3.773  69.715  1.00  0.00    -0.256 A  
HETATM   26  C   UNL     1      -9.255   3.175  68.501  1.00  0.00    -0.171 A  
HETATM   27  S   UNL     1      -9.557   4.230  67.196  1.00  0.00    -0.186 SA 
ENDBRANCH  22  23
ENDBRANCH  21  22
ENDBRANCH  14  21
ENDBRANCH   4  12
ENDBRANCH   2   3
TORSDOF 8
ENDMDL
MODEL      145
REMARK 921   NORMALIZED FREE ENERGY PREDICTED BY IDOCK:   -3.53 KCAL/MOL
REMARK 922        TOTAL FREE ENERGY PREDICTED BY IDOCK:   -5.68 KCAL/MOL
REMARK 923 INTER-LIGAND FREE ENERGY PREDICTED BY IDOCK:   -5.90 KCAL/MOL
REMARK 924 INTRA-LIGAND FREE ENERGY PREDICTED BY IDOCK:    0.22 KCAL/MOL
REMARK 927      BINDING AFFINITY PREDICTED BY RF-SCORE:    0.00 PKD
ROOT
HETATM    1  C   UNL     1      -8.924   3.849  73.708  1.00  0.00    -0.091 C  
HETATM    2  C   UNL     1      -8.867   5.325  73.356  1.00  0.00    -0.113 C  
ENDROOT
BRANCH   2   3
HETATM    3  C   UNL     1     -10.221   5.976  73.121  1.00  0.00    -0.197 C  
HETATM    4  N   UNL     1     -10.355   6.858  72.029  1.00  0.00    -0.198 N  
HETATM    5  O   UNL     1     -11.130   5.762  73.929  1.00  0.00    -0.056 OA 
BRANCH   4   6
HETATM    6  C   UNL     1     -11.670   7.462  71.920  1.00  0.00    -0.288 A  
HETATM    7  C   UNL     1     -11.891   8.818  72.181  1.00  0.00    -0.436 A  
HETATM    8  C   UNL     1     -13.184   9.356  72.149  1.00  0.00    -0.541 A  
HETATM    9  C   UNL     1     -12.769   6.672  71.549  1.00  0.00    -0.248 A  
HETATM   10  C   UNL     1     -14.276   8.546  71.850  1.00  0.00    -0.536 A  
HETATM   11  C   UNL     1     -14.066   7.203  71.544  1.00  0.00    -0.467 A  
ENDBRANCH   4   6
BRANCH   4  12
HETATM   12  C   UNL     1      -9.413   6.971  70.800  1.00  0.00    -0.161 C  
HETATM   13  C   UNL     1     -10.145   7.350  69.464  1.00  0.00    -0.187 C  
HETATM   14  N   UNL     1     -10.398   4.981  68.707  1.00  0.00    -0.097 NA 
HETATM   15  C   UNL     1     -11.081   6.258  68.942  1.00  0.00    -0.362 C  
HETATM   16  C   UNL     1      -8.705   5.622  70.459  1.00  0.00    -0.140 C  
HETATM   17  C   UNL     1      -9.689   4.573  69.927  1.00  0.00    -0.218 C  
BRANCH  12  18
HETATM   18  C   UNL     1      -8.320   8.074  71.033  1.00  0.00    -0.116 C  
BRANCH  18  19
HETATM   19  O   UNL     1      -8.696   9.345  70.512  1.00  0.00    -0.215 OA 
HETATM   20  C   UNL     1      -7.593  10.039  69.945  1.00  0.00    -0.170 C  
ENDBRANCH  18  19
ENDBRANCH  12  18
BRANCH  14  21
HETATM   21  C   UNL     1      -9.540   5.011  67.509  1.00  0.00    -0.145 C  
BRANCH  21  22
HETATM   22  C   UNL     1     -10.303   4.756  66.197  1.00  0.00    -0.337 C  
BRANCH  22  23
HETATM   23  C   UNL     1      -9.373   4.319  65.108  1.00  0.00    -0.165 A  
HETATM   24  C   UNL     1      -8.544   5.102  64.333  1.00  0.00    -0.118 A  
HETATM   25  C   UNL     1      -7.811   4.323  63.394  1.00  0.00    -0.075 A  
HETATM   26  C   UNL     1      -8.102   2.981  63.485  1.00  0.00    -0.085 A  
HETATM   27  S   UNL     1      -9.259   2.659  64.696  1.00  0.00    -0.135 SA 
ENDBRANCH  22  23
ENDBRANCH  21  22
ENDBRANCH  14  21
ENDBRANCH   4  12
ENDBRANCH   2   3
TORSDOF 8
ENDMDL
MODEL      146
REMARK 921   NORMALIZED FREE ENERGY PREDICTED BY IDOCK:   -3.51 KCAL/MOL
REMARK 922        TOTAL FREE ENERGY PREDICTED BY IDOCK:   -5.66 KCAL/MOL
REMARK 923 INTER-LIGAND FREE ENERGY PREDICTED BY IDOCK:   -5.51 KCAL/MOL
REMARK 924 INTRA-LIGAND FREE ENERGY PREDICTED BY IDOCK:   -0.14 KCAL/MOL
REMARK 927      BINDING AFFINITY PREDICTED BY RF-SCORE:    0.00 PKD
ROOT
HETATM    1  C   UNL     1     -11.748  12.762  67.342  1.00  0.00    -0.425 C  
HETATM    2  C   UNL     1     -10.238  12.602  67.324  1.00  0.00    -0.227 C  
ENDROOT
BRANCH   2   3
HETATM    3  C   UNL     1      -9.685  11.924  66.081  1.00  0.00    -0.232 C  
HETATM    4  N   UNL     1      -8.749  10.883  66.251  1.00  0.00    -0.165 N  
HETATM    5  O   UNL     1     -10.023  12.350  64.972  1.00  0.00    -0.265 OA 
BRANCH   4   6
HETATM    6  C   UNL     1      -8.246  10.336  65.005  1.00  0.00    -0.154 A  
HETATM    7  C   UNL     1      -9.092   9.764  64.048  1.00  0.00    -0.280 A  
HETATM    8  C   UNL     1      -8.571   9.168  62.891  1.00  0.00    -0.203 A  
HETATM    9  C   UNL     1      -6.870  10.366  64.737  1.00  0.00    -0.028 A  
HETATM   10  C   UNL     1      -7.197   9.141  62.672  1.00  0.00    -0.097 A  
HETATM   11  C   UNL     1      -6.346   9.746  63.594  1.00  0.00    -0.117 A  
ENDBRANCH   4   6
BRANCH   4  12
HETATM   12  C   UNL     1      -8.481  10.071  67.547  1.00  0.00    -0.118 C  
HETATM   13  C   UNL     1      -7.818   8.670  67.300  1.00  0.00    -0.097 C  
HETATM   14  N   UNL     1      -9.990   7.431  67.299  1.00  0.00    -0.178 NA 
HETATM   15  C   UNL     1      -8.733   7.674  66.584  1.00  0.00    -0.141 C  
HETATM   16  C   UNL     1      -9.793   9.726  68.321  1.00  0.00    -0.167 C  
HETATM   17  C   UNL     1     -10.659   8.712  67.562  1.00  0.00    -0.222 C  
BRANCH  12  18
HETATM   18  C   UNL     1      -7.515  10.853  68.508  1.00  0.00    -0.103 C  
BRANCH  18  19
HETATM   19  O   UNL     1      -6.621  11.715  67.811  1.00  0.00    -0.062 OA 
HETATM   20  C   UNL     1      -5.264  11.321  67.970  1.00  0.00    -0.043 C  
ENDBRANCH  18  19
ENDBRANCH  12  18
BRANCH  14  21
HETATM   21  C   UNL     1      -9.804   6.605  68.505  1.00  0.00    -0.139 C  
BRANCH  21  22
HETATM   22  C   UNL     1     -11.124   6.224  69.202  1.00  0.00    -0.457 C  
BRANCH  22  23
HETATM   23  C   UNL     1     -11.152   6.722  70.613  1.00  0.00    -0.291 A  
HETATM   24  C   UNL     1     -11.670   7.909  71.086  1.00  0.00    -0.306 A  
HETATM   25  C   UNL     1     -11.506   8.032  72.494  1.00  0.00    -0.471 A  
HETATM   26  C   UNL     1     -10.875   6.940  73.046  1.00  0.00    -0.296 A  
HETATM   27  S   UNL     1     -10.476   5.772  71.869  1.00  0.00    -0.228 SA 
ENDBRANCH  22  23
ENDBRANCH  21  22
ENDBRANCH  14  21
ENDBRANCH   4  12
ENDBRANCH   2   3
TORSDOF 8
ENDMDL
MODEL      147
REMARK 921   NORMALIZED FREE ENERGY PREDICTED BY IDOCK:   -3.51 KCAL/MOL
REMARK 922        TOTAL FREE ENERGY PREDICTED BY IDOCK:   -5.65 KCAL/MOL
REMARK 923 INTER-LIGAND FREE ENERGY PREDICTED BY IDOCK:   -6.23 KCAL/MOL
REMARK 924 INTRA-LIGAND FREE ENERGY PREDICTED BY IDOCK:    0.58 KCAL/MOL
REMARK 927      BINDING AFFINITY PREDICTED BY RF-SCORE:    0.00 PKD
ROOT
HETATM    1  C   UNL     1     -12.062  13.095  70.330  1.00  0.00    -0.399 C  
HETATM    2  C   UNL     1     -12.355  13.660  68.951  1.00  0.00    -0.047 C  
ENDROOT
BRANCH   2   3
HETATM    3  C   UNL     1     -11.894  15.093  68.739  1.00  0.00    -0.303 C  
HETATM    4  N   UNL     1     -10.794  15.319  67.885  1.00  0.00    -0.279 N  
HETATM    5  O   UNL     1     -12.453  15.996  69.370  1.00  0.00    -0.050 OA 
BRANCH   4   6
HETATM    6  C   UNL     1     -10.404  16.714  67.788  1.00  0.00    -0.306 A  
HETATM    7  C   UNL     1      -9.924  17.432  68.889  1.00  0.00    -0.308 A  
HETATM    8  C   UNL     1      -9.633  18.799  68.785  1.00  0.00    -0.411 A  
HETATM    9  C   UNL     1     -10.511  17.381  66.559  1.00  0.00    -0.264 A  
HETATM   10  C   UNL     1      -9.812  19.466  67.577  1.00  0.00    -0.448 A  
HETATM   11  C   UNL     1     -10.247  18.754  66.461  1.00  0.00    -0.458 A  
ENDBRANCH   4   6
BRANCH   4  12
HETATM   12  C   UNL     1     -10.217  14.341  66.827  1.00  0.00    -0.272 C  
HETATM   13  C   UNL     1     -10.245  12.833  67.266  1.00  0.00    -0.232 C  
HETATM   14  N   UNL     1      -7.901  12.846  68.133  1.00  0.00    -0.137 NA 
HETATM   15  C   UNL     1      -9.299  12.511  68.424  1.00  0.00    -0.149 C  
HETATM   16  C   UNL     1      -8.709  14.606  66.523  1.00  0.00    -0.115 C  
HETATM   17  C   UNL     1      -7.810  14.250  67.713  1.00  0.00    -0.165 C  
BRANCH  12  18
HETATM   18  C   UNL     1     -11.029  14.425  65.486  1.00  0.00    -0.329 C  
BRANCH  18  19
HETATM   19  O   UNL     1     -12.116  13.506  65.438  1.00  0.00    -0.368 OA 
HETATM   20  C   UNL     1     -12.331  12.999  64.127  1.00  0.00    -0.358 C  
ENDBRANCH  18  19
ENDBRANCH  12  18
BRANCH  14  21
HETATM   21  C   UNL     1      -7.280  11.906  67.184  1.00  0.00    -0.144 C  
BRANCH  21  22
HETATM   22  C   UNL     1      -6.344  10.881  67.851  1.00  0.00    -0.057 C  
BRANCH  22  23
HETATM   23  C   UNL     1      -7.108   9.952  68.742  1.00  0.00    -0.067 A  
HETATM   24  C   UNL     1      -7.240  10.005  70.113  1.00  0.00    -0.167 A  
HETATM   25  C   UNL     1      -8.044   8.939  70.605  1.00  0.00    -0.161 A  
HETATM   26  C   UNL     1      -8.498   8.115  69.600  1.00  0.00    -0.126 A  
HETATM   27  S   UNL     1      -7.953   8.622  68.066  1.00  0.00    -0.107 SA 
ENDBRANCH  22  23
ENDBRANCH  21  22
ENDBRANCH  14  21
ENDBRANCH   4  12
ENDBRANCH   2   3
TORSDOF 8
ENDMDL
MODEL      148
REMARK 921   NORMALIZED FREE ENERGY PREDICTED BY IDOCK:   -3.50 KCAL/MOL
REMARK 922        TOTAL FREE ENERGY PREDICTED BY IDOCK:   -5.64 KCAL/MOL
REMARK 923 INTER-LIGAND FREE ENERGY PREDICTED BY IDOCK:   -5.84 KCAL/MOL
REMARK 924 INTRA-LIGAND FREE ENERGY PREDICTED BY IDOCK:    0.20 KCAL/MOL
REMARK 927      BINDING AFFINITY PREDICTED BY RF-SCORE:    0.00 PKD
ROOT
HETATM    1  C   UNL     1      -5.487  10.025  66.847  1.00  0.00    -0.045 C  
HETATM    2  C   UNL     1      -6.846   9.962  67.522  1.00  0.00    -0.081 C  
ENDROOT
BRANCH   2   3
HETATM    3  C   UNL     1      -7.588   8.648  67.338  1.00  0.00    -0.093 C  
HETATM    4  N   UNL     1      -8.096   8.004  68.485  1.00  0.00    -0.124 N  
HETATM    5  O   UNL     1      -7.661   8.161  66.206  1.00  0.00    -0.090 OA 
BRANCH   4   6
HETATM    6  C   UNL     1      -8.743   6.735  68.208  1.00  0.00    -0.123 A  
HETATM    7  C   UNL     1      -8.228   5.519  68.667  1.00  0.00    -0.102 A  
HETATM    8  C   UNL     1      -8.828   4.303  68.314  1.00  0.00    -0.132 A  
HETATM    9  C   UNL     1      -9.923   6.709  67.449  1.00  0.00    -0.185 A  
HETATM   10  C   UNL     1      -9.957   4.287  67.501  1.00  0.00    -0.100 A  
HETATM   11  C   UNL     1     -10.509   5.493  67.073  1.00  0.00    -0.336 A  
ENDBRANCH   4   6
BRANCH   4  12
HETATM   12  C   UNL     1      -8.334   8.637  69.883  1.00  0.00    -0.123 C  
HETATM   13  C   UNL     1      -9.460   7.935  70.721  1.00  0.00    -0.163 C  
HETATM   14  N   UNL     1     -11.252   9.521  69.999  1.00  0.00    -0.232 NA 
HETATM   15  C   UNL     1     -10.864   8.114  70.140  1.00  0.00    -0.241 C  
HETATM   16  C   UNL     1      -8.813  10.121  69.796  1.00  0.00    -0.152 C  
HETATM   17  C   UNL     1     -10.231  10.235  69.221  1.00  0.00    -0.227 C  
BRANCH  12  18
HETATM   18  C   UNL     1      -7.030   8.575  70.755  1.00  0.00    -0.050 C  
BRANCH  18  19
HETATM   19  O   UNL     1      -6.613   9.855  71.220  1.00  0.00    -0.321 OA 
HETATM   20  C   UNL     1      -5.362   9.800  71.892  1.00  0.00    -0.052 C  
ENDBRANCH  18  19
ENDBRANCH  12  18
BRANCH  14  21
HETATM   21  C   UNL     1     -11.557  10.156  71.294  1.00  0.00    -0.306 C  
BRANCH  21  22
HETATM   22  C   UNL     1     -13.000  10.684  71.398  1.00  0.00    -0.545 C  
BRANCH  22  23
HETATM   23  C   UNL     1     -13.023  12.179  71.468  1.00  0.00    -0.295 A  
HETATM   24  C   UNL     1     -13.658  12.977  72.395  1.00  0.00    -0.628 A  
HETATM   25  C   UNL     1     -13.454  14.360  72.128  1.00  0.00    -0.507 A  
HETATM   26  C   UNL     1     -12.672  14.569  71.014  1.00  0.00    -0.343 A  
HETATM   27  S   UNL     1     -12.189  13.104  70.290  1.00  0.00    -0.245 SA 
ENDBRANCH  22  23
ENDBRANCH  21  22
ENDBRANCH  14  21
ENDBRANCH   4  12
ENDBRANCH   2   3
TORSDOF 8
ENDMDL
MODEL      149
REMARK 921   NORMALIZED FREE ENERGY PREDICTED BY IDOCK:   -3.49 KCAL/MOL
REMARK 922        TOTAL FREE ENERGY PREDICTED BY IDOCK:   -5.63 KCAL/MOL
REMARK 923 INTER-LIGAND FREE ENERGY PREDICTED BY IDOCK:   -5.94 KCAL/MOL
REMARK 924 INTRA-LIGAND FREE ENERGY PREDICTED BY IDOCK:    0.31 KCAL/MOL
REMARK 927      BINDING AFFINITY PREDICTED BY RF-SCORE:    0.00 PKD
ROOT
HETATM    1  C   UNL     1      -5.780   7.565  65.320  1.00  0.00    -0.037 C  
HETATM    2  C   UNL     1      -6.153   8.635  66.330  1.00  0.00    -0.056 C  
ENDROOT
BRANCH   2   3
HETATM    3  C   UNL     1      -7.069   9.724  65.796  1.00  0.00    -0.104 C  
HETATM    4  N   UNL     1      -8.447   9.634  66.081  1.00  0.00    -0.119 N  
HETATM    5  O   UNL     1      -6.587  10.607  65.080  1.00  0.00    -0.060 OA 
BRANCH   4   6
HETATM    6  C   UNL     1      -9.240  10.694  65.487  1.00  0.00    -0.196 A  
HETATM    7  C   UNL     1      -9.945  10.517  64.291  1.00  0.00    -0.398 A  
HETATM    8  C   UNL     1     -10.634  11.583  63.697  1.00  0.00    -0.491 A  
HETATM    9  C   UNL     1      -9.308  11.947  66.115  1.00  0.00    -0.228 A  
HETATM   10  C   UNL     1     -10.633  12.840  64.293  1.00  0.00    -0.424 A  
HETATM   11  C   UNL     1      -9.974  13.021  65.507  1.00  0.00    -0.226 A  
ENDBRANCH   4   6
BRANCH   4  12
HETATM   12  C   UNL     1      -9.117   8.777  67.189  1.00  0.00    -0.132 C  
HETATM   13  C   UNL     1     -10.553   9.263  67.596  1.00  0.00    -0.324 C  
HETATM   14  N   UNL     1      -9.749  10.634  69.525  1.00  0.00    -0.122 NA 
HETATM   15  C   UNL     1     -10.566  10.617  68.307  1.00  0.00    -0.194 C  
HETATM   16  C   UNL     1      -8.325   8.808  68.534  1.00  0.00    -0.129 C  
HETATM   17  C   UNL     1      -8.387  10.184  69.208  1.00  0.00    -0.158 C  
BRANCH  12  18
HETATM   18  C   UNL     1      -9.272   7.285  66.724  1.00  0.00    -0.155 C  
BRANCH  18  19
HETATM   19  O   UNL     1     -10.627   6.848  66.707  1.00  0.00    -0.275 OA 
HETATM   20  C   UNL     1     -10.745   5.480  66.336  1.00  0.00    -0.194 C  
ENDBRANCH  18  19
ENDBRANCH  12  18
BRANCH  14  21
HETATM   21  C   UNL     1     -10.372   9.889  70.634  1.00  0.00    -0.187 C  
BRANCH  21  22
HETATM   22  C   UNL     1     -11.804  10.352  70.962  1.00  0.00    -0.458 C  
BRANCH  22  23
HETATM   23  C   UNL     1     -12.633   9.218  71.478  1.00  0.00    -0.352 A  
HETATM   24  C   UNL     1     -13.783   9.281  72.235  1.00  0.00    -0.527 A  
HETATM   25  C   UNL     1     -14.285   7.985  72.539  1.00  0.00    -0.081 A  
HETATM   26  C   UNL     1     -13.508   6.982  72.004  1.00  0.00    -0.065 A  
HETATM   27  S   UNL     1     -12.174   7.601  71.142  1.00  0.00    -0.249 SA 
ENDBRANCH  22  23
ENDBRANCH  21  22
ENDBRANCH  14  21
ENDBRANCH   4  12
ENDBRANCH   2   3
TORSDOF 8
ENDMDL
MODEL      150
REMARK 921   NORMALIZED FREE ENERGY PREDICTED BY IDOCK:   -3.47 KCAL/MOL
REMARK 922        TOTAL FREE ENERGY PREDICTED BY IDOCK:   -5.60 KCAL/MOL
REMARK 923 INTER-LIGAND FREE ENERGY PREDICTED BY IDOCK:   -6.11 KCAL/MOL
REMARK 924 INTRA-LIGAND FREE ENERGY PREDICTED BY IDOCK:    0.51 KCAL/MOL
REMARK 927      BINDING AFFINITY PREDICTED BY RF-SCORE:    0.00 PKD
ROOT
HETATM    1  C   UNL     1     -12.629  14.095  65.517  1.00  0.00    -0.501 C  
HETATM    2  C   UNL     1     -11.166  14.053  65.920  1.00  0.00    -0.308 C  
ENDROOT
BRANCH   2   3
HETATM    3  C   UNL     1     -10.460  15.399  65.896  1.00  0.00    -0.340 C  
HETATM    4  N   UNL     1      -9.800  15.826  67.067  1.00  0.00    -0.231 N  
HETATM    5  O   UNL     1     -10.546  16.096  64.880  1.00  0.00    -0.622 OA 
BRANCH   4   6
HETATM    6  C   UNL     1      -9.200  17.143  66.956  1.00  0.00    -0.241 A  
HETATM    7  C   UNL     1      -9.803  18.285  67.494  1.00  0.00    -0.324 A  
HETATM    8  C   UNL     1      -9.243  19.554  67.299  1.00  0.00    -0.391 A  
HETATM    9  C   UNL     1      -7.978  17.295  66.283  1.00  0.00    -0.330 A  
HETATM   10  C   UNL     1      -8.067  19.699  66.568  1.00  0.00    -0.338 A  
HETATM   11  C   UNL     1      -7.431  18.567  66.065  1.00  0.00    -0.259 A  
ENDBRANCH   4   6
BRANCH   4  12
HETATM   12  C   UNL     1      -9.369  14.944  68.270  1.00  0.00    -0.195 C  
HETATM   13  C   UNL     1      -7.867  15.123  68.690  1.00  0.00    -0.140 C  
HETATM   14  N   UNL     1      -7.057  13.187  67.331  1.00  0.00    -0.143 NA 
HETATM   15  C   UNL     1      -6.870  14.606  67.651  1.00  0.00    -0.183 C  
HETATM   16  C   UNL     1      -9.484  13.417  67.965  1.00  0.00    -0.218 C  
HETATM   17  C   UNL     1      -8.451  12.955  66.931  1.00  0.00    -0.086 C  
BRANCH  12  18
HETATM   18  C   UNL     1     -10.227  15.275  69.542  1.00  0.00    -0.260 C  
BRANCH  18  19
HETATM   19  O   UNL     1     -11.294  14.354  69.746  1.00  0.00    -0.249 OA 
HETATM   20  C   UNL     1     -12.562  14.934  69.470  1.00  0.00     0.007 C  
ENDBRANCH  18  19
ENDBRANCH  12  18
BRANCH  14  21
HETATM   21  C   UNL     1      -6.600  12.299  68.414  1.00  0.00    -0.060 C  
BRANCH  21  22
HETATM   22  C   UNL     1      -6.406  10.836  67.973  1.00  0.00    -0.058 C  
BRANCH  22  23
HETATM   23  C   UNL     1      -7.283   9.914  68.761  1.00  0.00    -0.076 A  
HETATM   24  C   UNL     1      -8.250  10.243  69.686  1.00  0.00    -0.146 A  
HETATM   25  C   UNL     1      -8.873   9.086  70.231  1.00  0.00    -0.210 A  
HETATM   26  C   UNL     1      -8.366   7.920  69.705  1.00  0.00    -0.131 A  
HETATM   27  S   UNL     1      -7.139   8.218  68.559  1.00  0.00    -0.078 SA 
ENDBRANCH  22  23
ENDBRANCH  21  22
ENDBRANCH  14  21
ENDBRANCH   4  12
ENDBRANCH   2   3
TORSDOF 8
ENDMDL
MODEL      151
REMARK 921   NORMALIZED FREE ENERGY PREDICTED BY IDOCK:   -3.47 KCAL/MOL
REMARK 922        TOTAL FREE ENERGY PREDICTED BY IDOCK:   -5.59 KCAL/MOL
REMARK 923 INTER-LIGAND FREE ENERGY PREDICTED BY IDOCK:   -5.35 KCAL/MOL
REMARK 924 INTRA-LIGAND FREE ENERGY PREDICTED BY IDOCK:   -0.24 KCAL/MOL
REMARK 927      BINDING AFFINITY PREDICTED BY RF-SCORE:    0.00 PKD
ROOT
HETATM    1  C   UNL     1      -6.116  12.621  69.567  1.00  0.00    -0.119 C  
HETATM    2  C   UNL     1      -6.944  11.700  68.690  1.00  0.00    -0.088 C  
ENDROOT
BRANCH   2   3
HETATM    3  C   UNL     1      -8.055  12.388  67.914  1.00  0.00    -0.161 C  
HETATM    4  N   UNL     1      -9.164  11.615  67.511  1.00  0.00    -0.169 N  
HETATM    5  O   UNL     1      -7.918  13.577  67.609  1.00  0.00    -0.148 OA 
BRANCH   4   6
HETATM    6  C   UNL     1     -10.144  12.354  66.736  1.00  0.00    -0.214 A  
HETATM    7  C   UNL     1     -10.039  12.504  65.349  1.00  0.00    -0.284 A  
HETATM    8  C   UNL     1     -10.954  13.292  64.639  1.00  0.00    -0.384 A  
HETATM    9  C   UNL     1     -11.236  12.950  67.385  1.00  0.00    -0.331 A  
HETATM   10  C   UNL     1     -11.992  13.937  65.305  1.00  0.00    -0.384 A  
HETATM   11  C   UNL     1     -12.136  13.761  66.680  1.00  0.00    -0.471 A  
ENDBRANCH   4   6
BRANCH   4  12
HETATM   12  C   UNL     1      -9.593  10.234  68.074  1.00  0.00    -0.145 C  
HETATM   13  C   UNL     1      -8.413   9.209  68.225  1.00  0.00    -0.125 C  
HETATM   14  N   UNL     1      -8.820   8.125  66.009  1.00  0.00    -0.165 NA 
HETATM   15  C   UNL     1      -7.825   8.746  66.891  1.00  0.00    -0.101 C  
HETATM   16  C   UNL     1     -10.605   9.494  67.143  1.00  0.00    -0.295 C  
HETATM   17  C   UNL     1      -9.955   9.040  65.831  1.00  0.00    -0.099 C  
BRANCH  12  18
HETATM   18  C   UNL     1     -10.232  10.386  69.501  1.00  0.00    -0.231 C  
BRANCH  18  19
HETATM   19  O   UNL     1      -9.610   9.554  70.476  1.00  0.00    -0.249 OA 
HETATM   20  C   UNL     1     -10.551   9.006  71.390  1.00  0.00    -0.323 C  
ENDBRANCH  18  19
ENDBRANCH  12  18
BRANCH  14  21
HETATM   21  C   UNL     1      -9.213   6.779  66.460  1.00  0.00    -0.162 C  
BRANCH  21  22
HETATM   22  C   UNL     1      -8.091   5.732  66.334  1.00  0.00    -0.106 C  
BRANCH  22  23
HETATM   23  C   UNL     1      -8.459   4.662  65.354  1.00  0.00    -0.126 A  
HETATM   24  C   UNL     1      -9.331   3.609  65.531  1.00  0.00    -0.160 A  
HETATM   25  C   UNL     1      -9.417   2.795  64.367  1.00  0.00    -0.145 A  
HETATM   26  C   UNL     1      -8.615   3.252  63.346  1.00  0.00    -0.089 A  
HETATM   27  S   UNL     1      -7.757   4.657  63.790  1.00  0.00    -0.076 SA 
ENDBRANCH  22  23
ENDBRANCH  21  22
ENDBRANCH  14  21
ENDBRANCH   4  12
ENDBRANCH   2   3
TORSDOF 8
ENDMDL
MODEL      152
REMARK 921   NORMALIZED FREE ENERGY PREDICTED BY IDOCK:   -3.44 KCAL/MOL
REMARK 922        TOTAL FREE ENERGY PREDICTED BY IDOCK:   -5.56 KCAL/MOL
REMARK 923 INTER-LIGAND FREE ENERGY PREDICTED BY IDOCK:   -5.42 KCAL/MOL
REMARK 924 INTRA-LIGAND FREE ENERGY PREDICTED BY IDOCK:   -0.13 KCAL/MOL
REMARK 927      BINDING AFFINITY PREDICTED BY RF-SCORE:    0.00 PKD
ROOT
HETATM    1  C   UNL     1      -6.783   5.563  66.544  1.00  0.00    -0.058 C  
HETATM    2  C   UNL     1      -7.331   6.223  67.797  1.00  0.00    -0.084 C  
ENDROOT
BRANCH   2   3
HETATM    3  C   UNL     1      -7.729   7.680  67.626  1.00  0.00    -0.122 C  
HETATM    4  N   UNL     1      -8.979   8.093  68.131  1.00  0.00    -0.135 N  
HETATM    5  O   UNL     1      -6.977   8.431  66.997  1.00  0.00    -0.072 OA 
BRANCH   4   6
HETATM    6  C   UNL     1      -9.284   9.489  67.875  1.00  0.00    -0.125 A  
HETATM    7  C   UNL     1      -8.483  10.528  68.360  1.00  0.00    -0.128 A  
HETATM    8  C   UNL     1      -8.848  11.867  68.168  1.00  0.00    -0.178 A  
HETATM    9  C   UNL     1     -10.421   9.825  67.124  1.00  0.00    -0.316 A  
HETATM   10  C   UNL     1     -10.016  12.187  67.483  1.00  0.00    -0.202 A  
HETATM   11  C   UNL     1     -10.800  11.163  66.955  1.00  0.00    -0.333 A  
ENDBRANCH   4   6
BRANCH   4  12
HETATM   12  C   UNL     1      -9.855   7.351  69.177  1.00  0.00    -0.168 C  
HETATM   13  C   UNL     1     -10.855   8.281  69.951  1.00  0.00    -0.213 C  
HETATM   14  N   UNL     1      -9.319   8.635  71.892  1.00  0.00    -0.268 NA 
HETATM   15  C   UNL     1     -10.169   9.280  70.886  1.00  0.00    -0.301 C  
HETATM   16  C   UNL     1      -9.007   6.697  70.313  1.00  0.00    -0.152 C  
HETATM   17  C   UNL     1      -8.359   7.746  71.225  1.00  0.00    -0.104 C  
BRANCH  12  18
HETATM   18  C   UNL     1     -10.726   6.240  68.489  1.00  0.00    -0.292 C  
BRANCH  18  19
HETATM   19  O   UNL     1     -10.828   6.411  67.079  1.00  0.00    -0.325 OA 
HETATM   20  C   UNL     1     -10.646   5.189  66.377  1.00  0.00    -0.276 C  
ENDBRANCH  18  19
ENDBRANCH  12  18
BRANCH  14  21
HETATM   21  C   UNL     1     -10.100   7.971  72.950  1.00  0.00    -0.306 C  
BRANCH  21  22
HETATM   22  C   UNL     1      -9.243   7.136  73.919  1.00  0.00    -0.270 C  
BRANCH  22  23
HETATM   23  C   UNL     1      -9.551   5.677  73.792  1.00  0.00    -0.143 A  
HETATM   24  C   UNL     1     -10.785   5.076  73.660  1.00  0.00    -0.350 A  
HETATM   25  C   UNL     1     -10.674   3.660  73.571  1.00  0.00    -0.307 A  
HETATM   26  C   UNL     1      -9.368   3.230  73.636  1.00  0.00    -0.091 A  
HETATM   27  S   UNL     1      -8.277   4.530  73.807  1.00  0.00    -0.105 SA 
ENDBRANCH  22  23
ENDBRANCH  21  22
ENDBRANCH  14  21
ENDBRANCH   4  12
ENDBRANCH   2   3
TORSDOF 8
ENDMDL
MODEL      153
REMARK 921   NORMALIZED FREE ENERGY PREDICTED BY IDOCK:   -3.42 KCAL/MOL
REMARK 922        TOTAL FREE ENERGY PREDICTED BY IDOCK:   -5.52 KCAL/MOL
REMARK 923 INTER-LIGAND FREE ENERGY PREDICTED BY IDOCK:   -5.45 KCAL/MOL
REMARK 924 INTRA-LIGAND FREE ENERGY PREDICTED BY IDOCK:   -0.07 KCAL/MOL
REMARK 927      BINDING AFFINITY PREDICTED BY RF-SCORE:    0.00 PKD
ROOT
HETATM    1  C   UNL     1     -10.381   7.102  73.407  1.00  0.00    -0.391 C  
HETATM    2  C   UNL     1     -10.884   7.077  71.974  1.00  0.00    -0.253 C  
ENDROOT
BRANCH   2   3
HETATM    3  C   UNL     1     -10.266   5.998  71.101  1.00  0.00    -0.207 C  
HETATM    4  N   UNL     1      -9.405   6.398  70.058  1.00  0.00    -0.156 N  
HETATM    5  O   UNL     1     -10.590   4.822  71.292  1.00  0.00    -0.112 OA 
BRANCH   4   6
HETATM    6  C   UNL     1      -8.907   5.297  69.254  1.00  0.00    -0.100 A  
HETATM    7  C   UNL     1      -7.702   4.648  69.544  1.00  0.00    -0.055 A  
HETATM    8  C   UNL     1      -7.204   3.645  68.702  1.00  0.00    -0.051 A  
HETATM    9  C   UNL     1      -9.641   4.862  68.141  1.00  0.00    -0.191 A  
HETATM   10  C   UNL     1      -7.908   3.271  67.561  1.00  0.00    -0.077 A  
HETATM   11  C   UNL     1      -9.131   3.877  67.284  1.00  0.00    -0.177 A  
ENDBRANCH   4   6
BRANCH   4  12
HETATM   12  C   UNL     1      -8.696   7.771  69.908  1.00  0.00    -0.142 C  
HETATM   13  C   UNL     1      -9.629   9.006  70.168  1.00  0.00    -0.217 C  
HETATM   14  N   UNL     1     -10.184   9.337  67.754  1.00  0.00    -0.205 NA 
HETATM   15  C   UNL     1     -10.719   9.189  69.111  1.00  0.00    -0.172 C  
HETATM   16  C   UNL     1      -8.160   8.014  68.462  1.00  0.00    -0.125 C  
HETATM   17  C   UNL     1      -9.297   8.206  67.451  1.00  0.00    -0.141 C  
BRANCH  12  18
HETATM   18  C   UNL     1      -7.502   7.897  70.920  1.00  0.00    -0.073 C  
BRANCH  18  19
HETATM   19  O   UNL     1      -7.757   8.833  71.963  1.00  0.00    -0.290 OA 
HETATM   20  C   UNL     1      -7.461   8.300  73.247  1.00  0.00    -0.109 C  
ENDBRANCH  18  19
ENDBRANCH  12  18
BRANCH  14  21
HETATM   21  C   UNL     1      -9.558  10.652  67.534  1.00  0.00    -0.161 C  
BRANCH  21  22
HETATM   22  C   UNL     1      -9.780  11.213  66.117  1.00  0.00    -0.253 C  
BRANCH  22  23
HETATM   23  C   UNL     1     -10.677  12.411  66.145  1.00  0.00    -0.260 A  
HETATM   24  C   UNL     1     -10.927  13.262  67.200  1.00  0.00    -0.288 A  
HETATM   25  C   UNL     1     -11.846  14.289  66.842  1.00  0.00    -0.458 A  
HETATM   26  C   UNL     1     -12.261  14.189  65.534  1.00  0.00    -0.432 A  
HETATM   27  S   UNL     1     -11.549  12.859  64.739  1.00  0.00    -0.352 SA 
ENDBRANCH  22  23
ENDBRANCH  21  22
ENDBRANCH  14  21
ENDBRANCH   4  12
ENDBRANCH   2   3
TORSDOF 8
ENDMDL
MODEL      154
REMARK 921   NORMALIZED FREE ENERGY PREDICTED BY IDOCK:   -3.40 KCAL/MOL
REMARK 922        TOTAL FREE ENERGY PREDICTED BY IDOCK:   -5.50 KCAL/MOL
REMARK 923 INTER-LIGAND FREE ENERGY PREDICTED BY IDOCK:   -6.03 KCAL/MOL
REMARK 924 INTRA-LIGAND FREE ENERGY PREDICTED BY IDOCK:    0.53 KCAL/MOL
REMARK 927      BINDING AFFINITY PREDICTED BY RF-SCORE:    0.00 PKD
ROOT
HETATM    1  C   UNL     1     -14.108   7.229  71.747  1.00  0.00    -0.485 C  
HETATM    2  C   UNL     1     -13.016   8.257  71.510  1.00  0.00    -0.310 C  
ENDROOT
BRANCH   2   3
HETATM    3  C   UNL     1     -11.670   7.909  72.127  1.00  0.00    -0.333 C  
HETATM    4  N   UNL     1     -10.620   7.534  71.264  1.00  0.00    -0.215 N  
HETATM    5  O   UNL     1     -11.565   7.904  73.357  1.00  0.00    -0.147 OA 
BRANCH   4   6
HETATM    6  C   UNL     1      -9.394   7.176  71.953  1.00  0.00    -0.138 A  
HETATM    7  C   UNL     1      -8.841   5.894  71.873  1.00  0.00    -0.138 A  
HETATM    8  C   UNL     1      -7.702   5.553  72.616  1.00  0.00    -0.099 A  
HETATM    9  C   UNL     1      -8.731   8.134  72.735  1.00  0.00    -0.281 A  
HETATM   10  C   UNL     1      -7.096   6.493  73.444  1.00  0.00    -0.078 A  
HETATM   11  C   UNL     1      -7.608   7.787  73.499  1.00  0.00    -0.166 A  
ENDBRANCH   4   6
BRANCH   4  12
HETATM   12  C   UNL     1     -10.531   7.789  69.735  1.00  0.00    -0.233 C  
HETATM   13  C   UNL     1      -9.094   8.166  69.230  1.00  0.00    -0.151 C  
HETATM   14  N   UNL     1      -9.494  10.631  69.341  1.00  0.00    -0.136 NA 
HETATM   15  C   UNL     1      -8.605   9.528  69.723  1.00  0.00    -0.192 C  
HETATM   16  C   UNL     1     -11.409   8.996  69.276  1.00  0.00     0.284 C  
HETATM   17  C   UNL     1     -10.861  10.334  69.787  1.00  0.00    -0.287 C  
BRANCH  12  18
HETATM   18  C   UNL     1     -10.962   6.512  68.930  1.00  0.00    -0.314 C  
BRANCH  18  19
HETATM   19  O   UNL     1     -10.981   6.725  67.521  1.00  0.00    -0.294 OA 
HETATM   20  C   UNL     1     -10.469   5.610  66.804  1.00  0.00    -0.291 C  
ENDBRANCH  18  19
ENDBRANCH  12  18
BRANCH  14  21
HETATM   21  C   UNL     1      -9.400  10.962  67.908  1.00  0.00    -0.156 C  
BRANCH  21  22
HETATM   22  C   UNL     1     -10.726  11.453  67.299  1.00  0.00    -0.283 C  
BRANCH  22  23
HETATM   23  C   UNL     1     -10.857  12.939  67.418  1.00  0.00    -0.251 A  
HETATM   24  C   UNL     1     -11.637  13.657  68.299  1.00  0.00    -0.374 A  
HETATM   25  C   UNL     1     -11.500  15.059  68.102  1.00  0.00    -0.355 A  
HETATM   26  C   UNL     1     -10.622  15.363  67.086  1.00  0.00    -0.305 A  
HETATM   27  S   UNL     1      -9.969  13.962  66.368  1.00  0.00    -0.304 SA 
ENDBRANCH  22  23
ENDBRANCH  21  22
ENDBRANCH  14  21
ENDBRANCH   4  12
ENDBRANCH   2   3
TORSDOF 8
ENDMDL
MODEL      155
REMARK 921   NORMALIZED FREE ENERGY PREDICTED BY IDOCK:   -3.39 KCAL/MOL
REMARK 922        TOTAL FREE ENERGY PREDICTED BY IDOCK:   -5.47 KCAL/MOL
REMARK 923 INTER-LIGAND FREE ENERGY PREDICTED BY IDOCK:   -5.21 KCAL/MOL
REMARK 924 INTRA-LIGAND FREE ENERGY PREDICTED BY IDOCK:   -0.26 KCAL/MOL
REMARK 927      BINDING AFFINITY PREDICTED BY RF-SCORE:    0.00 PKD
ROOT
HETATM    1  C   UNL     1      -6.834   8.882  69.535  1.00  0.00    -0.048 C  
HETATM    2  C   UNL     1      -7.212  10.334  69.774  1.00  0.00    -0.147 C  
ENDROOT
BRANCH   2   3
HETATM    3  C   UNL     1      -8.473  10.789  69.058  1.00  0.00    -0.133 C  
HETATM    4  N   UNL     1      -8.457  12.042  68.413  1.00  0.00    -0.163 N  
HETATM    5  O   UNL     1      -9.482  10.079  69.124  1.00  0.00    -0.183 OA 
BRANCH   4   6
HETATM    6  C   UNL     1      -9.723  12.405  67.802  1.00  0.00    -0.201 A  
HETATM    7  C   UNL     1     -10.007  12.135  66.459  1.00  0.00    -0.230 A  
HETATM    8  C   UNL     1     -11.203  12.571  65.874  1.00  0.00    -0.356 A  
HETATM    9  C   UNL     1     -10.702  13.055  68.567  1.00  0.00    -0.275 A  
HETATM   10  C   UNL     1     -12.137  13.278  66.627  1.00  0.00    -0.421 A  
HETATM   11  C   UNL     1     -11.888  13.515  67.977  1.00  0.00    -0.400 A  
ENDBRANCH   4   6
BRANCH   4  12
HETATM   12  C   UNL     1      -7.205  12.866  68.005  1.00  0.00    -0.115 C  
HETATM   13  C   UNL     1      -6.337  13.355  69.218  1.00  0.00    -0.110 C  
HETATM   14  N   UNL     1      -7.434  15.597  69.345  1.00  0.00    -0.217 NA 
HETATM   15  C   UNL     1      -7.032  14.401  70.092  1.00  0.00     0.094 C  
HETATM   16  C   UNL     1      -7.573  14.189  67.261  1.00  0.00    -0.104 C  
HETATM   17  C   UNL     1      -8.252  15.203  68.190  1.00  0.00    -0.145 C  
BRANCH  12  18
HETATM   18  C   UNL     1      -6.251  12.018  67.092  1.00  0.00    -0.151 C  
BRANCH  18  19
HETATM   19  O   UNL     1      -6.954  11.240  66.128  1.00  0.00    -0.063 OA 
HETATM   20  C   UNL     1      -6.457   9.910  66.046  1.00  0.00    -0.084 C  
ENDBRANCH  18  19
ENDBRANCH  12  18
BRANCH  14  21
HETATM   21  C   UNL     1      -6.288  16.454  68.991  1.00  0.00    -0.164 C  
BRANCH  21  22
HETATM   22  C   UNL     1      -6.580  17.960  69.118  1.00  0.00    -0.240 C  
BRANCH  22  23
HETATM   23  C   UNL     1      -6.670  18.608  67.771  1.00  0.00    -0.213 A  
HETATM   24  C   UNL     1      -6.328  18.076  66.546  1.00  0.00    -0.239 A  
HETATM   25  C   UNL     1      -6.550  19.002  65.489  1.00  0.00    -0.309 A  
HETATM   26  C   UNL     1      -7.053  20.202  65.939  1.00  0.00    -0.289 A  
HETATM   27  S   UNL     1      -7.253  20.214  67.632  1.00  0.00    -0.302 SA 
ENDBRANCH  22  23
ENDBRANCH  21  22
ENDBRANCH  14  21
ENDBRANCH   4  12
ENDBRANCH   2   3
TORSDOF 8
ENDMDL
MODEL      156
REMARK 921   NORMALIZED FREE ENERGY PREDICTED BY IDOCK:   -3.38 KCAL/MOL
REMARK 922        TOTAL FREE ENERGY PREDICTED BY IDOCK:   -5.46 KCAL/MOL
REMARK 923 INTER-LIGAND FREE ENERGY PREDICTED BY IDOCK:   -5.71 KCAL/MOL
REMARK 924 INTRA-LIGAND FREE ENERGY PREDICTED BY IDOCK:    0.24 KCAL/MOL
REMARK 927      BINDING AFFINITY PREDICTED BY RF-SCORE:    0.00 PKD
ROOT
HETATM    1  C   UNL     1      -5.913   9.982  70.953  1.00  0.00    -0.082 C  
HETATM    2  C   UNL     1      -6.718   9.429  69.790  1.00  0.00    -0.053 C  
ENDROOT
BRANCH   2   3
HETATM    3  C   UNL     1      -7.810  10.353  69.275  1.00  0.00    -0.147 C  
HETATM    4  N   UNL     1      -9.061   9.789  68.953  1.00  0.00    -0.142 N  
HETATM    5  O   UNL     1      -7.543  11.545  69.096  1.00  0.00    -0.097 OA 
BRANCH   4   6
HETATM    6  C   UNL     1     -10.017  10.745  68.425  1.00  0.00    -0.164 A  
HETATM    7  C   UNL     1     -10.405  10.748  67.081  1.00  0.00    -0.269 A  
HETATM    8  C   UNL     1     -11.266  11.735  66.582  1.00  0.00    -0.383 A  
HETATM    9  C   UNL     1     -10.576  11.710  69.277  1.00  0.00    -0.088 A  
HETATM   10  C   UNL     1     -11.757  12.730  67.422  1.00  0.00    -0.425 A  
HETATM   11  C   UNL     1     -11.415  12.714  68.773  1.00  0.00    -0.349 A  
ENDBRANCH   4   6
BRANCH   4  12
HETATM   12  C   UNL     1      -9.608   8.408  69.406  1.00  0.00    -0.170 C  
HETATM   13  C   UNL     1     -11.130   8.416  69.789  1.00  0.00    -0.062 C  
HETATM   14  N   UNL     1     -10.709   8.745  72.231  1.00  0.00    -0.318 NA 
HETATM   15  C   UNL     1     -11.443   9.219  71.053  1.00  0.00    -0.319 C  
HETATM   16  C   UNL     1      -8.907   7.880  70.698  1.00  0.00    -0.140 C  
HETATM   17  C   UNL     1      -9.271   8.714  71.932  1.00  0.00    -0.275 C  
BRANCH  12  18
HETATM   18  C   UNL     1      -9.444   7.341  68.266  1.00  0.00    -0.141 C  
BRANCH  18  19
HETATM   19  O   UNL     1      -8.496   7.729  67.277  1.00  0.00    -0.116 OA 
HETATM   20  C   UNL     1      -8.727   7.083  66.031  1.00  0.00    -0.144 C  
ENDBRANCH  18  19
ENDBRANCH  12  18
BRANCH  14  21
HETATM   21  C   UNL     1     -11.232   7.467  72.747  1.00  0.00    -0.352 C  
BRANCH  21  22
HETATM   22  C   UNL     1     -10.328   6.813  73.808  1.00  0.00    -0.397 C  
BRANCH  22  23
HETATM   23  C   UNL     1     -10.234   5.334  73.599  1.00  0.00    -0.210 A  
HETATM   24  C   UNL     1     -11.259   4.439  73.377  1.00  0.00    -0.386 A  
HETATM   25  C   UNL     1     -10.775   3.109  73.230  1.00  0.00    -0.288 A  
HETATM   26  C   UNL     1      -9.405   3.034  73.342  1.00  0.00    -0.088 A  
HETATM   27  S   UNL     1      -8.704   4.561  73.628  1.00  0.00    -0.105 SA 
ENDBRANCH  22  23
ENDBRANCH  21  22
ENDBRANCH  14  21
ENDBRANCH   4  12
ENDBRANCH   2   3
TORSDOF 8
ENDMDL
MODEL      157
REMARK 921   NORMALIZED FREE ENERGY PREDICTED BY IDOCK:   -3.38 KCAL/MOL
REMARK 922        TOTAL FREE ENERGY PREDICTED BY IDOCK:   -5.46 KCAL/MOL
REMARK 923 INTER-LIGAND FREE ENERGY PREDICTED BY IDOCK:   -5.64 KCAL/MOL
REMARK 924 INTRA-LIGAND FREE ENERGY PREDICTED BY IDOCK:    0.18 KCAL/MOL
REMARK 927      BINDING AFFINITY PREDICTED BY RF-SCORE:    0.00 PKD
ROOT
HETATM    1  C   UNL     1      -6.627  12.281  67.427  1.00  0.00    -0.154 C  
HETATM    2  C   UNL     1      -6.631  10.866  67.977  1.00  0.00    -0.062 C  
ENDROOT
BRANCH   2   3
HETATM    3  C   UNL     1      -7.690  10.597  69.034  1.00  0.00    -0.130 C  
HETATM    4  N   UNL     1      -8.980  10.224  68.604  1.00  0.00    -0.137 N  
HETATM    5  O   UNL     1      -7.403  10.777  70.222  1.00  0.00    -0.106 OA 
BRANCH   4   6
HETATM    6  C   UNL     1      -9.929  10.037  69.686  1.00  0.00    -0.236 A  
HETATM    7  C   UNL     1      -9.742   9.073  70.683  1.00  0.00    -0.287 A  
HETATM    8  C   UNL     1     -10.716   8.858  71.668  1.00  0.00    -0.418 A  
HETATM    9  C   UNL     1     -11.080  10.837  69.747  1.00  0.00    -0.346 A  
HETATM   10  C   UNL     1     -11.887   9.610  71.674  1.00  0.00    -0.457 A  
HETATM   11  C   UNL     1     -12.067  10.604  70.715  1.00  0.00    -0.474 A  
ENDBRANCH   4   6
BRANCH   4  12
HETATM   12  C   UNL     1      -9.377   9.681  67.205  1.00  0.00    -0.139 C  
HETATM   13  C   UNL     1     -10.513   8.598  67.236  1.00  0.00    -0.360 C  
HETATM   14  N   UNL     1      -8.931   6.663  67.237  1.00  0.00    -0.115 NA 
HETATM   15  C   UNL     1     -10.091   7.280  67.888  1.00  0.00    -0.177 C  
HETATM   16  C   UNL     1      -8.197   8.953  66.487  1.00  0.00    -0.114 C  
HETATM   17  C   UNL     1      -7.830   7.633  67.175  1.00  0.00    -0.117 C  
BRANCH  12  18
HETATM   18  C   UNL     1      -9.897  10.840  66.281  1.00  0.00    -0.215 C  
BRANCH  18  19
HETATM   19  O   UNL     1      -9.324  10.807  64.977  1.00  0.00    -0.200 OA 
HETATM   20  C   UNL     1      -9.990  11.685  64.078  1.00  0.00    -0.296 C  
ENDBRANCH  18  19
ENDBRANCH  12  18
BRANCH  14  21
HETATM   21  C   UNL     1      -9.266   6.068  65.931  1.00  0.00    -0.065 C  
BRANCH  21  22
HETATM   22  C   UNL     1     -10.286   4.919  66.019  1.00  0.00    -0.307 C  
BRANCH  22  23
HETATM   23  C   UNL     1      -9.896   3.781  65.128  1.00  0.00    -0.161 A  
HETATM   24  C   UNL     1      -9.008   2.760  65.391  1.00  0.00    -0.137 A  
HETATM   25  C   UNL     1      -8.895   1.864  64.291  1.00  0.00    -0.102 A  
HETATM   26  C   UNL     1      -9.698   2.227  63.234  1.00  0.00    -0.099 A  
HETATM   27  S   UNL     1     -10.583   3.646  63.563  1.00  0.00    -0.232 SA 
ENDBRANCH  22  23
ENDBRANCH  21  22
ENDBRANCH  14  21
ENDBRANCH   4  12
ENDBRANCH   2   3
TORSDOF 8
ENDMDL
MODEL      158
REMARK 921   NORMALIZED FREE ENERGY PREDICTED BY IDOCK:   -3.37 KCAL/MOL
REMARK 922        TOTAL FREE ENERGY PREDICTED BY IDOCK:   -5.45 KCAL/MOL
REMARK 923 INTER-LIGAND FREE ENERGY PREDICTED BY IDOCK:   -5.41 KCAL/MOL
REMARK 924 INTRA-LIGAND FREE ENERGY PREDICTED BY IDOCK:   -0.03 KCAL/MOL
REMARK 927      BINDING AFFINITY PREDICTED BY RF-SCORE:    0.00 PKD
ROOT
HETATM    1  C   UNL     1      -9.900   2.738  73.089  1.00  0.00    -0.172 C  
HETATM    2  C   UNL     1      -9.590   4.221  72.985  1.00  0.00    -0.155 C  
ENDROOT
BRANCH   2   3
HETATM    3  C   UNL     1     -10.810   5.118  72.852  1.00  0.00    -0.268 C  
HETATM    4  N   UNL     1     -10.671   6.332  72.148  1.00  0.00    -0.223 N  
HETATM    5  O   UNL     1     -11.856   4.786  73.418  1.00  0.00    -0.218 OA 
BRANCH   4   6
HETATM    6  C   UNL     1     -11.878   7.137  72.120  1.00  0.00    -0.277 A  
HETATM    7  C   UNL     1     -13.073   6.668  71.563  1.00  0.00    -0.115 A  
HETATM    8  C   UNL     1     -14.200   7.497  71.474  1.00  0.00    -0.580 A  
HETATM    9  C   UNL     1     -11.863   8.432  72.658  1.00  0.00    -0.360 A  
HETATM   10  C   UNL     1     -14.149   8.805  71.947  1.00  0.00    -0.488 A  
HETATM   11  C   UNL     1     -12.980   9.271  72.545  1.00  0.00    -0.384 A  
ENDBRANCH   4   6
BRANCH   4  12
HETATM   12  C   UNL     1      -9.536   6.713  71.159  1.00  0.00    -0.163 C  
HETATM   13  C   UNL     1      -9.935   7.821  70.121  1.00  0.00    -0.186 C  
HETATM   14  N   UNL     1     -10.570   6.189  68.337  1.00  0.00    -0.235 NA 
HETATM   15  C   UNL     1     -10.986   7.366  69.108  1.00  0.00    -0.033 C  
HETATM   16  C   UNL     1      -9.094   5.513  70.263  1.00  0.00    -0.163 C  
HETATM   17  C   UNL     1     -10.180   5.113  69.258  1.00  0.00    -0.206 C  
BRANCH  12  18
HETATM   18  C   UNL     1      -8.282   7.260  71.931  1.00  0.00    -0.103 C  
BRANCH  18  19
HETATM   19  O   UNL     1      -7.964   8.605  71.585  1.00  0.00    -0.130 OA 
HETATM   20  C   UNL     1      -6.562   8.843  71.593  1.00  0.00    -0.068 C  
ENDBRANCH  18  19
ENDBRANCH  12  18
BRANCH  14  21
HETATM   21  C   UNL     1      -9.539   6.507  67.333  1.00  0.00    -0.125 C  
BRANCH  21  22
HETATM   22  C   UNL     1      -9.934   7.654  66.384  1.00  0.00    -0.142 C  
BRANCH  22  23
HETATM   23  C   UNL     1      -8.766   8.548  66.104  1.00  0.00    -0.152 A  
HETATM   24  C   UNL     1      -8.314   9.615  66.849  1.00  0.00    -0.117 A  
HETATM   25  C   UNL     1      -7.175  10.227  66.255  1.00  0.00    -0.117 A  
HETATM   26  C   UNL     1      -6.796   9.609  65.085  1.00  0.00    -0.098 A  
HETATM   27  S   UNL     1      -7.814   8.296  64.701  1.00  0.00    -0.138 SA 
ENDBRANCH  22  23
ENDBRANCH  21  22
ENDBRANCH  14  21
ENDBRANCH   4  12
ENDBRANCH   2   3
TORSDOF 8
ENDMDL
MODEL      159
REMARK 921   NORMALIZED FREE ENERGY PREDICTED BY IDOCK:   -3.34 KCAL/MOL
REMARK 922        TOTAL FREE ENERGY PREDICTED BY IDOCK:   -5.40 KCAL/MOL
REMARK 923 INTER-LIGAND FREE ENERGY PREDICTED BY IDOCK:   -5.27 KCAL/MOL
REMARK 924 INTRA-LIGAND FREE ENERGY PREDICTED BY IDOCK:   -0.14 KCAL/MOL
REMARK 927      BINDING AFFINITY PREDICTED BY RF-SCORE:    0.00 PKD
ROOT
HETATM    1  C   UNL     1      -5.996   9.297  71.636  1.00  0.00    -0.062 C  
HETATM    2  C   UNL     1      -6.402   9.351  70.174  1.00  0.00    -0.058 C  
ENDROOT
BRANCH   2   3
HETATM    3  C   UNL     1      -6.859   8.024  69.591  1.00  0.00    -0.042 C  
HETATM    4  N   UNL     1      -8.237   7.838  69.359  1.00  0.00    -0.129 N  
HETATM    5  O   UNL     1      -6.020   7.137  69.405  1.00  0.00    -0.025 OA 
BRANCH   4   6
HETATM    6  C   UNL     1      -8.574   6.522  68.847  1.00  0.00    -0.125 A  
HETATM    7  C   UNL     1      -8.162   6.086  67.583  1.00  0.00    -0.109 A  
HETATM    8  C   UNL     1      -8.573   4.844  67.081  1.00  0.00    -0.104 A  
HETATM    9  C   UNL     1      -9.344   5.649  69.630  1.00  0.00    -0.171 A  
HETATM   10  C   UNL     1      -9.396   4.017  67.839  1.00  0.00    -0.220 A  
HETATM   11  C   UNL     1      -9.777   4.418  69.118  1.00  0.00    -0.240 A  
ENDBRANCH   4   6
BRANCH   4  12
HETATM   12  C   UNL     1      -9.325   8.942  69.263  1.00  0.00    -0.149 C  
HETATM   13  C   UNL     1     -10.536   8.569  68.337  1.00  0.00    -0.161 C  
HETATM   14  N   UNL     1      -9.592   9.707  66.322  1.00  0.00    -0.202 NA 
HETATM   15  C   UNL     1     -10.171   8.470  66.855  1.00  0.00    -0.305 C  
HETATM   16  C   UNL     1      -8.782  10.267  68.641  1.00  0.00    -0.133 C  
HETATM   17  C   UNL     1      -8.449  10.110  67.152  1.00  0.00    -0.125 C  
BRANCH  12  18
HETATM   18  C   UNL     1      -9.930   9.255  70.678  1.00  0.00    -0.273 C  
BRANCH  18  19
HETATM   19  O   UNL     1     -11.212   8.667  70.874  1.00  0.00    -0.254 OA 
HETATM   20  C   UNL     1     -12.052   9.472  71.691  1.00  0.00    -0.398 C  
ENDBRANCH  18  19
ENDBRANCH  12  18
BRANCH  14  21
HETATM   21  C   UNL     1     -10.596  10.772  66.145  1.00  0.00    -0.175 C  
BRANCH  21  22
HETATM   22  C   UNL     1     -10.033  12.050  65.498  1.00  0.00    -0.267 C  
BRANCH  22  23
HETATM   23  C   UNL     1     -10.352  13.258  66.323  1.00  0.00    -0.290 A  
HETATM   24  C   UNL     1      -9.478  14.078  67.004  1.00  0.00    -0.253 A  
HETATM   25  C   UNL     1     -10.160  15.127  67.682  1.00  0.00    -0.231 A  
HETATM   26  C   UNL     1     -11.522  15.075  67.494  1.00  0.00    -0.328 A  
HETATM   27  S   UNL     1     -11.980  13.762  66.507  1.00  0.00    -0.442 SA 
ENDBRANCH  22  23
ENDBRANCH  21  22
ENDBRANCH  14  21
ENDBRANCH   4  12
ENDBRANCH   2   3
TORSDOF 8
ENDMDL
MODEL      160
REMARK 921   NORMALIZED FREE ENERGY PREDICTED BY IDOCK:   -3.33 KCAL/MOL
REMARK 922        TOTAL FREE ENERGY PREDICTED BY IDOCK:   -5.39 KCAL/MOL
REMARK 923 INTER-LIGAND FREE ENERGY PREDICTED BY IDOCK:   -4.88 KCAL/MOL
REMARK 924 INTRA-LIGAND FREE ENERGY PREDICTED BY IDOCK:   -0.51 KCAL/MOL
REMARK 927      BINDING AFFINITY PREDICTED BY RF-SCORE:    0.00 PKD
ROOT
HETATM    1  C   UNL     1      -6.203  10.690  69.307  1.00  0.00    -0.050 C  
HETATM    2  C   UNL     1      -7.594  11.148  68.904  1.00  0.00    -0.133 C  
ENDROOT
BRANCH   2   3
HETATM    3  C   UNL     1      -7.866  11.118  67.409  1.00  0.00    -0.121 C  
HETATM    4  N   UNL     1      -8.848  10.228  66.929  1.00  0.00    -0.132 N  
HETATM    5  O   UNL     1      -7.176  11.823  66.666  1.00  0.00    -0.089 OA 
BRANCH   4   6
HETATM    6  C   UNL     1      -8.998  10.242  65.486  1.00  0.00    -0.173 A  
HETATM    7  C   UNL     1     -10.011  10.966  64.848  1.00  0.00    -0.361 A  
HETATM    8  C   UNL     1     -10.183  10.894  63.460  1.00  0.00    -0.379 A  
HETATM    9  C   UNL     1      -8.111   9.504  64.688  1.00  0.00    -0.136 A  
HETATM   10  C   UNL     1      -9.339  10.101  62.687  1.00  0.00    -0.322 A  
HETATM   11  C   UNL     1      -8.298   9.410  63.302  1.00  0.00    -0.187 A  
ENDBRANCH   4   6
BRANCH   4  12
HETATM   12  C   UNL     1      -9.965   9.535  67.757  1.00  0.00    -0.174 C  
HETATM   13  C   UNL     1      -9.456   8.856  69.077  1.00  0.00    -0.156 C  
HETATM   14  N   UNL     1      -9.200   6.595  68.042  1.00  0.00    -0.114 NA 
HETATM   15  C   UNL     1      -8.554   7.644  68.839  1.00  0.00    -0.129 C  
HETATM   16  C   UNL     1     -10.647   8.364  66.981  1.00  0.00    -0.316 C  
HETATM   17  C   UNL     1      -9.701   7.173  66.787  1.00  0.00    -0.192 C  
BRANCH  12  18
HETATM   18  C   UNL     1     -11.065  10.569  68.187  1.00  0.00    -0.287 C  
BRANCH  18  19
HETATM   19  O   UNL     1     -11.002  10.902  69.570  1.00  0.00    -0.233 OA 
HETATM   20  C   UNL     1     -12.085  11.729  69.973  1.00  0.00    -0.310 C  
ENDBRANCH  18  19
ENDBRANCH  12  18
BRANCH  14  21
HETATM   21  C   UNL     1     -10.224   5.857  68.801  1.00  0.00    -0.189 C  
BRANCH  21  22
HETATM   22  C   UNL     1      -9.643   4.785  69.742  1.00  0.00    -0.249 C  
BRANCH  22  23
HETATM   23  C   UNL     1      -8.690   3.889  69.015  1.00  0.00    -0.093 A  
HETATM   24  C   UNL     1      -7.333   3.754  69.210  1.00  0.00    -0.053 A  
HETATM   25  C   UNL     1      -6.765   2.801  68.318  1.00  0.00    -0.040 A  
HETATM   26  C   UNL     1      -7.703   2.242  67.480  1.00  0.00    -0.060 A  
HETATM   27  S   UNL     1      -9.263   2.867  67.763  1.00  0.00    -0.200 SA 
ENDBRANCH  22  23
ENDBRANCH  21  22
ENDBRANCH  14  21
ENDBRANCH   4  12
ENDBRANCH   2   3
TORSDOF 8
ENDMDL
MODEL      161
REMARK 921   NORMALIZED FREE ENERGY PREDICTED BY IDOCK:   -3.29 KCAL/MOL
REMARK 922        TOTAL FREE ENERGY PREDICTED BY IDOCK:   -5.33 KCAL/MOL
REMARK 923 INTER-LIGAND FREE ENERGY PREDICTED BY IDOCK:   -5.18 KCAL/MOL
REMARK 924 INTRA-LIGAND FREE ENERGY PREDICTED BY IDOCK:   -0.15 KCAL/MOL
REMARK 927      BINDING AFFINITY PREDICTED BY RF-SCORE:    0.00 PKD
ROOT
HETATM    1  C   UNL     1     -11.840  13.200  66.758  1.00  0.00    -0.444 C  
HETATM    2  C   UNL     1     -11.314  11.794  66.533  1.00  0.00    -0.370 C  
ENDROOT
BRANCH   2   3
HETATM    3  C   UNL     1      -9.820  11.630  66.756  1.00  0.00    -0.200 C  
HETATM    4  N   UNL     1      -9.390  10.926  67.900  1.00  0.00    -0.153 N  
HETATM    5  O   UNL     1      -9.039  12.172  65.967  1.00  0.00    -0.173 OA 
BRANCH   4   6
HETATM    6  C   UNL     1      -7.947  10.867  68.045  1.00  0.00    -0.109 A  
HETATM    7  C   UNL     1      -7.143  10.098  67.197  1.00  0.00    -0.089 A  
HETATM    8  C   UNL     1      -5.763   9.993  67.413  1.00  0.00    -0.046 A  
HETATM    9  C   UNL     1      -7.322  11.593  69.070  1.00  0.00    -0.074 A  
HETATM   10  C   UNL     1      -5.165  10.662  68.477  1.00  0.00    -0.037 A  
HETATM   11  C   UNL     1      -5.945  11.468  69.303  1.00  0.00    -0.065 A  
ENDBRANCH   4   6
BRANCH   4  12
HETATM   12  C   UNL     1     -10.236   9.963  68.776  1.00  0.00    -0.189 C  
HETATM   13  C   UNL     1      -9.391   8.889  69.548  1.00  0.00    -0.155 C  
HETATM   14  N   UNL     1      -9.688   7.124  67.803  1.00  0.00    -0.135 NA 
HETATM   15  C   UNL     1      -8.728   7.855  68.636  1.00  0.00    -0.128 C  
HETATM   16  C   UNL     1     -11.235   9.108  67.934  1.00  0.00     0.334 C  
HETATM   17  C   UNL     1     -10.514   8.080  67.054  1.00  0.00    -0.340 C  
BRANCH  12  18
HETATM   18  C   UNL     1     -11.040  10.759  69.865  1.00  0.00    -0.271 C  
BRANCH  18  19
HETATM   19  O   UNL     1     -11.377   9.962  70.996  1.00  0.00    -0.342 OA 
HETATM   20  C   UNL     1     -12.684  10.243  71.479  1.00  0.00    -0.452 C  
ENDBRANCH  18  19
ENDBRANCH  12  18
BRANCH  14  21
HETATM   21  C   UNL     1     -10.474   6.144  68.574  1.00  0.00    -0.237 C  
BRANCH  21  22
HETATM   22  C   UNL     1      -9.622   5.272  69.515  1.00  0.00    -0.213 C  
BRANCH  22  23
HETATM   23  C   UNL     1     -10.221   5.213  70.885  1.00  0.00    -0.229 A  
HETATM   24  C   UNL     1     -11.185   6.035  71.428  1.00  0.00    -0.325 A  
HETATM   25  C   UNL     1     -11.497   5.668  72.768  1.00  0.00    -0.328 A  
HETATM   26  C   UNL     1     -10.767   4.584  73.198  1.00  0.00    -0.235 A  
HETATM   27  S   UNL     1      -9.705   4.011  71.993  1.00  0.00    -0.173 SA 
ENDBRANCH  22  23
ENDBRANCH  21  22
ENDBRANCH  14  21
ENDBRANCH   4  12
ENDBRANCH   2   3
TORSDOF 8
ENDMDL
MODEL      162
REMARK 921   NORMALIZED FREE ENERGY PREDICTED BY IDOCK:   -3.28 KCAL/MOL
REMARK 922        TOTAL FREE ENERGY PREDICTED BY IDOCK:   -5.32 KCAL/MOL
REMARK 923 INTER-LIGAND FREE ENERGY PREDICTED BY IDOCK:   -5.08 KCAL/MOL
REMARK 924 INTRA-LIGAND FREE ENERGY PREDICTED BY IDOCK:   -0.24 KCAL/MOL
REMARK 927      BINDING AFFINITY PREDICTED BY RF-SCORE:    0.00 PKD
ROOT
HETATM    1  C   UNL     1      -5.206   7.436  70.395  1.00  0.00    -0.023 C  
HETATM    2  C   UNL     1      -6.183   6.448  69.782  1.00  0.00    -0.034 C  
ENDROOT
BRANCH   2   3
HETATM    3  C   UNL     1      -7.148   5.812  70.769  1.00  0.00    -0.070 C  
HETATM    4  N   UNL     1      -8.527   5.864  70.479  1.00  0.00    -0.126 N  
HETATM    5  O   UNL     1      -6.698   5.334  71.815  1.00  0.00    -0.048 OA 
BRANCH   4   6
HETATM    6  C   UNL     1      -9.366   5.272  71.505  1.00  0.00    -0.148 A  
HETATM    7  C   UNL     1      -9.682   3.909  71.515  1.00  0.00    -0.247 A  
HETATM    8  C   UNL     1     -10.561   3.382  72.470  1.00  0.00    -0.069 A  
HETATM    9  C   UNL     1      -9.890   6.080  72.525  1.00  0.00    -0.179 A  
HETATM   10  C   UNL     1     -11.132   4.208  73.434  1.00  0.00    -0.354 A  
HETATM   11  C   UNL     1     -10.791   5.558  73.464  1.00  0.00    -0.321 A  
ENDBRANCH   4   6
BRANCH   4  12
HETATM   12  C   UNL     1      -9.181   6.151  69.100  1.00  0.00    -0.127 C  
HETATM   13  C   UNL     1      -8.485   7.300  68.288  1.00  0.00    -0.124 C  
HETATM   14  N   UNL     1     -10.050   9.075  69.093  1.00  0.00    -0.190 NA 
HETATM   15  C   UNL     1      -8.647   8.685  68.917  1.00  0.00    -0.130 C  
HETATM   16  C   UNL     1     -10.660   6.635  69.227  1.00  0.00    -0.276 C  
HETATM   17  C   UNL     1     -10.758   8.033  69.848  1.00  0.00    -0.242 C  
BRANCH  12  18
HETATM   18  C   UNL     1      -9.140   4.875  68.186  1.00  0.00    -0.114 C  
BRANCH  18  19
HETATM   19  O   UNL     1      -7.919   4.753  67.462  1.00  0.00    -0.093 OA 
HETATM   20  C   UNL     1      -7.468   3.406  67.397  1.00  0.00    -0.066 C  
ENDBRANCH  18  19
ENDBRANCH  12  18
BRANCH  14  21
HETATM   21  C   UNL     1     -10.703   9.426  67.819  1.00  0.00    -0.229 C  
BRANCH  21  22
HETATM   22  C   UNL     1      -9.946  10.496  67.011  1.00  0.00    -0.244 C  
BRANCH  22  23
HETATM   23  C   UNL     1     -10.633  11.823  67.095  1.00  0.00    -0.231 A  
HETATM   24  C   UNL     1     -11.710  12.272  66.362  1.00  0.00    -0.431 A  
HETATM   25  C   UNL     1     -12.079  13.597  66.725  1.00  0.00    -0.445 A  
HETATM   26  C   UNL     1     -11.278  14.111  67.719  1.00  0.00    -0.287 A  
HETATM   27  S   UNL     1     -10.082  13.001  68.212  1.00  0.00    -0.233 SA 
ENDBRANCH  22  23
ENDBRANCH  21  22
ENDBRANCH  14  21
ENDBRANCH   4  12
ENDBRANCH   2   3
TORSDOF 8
ENDMDL
MODEL      163
REMARK 921   NORMALIZED FREE ENERGY PREDICTED BY IDOCK:   -3.22 KCAL/MOL
REMARK 922        TOTAL FREE ENERGY PREDICTED BY IDOCK:   -5.24 KCAL/MOL
REMARK 923 INTER-LIGAND FREE ENERGY PREDICTED BY IDOCK:   -5.40 KCAL/MOL
REMARK 924 INTRA-LIGAND FREE ENERGY PREDICTED BY IDOCK:    0.17 KCAL/MOL
REMARK 927      BINDING AFFINITY PREDICTED BY RF-SCORE:    0.00 PKD
ROOT
HETATM    1  C   UNL     1      -6.218   7.652  71.402  1.00  0.00    -0.035 C  
HETATM    2  C   UNL     1      -7.469   7.431  70.571  1.00  0.00    -0.082 C  
ENDROOT
BRANCH   2   3
HETATM    3  C   UNL     1      -8.491   8.553  70.649  1.00  0.00    -0.146 C  
HETATM    4  N   UNL     1      -9.591   8.515  69.767  1.00  0.00    -0.169 N  
HETATM    5  O   UNL     1      -8.288   9.488  71.430  1.00  0.00    -0.225 OA 
BRANCH   4   6
HETATM    6  C   UNL     1     -10.481   9.654  69.889  1.00  0.00    -0.253 A  
HETATM    7  C   UNL     1     -10.382  10.771  69.051  1.00  0.00    -0.235 A  
HETATM    8  C   UNL     1     -11.200  11.891  69.245  1.00  0.00    -0.304 A  
HETATM    9  C   UNL     1     -11.477   9.656  70.877  1.00  0.00    -0.427 A  
HETATM   10  C   UNL     1     -12.135  11.910  70.276  1.00  0.00    -0.409 A  
HETATM   11  C   UNL     1     -12.277  10.787  71.089  1.00  0.00    -0.457 A  
ENDBRANCH   4   6
BRANCH   4  12
HETATM   12  C   UNL     1     -10.111   7.283  68.977  1.00  0.00    -0.186 C  
HETATM   13  C   UNL     1      -8.992   6.253  68.587  1.00  0.00    -0.127 C  
HETATM   14  N   UNL     1      -8.632   7.218  66.310  1.00  0.00    -0.136 NA 
HETATM   15  C   UNL     1      -7.995   6.787  67.558  1.00  0.00    -0.115 C  
HETATM   16  C   UNL     1     -10.744   7.674  67.605  1.00  0.00    -0.246 C  
HETATM   17  C   UNL     1      -9.695   8.187  66.611  1.00  0.00    -0.248 C  
BRANCH  12  18
HETATM   18  C   UNL     1     -11.172   6.487  69.818  1.00  0.00    -0.395 C  
BRANCH  18  19
HETATM   19  O   UNL     1     -10.586   5.728  70.872  1.00  0.00    -0.237 OA 
HETATM   20  C   UNL     1     -11.156   6.037  72.136  1.00  0.00    -0.279 C  
ENDBRANCH  18  19
ENDBRANCH  12  18
BRANCH  14  21
HETATM   21  C   UNL     1      -9.085   6.084  65.486  1.00  0.00     0.040 C  
BRANCH  21  22
HETATM   22  C   UNL     1      -8.029   4.975  65.326  1.00  0.00    -0.102 C  
BRANCH  22  23
HETATM   23  C   UNL     1      -8.648   3.707  64.826  1.00  0.00    -0.105 A  
HETATM   24  C   UNL     1      -8.285   2.410  65.119  1.00  0.00    -0.084 A  
HETATM   25  C   UNL     1      -9.110   1.467  64.445  1.00  0.00    -0.113 A  
HETATM   26  C   UNL     1     -10.071   2.072  63.667  1.00  0.00    -0.133 A  
HETATM   27  S   UNL     1      -9.977   3.773  63.745  1.00  0.00    -0.193 SA 
ENDBRANCH  22  23
ENDBRANCH  21  22
ENDBRANCH  14  21
ENDBRANCH   4  12
ENDBRANCH   2   3
TORSDOF 8
ENDMDL
MODEL      164
REMARK 921   NORMALIZED FREE ENERGY PREDICTED BY IDOCK:   -3.21 KCAL/MOL
REMARK 922        TOTAL FREE ENERGY PREDICTED BY IDOCK:   -5.21 KCAL/MOL
REMARK 923 INTER-LIGAND FREE ENERGY PREDICTED BY IDOCK:   -4.77 KCAL/MOL
REMARK 924 INTRA-LIGAND FREE ENERGY PREDICTED BY IDOCK:   -0.44 KCAL/MOL
REMARK 927      BINDING AFFINITY PREDICTED BY RF-SCORE:    0.00 PKD
ROOT
HETATM    1  C   UNL     1     -11.850  13.118  69.660  1.00  0.00    -0.390 C  
HETATM    2  C   UNL     1     -11.866  11.868  68.798  1.00  0.00    -0.371 C  
ENDROOT
BRANCH   2   3
HETATM    3  C   UNL     1     -11.192  10.656  69.421  1.00  0.00    -0.270 C  
HETATM    4  N   UNL     1     -10.026  10.153  68.808  1.00  0.00    -0.171 N  
HETATM    5  O   UNL     1     -11.724  10.118  70.398  1.00  0.00    -0.271 OA 
BRANCH   4   6
HETATM    6  C   UNL     1      -9.489   8.968  69.451  1.00  0.00    -0.159 A  
HETATM    7  C   UNL     1      -9.892   7.678  69.093  1.00  0.00    -0.171 A  
HETATM    8  C   UNL     1      -9.419   6.557  69.788  1.00  0.00    -0.155 A  
HETATM    9  C   UNL     1      -8.537   9.104  70.473  1.00  0.00    -0.252 A  
HETATM   10  C   UNL     1      -8.530   6.710  70.847  1.00  0.00    -0.133 A  
HETATM   11  C   UNL     1      -8.084   7.986  71.186  1.00  0.00    -0.098 A  
ENDBRANCH   4   6
BRANCH   4  12
HETATM   12  C   UNL     1      -9.112  10.892  67.794  1.00  0.00    -0.149 C  
HETATM   13  C   UNL     1      -9.884  11.551  66.596  1.00  0.00    -0.228 C  
HETATM   14  N   UNL     1      -9.549   9.606  65.063  1.00  0.00    -0.266 NA 
HETATM   15  C   UNL     1     -10.521  10.539  65.643  1.00  0.00    -0.143 C  
HETATM   16  C   UNL     1      -8.096   9.936  67.094  1.00  0.00    -0.117 C  
HETATM   17  C   UNL     1      -8.790   8.956  66.139  1.00  0.00    -0.161 C  
BRANCH  12  18
HETATM   18  C   UNL     1      -8.318  12.050  68.498  1.00  0.00    -0.104 C  
BRANCH  18  19
HETATM   19  O   UNL     1      -7.816  13.015  67.579  1.00  0.00    -0.156 OA 
HETATM   20  C   UNL     1      -6.440  13.298  67.797  1.00  0.00    -0.159 C  
ENDBRANCH  18  19
ENDBRANCH  12  18
BRANCH  14  21
HETATM   21  C   UNL     1      -8.697  10.240  64.041  1.00  0.00    -0.202 C  
BRANCH  21  22
HETATM   22  C   UNL     1      -8.728   9.523  62.679  1.00  0.00    -0.233 C  
BRANCH  22  23
HETATM   23  C   UNL     1      -7.726   8.412  62.630  1.00  0.00    -0.127 A  
HETATM   24  C   UNL     1      -7.957   7.054  62.691  1.00  0.00    -0.116 A  
HETATM   25  C   UNL     1      -6.746   6.310  62.620  1.00  0.00    -0.037 A  
HETATM   26  C   UNL     1      -5.639   7.120  62.504  1.00  0.00    -0.037 A  
HETATM   27  S   UNL     1      -6.056   8.773  62.487  1.00  0.00    -0.095 SA 
ENDBRANCH  22  23
ENDBRANCH  21  22
ENDBRANCH  14  21
ENDBRANCH   4  12
ENDBRANCH   2   3
TORSDOF 8
ENDMDL
MODEL      165
REMARK 921   NORMALIZED FREE ENERGY PREDICTED BY IDOCK:   -3.21 KCAL/MOL
REMARK 922        TOTAL FREE ENERGY PREDICTED BY IDOCK:   -5.21 KCAL/MOL
REMARK 923 INTER-LIGAND FREE ENERGY PREDICTED BY IDOCK:   -5.50 KCAL/MOL
REMARK 924 INTRA-LIGAND FREE ENERGY PREDICTED BY IDOCK:    0.29 KCAL/MOL
REMARK 927      BINDING AFFINITY PREDICTED BY RF-SCORE:    0.00 PKD
ROOT
HETATM    1  C   UNL     1      -9.334   3.366  73.287  1.00  0.00    -0.119 C  
HETATM    2  C   UNL     1      -9.255   4.882  73.240  1.00  0.00    -0.122 C  
ENDROOT
BRANCH   2   3
HETATM    3  C   UNL     1     -10.576   5.580  72.957  1.00  0.00    -0.239 C  
HETATM    4  N   UNL     1     -10.546   6.800  72.251  1.00  0.00    -0.209 N  
HETATM    5  O   UNL     1     -11.615   5.090  73.411  1.00  0.00    -0.291 OA 
BRANCH   4   6
HETATM    6  C   UNL     1     -11.852   7.408  72.074  1.00  0.00    -0.298 A  
HETATM    7  C   UNL     1     -12.933   6.708  71.528  1.00  0.00    -0.159 A  
HETATM    8  C   UNL     1     -14.158   7.345  71.292  1.00  0.00    -0.400 A  
HETATM    9  C   UNL     1     -12.053   8.744  72.453  1.00  0.00    -0.379 A  
HETATM   10  C   UNL     1     -14.323   8.691  71.606  1.00  0.00    -0.451 A  
HETATM   11  C   UNL     1     -13.270   9.389  72.193  1.00  0.00    -0.541 A  
ENDBRANCH   4   6
BRANCH   4  12
HETATM   12  C   UNL     1      -9.379   7.350  71.387  1.00  0.00    -0.142 C  
HETATM   13  C   UNL     1      -9.843   8.159  70.124  1.00  0.00    -0.184 C  
HETATM   14  N   UNL     1      -9.700   6.198  68.580  1.00  0.00    -0.125 NA 
HETATM   15  C   UNL     1     -10.537   7.302  69.063  1.00  0.00    -0.201 C  
HETATM   16  C   UNL     1      -8.489   6.215  70.788  1.00  0.00    -0.131 C  
HETATM   17  C   UNL     1      -9.232   5.402  69.721  1.00  0.00    -0.132 C  
BRANCH  12  18
HETATM   18  C   UNL     1      -8.472   8.320  72.224  1.00  0.00    -0.187 C  
BRANCH  18  19
HETATM   19  O   UNL     1      -8.876   8.416  73.587  1.00  0.00    -0.228 OA 
HETATM   20  C   UNL     1      -7.766   8.415  74.476  1.00  0.00    -0.219 C  
ENDBRANCH  18  19
ENDBRANCH  12  18
BRANCH  14  21
HETATM   21  C   UNL     1      -8.614   6.658  67.696  1.00  0.00    -0.120 C  
BRANCH  21  22
HETATM   22  C   UNL     1      -9.104   7.169  66.329  1.00  0.00    -0.182 C  
BRANCH  22  23
HETATM   23  C   UNL     1      -8.673   6.256  65.224  1.00  0.00     0.004 A  
HETATM   24  C   UNL     1      -8.903   4.903  65.101  1.00  0.00    -0.153 A  
HETATM   25  C   UNL     1      -8.329   4.377  63.909  1.00  0.00    -0.108 A  
HETATM   26  C   UNL     1      -7.687   5.342  63.167  1.00  0.00    -0.080 A  
HETATM   27  S   UNL     1      -7.771   6.876  63.905  1.00  0.00    -0.106 SA 
ENDBRANCH  22  23
ENDBRANCH  21  22
ENDBRANCH  14  21
ENDBRANCH   4  12
ENDBRANCH   2   3
TORSDOF 8
ENDMDL
MODEL      166
REMARK 921   NORMALIZED FREE ENERGY PREDICTED BY IDOCK:   -3.16 KCAL/MOL
REMARK 922        TOTAL FREE ENERGY PREDICTED BY IDOCK:   -5.14 KCAL/MOL
REMARK 923 INTER-LIGAND FREE ENERGY PREDICTED BY IDOCK:   -4.64 KCAL/MOL
REMARK 924 INTRA-LIGAND FREE ENERGY PREDICTED BY IDOCK:   -0.51 KCAL/MOL
REMARK 927      BINDING AFFINITY PREDICTED BY RF-SCORE:    0.00 PKD
ROOT
HETATM    1  C   UNL     1      -6.733   7.294  65.149  1.00  0.00    -0.047 C  
HETATM    2  C   UNL     1      -7.987   8.057  65.535  1.00  0.00    -0.117 C  
ENDROOT
BRANCH   2   3
HETATM    3  C   UNL     1      -8.476   7.803  66.952  1.00  0.00    -0.125 C  
HETATM    4  N   UNL     1      -8.901   8.908  67.718  1.00  0.00    -0.135 N  
HETATM    5  O   UNL     1      -8.421   6.654  67.402  1.00  0.00    -0.120 OA 
BRANCH   4   6
HETATM    6  C   UNL     1      -9.301   8.566  69.070  1.00  0.00    -0.146 A  
HETATM    7  C   UNL     1      -8.392   8.539  70.133  1.00  0.00    -0.123 A  
HETATM    8  C   UNL     1      -8.790   8.124  71.411  1.00  0.00    -0.185 A  
HETATM    9  C   UNL     1     -10.640   8.242  69.337  1.00  0.00    -0.203 A  
HETATM   10  C   UNL     1     -10.106   7.737  71.646  1.00  0.00    -0.224 A  
HETATM   11  C   UNL     1     -11.033   7.801  70.608  1.00  0.00    -0.255 A  
ENDBRANCH   4   6
BRANCH   4  12
HETATM   12  C   UNL     1      -9.298  10.313  67.189  1.00  0.00    -0.153 C  
HETATM   13  C   UNL     1      -8.255  10.943  66.199  1.00  0.00    -0.168 C  
HETATM   14  N   UNL     1      -7.072  12.247  67.973  1.00  0.00    -0.089 NA 
HETATM   15  C   UNL     1      -6.923  11.308  66.856  1.00  0.00    -0.137 C  
HETATM   16  C   UNL     1      -9.408  11.374  68.329  1.00  0.00    -0.187 C  
HETATM   17  C   UNL     1      -8.041  11.711  68.938  1.00  0.00    -0.004 C  
BRANCH  12  18
HETATM   18  C   UNL     1     -10.663  10.254  66.415  1.00  0.00    -0.033 C  
BRANCH  18  19
HETATM   19  O   UNL     1     -10.765  11.244  65.397  1.00  0.00    -0.273 OA 
HETATM   20  C   UNL     1     -11.784  12.196  65.676  1.00  0.00    -0.323 C  
ENDBRANCH  18  19
ENDBRANCH  12  18
BRANCH  14  21
HETATM   21  C   UNL     1      -7.383  13.615  67.524  1.00  0.00    -0.166 C  
BRANCH  21  22
HETATM   22  C   UNL     1      -7.755  14.573  68.671  1.00  0.00    -0.137 C  
BRANCH  22  23
HETATM   23  C   UNL     1      -9.173  15.035  68.550  1.00  0.00    -0.192 A  
HETATM   24  C   UNL     1     -10.022  15.448  69.554  1.00  0.00    -0.266 A  
HETATM   25  C   UNL     1     -11.302  15.809  69.047  1.00  0.00    -0.354 A  
HETATM   26  C   UNL     1     -11.385  15.663  67.681  1.00  0.00    -0.228 A  
HETATM   27  S   UNL     1      -9.926  15.088  67.011  1.00  0.00    -0.246 SA 
ENDBRANCH  22  23
ENDBRANCH  21  22
ENDBRANCH  14  21
ENDBRANCH   4  12
ENDBRANCH   2   3
TORSDOF 8
ENDMDL
MODEL      167
REMARK 921   NORMALIZED FREE ENERGY PREDICTED BY IDOCK:   -3.14 KCAL/MOL
REMARK 922        TOTAL FREE ENERGY PREDICTED BY IDOCK:   -5.11 KCAL/MOL
REMARK 923 INTER-LIGAND FREE ENERGY PREDICTED BY IDOCK:   -5.30 KCAL/MOL
REMARK 924 INTRA-LIGAND FREE ENERGY PREDICTED BY IDOCK:    0.19 KCAL/MOL
REMARK 927      BINDING AFFINITY PREDICTED BY RF-SCORE:    0.00 PKD
ROOT
HETATM    1  C   UNL     1     -13.174   9.260  71.800  1.00  0.00    -0.472 C  
HETATM    2  C   UNL     1     -11.840   8.712  71.322  1.00  0.00    -0.344 C  
ENDROOT
BRANCH   2   3
HETATM    3  C   UNL     1     -11.037   9.664  70.450  1.00  0.00    -0.290 C  
HETATM    4  N   UNL     1      -9.846   9.186  69.866  1.00  0.00    -0.180 N  
HETATM    5  O   UNL     1     -11.419  10.833  70.340  1.00  0.00    -0.303 OA 
BRANCH   4   6
HETATM    6  C   UNL     1      -9.130  10.185  69.093  1.00  0.00    -0.183 A  
HETATM    7  C   UNL     1      -9.674  10.769  67.944  1.00  0.00    -0.181 A  
HETATM    8  C   UNL     1      -8.927  11.668  67.171  1.00  0.00    -0.173 A  
HETATM    9  C   UNL     1      -7.846  10.583  69.493  1.00  0.00    -0.134 A  
HETATM   10  C   UNL     1      -7.627  12.001  67.540  1.00  0.00    -0.147 A  
HETATM   11  C   UNL     1      -7.088  11.461  68.706  1.00  0.00    -0.102 A  
ENDBRANCH   4   6
BRANCH   4  12
HETATM   12  C   UNL     1      -9.428   7.703  69.678  1.00  0.00    -0.156 C  
HETATM   13  C   UNL     1      -8.230   7.495  68.685  1.00  0.00    -0.129 C  
HETATM   14  N   UNL     1      -9.697   7.046  66.711  1.00  0.00    -0.180 NA 
HETATM   15  C   UNL     1      -8.571   7.828  67.231  1.00  0.00    -0.128 C  
HETATM   16  C   UNL     1     -10.568   6.831  69.065  1.00  0.00    -0.258 C  
HETATM   17  C   UNL     1     -10.853   7.199  67.604  1.00  0.00    -0.209 C  
BRANCH  12  18
HETATM   18  C   UNL     1      -8.983   7.071  71.045  1.00  0.00    -0.151 C  
BRANCH  18  19
HETATM   19  O   UNL     1      -8.308   7.998  71.890  1.00  0.00    -0.111 OA 
HETATM   20  C   UNL     1      -8.781   7.944  73.230  1.00  0.00    -0.236 C  
ENDBRANCH  18  19
ENDBRANCH  12  18
BRANCH  14  21
HETATM   21  C   UNL     1      -9.336   5.641  66.450  1.00  0.00    -0.154 C  
BRANCH  21  22
HETATM   22  C   UNL     1     -10.523   4.774  65.989  1.00  0.00    -0.332 C  
BRANCH  22  23
HETATM   23  C   UNL     1     -10.096   3.784  64.951  1.00  0.00    -0.146 A  
HETATM   24  C   UNL     1     -10.632   3.582  63.697  1.00  0.00    -0.275 A  
HETATM   25  C   UNL     1      -9.959   2.541  62.998  1.00  0.00    -0.103 A  
HETATM   26  C   UNL     1      -8.937   1.988  63.736  1.00  0.00    -0.092 A  
HETATM   27  S   UNL     1      -8.791   2.719  65.270  1.00  0.00    -0.133 SA 
ENDBRANCH  22  23
ENDBRANCH  21  22
ENDBRANCH  14  21
ENDBRANCH   4  12
ENDBRANCH   2   3
TORSDOF 8
ENDMDL
MODEL      168
REMARK 921   NORMALIZED FREE ENERGY PREDICTED BY IDOCK:   -3.14 KCAL/MOL
REMARK 922        TOTAL FREE ENERGY PREDICTED BY IDOCK:   -5.11 KCAL/MOL
REMARK 923 INTER-LIGAND FREE ENERGY PREDICTED BY IDOCK:   -5.61 KCAL/MOL
REMARK 924 INTRA-LIGAND FREE ENERGY PREDICTED BY IDOCK:    0.50 KCAL/MOL
REMARK 927      BINDING AFFINITY PREDICTED BY RF-SCORE:    0.00 PKD
ROOT
HETATM    1  C   UNL     1     -12.448  11.021  70.881  1.00  0.00    -0.509 C  
HETATM    2  C   UNL     1     -12.198  11.037  69.383  1.00  0.00    -0.329 C  
ENDROOT
BRANCH   2   3
HETATM    3  C   UNL     1     -10.958  10.279  68.936  1.00  0.00    -0.238 C  
HETATM    4  N   UNL     1     -10.417  10.577  67.669  1.00  0.00    -0.217 N  
HETATM    5  O   UNL     1     -10.512   9.389  69.666  1.00  0.00    -0.204 OA 
BRANCH   4   6
HETATM    6  C   UNL     1      -9.265   9.767  67.317  1.00  0.00    -0.134 A  
HETATM    7  C   UNL     1      -9.304   8.825  66.284  1.00  0.00    -0.283 A  
HETATM    8  C   UNL     1      -8.203   7.998  66.022  1.00  0.00    -0.120 A  
HETATM    9  C   UNL     1      -8.067   9.915  68.032  1.00  0.00    -0.108 A  
HETATM   10  C   UNL     1      -7.045   8.106  66.785  1.00  0.00    -0.077 A  
HETATM   11  C   UNL     1      -6.976   9.070  67.788  1.00  0.00    -0.078 A  
ENDBRANCH   4   6
BRANCH   4  12
HETATM   12  C   UNL     1     -10.687  11.843  66.812  1.00  0.00    -0.246 C  
HETATM   13  C   UNL     1      -9.401  12.458  66.154  1.00  0.00    -0.155 C  
HETATM   14  N   UNL     1      -9.022  14.113  67.988  1.00  0.00    -0.175 NA 
HETATM   15  C   UNL     1      -8.421  13.061  67.162  1.00  0.00    -0.174 C  
HETATM   16  C   UNL     1     -11.268  13.024  67.653  1.00  0.00    -0.315 C  
HETATM   17  C   UNL     1     -10.237  13.597  68.632  1.00  0.00    -0.197 C  
BRANCH  12  18
HETATM   18  C   UNL     1     -11.676  11.522  65.635  1.00  0.00     0.249 C  
BRANCH  18  19
HETATM   19  O   UNL     1     -12.312  12.685  65.114  1.00  0.00    -0.472 OA 
HETATM   20  C   UNL     1     -12.418  12.648  63.697  1.00  0.00    -0.427 C  
ENDBRANCH  18  19
ENDBRANCH  12  18
BRANCH  14  21
HETATM   21  C   UNL     1      -9.238  15.365  67.241  1.00  0.00    -0.207 C  
BRANCH  21  22
HETATM   22  C   UNL     1      -7.960  15.926  66.592  1.00  0.00    -0.270 C  
BRANCH  22  23
HETATM   23  C   UNL     1      -7.144  16.695  67.584  1.00  0.00    -0.136 A  
HETATM   24  C   UNL     1      -7.329  16.790  68.947  1.00  0.00    -0.235 A  
HETATM   25  C   UNL     1      -6.348  17.623  69.555  1.00  0.00    -0.223 A  
HETATM   26  C   UNL     1      -5.451  18.130  68.642  1.00  0.00    -0.171 A  
HETATM   27  S   UNL     1      -5.793  17.609  67.055  1.00  0.00    -0.158 SA 
ENDBRANCH  22  23
ENDBRANCH  21  22
ENDBRANCH  14  21
ENDBRANCH   4  12
ENDBRANCH   2   3
TORSDOF 8
ENDMDL
MODEL      169
REMARK 921   NORMALIZED FREE ENERGY PREDICTED BY IDOCK:   -3.12 KCAL/MOL
REMARK 922        TOTAL FREE ENERGY PREDICTED BY IDOCK:   -5.08 KCAL/MOL
REMARK 923 INTER-LIGAND FREE ENERGY PREDICTED BY IDOCK:   -4.73 KCAL/MOL
REMARK 924 INTRA-LIGAND FREE ENERGY PREDICTED BY IDOCK:   -0.36 KCAL/MOL
REMARK 927      BINDING AFFINITY PREDICTED BY RF-SCORE:    0.00 PKD
ROOT
HETATM    1  C   UNL     1     -13.420   7.198  71.572  1.00  0.00    -0.411 C  
HETATM    2  C   UNL     1     -12.334   8.245  71.745  1.00  0.00    -0.366 C  
ENDROOT
BRANCH   2   3
HETATM    3  C   UNL     1     -11.012   7.709  72.271  1.00  0.00    -0.279 C  
HETATM    4  N   UNL     1      -9.950   7.545  71.359  1.00  0.00    -0.185 N  
HETATM    5  O   UNL     1     -10.937   7.377  73.458  1.00  0.00    -0.344 OA 
BRANCH   4   6
HETATM    6  C   UNL     1      -8.749   6.983  71.950  1.00  0.00    -0.124 A  
HETATM    7  C   UNL     1      -8.568   5.605  72.103  1.00  0.00    -0.126 A  
HETATM    8  C   UNL     1      -7.436   5.095  72.753  1.00  0.00    -0.096 A  
HETATM    9  C   UNL     1      -7.729   7.838  72.395  1.00  0.00    -0.120 A  
HETATM   10  C   UNL     1      -6.465   5.957  73.254  1.00  0.00    -0.072 A  
HETATM   11  C   UNL     1      -6.610   7.330  73.069  1.00  0.00    -0.064 A  
ENDBRANCH   4   6
BRANCH   4  12
HETATM   12  C   UNL     1      -9.819   8.190  69.953  1.00  0.00    -0.186 C  
HETATM   13  C   UNL     1     -10.996   7.840  68.974  1.00  0.00     0.056 C  
HETATM   14  N   UNL     1      -9.792   5.927  67.907  1.00  0.00    -0.119 NA 
HETATM   15  C   UNL     1     -11.031   6.370  68.555  1.00  0.00    -0.319 C  
HETATM   16  C   UNL     1      -8.548   7.706  69.186  1.00  0.00    -0.139 C  
HETATM   17  C   UNL     1      -8.649   6.231  68.778  1.00  0.00    -0.122 C  
BRANCH  12  18
HETATM   18  C   UNL     1      -9.783   9.757  70.058  1.00  0.00    -0.250 C  
BRANCH  18  19
HETATM   19  O   UNL     1     -10.707  10.392  69.180  1.00  0.00    -0.204 OA 
HETATM   20  C   UNL     1     -11.564  11.295  69.867  1.00  0.00    -0.334 C  
ENDBRANCH  18  19
ENDBRANCH  12  18
BRANCH  14  21
HETATM   21  C   UNL     1      -9.648   6.457  66.539  1.00  0.00    -0.145 C  
BRANCH  21  22
HETATM   22  C   UNL     1      -8.443   5.878  65.776  1.00  0.00    -0.148 C  
BRANCH  22  23
HETATM   23  C   UNL     1      -8.740   4.506  65.258  1.00  0.00    -0.132 A  
HETATM   24  C   UNL     1      -9.745   4.121  64.397  1.00  0.00    -0.158 A  
HETATM   25  C   UNL     1      -9.710   2.722  64.138  1.00  0.00    -0.151 A  
HETATM   26  C   UNL     1      -8.684   2.091  64.804  1.00  0.00    -0.106 A  
HETATM   27  S   UNL     1      -7.768   3.180  65.743  1.00  0.00    -0.085 SA 
ENDBRANCH  22  23
ENDBRANCH  21  22
ENDBRANCH  14  21
ENDBRANCH   4  12
ENDBRANCH   2   3
TORSDOF 8
ENDMDL
MODEL      170
REMARK 921   NORMALIZED FREE ENERGY PREDICTED BY IDOCK:   -3.10 KCAL/MOL
REMARK 922        TOTAL FREE ENERGY PREDICTED BY IDOCK:   -5.05 KCAL/MOL
REMARK 923 INTER-LIGAND FREE ENERGY PREDICTED BY IDOCK:   -4.73 KCAL/MOL
REMARK 924 INTRA-LIGAND FREE ENERGY PREDICTED BY IDOCK:   -0.33 KCAL/MOL
REMARK 927      BINDING AFFINITY PREDICTED BY RF-SCORE:    0.00 PKD
ROOT
HETATM    1  C   UNL     1      -9.224   6.933  74.188  1.00  0.00    -0.253 C  
HETATM    2  C   UNL     1      -8.074   7.302  73.267  1.00  0.00    -0.132 C  
ENDROOT
BRANCH   2   3
HETATM    3  C   UNL     1      -7.792   6.294  72.165  1.00  0.00    -0.104 C  
HETATM    4  N   UNL     1      -7.805   6.747  70.829  1.00  0.00    -0.100 N  
HETATM    5  O   UNL     1      -7.628   5.109  72.472  1.00  0.00    -0.093 OA 
BRANCH   4   6
HETATM    6  C   UNL     1      -7.572   5.699  69.852  1.00  0.00    -0.075 A  
HETATM    7  C   UNL     1      -6.326   5.510  69.244  1.00  0.00    -0.034 A  
HETATM    8  C   UNL     1      -6.153   4.545  68.243  1.00  0.00    -0.031 A  
HETATM    9  C   UNL     1      -8.622   4.842  69.489  1.00  0.00    -0.101 A  
HETATM   10  C   UNL     1      -7.221   3.749  67.841  1.00  0.00    -0.059 A  
HETATM   11  C   UNL     1      -8.456   3.895  68.469  1.00  0.00    -0.107 A  
ENDBRANCH   4   6
BRANCH   4  12
HETATM   12  C   UNL     1      -7.696   8.216  70.340  1.00  0.00    -0.085 C  
HETATM   13  C   UNL     1      -8.666   9.209  71.074  1.00  0.00    -0.251 C  
HETATM   14  N   UNL     1     -10.452   9.051  69.332  1.00  0.00    -0.220 NA 
HETATM   15  C   UNL     1     -10.144   8.969  70.764  1.00  0.00    -0.241 C  
HETATM   16  C   UNL     1      -8.076   8.378  68.834  1.00  0.00    -0.114 C  
HETATM   17  C   UNL     1      -9.571   8.140  68.589  1.00  0.00    -0.149 C  
BRANCH  12  18
HETATM   18  C   UNL     1      -6.244   8.772  70.561  1.00  0.00    -0.037 C  
BRANCH  18  19
HETATM   19  O   UNL     1      -6.228  10.147  70.933  1.00  0.00    -0.203 OA 
HETATM   20  C   UNL     1      -5.140  10.457  71.793  1.00  0.00    -0.052 C  
ENDBRANCH  18  19
ENDBRANCH  12  18
BRANCH  14  21
HETATM   21  C   UNL     1     -10.429  10.435  68.828  1.00  0.00    -0.199 C  
BRANCH  21  22
HETATM   22  C   UNL     1     -11.829  11.058  68.669  1.00  0.00    -0.318 C  
BRANCH  22  23
HETATM   23  C   UNL     1     -11.867  12.448  69.224  1.00  0.00    -0.304 A  
HETATM   24  C   UNL     1     -12.120  12.839  70.522  1.00  0.00    -0.369 A  
HETATM   25  C   UNL     1     -12.075  14.254  70.663  1.00  0.00    -0.417 A  
HETATM   26  C   UNL     1     -11.788  14.891  69.477  1.00  0.00    -0.325 A  
HETATM   27  S   UNL     1     -11.578  13.787  68.195  1.00  0.00    -0.356 SA 
ENDBRANCH  22  23
ENDBRANCH  21  22
ENDBRANCH  14  21
ENDBRANCH   4  12
ENDBRANCH   2   3
TORSDOF 8
ENDMDL
MODEL      171
REMARK 921   NORMALIZED FREE ENERGY PREDICTED BY IDOCK:   -3.09 KCAL/MOL
REMARK 922        TOTAL FREE ENERGY PREDICTED BY IDOCK:   -5.05 KCAL/MOL
REMARK 923 INTER-LIGAND FREE ENERGY PREDICTED BY IDOCK:   -4.73 KCAL/MOL
REMARK 924 INTRA-LIGAND FREE ENERGY PREDICTED BY IDOCK:   -0.32 KCAL/MOL
REMARK 927      BINDING AFFINITY PREDICTED BY RF-SCORE:    0.00 PKD
ROOT
HETATM    1  C   UNL     1      -7.790   9.167  71.068  1.00  0.00    -0.152 C  
HETATM    2  C   UNL     1      -8.943   8.950  70.104  1.00  0.00    -0.183 C  
ENDROOT
BRANCH   2   3
HETATM    3  C   UNL     1      -8.986   7.572  69.463  1.00  0.00    -0.143 C  
HETATM    4  N   UNL     1      -8.623   7.457  68.105  1.00  0.00    -0.123 N  
HETATM    5  O   UNL     1      -9.398   6.619  70.132  1.00  0.00    -0.158 OA 
BRANCH   4   6
HETATM    6  C   UNL     1      -8.743   6.111  67.577  1.00  0.00    -0.104 A  
HETATM    7  C   UNL     1      -7.655   5.235  67.513  1.00  0.00    -0.088 A  
HETATM    8  C   UNL     1      -7.781   3.971  66.921  1.00  0.00    -0.088 A  
HETATM    9  C   UNL     1      -9.985   5.659  67.104  1.00  0.00    -0.188 A  
HETATM   10  C   UNL     1      -9.001   3.562  66.390  1.00  0.00    -0.149 A  
HETATM   11  C   UNL     1     -10.106   4.406  66.487  1.00  0.00    -0.217 A  
ENDBRANCH   4   6
BRANCH   4  12
HETATM   12  C   UNL     1      -7.819   8.486  67.264  1.00  0.00    -0.098 C  
HETATM   13  C   UNL     1      -8.398   9.944  67.311  1.00  0.00    -0.121 C  
HETATM   14  N   UNL     1      -9.735   9.685  65.214  1.00  0.00    -0.299 NA 
HETATM   15  C   UNL     1      -9.757  10.090  66.623  1.00  0.00    -0.194 C  
HETATM   16  C   UNL     1      -7.814   8.142  65.741  1.00  0.00    -0.096 C  
HETATM   17  C   UNL     1      -9.198   8.322  65.105  1.00  0.00     0.368 C  
BRANCH  12  18
HETATM   18  C   UNL     1      -6.335   8.583  67.768  1.00  0.00    -0.057 C  
BRANCH  18  19
HETATM   19  O   UNL     1      -5.614   9.651  67.162  1.00  0.00    -0.046 OA 
HETATM   20  C   UNL     1      -5.131  10.583  68.120  1.00  0.00    -0.034 C  
ENDBRANCH  18  19
ENDBRANCH  12  18
BRANCH  14  21
HETATM   21  C   UNL     1      -9.041  10.661  64.356  1.00  0.00    -0.215 C  
BRANCH  21  22
HETATM   22  C   UNL     1      -9.960  11.335  63.320  1.00  0.00    -0.428 C  
BRANCH  22  23
HETATM   23  C   UNL     1     -10.773  12.424  63.946  1.00  0.00    -0.426 A  
HETATM   24  C   UNL     1     -10.326  13.529  64.638  1.00  0.00    -0.406 A  
HETATM   25  C   UNL     1     -11.405  14.339  65.090  1.00  0.00    -0.345 A  
HETATM   26  C   UNL     1     -12.631  13.831  64.727  1.00  0.00    -0.290 A  
HETATM   27  S   UNL     1     -12.484  12.377  63.848  1.00  0.00    -0.447 SA 
ENDBRANCH  22  23
ENDBRANCH  21  22
ENDBRANCH  14  21
ENDBRANCH   4  12
ENDBRANCH   2   3
TORSDOF 8
ENDMDL
MODEL      172
REMARK 921   NORMALIZED FREE ENERGY PREDICTED BY IDOCK:   -3.08 KCAL/MOL
REMARK 922        TOTAL FREE ENERGY PREDICTED BY IDOCK:   -5.03 KCAL/MOL
REMARK 923 INTER-LIGAND FREE ENERGY PREDICTED BY IDOCK:   -5.04 KCAL/MOL
REMARK 924 INTRA-LIGAND FREE ENERGY PREDICTED BY IDOCK:    0.01 KCAL/MOL
REMARK 927      BINDING AFFINITY PREDICTED BY RF-SCORE:    0.00 PKD
ROOT
HETATM    1  C   UNL     1     -11.747  10.809  68.904  1.00  0.00    -0.338 C  
HETATM    2  C   UNL     1     -10.961   9.517  68.766  1.00  0.00    -0.116 C  
ENDROOT
BRANCH   2   3
HETATM    3  C   UNL     1      -9.924   9.283  69.852  1.00  0.00    -0.205 C  
HETATM    4  N   UNL     1     -10.027   8.111  70.630  1.00  0.00    -0.188 N  
HETATM    5  O   UNL     1      -9.073  10.154  70.058  1.00  0.00    -0.161 OA 
BRANCH   4   6
HETATM    6  C   UNL     1      -9.019   8.006  71.669  1.00  0.00    -0.150 A  
HETATM    7  C   UNL     1      -9.349   7.989  73.028  1.00  0.00    -0.344 A  
HETATM    8  C   UNL     1      -8.351   7.971  74.012  1.00  0.00    -0.323 A  
HETATM    9  C   UNL     1      -7.664   7.924  71.317  1.00  0.00    -0.086 A  
HETATM   10  C   UNL     1      -7.008   7.962  73.649  1.00  0.00    -0.130 A  
HETATM   11  C   UNL     1      -6.664   7.933  72.299  1.00  0.00    -0.065 A  
ENDBRANCH   4   6
BRANCH   4  12
HETATM   12  C   UNL     1     -10.835   6.830  70.286  1.00  0.00    -0.270 C  
HETATM   13  C   UNL     1     -10.249   5.516  70.913  1.00  0.00    -0.293 C  
HETATM   14  N   UNL     1      -8.935   4.903  68.877  1.00  0.00    -0.103 NA 
HETATM   15  C   UNL     1      -8.897   5.104  70.329  1.00  0.00    -0.120 C  
HETATM   16  C   UNL     1     -10.856   6.528  68.754  1.00  0.00    -0.357 C  
HETATM   17  C   UNL     1      -9.478   6.106  68.231  1.00  0.00    -0.117 C  
BRANCH  12  18
HETATM   18  C   UNL     1     -12.313   6.946  70.802  1.00  0.00    -0.262 C  
BRANCH  18  19
HETATM   19  O   UNL     1     -12.458   7.891  71.858  1.00  0.00    -0.304 OA 
HETATM   20  C   UNL     1     -13.548   8.776  71.640  1.00  0.00    -0.383 C  
ENDBRANCH  18  19
ENDBRANCH  12  18
BRANCH  14  21
HETATM   21  C   UNL     1      -9.632   3.663  68.495  1.00  0.00    -0.094 C  
BRANCH  21  22
HETATM   22  C   UNL     1      -8.772   2.704  67.652  1.00  0.00    -0.138 C  
BRANCH  22  23
HETATM   23  C   UNL     1      -8.317   3.359  66.385  1.00  0.00    -0.102 A  
HETATM   24  C   UNL     1      -7.032   3.697  66.016  1.00  0.00    -0.062 A  
HETATM   25  C   UNL     1      -6.998   4.312  64.733  1.00  0.00    -0.050 A  
HETATM   26  C   UNL     1      -8.248   4.420  64.169  1.00  0.00    -0.102 A  
HETATM   27  S   UNL     1      -9.463   3.785  65.184  1.00  0.00    -0.176 SA 
ENDBRANCH  22  23
ENDBRANCH  21  22
ENDBRANCH  14  21
ENDBRANCH   4  12
ENDBRANCH   2   3
TORSDOF 8
ENDMDL
MODEL      173
REMARK 921   NORMALIZED FREE ENERGY PREDICTED BY IDOCK:   -3.08 KCAL/MOL
REMARK 922        TOTAL FREE ENERGY PREDICTED BY IDOCK:   -5.02 KCAL/MOL
REMARK 923 INTER-LIGAND FREE ENERGY PREDICTED BY IDOCK:   -5.15 KCAL/MOL
REMARK 924 INTRA-LIGAND FREE ENERGY PREDICTED BY IDOCK:    0.13 KCAL/MOL
REMARK 927      BINDING AFFINITY PREDICTED BY RF-SCORE:    0.00 PKD
ROOT
HETATM    1  C   UNL     1      -6.931  11.787  69.069  1.00  0.00    -0.107 C  
HETATM    2  C   UNL     1      -8.082  10.798  69.136  1.00  0.00    -0.133 C  
ENDROOT
BRANCH   2   3
HETATM    3  C   UNL     1      -7.969   9.764  70.244  1.00  0.00    -0.162 C  
HETATM    4  N   UNL     1      -9.081   8.934  70.496  1.00  0.00    -0.181 N  
HETATM    5  O   UNL     1      -6.938   9.732  70.923  1.00  0.00    -0.277 OA 
BRANCH   4   6
HETATM    6  C   UNL     1      -8.888   8.015  71.603  1.00  0.00    -0.139 A  
HETATM    7  C   UNL     1      -9.636   8.103  72.782  1.00  0.00    -0.353 A  
HETATM    8  C   UNL     1      -9.371   7.255  73.866  1.00  0.00    -0.304 A  
HETATM    9  C   UNL     1      -7.921   7.004  71.506  1.00  0.00    -0.103 A  
HETATM   10  C   UNL     1      -8.359   6.303  73.784  1.00  0.00    -0.116 A  
HETATM   11  C   UNL     1      -7.637   6.174  72.600  1.00  0.00    -0.101 A  
ENDBRANCH   4   6
BRANCH   4  12
HETATM   12  C   UNL     1     -10.282   8.670  69.548  1.00  0.00    -0.209 C  
HETATM   13  C   UNL     1     -10.993   7.290  69.785  1.00  0.00    -0.235 C  
HETATM   14  N   UNL     1      -9.687   6.099  68.016  1.00  0.00    -0.118 NA 
HETATM   15  C   UNL     1     -10.131   6.082  69.414  1.00  0.00    -0.192 C  
HETATM   16  C   UNL     1      -9.860   8.612  68.046  1.00  0.00    -0.201 C  
HETATM   17  C   UNL     1      -9.013   7.373  67.732  1.00  0.00    -0.127 C  
BRANCH  12  18
HETATM   18  C   UNL     1     -11.386   9.772  69.725  1.00  0.00    -0.158 C  
BRANCH  18  19
HETATM   19  O   UNL     1     -12.239   9.527  70.839  1.00  0.00    -0.292 OA 
HETATM   20  C   UNL     1     -12.832  10.722  71.332  1.00  0.00    -0.452 C  
ENDBRANCH  18  19
ENDBRANCH  12  18
BRANCH  14  21
HETATM   21  C   UNL     1     -10.776   5.786  67.074  1.00  0.00    -0.289 C  
BRANCH  21  22
HETATM   22  C   UNL     1     -10.420   4.678  66.066  1.00  0.00    -0.303 C  
BRANCH  22  23
HETATM   23  C   UNL     1      -9.237   3.887  66.528  1.00  0.00    -0.166 A  
HETATM   24  C   UNL     1      -9.186   2.935  67.524  1.00  0.00    -0.233 A  
HETATM   25  C   UNL     1      -7.875   2.403  67.678  1.00  0.00    -0.060 A  
HETATM   26  C   UNL     1      -6.976   2.961  66.798  1.00  0.00    -0.049 A  
HETATM   27  S   UNL     1      -7.707   4.127  65.792  1.00  0.00    -0.090 SA 
ENDBRANCH  22  23
ENDBRANCH  21  22
ENDBRANCH  14  21
ENDBRANCH   4  12
ENDBRANCH   2   3
TORSDOF 8
ENDMDL
MODEL      174
REMARK 921   NORMALIZED FREE ENERGY PREDICTED BY IDOCK:   -3.07 KCAL/MOL
REMARK 922        TOTAL FREE ENERGY PREDICTED BY IDOCK:   -5.01 KCAL/MOL
REMARK 923 INTER-LIGAND FREE ENERGY PREDICTED BY IDOCK:   -5.39 KCAL/MOL
REMARK 924 INTRA-LIGAND FREE ENERGY PREDICTED BY IDOCK:    0.38 KCAL/MOL
REMARK 927      BINDING AFFINITY PREDICTED BY RF-SCORE:    0.00 PKD
ROOT
HETATM    1  C   UNL     1     -12.561  11.261  69.977  1.00  0.00    -0.169 C  
HETATM    2  C   UNL     1     -11.666  11.067  68.766  1.00  0.00    -0.383 C  
ENDROOT
BRANCH   2   3
HETATM    3  C   UNL     1     -10.293  10.491  69.075  1.00  0.00    -0.213 C  
HETATM    4  N   UNL     1      -9.252  10.721  68.152  1.00  0.00    -0.146 N  
HETATM    5  O   UNL     1     -10.156   9.792  70.083  1.00  0.00    -0.238 OA 
BRANCH   4   6
HETATM    6  C   UNL     1      -7.996  10.090  68.515  1.00  0.00    -0.102 A  
HETATM    7  C   UNL     1      -7.455   9.030  67.781  1.00  0.00    -0.085 A  
HETATM    8  C   UNL     1      -6.284   8.385  68.202  1.00  0.00    -0.051 A  
HETATM    9  C   UNL     1      -7.292  10.542  69.641  1.00  0.00    -0.151 A  
HETATM   10  C   UNL     1      -5.633   8.797  69.362  1.00  0.00    -0.035 A  
HETATM   11  C   UNL     1      -6.136   9.881  70.079  1.00  0.00    -0.053 A  
ENDBRANCH   4   6
BRANCH   4  12
HETATM   12  C   UNL     1      -9.212  11.803  67.040  1.00  0.00    -0.187 C  
HETATM   13  C   UNL     1      -7.803  12.468  66.842  1.00  0.00     0.016 C  
HETATM   14  N   UNL     1      -8.298  14.410  68.335  1.00  0.00    -0.150 NA 
HETATM   15  C   UNL     1      -7.357  13.330  68.024  1.00  0.00    -0.127 C  
HETATM   16  C   UNL     1     -10.148  13.014  67.347  1.00  0.00    -0.231 C  
HETATM   17  C   UNL     1      -9.642  13.849  68.530  1.00  0.00    -0.185 C  
BRANCH  12  18
HETATM   18  C   UNL     1      -9.612  11.192  65.650  1.00  0.00    -0.224 C  
BRANCH  18  19
HETATM   19  O   UNL     1     -10.208  12.146  64.776  1.00  0.00    -0.272 OA 
HETATM   20  C   UNL     1     -10.455  11.608  63.484  1.00  0.00    -0.443 C  
ENDBRANCH  18  19
ENDBRANCH  12  18
BRANCH  14  21
HETATM   21  C   UNL     1      -8.254  15.501  67.345  1.00  0.00    -0.177 C  
BRANCH  21  22
HETATM   22  C   UNL     1      -7.464  16.735  67.820  1.00  0.00    -0.176 C  
BRANCH  22  23
HETATM   23  C   UNL     1      -8.245  17.993  67.600  1.00  0.00    -0.241 A  
HETATM   24  C   UNL     1      -9.108  18.289  66.567  1.00  0.00    -0.291 A  
HETATM   25  C   UNL     1      -9.660  19.594  66.700  1.00  0.00    -0.479 A  
HETATM   26  C   UNL     1      -9.205  20.244  67.825  1.00  0.00    -0.276 A  
HETATM   27  S   UNL     1      -8.112  19.287  68.716  1.00  0.00    -0.320 SA 
ENDBRANCH  22  23
ENDBRANCH  21  22
ENDBRANCH  14  21
ENDBRANCH   4  12
ENDBRANCH   2   3
TORSDOF 8
ENDMDL
MODEL      175
REMARK 921   NORMALIZED FREE ENERGY PREDICTED BY IDOCK:   -3.07 KCAL/MOL
REMARK 922        TOTAL FREE ENERGY PREDICTED BY IDOCK:   -5.01 KCAL/MOL
REMARK 923 INTER-LIGAND FREE ENERGY PREDICTED BY IDOCK:   -5.23 KCAL/MOL
REMARK 924 INTRA-LIGAND FREE ENERGY PREDICTED BY IDOCK:    0.22 KCAL/MOL
REMARK 927      BINDING AFFINITY PREDICTED BY RF-SCORE:    0.00 PKD
ROOT
HETATM    1  C   UNL     1     -12.848  14.310  64.715  1.00  0.00    -0.044 C  
HETATM    2  C   UNL     1     -11.518  13.577  64.710  1.00  0.00    -0.365 C  
ENDROOT
BRANCH   2   3
HETATM    3  C   UNL     1     -10.422  14.244  65.525  1.00  0.00    -0.346 C  
HETATM    4  N   UNL     1     -10.147  13.738  66.812  1.00  0.00    -0.260 N  
HETATM    5  O   UNL     1      -9.858  15.240  65.059  1.00  0.00    -0.228 OA 
BRANCH   4   6
HETATM    6  C   UNL     1      -9.119  14.473  67.525  1.00  0.00    -0.193 A  
HETATM    7  C   UNL     1      -9.405  15.260  68.645  1.00  0.00    -0.201 A  
HETATM    8  C   UNL     1      -8.406  16.024  69.262  1.00  0.00    -0.217 A  
HETATM    9  C   UNL     1      -7.788  14.408  67.085  1.00  0.00    -0.111 A  
HETATM   10  C   UNL     1      -7.104  16.007  68.772  1.00  0.00    -0.146 A  
HETATM   11  C   UNL     1      -6.794  15.193  67.685  1.00  0.00    -0.204 A  
ENDBRANCH   4   6
BRANCH   4  12
HETATM   12  C   UNL     1     -10.553  12.349  67.375  1.00  0.00    -0.216 C  
HETATM   13  C   UNL     1      -9.499  11.721  68.354  1.00  0.00    -0.188 C  
HETATM   14  N   UNL     1      -8.373  10.369  66.579  1.00  0.00    -0.126 NA 
HETATM   15  C   UNL     1      -8.187  11.325  67.675  1.00  0.00    -0.120 C  
HETATM   16  C   UNL     1     -10.704  11.269  66.258  1.00  0.00    -0.312 C  
HETATM   17  C   UNL     1      -9.356  10.901  65.626  1.00  0.00    -0.207 C  
BRANCH  12  18
HETATM   18  C   UNL     1     -11.900  12.442  68.177  1.00  0.00    -0.315 C  
BRANCH  18  19
HETATM   19  O   UNL     1     -11.750  12.106  69.553  1.00  0.00    -0.300 OA 
HETATM   20  C   UNL     1     -12.283  13.106  70.411  1.00  0.00    -0.316 C  
ENDBRANCH  18  19
ENDBRANCH  12  18
BRANCH  14  21
HETATM   21  C   UNL     1      -8.694   9.013  67.060  1.00  0.00    -0.116 C  
BRANCH  21  22
HETATM   22  C   UNL     1      -8.031   7.893  66.237  1.00  0.00    -0.103 C  
BRANCH  22  23
HETATM   23  C   UNL     1      -8.647   6.563  66.541  1.00  0.00    -0.123 A  
HETATM   24  C   UNL     1      -9.799   6.019  66.014  1.00  0.00     0.049 A  
HETATM   25  C   UNL     1     -10.067   4.730  66.554  1.00  0.00    -0.286 A  
HETATM   26  C   UNL     1      -9.116   4.334  67.467  1.00  0.00    -0.134 A  
HETATM   27  S   UNL     1      -7.904   5.516  67.677  1.00  0.00    -0.097 SA 
ENDBRANCH  22  23
ENDBRANCH  21  22
ENDBRANCH  14  21
ENDBRANCH   4  12
ENDBRANCH   2   3
TORSDOF 8
ENDMDL
MODEL      176
REMARK 921   NORMALIZED FREE ENERGY PREDICTED BY IDOCK:   -3.00 KCAL/MOL
REMARK 922        TOTAL FREE ENERGY PREDICTED BY IDOCK:   -4.91 KCAL/MOL
REMARK 923 INTER-LIGAND FREE ENERGY PREDICTED BY IDOCK:   -4.82 KCAL/MOL
REMARK 924 INTRA-LIGAND FREE ENERGY PREDICTED BY IDOCK:   -0.09 KCAL/MOL
REMARK 927      BINDING AFFINITY PREDICTED BY RF-SCORE:    0.00 PKD
ROOT
HETATM    1  C   UNL     1      -6.080   7.644  71.553  1.00  0.00    -0.035 C  
HETATM    2  C   UNL     1      -7.344   7.315  70.779  1.00  0.00    -0.071 C  
ENDROOT
BRANCH   2   3
HETATM    3  C   UNL     1      -8.576   8.094  71.211  1.00  0.00    -0.137 C  
HETATM    4  N   UNL     1      -9.641   8.216  70.296  1.00  0.00    -0.170 N  
HETATM    5  O   UNL     1      -8.572   8.646  72.316  1.00  0.00    -0.319 OA 
BRANCH   4   6
HETATM    6  C   UNL     1     -10.747   9.018  70.785  1.00  0.00    -0.241 A  
HETATM    7  C   UNL     1     -10.931  10.350  70.399  1.00  0.00    -0.320 A  
HETATM    8  C   UNL     1     -11.959  11.124  70.953  1.00  0.00    -0.362 A  
HETATM    9  C   UNL     1     -11.669   8.456  71.682  1.00  0.00    -0.354 A  
HETATM   10  C   UNL     1     -12.823  10.576  71.896  1.00  0.00    -0.509 A  
HETATM   11  C   UNL     1     -12.681   9.238  72.256  1.00  0.00    -0.435 A  
ENDBRANCH   4   6
BRANCH   4  12
HETATM   12  C   UNL     1      -9.894   7.343  69.036  1.00  0.00    -0.168 C  
HETATM   13  C   UNL     1      -8.586   6.902  68.289  1.00  0.00    -0.125 C  
HETATM   14  N   UNL     1      -8.653   8.793  66.656  1.00  0.00    -0.111 NA 
HETATM   15  C   UNL     1      -7.835   8.058  67.626  1.00  0.00    -0.122 C  
HETATM   16  C   UNL     1     -10.708   8.097  67.937  1.00  0.00    -0.138 C  
HETATM   17  C   UNL     1      -9.899   9.233  67.299  1.00  0.00    -0.182 C  
BRANCH  12  18
HETATM   18  C   UNL     1     -10.654   6.022  69.415  1.00  0.00    -0.298 C  
BRANCH  18  19
HETATM   19  O   UNL     1      -9.825   5.081  70.091  1.00  0.00    -0.191 OA 
HETATM   20  C   UNL     1     -10.346   4.727  71.366  1.00  0.00    -0.122 C  
ENDBRANCH  18  19
ENDBRANCH  12  18
BRANCH  14  21
HETATM   21  C   UNL     1      -8.869   8.037  65.410  1.00  0.00    -0.014 C  
BRANCH  21  22
HETATM   22  C   UNL     1      -7.598   7.879  64.555  1.00  0.00    -0.111 C  
BRANCH  22  23
HETATM   23  C   UNL     1      -7.095   6.470  64.589  1.00  0.00    -0.060 A  
HETATM   24  C   UNL     1      -5.790   6.034  64.664  1.00  0.00    -0.025 A  
HETATM   25  C   UNL     1      -5.709   4.613  64.668  1.00  0.00    -0.014 A  
HETATM   26  C   UNL     1      -6.947   4.016  64.600  1.00  0.00    -0.050 A  
HETATM   27  S   UNL     1      -8.205   5.165  64.526  1.00  0.00    -0.137 SA 
ENDBRANCH  22  23
ENDBRANCH  21  22
ENDBRANCH  14  21
ENDBRANCH   4  12
ENDBRANCH   2   3
TORSDOF 8
ENDMDL
MODEL      177
REMARK 921   NORMALIZED FREE ENERGY PREDICTED BY IDOCK:   -2.95 KCAL/MOL
REMARK 922        TOTAL FREE ENERGY PREDICTED BY IDOCK:   -4.83 KCAL/MOL
REMARK 923 INTER-LIGAND FREE ENERGY PREDICTED BY IDOCK:   -4.83 KCAL/MOL
REMARK 924 INTRA-LIGAND FREE ENERGY PREDICTED BY IDOCK:   -0.00 KCAL/MOL
REMARK 927      BINDING AFFINITY PREDICTED BY RF-SCORE:    0.00 PKD
ROOT
HETATM    1  C   UNL     1      -5.895   9.068  72.727  1.00  0.00    -0.034 C  
HETATM    2  C   UNL     1      -6.326   8.380  71.443  1.00  0.00    -0.045 C  
ENDROOT
BRANCH   2   3
HETATM    3  C   UNL     1      -7.402   9.112  70.659  1.00  0.00    -0.111 C  
HETATM    4  N   UNL     1      -8.396   8.346  70.016  1.00  0.00    -0.120 N  
HETATM    5  O   UNL     1      -7.331  10.342  70.558  1.00  0.00    -0.281 OA 
BRANCH   4   6
HETATM    6  C   UNL     1      -9.347   9.135  69.256  1.00  0.00    -0.157 A  
HETATM    7  C   UNL     1      -9.416   9.078  67.860  1.00  0.00    -0.159 A  
HETATM    8  C   UNL     1     -10.286   9.913  67.147  1.00  0.00    -0.304 A  
HETATM    9  C   UNL     1     -10.230   9.995  69.927  1.00  0.00    -0.304 A  
HETATM   10  C   UNL     1     -11.106  10.814  67.821  1.00  0.00    -0.381 A  
HETATM   11  C   UNL     1     -11.081  10.850  69.214  1.00  0.00    -0.305 A  
ENDBRANCH   4   6
BRANCH   4  12
HETATM   12  C   UNL     1      -8.767   6.866  70.307  1.00  0.00    -0.144 C  
HETATM   13  C   UNL     1     -10.281   6.526  70.067  1.00  0.00    -0.219 C  
HETATM   14  N   UNL     1     -10.934   6.874  72.454  1.00  0.00    -0.236 NA 
HETATM   15  C   UNL     1     -11.229   7.205  71.057  1.00  0.00    -0.269 C  
HETATM   16  C   UNL     1      -8.535   6.472  71.800  1.00  0.00    -0.123 C  
HETATM   17  C   UNL     1      -9.524   7.170  72.741  1.00  0.00    -0.146 C  
BRANCH  12  18
HETATM   18  C   UNL     1      -7.944   5.893  69.390  1.00  0.00    -0.102 C  
BRANCH  18  19
HETATM   19  O   UNL     1      -8.754   5.217  68.433  1.00  0.00    -0.101 OA 
HETATM   20  C   UNL     1      -8.038   4.196  67.751  1.00  0.00    -0.094 C  
ENDBRANCH  18  19
ENDBRANCH  12  18
BRANCH  14  21
HETATM   21  C   UNL     1     -11.330   5.499  72.806  1.00  0.00    -0.303 C  
BRANCH  21  22
HETATM   22  C   UNL     1     -10.770   5.020  74.158  1.00  0.00    -0.297 C  
BRANCH  22  23
HETATM   23  C   UNL     1     -10.032   3.726  74.009  1.00  0.00    -0.127 A  
HETATM   24  C   UNL     1     -10.540   2.492  73.664  1.00  0.00    -0.249 A  
HETATM   25  C   UNL     1      -9.525   1.496  73.631  1.00  0.00    -0.081 A  
HETATM   26  C   UNL     1      -8.284   2.000  73.946  1.00  0.00    -0.054 A  
HETATM   27  S   UNL     1      -8.341   3.669  74.286  1.00  0.00    -0.082 SA 
ENDBRANCH  22  23
ENDBRANCH  21  22
ENDBRANCH  14  21
ENDBRANCH   4  12
ENDBRANCH   2   3
TORSDOF 8
ENDMDL
MODEL      178
REMARK 921   NORMALIZED FREE ENERGY PREDICTED BY IDOCK:   -2.88 KCAL/MOL
REMARK 922        TOTAL FREE ENERGY PREDICTED BY IDOCK:   -4.73 KCAL/MOL
REMARK 923 INTER-LIGAND FREE ENERGY PREDICTED BY IDOCK:   -5.22 KCAL/MOL
REMARK 924 INTRA-LIGAND FREE ENERGY PREDICTED BY IDOCK:    0.48 KCAL/MOL
REMARK 927      BINDING AFFINITY PREDICTED BY RF-SCORE:    0.00 PKD
ROOT
HETATM    1  C   UNL     1     -10.604  11.120  63.548  1.00  0.00    -0.393 C  
HETATM    2  C   UNL     1     -10.037  10.667  64.882  1.00  0.00    -0.402 C  
ENDROOT
BRANCH   2   3
HETATM    3  C   UNL     1      -8.986   9.573  64.788  1.00  0.00    -0.218 C  
HETATM    4  N   UNL     1      -8.605   8.912  65.974  1.00  0.00    -0.137 N  
HETATM    5  O   UNL     1      -8.459   9.348  63.694  1.00  0.00    -0.176 OA 
BRANCH   4   6
HETATM    6  C   UNL     1      -7.563   7.920  65.785  1.00  0.00    -0.083 A  
HETATM    7  C   UNL     1      -7.798   6.709  65.125  1.00  0.00    -0.115 A  
HETATM    8  C   UNL     1      -6.796   5.734  65.031  1.00  0.00    -0.051 A  
HETATM    9  C   UNL     1      -6.273   8.163  66.281  1.00  0.00    -0.046 A  
HETATM   10  C   UNL     1      -5.541   5.959  65.589  1.00  0.00    -0.016 A  
HETATM   11  C   UNL     1      -5.279   7.178  66.210  1.00  0.00    -0.023 A  
ENDBRANCH   4   6
BRANCH   4  12
HETATM   12  C   UNL     1      -9.382   8.885  67.318  1.00  0.00    -0.140 C  
HETATM   13  C   UNL     1      -8.747   7.948  68.407  1.00  0.00    -0.131 C  
HETATM   14  N   UNL     1     -10.197   5.992  67.843  1.00  0.00    -0.159 NA 
HETATM   15  C   UNL     1      -8.825   6.461  68.060  1.00  0.00    -0.113 C  
HETATM   16  C   UNL     1     -10.834   8.332  67.161  1.00  0.00    -0.095 C  
HETATM   17  C   UNL     1     -10.848   6.835  66.830  1.00  0.00    -0.331 C  
BRANCH  12  18
HETATM   18  C   UNL     1      -9.450  10.319  67.954  1.00  0.00    -0.141 C  
BRANCH  18  19
HETATM   19  O   UNL     1     -10.785  10.758  68.188  1.00  0.00    -0.184 OA 
HETATM   20  C   UNL     1     -11.128  10.719  69.567  1.00  0.00    -0.278 C  
ENDBRANCH  18  19
ENDBRANCH  12  18
BRANCH  14  21
HETATM   21  C   UNL     1     -10.963   5.881  69.097  1.00  0.00    -0.312 C  
BRANCH  21  22
HETATM   22  C   UNL     1     -10.174   5.227  70.246  1.00  0.00    -0.345 C  
BRANCH  22  23
HETATM   23  C   UNL     1     -10.275   6.037  71.500  1.00  0.00    -0.204 A  
HETATM   24  C   UNL     1     -11.306   6.860  71.901  1.00  0.00    -0.297 A  
HETATM   25  C   UNL     1     -11.034   7.470  73.158  1.00  0.00    -0.420 A  
HETATM   26  C   UNL     1      -9.815   7.092  73.673  1.00  0.00    -0.280 A  
HETATM   27  S   UNL     1      -8.996   6.009  72.642  1.00  0.00    -0.125 SA 
ENDBRANCH  22  23
ENDBRANCH  21  22
ENDBRANCH  14  21
ENDBRANCH   4  12
ENDBRANCH   2   3
TORSDOF 8
ENDMDL
MODEL      179
REMARK 921   NORMALIZED FREE ENERGY PREDICTED BY IDOCK:   -2.82 KCAL/MOL
REMARK 922        TOTAL FREE ENERGY PREDICTED BY IDOCK:   -4.64 KCAL/MOL
REMARK 923 INTER-LIGAND FREE ENERGY PREDICTED BY IDOCK:   -4.81 KCAL/MOL
REMARK 924 INTRA-LIGAND FREE ENERGY PREDICTED BY IDOCK:    0.17 KCAL/MOL
REMARK 927      BINDING AFFINITY PREDICTED BY RF-SCORE:    0.00 PKD
ROOT
HETATM    1  C   UNL     1      -6.954   8.490  74.191  1.00  0.00    -0.145 C  
HETATM    2  C   UNL     1      -8.379   8.028  73.944  1.00  0.00    -0.319 C  
ENDROOT
BRANCH   2   3
HETATM    3  C   UNL     1      -8.514   6.569  73.538  1.00  0.00    -0.122 C  
HETATM    4  N   UNL     1      -9.579   6.210  72.687  1.00  0.00    -0.156 N  
HETATM    5  O   UNL     1      -7.729   5.744  74.019  1.00  0.00    -0.099 OA 
BRANCH   4   6
HETATM    6  C   UNL     1      -9.647   4.789  72.399  1.00  0.00    -0.144 A  
HETATM    7  C   UNL     1      -8.761   4.164  71.515  1.00  0.00    -0.135 A  
HETATM    8  C   UNL     1      -8.903   2.808  71.191  1.00  0.00    -0.137 A  
HETATM    9  C   UNL     1     -10.632   4.002  73.015  1.00  0.00    -0.256 A  
HETATM   10  C   UNL     1      -9.929   2.055  71.754  1.00  0.00    -0.215 A  
HETATM   11  C   UNL     1     -10.791   2.652  72.671  1.00  0.00     0.002 A  
ENDBRANCH   4   6
BRANCH   4  12
HETATM   12  C   UNL     1     -10.423   7.161  71.796  1.00  0.00    -0.197 C  
HETATM   13  C   UNL     1     -10.874   6.527  70.432  1.00  0.00    -0.326 C  
HETATM   14  N   UNL     1      -8.951   7.467  69.141  1.00  0.00    -0.136 NA 
HETATM   15  C   UNL     1      -9.720   6.261  69.464  1.00  0.00    -0.146 C  
HETATM   16  C   UNL     1      -9.633   8.436  71.364  1.00  0.00    -0.254 C  
HETATM   17  C   UNL     1      -8.501   8.109  70.383  1.00  0.00    -0.129 C  
BRANCH  12  18
HETATM   18  C   UNL     1     -11.736   7.601  72.535  1.00  0.00    -0.301 C  
BRANCH  18  19
HETATM   19  O   UNL     1     -12.502   8.543  71.789  1.00  0.00    -0.308 OA 
HETATM   20  C   UNL     1     -13.862   8.148  71.664  1.00  0.00    -0.375 C  
ENDBRANCH  18  19
ENDBRANCH  12  18
BRANCH  14  21
HETATM   21  C   UNL     1      -9.680   8.377  68.239  1.00  0.00    -0.155 C  
BRANCH  21  22
HETATM   22  C   UNL     1      -9.748   7.880  66.783  1.00  0.00    -0.303 C  
BRANCH  22  23
HETATM   23  C   UNL     1      -8.417   7.997  66.109  1.00  0.00    -0.135 A  
HETATM   24  C   UNL     1      -7.512   9.033  66.189  1.00  0.00    -0.091 A  
HETATM   25  C   UNL     1      -6.355   8.784  65.398  1.00  0.00    -0.062 A  
HETATM   26  C   UNL     1      -6.415   7.572  64.748  1.00  0.00    -0.041 A  
HETATM   27  S   UNL     1      -7.863   6.738  65.086  1.00  0.00    -0.124 SA 
ENDBRANCH  22  23
ENDBRANCH  21  22
ENDBRANCH  14  21
ENDBRANCH   4  12
ENDBRANCH   2   3
TORSDOF 8
ENDMDL
MODEL      180
REMARK 921   NORMALIZED FREE ENERGY PREDICTED BY IDOCK:   -2.80 KCAL/MOL
REMARK 922        TOTAL FREE ENERGY PREDICTED BY IDOCK:   -4.61 KCAL/MOL
REMARK 923 INTER-LIGAND FREE ENERGY PREDICTED BY IDOCK:   -5.05 KCAL/MOL
REMARK 924 INTRA-LIGAND FREE ENERGY PREDICTED BY IDOCK:    0.44 KCAL/MOL
REMARK 927      BINDING AFFINITY PREDICTED BY RF-SCORE:    0.00 PKD
ROOT
HETATM    1  C   UNL     1     -11.861   7.810  72.356  1.00  0.00    -0.371 C  
HETATM    2  C   UNL     1     -10.433   7.604  71.883  1.00  0.00    -0.256 C  
ENDROOT
BRANCH   2   3
HETATM    3  C   UNL     1     -10.288   6.701  70.669  1.00  0.00    -0.202 C  
HETATM    4  N   UNL     1      -9.858   7.278  69.457  1.00  0.00    -0.162 N  
HETATM    5  O   UNL     1     -10.615   5.514  70.770  1.00  0.00    -0.256 OA 
BRANCH   4   6
HETATM    6  C   UNL     1      -9.799   6.343  68.349  1.00  0.00    -0.137 A  
HETATM    7  C   UNL     1     -10.861   6.179  67.454  1.00  0.00    -0.431 A  
HETATM    8  C   UNL     1     -10.809   5.209  66.444  1.00  0.00    -0.174 A  
HETATM    9  C   UNL     1      -8.648   5.563  68.159  1.00  0.00    -0.100 A  
HETATM   10  C   UNL     1      -9.690   4.392  66.311  1.00  0.00    -0.224 A  
HETATM   11  C   UNL     1      -8.606   4.574  67.166  1.00  0.00    -0.104 A  
ENDBRANCH   4   6
BRANCH   4  12
HETATM   12  C   UNL     1      -9.144   8.645  69.276  1.00  0.00    -0.149 C  
HETATM   13  C   UNL     1      -9.797   9.821  70.086  1.00  0.00    -0.306 C  
HETATM   14  N   UNL     1     -11.202  10.611  68.175  1.00  0.00    -0.291 NA 
HETATM   15  C   UNL     1     -11.189  10.215  69.587  1.00  0.00    -0.261 C  
HETATM   16  C   UNL     1      -9.183   9.152  67.799  1.00  0.00    -0.145 C  
HETATM   17  C   UNL     1     -10.599   9.546  67.362  1.00  0.00    -0.271 C  
BRANCH  12  18
HETATM   18  C   UNL     1      -7.648   8.562  69.746  1.00  0.00    -0.083 C  
BRANCH  18  19
HETATM   19  O   UNL     1      -6.734   8.436  68.661  1.00  0.00    -0.057 OA 
HETATM   20  C   UNL     1      -5.566   9.225  68.851  1.00  0.00    -0.037 C  
ENDBRANCH  18  19
ENDBRANCH  12  18
BRANCH  14  21
HETATM   21  C   UNL     1     -10.597  11.936  67.954  1.00  0.00    -0.201 C  
BRANCH  21  22
HETATM   22  C   UNL     1      -9.263  11.885  67.186  1.00  0.00    -0.183 C  
BRANCH  22  23
HETATM   23  C   UNL     1      -8.175  12.574  67.949  1.00  0.00    -0.165 A  
HETATM   24  C   UNL     1      -7.279  12.022  68.839  1.00  0.00    -0.089 A  
HETATM   25  C   UNL     1      -6.393  13.001  69.369  1.00  0.00    -0.111 A  
HETATM   26  C   UNL     1      -6.638  14.259  68.867  1.00  0.00    -0.096 A  
HETATM   27  S   UNL     1      -7.937  14.262  67.762  1.00  0.00    -0.185 SA 
ENDBRANCH  22  23
ENDBRANCH  21  22
ENDBRANCH  14  21
ENDBRANCH   4  12
ENDBRANCH   2   3
TORSDOF 8
ENDMDL
MODEL      181
REMARK 921   NORMALIZED FREE ENERGY PREDICTED BY IDOCK:   -2.79 KCAL/MOL
REMARK 922        TOTAL FREE ENERGY PREDICTED BY IDOCK:   -4.60 KCAL/MOL
REMARK 923 INTER-LIGAND FREE ENERGY PREDICTED BY IDOCK:   -4.83 KCAL/MOL
REMARK 924 INTRA-LIGAND FREE ENERGY PREDICTED BY IDOCK:    0.23 KCAL/MOL
REMARK 927      BINDING AFFINITY PREDICTED BY RF-SCORE:    0.00 PKD
ROOT
HETATM    1  C   UNL     1      -6.148  12.170  67.389  1.00  0.00    -0.143 C  
HETATM    2  C   UNL     1      -7.458  11.611  66.863  1.00  0.00    -0.131 C  
ENDROOT
BRANCH   2   3
HETATM    3  C   UNL     1      -7.389  10.168  66.389  1.00  0.00    -0.108 C  
HETATM    4  N   UNL     1      -8.167   9.207  67.067  1.00  0.00    -0.115 N  
HETATM    5  O   UNL     1      -6.609   9.879  65.476  1.00  0.00    -0.080 OA 
BRANCH   4   6
HETATM    6  C   UNL     1      -7.994   7.854  66.570  1.00  0.00    -0.102 A  
HETATM    7  C   UNL     1      -8.866   7.287  65.635  1.00  0.00    -0.044 A  
HETATM    8  C   UNL     1      -8.724   5.951  65.236  1.00  0.00    -0.078 A  
HETATM    9  C   UNL     1      -6.926   7.074  67.037  1.00  0.00    -0.070 A  
HETATM   10  C   UNL     1      -7.703   5.165  65.761  1.00  0.00    -0.091 A  
HETATM   11  C   UNL     1      -6.799   5.730  66.659  1.00  0.00    -0.059 A  
ENDBRANCH   4   6
BRANCH   4  12
HETATM   12  C   UNL     1      -9.381   9.476  67.997  1.00  0.00    -0.132 C  
HETATM   13  C   UNL     1      -9.072  10.453  69.187  1.00  0.00    -0.197 C  
HETATM   14  N   UNL     1      -8.580   8.620  70.814  1.00  0.00    -0.154 NA 
HETATM   15  C   UNL     1      -8.106   9.876  70.223  1.00  0.00    -0.085 C  
HETATM   16  C   UNL     1      -9.891   8.183  68.708  1.00  0.00    -0.181 C  
HETATM   17  C   UNL     1      -8.889   7.661  69.745  1.00  0.00    -0.140 C  
BRANCH  12  18
HETATM   18  C   UNL     1     -10.569  10.118  67.195  1.00  0.00    -0.246 C  
BRANCH  18  19
HETATM   19  O   UNL     1     -11.548  10.714  68.040  1.00  0.00    -0.464 OA 
HETATM   20  C   UNL     1     -11.286  12.091  68.275  1.00  0.00    -0.261 C  
ENDBRANCH  18  19
ENDBRANCH  12  18
BRANCH  14  21
HETATM   21  C   UNL     1      -9.691   8.825  71.761  1.00  0.00    -0.310 C  
BRANCH  21  22
HETATM   22  C   UNL     1      -9.442   8.206  73.149  1.00  0.00    -0.316 C  
BRANCH  22  23
HETATM   23  C   UNL     1     -10.143   6.891  73.288  1.00  0.00    -0.232 A  
HETATM   24  C   UNL     1     -11.219   6.420  72.566  1.00  0.00    -0.307 A  
HETATM   25  C   UNL     1     -11.611   5.121  72.993  1.00  0.00    -0.301 A  
HETATM   26  C   UNL     1     -10.825   4.645  74.017  1.00  0.00    -0.263 A  
HETATM   27  S   UNL     1      -9.619   5.763  74.467  1.00  0.00    -0.222 SA 
ENDBRANCH  22  23
ENDBRANCH  21  22
ENDBRANCH  14  21
ENDBRANCH   4  12
ENDBRANCH   2   3
TORSDOF 8
ENDMDL
MODEL      182
REMARK 921   NORMALIZED FREE ENERGY PREDICTED BY IDOCK:   -2.78 KCAL/MOL
REMARK 922        TOTAL FREE ENERGY PREDICTED BY IDOCK:   -4.58 KCAL/MOL
REMARK 923 INTER-LIGAND FREE ENERGY PREDICTED BY IDOCK:   -4.30 KCAL/MOL
REMARK 924 INTRA-LIGAND FREE ENERGY PREDICTED BY IDOCK:   -0.28 KCAL/MOL
REMARK 927      BINDING AFFINITY PREDICTED BY RF-SCORE:    0.00 PKD
ROOT
HETATM    1  C   UNL     1      -8.359   7.431  72.162  1.00  0.00    -0.122 C  
HETATM    2  C   UNL     1      -9.320   7.219  71.004  1.00  0.00    -0.158 C  
ENDROOT
BRANCH   2   3
HETATM    3  C   UNL     1      -8.807   6.296  69.911  1.00  0.00    -0.141 C  
HETATM    4  N   UNL     1      -8.318   6.878  68.723  1.00  0.00    -0.121 N  
HETATM    5  O   UNL     1      -8.897   5.075  70.075  1.00  0.00    -0.099 OA 
BRANCH   4   6
HETATM    6  C   UNL     1      -7.897   5.911  67.726  1.00  0.00    -0.098 A  
HETATM    7  C   UNL     1      -6.562   5.518  67.586  1.00  0.00    -0.053 A  
HETATM    8  C   UNL     1      -6.173   4.646  66.560  1.00  0.00    -0.032 A  
HETATM    9  C   UNL     1      -8.847   5.348  66.861  1.00  0.00    -0.111 A  
HETATM   10  C   UNL     1      -7.114   4.150  65.663  1.00  0.00    -0.063 A  
HETATM   11  C   UNL     1      -8.454   4.498  65.818  1.00  0.00    -0.115 A  
ENDBRANCH   4   6
BRANCH   4  12
HETATM   12  C   UNL     1      -7.878   8.353  68.519  1.00  0.00    -0.120 C  
HETATM   13  C   UNL     1      -8.944   9.409  68.979  1.00  0.00    -0.141 C  
HETATM   14  N   UNL     1      -9.940   9.677  66.701  1.00  0.00    -0.220 NA 
HETATM   15  C   UNL     1     -10.210   9.421  68.120  1.00  0.00    -0.200 C  
HETATM   16  C   UNL     1      -7.638   8.704  67.017  1.00  0.00    -0.084 C  
HETATM   17  C   UNL     1      -8.943   8.716  66.211  1.00  0.00    -0.173 C  
BRANCH  12  18
HETATM   18  C   UNL     1      -6.570   8.664  69.329  1.00  0.00    -0.049 C  
BRANCH  18  19
HETATM   19  O   UNL     1      -6.056   9.967  69.073  1.00  0.00    -0.041 OA 
HETATM   20  C   UNL     1      -5.421  10.527  70.215  1.00  0.00    -0.063 C  
ENDBRANCH  18  19
ENDBRANCH  12  18
BRANCH  14  21
HETATM   21  C   UNL     1      -9.583  11.083  66.439  1.00  0.00    -0.198 C  
BRANCH  21  22
HETATM   22  C   UNL     1     -10.565  12.095  67.054  1.00  0.00    -0.256 C  
BRANCH  22  23
HETATM   23  C   UNL     1     -10.468  13.425  66.374  1.00  0.00    -0.286 A  
HETATM   24  C   UNL     1     -10.981  13.793  65.149  1.00  0.00    -0.337 A  
HETATM   25  C   UNL     1     -10.676  15.148  64.836  1.00  0.00    -0.421 A  
HETATM   26  C   UNL     1      -9.948  15.765  65.828  1.00  0.00    -0.358 A  
HETATM   27  S   UNL     1      -9.628  14.713  67.131  1.00  0.00    -0.240 SA 
ENDBRANCH  22  23
ENDBRANCH  21  22
ENDBRANCH  14  21
ENDBRANCH   4  12
ENDBRANCH   2   3
TORSDOF 8
ENDMDL
MODEL      183
REMARK 921   NORMALIZED FREE ENERGY PREDICTED BY IDOCK:   -2.77 KCAL/MOL
REMARK 922        TOTAL FREE ENERGY PREDICTED BY IDOCK:   -4.56 KCAL/MOL
REMARK 923 INTER-LIGAND FREE ENERGY PREDICTED BY IDOCK:   -4.06 KCAL/MOL
REMARK 924 INTRA-LIGAND FREE ENERGY PREDICTED BY IDOCK:   -0.50 KCAL/MOL
REMARK 927      BINDING AFFINITY PREDICTED BY RF-SCORE:    0.00 PKD
ROOT
HETATM    1  C   UNL     1     -13.024   8.926  72.179  1.00  0.00    -0.473 C  
HETATM    2  C   UNL     1     -11.985   8.380  71.215  1.00  0.00    -0.323 C  
ENDROOT
BRANCH   2   3
HETATM    3  C   UNL     1     -10.607   8.164  71.819  1.00  0.00    -0.250 C  
HETATM    4  N   UNL     1      -9.523   7.947  70.944  1.00  0.00    -0.156 N  
HETATM    5  O   UNL     1     -10.499   8.119  73.049  1.00  0.00    -0.325 OA 
BRANCH   4   6
HETATM    6  C   UNL     1      -8.262   7.704  71.620  1.00  0.00    -0.107 A  
HETATM    7  C   UNL     1      -7.911   6.442  72.111  1.00  0.00    -0.099 A  
HETATM    8  C   UNL     1      -6.725   6.255  72.834  1.00  0.00    -0.066 A  
HETATM    9  C   UNL     1      -7.357   8.760  71.803  1.00  0.00    -0.074 A  
HETATM   10  C   UNL     1      -5.869   7.327  73.069  1.00  0.00    -0.045 A  
HETATM   11  C   UNL     1      -6.183   8.580  72.548  1.00  0.00    -0.078 A  
ENDBRANCH   4   6
BRANCH   4  12
HETATM   12  C   UNL     1      -9.468   8.273  69.427  1.00  0.00    -0.159 C  
HETATM   13  C   UNL     1     -10.649   7.657  68.596  1.00  0.00    -0.161 C  
HETATM   14  N   UNL     1      -9.364   5.620  67.925  1.00  0.00    -0.106 NA 
HETATM   15  C   UNL     1     -10.609   6.130  68.509  1.00  0.00    -0.271 C  
HETATM   16  C   UNL     1      -8.193   7.698  68.735  1.00  0.00    -0.128 C  
HETATM   17  C   UNL     1      -8.217   6.166  68.663  1.00  0.00    -0.108 C  
BRANCH  12  18
HETATM   18  C   UNL     1      -9.521   9.824  69.186  1.00  0.00    -0.188 C  
BRANCH  18  19
HETATM   19  O   UNL     1     -10.554  10.209  68.284  1.00  0.00    -0.198 OA 
HETATM   20  C   UNL     1     -10.047  10.926  67.165  1.00  0.00    -0.198 C  
ENDBRANCH  18  19
ENDBRANCH  12  18
BRANCH  14  21
HETATM   21  C   UNL     1      -9.289   5.842  66.470  1.00  0.00    -0.153 C  
BRANCH  21  22
HETATM   22  C   UNL     1      -8.012   5.275  65.824  1.00  0.00    -0.105 C  
BRANCH  22  23
HETATM   23  C   UNL     1      -7.165   6.368  65.251  1.00  0.00    -0.070 A  
HETATM   24  C   UNL     1      -5.875   6.712  65.592  1.00  0.00    -0.030 A  
HETATM   25  C   UNL     1      -5.404   7.815  64.826  1.00  0.00    -0.029 A  
HETATM   26  C   UNL     1      -6.344   8.272  63.931  1.00  0.00    -0.071 A  
HETATM   27  S   UNL     1      -7.792   7.376  64.014  1.00  0.00    -0.092 SA 
ENDBRANCH  22  23
ENDBRANCH  21  22
ENDBRANCH  14  21
ENDBRANCH   4  12
ENDBRANCH   2   3
TORSDOF 8
ENDMDL
MODEL      184
REMARK 921   NORMALIZED FREE ENERGY PREDICTED BY IDOCK:   -2.76 KCAL/MOL
REMARK 922        TOTAL FREE ENERGY PREDICTED BY IDOCK:   -4.56 KCAL/MOL
REMARK 923 INTER-LIGAND FREE ENERGY PREDICTED BY IDOCK:   -4.62 KCAL/MOL
REMARK 924 INTRA-LIGAND FREE ENERGY PREDICTED BY IDOCK:    0.06 KCAL/MOL
REMARK 927      BINDING AFFINITY PREDICTED BY RF-SCORE:    0.00 PKD
ROOT
HETATM    1  C   UNL     1      -5.764   5.622  64.890  1.00  0.00    -0.017 C  
HETATM    2  C   UNL     1      -7.262   5.769  65.088  1.00  0.00    -0.070 C  
ENDROOT
BRANCH   2   3
HETATM    3  C   UNL     1      -7.685   7.016  65.847  1.00  0.00    -0.101 C  
HETATM    4  N   UNL     1      -8.891   6.974  66.577  1.00  0.00    -0.135 N  
HETATM    5  O   UNL     1      -6.996   8.036  65.745  1.00  0.00    -0.058 OA 
BRANCH   4   6
HETATM    6  C   UNL     1      -9.228   8.228  67.226  1.00  0.00    -0.138 A  
HETATM    7  C   UNL     1     -10.341   8.987  66.848  1.00  0.00    -0.324 A  
HETATM    8  C   UNL     1     -10.595  10.234  67.435  1.00  0.00    -0.324 A  
HETATM    9  C   UNL     1      -8.419   8.712  68.264  1.00  0.00    -0.131 A  
HETATM   10  C   UNL     1      -9.743  10.736  68.414  1.00  0.00    -0.179 A  
HETATM   11  C   UNL     1      -8.657   9.971  68.833  1.00  0.00    -0.138 A  
ENDBRANCH   4   6
BRANCH   4  12
HETATM   12  C   UNL     1      -9.667   5.706  67.025  1.00  0.00    -0.143 C  
HETATM   13  C   UNL     1     -10.666   5.952  68.211  1.00  0.00    -0.319 C  
HETATM   14  N   UNL     1      -9.042   5.248  69.976  1.00  0.00    -0.125 NA 
HETATM   15  C   UNL     1      -9.979   6.287  69.536  1.00  0.00    -0.164 C  
HETATM   16  C   UNL     1      -8.725   4.585  67.566  1.00  0.00    -0.109 C  
HETATM   17  C   UNL     1      -8.078   4.971  68.902  1.00  0.00    -0.084 C  
BRANCH  12  18
HETATM   18  C   UNL     1     -10.521   5.126  65.841  1.00  0.00    -0.125 C  
BRANCH  18  19
HETATM   19  O   UNL     1     -10.024   3.880  65.361  1.00  0.00    -0.183 OA 
HETATM   20  C   UNL     1     -10.488   3.589  64.049  1.00  0.00    -0.248 C  
ENDBRANCH  18  19
ENDBRANCH  12  18
BRANCH  14  21
HETATM   21  C   UNL     1      -9.728   4.044  70.477  1.00  0.00    -0.188 C  
BRANCH  21  22
HETATM   22  C   UNL     1      -9.430   3.733  71.955  1.00  0.00    -0.200 C  
BRANCH  22  23
HETATM   23  C   UNL     1      -9.582   4.956  72.805  1.00  0.00    -0.139 A  
HETATM   24  C   UNL     1     -10.739   5.641  73.111  1.00  0.00    -0.301 A  
HETATM   25  C   UNL     1     -10.482   6.763  73.947  1.00  0.00    -0.356 A  
HETATM   26  C   UNL     1      -9.146   6.895  74.252  1.00  0.00    -0.207 A  
HETATM   27  S   UNL     1      -8.203   5.672  73.529  1.00  0.00    -0.112 SA 
ENDBRANCH  22  23
ENDBRANCH  21  22
ENDBRANCH  14  21
ENDBRANCH   4  12
ENDBRANCH   2   3
TORSDOF 8
ENDMDL
MODEL      185
REMARK 921   NORMALIZED FREE ENERGY PREDICTED BY IDOCK:   -2.71 KCAL/MOL
REMARK 922        TOTAL FREE ENERGY PREDICTED BY IDOCK:   -4.48 KCAL/MOL
REMARK 923 INTER-LIGAND FREE ENERGY PREDICTED BY IDOCK:   -4.81 KCAL/MOL
REMARK 924 INTRA-LIGAND FREE ENERGY PREDICTED BY IDOCK:    0.33 KCAL/MOL
REMARK 927      BINDING AFFINITY PREDICTED BY RF-SCORE:    0.00 PKD
ROOT
HETATM    1  C   UNL     1     -11.773  14.182  68.179  1.00  0.00    -0.390 C  
HETATM    2  C   UNL     1     -10.960  13.769  66.965  1.00  0.00    -0.297 C  
ENDROOT
BRANCH   2   3
HETATM    3  C   UNL     1      -9.530  13.351  67.268  1.00  0.00    -0.234 C  
HETATM    4  N   UNL     1      -9.233  11.973  67.309  1.00  0.00    -0.177 N  
HETATM    5  O   UNL     1      -8.699  14.226  67.532  1.00  0.00    -0.177 OA 
BRANCH   4   6
HETATM    6  C   UNL     1      -7.854  11.680  67.653  1.00  0.00    -0.135 A  
HETATM    7  C   UNL     1      -7.440  11.492  68.976  1.00  0.00    -0.073 A  
HETATM    8  C   UNL     1      -6.088  11.293  69.286  1.00  0.00    -0.062 A  
HETATM    9  C   UNL     1      -6.890  11.584  66.639  1.00  0.00    -0.075 A  
HETATM   10  C   UNL     1      -5.131  11.272  68.276  1.00  0.00    -0.039 A  
HETATM   11  C   UNL     1      -5.534  11.412  66.949  1.00  0.00    -0.115 A  
ENDBRANCH   4   6
BRANCH   4  12
HETATM   12  C   UNL     1     -10.082  10.817  66.714  1.00  0.00    -0.222 C  
HETATM   13  C   UNL     1     -11.364  10.468  67.550  1.00  0.00    -0.181 C  
HETATM   14  N   UNL     1     -10.259   8.629  68.832  1.00  0.00    -0.204 NA 
HETATM   15  C   UNL     1     -11.060   9.855  68.918  1.00  0.00    -0.140 C  
HETATM   16  C   UNL     1      -9.302   9.467  66.657  1.00  0.00    -0.211 C  
HETATM   17  C   UNL     1      -9.040   8.893  68.056  1.00  0.00    -0.139 C  
BRANCH  12  18
HETATM   18  C   UNL     1     -10.581  11.177  65.269  1.00  0.00    -0.238 C  
BRANCH  18  19
HETATM   19  O   UNL     1      -9.969  10.382  64.258  1.00  0.00    -0.335 OA 
HETATM   20  C   UNL     1      -9.440  11.172  63.202  1.00  0.00    -0.357 C  
ENDBRANCH  18  19
ENDBRANCH  12  18
BRANCH  14  21
HETATM   21  C   UNL     1     -11.035   7.479  68.336  1.00  0.00     0.120 C  
BRANCH  21  22
HETATM   22  C   UNL     1     -10.184   6.432  67.594  1.00  0.00    -0.206 C  
BRANCH  22  23
HETATM   23  C   UNL     1      -9.835   5.286  68.492  1.00  0.00    -0.152 A  
HETATM   24  C   UNL     1      -9.604   3.973  68.143  1.00  0.00    -0.189 A  
HETATM   25  C   UNL     1      -9.303   3.172  69.280  1.00  0.00    -0.223 A  
HETATM   26  C   UNL     1      -9.310   3.897  70.450  1.00  0.00    -0.161 A  
HETATM   27  S   UNL     1      -9.684   5.538  70.180  1.00  0.00    -0.196 SA 
ENDBRANCH  22  23
ENDBRANCH  21  22
ENDBRANCH  14  21
ENDBRANCH   4  12
ENDBRANCH   2   3
TORSDOF 8
ENDMDL
MODEL      186
REMARK 921   NORMALIZED FREE ENERGY PREDICTED BY IDOCK:   -2.70 KCAL/MOL
REMARK 922        TOTAL FREE ENERGY PREDICTED BY IDOCK:   -4.47 KCAL/MOL
REMARK 923 INTER-LIGAND FREE ENERGY PREDICTED BY IDOCK:   -4.52 KCAL/MOL
REMARK 924 INTRA-LIGAND FREE ENERGY PREDICTED BY IDOCK:    0.05 KCAL/MOL
REMARK 927      BINDING AFFINITY PREDICTED BY RF-SCORE:    0.00 PKD
ROOT
HETATM    1  C   UNL     1      -8.087  12.122  68.429  1.00  0.00    -0.149 C  
HETATM    2  C   UNL     1      -7.449  10.751  68.568  1.00  0.00    -0.100 C  
ENDROOT
BRANCH   2   3
HETATM    3  C   UNL     1      -8.209   9.782  69.459  1.00  0.00    -0.144 C  
HETATM    4  N   UNL     1      -9.268   9.045  68.892  1.00  0.00    -0.139 N  
HETATM    5  O   UNL     1      -7.916   9.725  70.658  1.00  0.00    -0.272 OA 
BRANCH   4   6
HETATM    6  C   UNL     1      -9.958   8.186  69.836  1.00  0.00    -0.190 A  
HETATM    7  C   UNL     1      -9.377   7.020  70.346  1.00  0.00    -0.159 A  
HETATM    8  C   UNL     1     -10.099   6.167  71.192  1.00  0.00    -0.231 A  
HETATM    9  C   UNL     1     -11.255   8.517  70.257  1.00  0.00    -0.185 A  
HETATM   10  C   UNL     1     -11.410   6.470  71.545  1.00  0.00    -0.339 A  
HETATM   11  C   UNL     1     -11.987   7.651  71.081  1.00  0.00    -0.319 A  
ENDBRANCH   4   6
BRANCH   4  12
HETATM   12  C   UNL     1      -9.531   8.801  67.381  1.00  0.00    -0.146 C  
HETATM   13  C   UNL     1     -10.198   7.416  67.061  1.00  0.00    -0.357 C  
HETATM   14  N   UNL     1      -8.029   6.267  66.589  1.00  0.00    -0.107 NA 
HETATM   15  C   UNL     1      -9.289   6.217  67.337  1.00  0.00    -0.115 C  
HETATM   16  C   UNL     1      -8.216   8.779  66.539  1.00  0.00    -0.111 C  
HETATM   17  C   UNL     1      -7.356   7.547  66.847  1.00  0.00    -0.093 C  
BRANCH  12  18
HETATM   18  C   UNL     1     -10.490   9.899  66.796  1.00  0.00    -0.191 C  
BRANCH  18  19
HETATM   19  O   UNL     1      -9.930  10.587  65.682  1.00  0.00    -0.239 OA 
HETATM   20  C   UNL     1     -10.546  11.850  65.468  1.00  0.00    -0.269 C  
ENDBRANCH  18  19
ENDBRANCH  12  18
BRANCH  14  21
HETATM   21  C   UNL     1      -8.210   5.975  65.156  1.00  0.00    -0.142 C  
BRANCH  21  22
HETATM   22  C   UNL     1      -6.964   6.273  64.302  1.00  0.00    -0.047 C  
BRANCH  22  23
HETATM   23  C   UNL     1      -7.113   7.566  63.562  1.00  0.00    -0.070 A  
HETATM   24  C   UNL     1      -8.254   8.100  63.004  1.00  0.00    -0.103 A  
HETATM   25  C   UNL     1      -7.998   9.350  62.375  1.00  0.00    -0.127 A  
HETATM   26  C   UNL     1      -6.678   9.727  62.476  1.00  0.00    -0.105 A  
HETATM   27  S   UNL     1      -5.749   8.576  63.322  1.00  0.00    -0.073 SA 
ENDBRANCH  22  23
ENDBRANCH  21  22
ENDBRANCH  14  21
ENDBRANCH   4  12
ENDBRANCH   2   3
TORSDOF 8
ENDMDL
MODEL      187
REMARK 921   NORMALIZED FREE ENERGY PREDICTED BY IDOCK:   -2.68 KCAL/MOL
REMARK 922        TOTAL FREE ENERGY PREDICTED BY IDOCK:   -4.44 KCAL/MOL
REMARK 923 INTER-LIGAND FREE ENERGY PREDICTED BY IDOCK:   -4.41 KCAL/MOL
REMARK 924 INTRA-LIGAND FREE ENERGY PREDICTED BY IDOCK:   -0.03 KCAL/MOL
REMARK 927      BINDING AFFINITY PREDICTED BY RF-SCORE:    0.00 PKD
ROOT
HETATM    1  C   UNL     1      -8.343  12.242  68.249  1.00  0.00    -0.174 C  
HETATM    2  C   UNL     1      -7.736  10.869  68.025  1.00  0.00    -0.101 C  
ENDROOT
BRANCH   2   3
HETATM    3  C   UNL     1      -8.286   9.775  68.926  1.00  0.00    -0.120 C  
HETATM    4  N   UNL     1      -9.085   8.770  68.342  1.00  0.00    -0.141 N  
HETATM    5  O   UNL     1      -8.070   9.842  70.140  1.00  0.00    -0.170 OA 
BRANCH   4   6
HETATM    6  C   UNL     1      -9.599   7.802  69.293  1.00  0.00    -0.159 A  
HETATM    7  C   UNL     1      -8.762   6.929  69.995  1.00  0.00    -0.142 A  
HETATM    8  C   UNL     1      -9.293   5.949  70.844  1.00  0.00    -0.180 A  
HETATM    9  C   UNL     1     -10.981   7.722  69.524  1.00  0.00    -0.092 A  
HETATM   10  C   UNL     1     -10.670   5.833  71.009  1.00  0.00    -0.326 A  
HETATM   11  C   UNL     1     -11.514   6.725  70.352  1.00  0.00    -0.419 A  
ENDBRANCH   4   6
BRANCH   4  12
HETATM   12  C   UNL     1      -9.176   8.408  66.835  1.00  0.00    -0.157 C  
HETATM   13  C   UNL     1      -9.695   6.954  66.556  1.00  0.00    -0.185 C  
HETATM   14  N   UNL     1      -7.406   5.966  66.374  1.00  0.00    -0.077 NA 
HETATM   15  C   UNL     1      -8.727   5.857  67.002  1.00  0.00    -0.109 C  
HETATM   16  C   UNL     1      -7.786   8.444  66.125  1.00  0.00    -0.097 C  
HETATM   17  C   UNL     1      -6.866   7.313  66.601  1.00  0.00    -0.065 C  
BRANCH  12  18
HETATM   18  C   UNL     1     -10.155   9.380  66.085  1.00  0.00    -0.254 C  
BRANCH  18  19
HETATM   19  O   UNL     1      -9.570   9.972  64.930  1.00  0.00    -0.273 OA 
HETATM   20  C   UNL     1     -10.406  10.970  64.357  1.00  0.00    -0.358 C  
ENDBRANCH  18  19
ENDBRANCH  12  18
BRANCH  14  21
HETATM   21  C   UNL     1      -7.420   5.568  64.956  1.00  0.00    -0.074 C  
BRANCH  21  22
HETATM   22  C   UNL     1      -7.395   4.043  64.742  1.00  0.00    -0.071 C  
BRANCH  22  23
HETATM   23  C   UNL     1      -8.655   3.569  64.088  1.00  0.00    -0.090 A  
HETATM   24  C   UNL     1      -9.402   2.451  64.391  1.00  0.00    -0.135 A  
HETATM   25  C   UNL     1     -10.537   2.330  63.542  1.00  0.00    -0.161 A  
HETATM   26  C   UNL     1     -10.620   3.355  62.627  1.00  0.00    -0.191 A  
HETATM   27  S   UNL     1      -9.330   4.458  62.787  1.00  0.00    -0.088 SA 
ENDBRANCH  22  23
ENDBRANCH  21  22
ENDBRANCH  14  21
ENDBRANCH   4  12
ENDBRANCH   2   3
TORSDOF 8
ENDMDL
MODEL      188
REMARK 921   NORMALIZED FREE ENERGY PREDICTED BY IDOCK:   -2.66 KCAL/MOL
REMARK 922        TOTAL FREE ENERGY PREDICTED BY IDOCK:   -4.41 KCAL/MOL
REMARK 923 INTER-LIGAND FREE ENERGY PREDICTED BY IDOCK:   -4.47 KCAL/MOL
REMARK 924 INTRA-LIGAND FREE ENERGY PREDICTED BY IDOCK:    0.06 KCAL/MOL
REMARK 927      BINDING AFFINITY PREDICTED BY RF-SCORE:    0.00 PKD
ROOT
HETATM    1  C   UNL     1      -9.449   7.719  73.606  1.00  0.00    -0.312 C  
HETATM    2  C   UNL     1      -8.540   6.702  72.938  1.00  0.00    -0.124 C  
ENDROOT
BRANCH   2   3
HETATM    3  C   UNL     1      -9.085   6.113  71.648  1.00  0.00    -0.145 C  
HETATM    4  N   UNL     1      -8.689   6.700  70.428  1.00  0.00    -0.149 N  
HETATM    5  O   UNL     1      -9.901   5.189  71.715  1.00  0.00    -0.162 OA 
BRANCH   4   6
HETATM    6  C   UNL     1      -9.300   6.095  69.259  1.00  0.00    -0.134 A  
HETATM    7  C   UNL     1      -8.768   4.958  68.643  1.00  0.00    -0.103 A  
HETATM    8  C   UNL     1      -9.332   4.445  67.467  1.00  0.00    -0.183 A  
HETATM    9  C   UNL     1     -10.461   6.662  68.712  1.00  0.00    -0.241 A  
HETATM   10  C   UNL     1     -10.441   5.059  66.894  1.00  0.00    -0.243 A  
HETATM   11  C   UNL     1     -11.009   6.166  67.521  1.00  0.00    -0.404 A  
ENDBRANCH   4   6
BRANCH   4  12
HETATM   12  C   UNL     1      -7.471   7.634  70.194  1.00  0.00    -0.084 C  
HETATM   13  C   UNL     1      -7.715   9.125  70.621  1.00  0.00    -0.152 C  
HETATM   14  N   UNL     1      -8.380   9.871  68.330  1.00  0.00    -0.106 NA 
HETATM   15  C   UNL     1      -8.740   9.854  69.752  1.00  0.00    -0.212 C  
HETATM   16  C   UNL     1      -7.079   7.744  68.687  1.00  0.00    -0.076 C  
HETATM   17  C   UNL     1      -8.136   8.498  67.870  1.00  0.00    -0.115 C  
BRANCH  12  18
HETATM   18  C   UNL     1      -6.222   7.140  71.009  1.00  0.00    -0.036 C  
BRANCH  18  19
HETATM   19  O   UNL     1      -5.402   6.238  70.272  1.00  0.00    -0.013 OA 
HETATM   20  C   UNL     1      -5.299   4.969  70.904  1.00  0.00    -0.004 C  
ENDBRANCH  18  19
ENDBRANCH  12  18
BRANCH  14  21
HETATM   21  C   UNL     1      -7.270  10.796  68.039  1.00  0.00    -0.086 C  
BRANCH  21  22
HETATM   22  C   UNL     1      -7.703  12.056  67.267  1.00  0.00    -0.168 C  
BRANCH  22  23
HETATM   23  C   UNL     1      -8.830  11.754  66.329  1.00  0.00    -0.142 A  
HETATM   24  C   UNL     1      -8.811  10.955  65.206  1.00  0.00    -0.179 A  
HETATM   25  C   UNL     1     -10.081  10.917  64.566  1.00  0.00    -0.404 A  
HETATM   26  C   UNL     1     -11.022  11.680  65.219  1.00  0.00    -0.268 A  
HETATM   27  S   UNL     1     -10.375  12.446  66.598  1.00  0.00    -0.229 SA 
ENDBRANCH  22  23
ENDBRANCH  21  22
ENDBRANCH  14  21
ENDBRANCH   4  12
ENDBRANCH   2   3
TORSDOF 8
ENDMDL
MODEL      189
REMARK 921   NORMALIZED FREE ENERGY PREDICTED BY IDOCK:   -2.66 KCAL/MOL
REMARK 922        TOTAL FREE ENERGY PREDICTED BY IDOCK:   -4.41 KCAL/MOL
REMARK 923 INTER-LIGAND FREE ENERGY PREDICTED BY IDOCK:   -4.84 KCAL/MOL
REMARK 924 INTRA-LIGAND FREE ENERGY PREDICTED BY IDOCK:    0.43 KCAL/MOL
REMARK 927      BINDING AFFINITY PREDICTED BY RF-SCORE:    0.00 PKD
ROOT
HETATM    1  C   UNL     1     -13.021  13.666  65.503  1.00  0.00    -0.325 C  
HETATM    2  C   UNL     1     -11.848  12.704  65.442  1.00  0.00    -0.473 C  
ENDROOT
BRANCH   2   3
HETATM    3  C   UNL     1     -10.541  13.259  65.984  1.00  0.00    -0.286 C  
HETATM    4  N   UNL     1     -10.188  12.953  67.315  1.00  0.00    -0.233 N  
HETATM    5  O   UNL     1      -9.871  14.008  65.266  1.00  0.00    -0.271 OA 
BRANCH   4   6
HETATM    6  C   UNL     1      -8.948  13.570  67.750  1.00  0.00    -0.201 A  
HETATM    7  C   UNL     1      -7.707  13.208  67.214  1.00  0.00    -0.107 A  
HETATM    8  C   UNL     1      -6.520  13.760  67.712  1.00  0.00    -0.178 A  
HETATM    9  C   UNL     1      -8.976  14.558  68.745  1.00  0.00    -0.157 A  
HETATM   10  C   UNL     1      -6.556  14.687  68.750  1.00  0.00    -0.090 A  
HETATM   11  C   UNL     1      -7.787  15.090  69.263  1.00  0.00    -0.190 A  
ENDBRANCH   4   6
BRANCH   4  12
HETATM   12  C   UNL     1     -10.765  11.812  68.194  1.00  0.00    -0.214 C  
HETATM   13  C   UNL     1      -9.767  11.270  69.278  1.00  0.00     0.110 C  
HETATM   14  N   UNL     1      -8.945   9.387  67.855  1.00  0.00    -0.124 NA 
HETATM   15  C   UNL     1      -8.564  10.529  68.692  1.00  0.00    -0.139 C  
HETATM   16  C   UNL     1     -11.130  10.541  67.365  1.00  0.00    -0.322 C  
HETATM   17  C   UNL     1      -9.885   9.832  66.817  1.00  0.00    -0.208 C  
BRANCH  12  18
HETATM   18  C   UNL     1     -12.041  12.296  68.971  1.00  0.00    -0.145 C  
BRANCH  18  19
HETATM   19  O   UNL     1     -11.757  12.690  70.310  1.00  0.00    -0.253 OA 
HETATM   20  C   UNL     1     -12.245  13.993  70.600  1.00  0.00    -0.372 C  
ENDBRANCH  18  19
ENDBRANCH  12  18
BRANCH  14  21
HETATM   21  C   UNL     1      -9.438   8.245  68.646  1.00  0.00    -0.147 C  
BRANCH  21  22
HETATM   22  C   UNL     1      -9.125   6.876  68.015  1.00  0.00    -0.120 C  
BRANCH  22  23
HETATM   23  C   UNL     1      -7.978   6.971  67.059  1.00  0.00    -0.116 A  
HETATM   24  C   UNL     1      -6.781   7.634  67.229  1.00  0.00    -0.068 A  
HETATM   25  C   UNL     1      -5.938   7.500  66.090  1.00  0.00    -0.037 A  
HETATM   26  C   UNL     1      -6.515   6.742  65.096  1.00  0.00    -0.043 A  
HETATM   27  S   UNL     1      -8.071   6.197  65.532  1.00  0.00    -0.136 SA 
ENDBRANCH  22  23
ENDBRANCH  21  22
ENDBRANCH  14  21
ENDBRANCH   4  12
ENDBRANCH   2   3
TORSDOF 8
ENDMDL
MODEL      190
REMARK 921   NORMALIZED FREE ENERGY PREDICTED BY IDOCK:   -2.64 KCAL/MOL
REMARK 922        TOTAL FREE ENERGY PREDICTED BY IDOCK:   -4.38 KCAL/MOL
REMARK 923 INTER-LIGAND FREE ENERGY PREDICTED BY IDOCK:   -4.45 KCAL/MOL
REMARK 924 INTRA-LIGAND FREE ENERGY PREDICTED BY IDOCK:    0.06 KCAL/MOL
REMARK 927      BINDING AFFINITY PREDICTED BY RF-SCORE:    0.00 PKD
ROOT
HETATM    1  C   UNL     1      -5.917   3.765  69.753  1.00  0.00    -0.023 C  
HETATM    2  C   UNL     1      -6.431   4.980  69.001  1.00  0.00    -0.036 C  
ENDROOT
BRANCH   2   3
HETATM    3  C   UNL     1      -7.144   4.667  67.696  1.00  0.00    -0.065 C  
HETATM    4  N   UNL     1      -8.245   5.468  67.329  1.00  0.00    -0.101 N  
HETATM    5  O   UNL     1      -6.778   3.686  67.040  1.00  0.00    -0.044 OA 
BRANCH   4   6
HETATM    6  C   UNL     1      -8.884   5.057  66.093  1.00  0.00    -0.125 A  
HETATM    7  C   UNL     1     -10.183   4.540  66.061  1.00  0.00    -0.288 A  
HETATM    8  C   UNL     1     -10.744   4.073  64.865  1.00  0.00    -0.108 A  
HETATM    9  C   UNL     1      -8.188   5.170  64.880  1.00  0.00    -0.136 A  
HETATM   10  C   UNL     1     -10.015   4.124  63.680  1.00  0.00    -0.087 A  
HETATM   11  C   UNL     1      -8.737   4.679  63.687  1.00  0.00    -0.136 A  
ENDBRANCH   4   6
BRANCH   4  12
HETATM   12  C   UNL     1      -8.604   6.872  67.887  1.00  0.00    -0.122 C  
HETATM   13  C   UNL     1      -9.591   7.689  66.979  1.00  0.00    -0.228 C  
HETATM   14  N   UNL     1      -7.774   8.928  65.791  1.00  0.00    -0.093 NA 
HETATM   15  C   UNL     1      -8.986   8.116  65.641  1.00  0.00    -0.080 C  
HETATM   16  C   UNL     1      -7.359   7.806  68.008  1.00  0.00    -0.102 C  
HETATM   17  C   UNL     1      -6.808   8.213  66.636  1.00  0.00    -0.068 C  
BRANCH  12  18
HETATM   18  C   UNL     1      -9.292   6.755  69.294  1.00  0.00    -0.144 C  
BRANCH  18  19
HETATM   19  O   UNL     1     -10.313   5.762  69.330  1.00  0.00    -0.206 OA 
HETATM   20  C   UNL     1     -11.520   6.257  69.895  1.00  0.00    -0.389 C  
ENDBRANCH  18  19
ENDBRANCH  12  18
BRANCH  14  21
HETATM   21  C   UNL     1      -8.064  10.296  66.254  1.00  0.00    -0.129 C  
BRANCH  21  22
HETATM   22  C   UNL     1      -9.223  10.972  65.499  1.00  0.00    -0.235 C  
BRANCH  22  23
HETATM   23  C   UNL     1     -10.051  11.811  66.421  1.00  0.00    -0.210 A  
HETATM   24  C   UNL     1     -11.409  12.045  66.369  1.00  0.00    -0.411 A  
HETATM   25  C   UNL     1     -11.835  12.905  67.420  1.00  0.00    -0.418 A  
HETATM   26  C   UNL     1     -10.796  13.294  68.235  1.00  0.00    -0.256 A  
HETATM   27  S   UNL     1      -9.309  12.628  67.733  1.00  0.00    -0.206 SA 
ENDBRANCH  22  23
ENDBRANCH  21  22
ENDBRANCH  14  21
ENDBRANCH   4  12
ENDBRANCH   2   3
TORSDOF 8
ENDMDL
MODEL      191
REMARK 921   NORMALIZED FREE ENERGY PREDICTED BY IDOCK:   -2.59 KCAL/MOL
REMARK 922        TOTAL FREE ENERGY PREDICTED BY IDOCK:   -4.31 KCAL/MOL
REMARK 923 INTER-LIGAND FREE ENERGY PREDICTED BY IDOCK:   -4.98 KCAL/MOL
REMARK 924 INTRA-LIGAND FREE ENERGY PREDICTED BY IDOCK:    0.67 KCAL/MOL
REMARK 927      BINDING AFFINITY PREDICTED BY RF-SCORE:    0.00 PKD
ROOT
HETATM    1  C   UNL     1      -8.895  19.562  65.963  1.00  0.00    -0.227 C  
HETATM    2  C   UNL     1      -8.697  19.584  67.468  1.00  0.00    -0.355 C  
ENDROOT
BRANCH   2   3
HETATM    3  C   UNL     1      -9.714  18.775  68.256  1.00  0.00    -0.362 C  
HETATM    4  N   UNL     1      -9.485  17.393  68.418  1.00  0.00    -0.283 N  
HETATM    5  O   UNL     1     -10.733  19.340  68.667  1.00  0.00    -0.017 OA 
BRANCH   4   6
HETATM    6  C   UNL     1     -10.537  16.704  69.143  1.00  0.00    -0.340 A  
HETATM    7  C   UNL     1     -11.496  15.918  68.496  1.00  0.00    -0.377 A  
HETATM    8  C   UNL     1     -12.549  15.333  69.212  1.00  0.00     0.115 A  
HETATM    9  C   UNL     1     -10.613  16.825  70.539  1.00  0.00     0.495 A  
HETATM   10  C   UNL     1     -12.654  15.520  70.587  1.00  0.00    -0.493 A  
HETATM   11  C   UNL     1     -11.680  16.263  71.252  1.00  0.00    -0.396 A  
ENDBRANCH   4   6
BRANCH   4  12
HETATM   12  C   UNL     1      -8.140  16.641  68.225  1.00  0.00    -0.198 C  
HETATM   13  C   UNL     1      -7.893  16.136  66.759  1.00  0.00    -0.296 C  
HETATM   14  N   UNL     1      -8.797  13.846  67.192  1.00  0.00    -0.219 NA 
HETATM   15  C   UNL     1      -8.849  15.025  66.321  1.00  0.00    -0.124 C  
HETATM   16  C   UNL     1      -8.053  15.338  69.081  1.00  0.00    -0.228 C  
HETATM   17  C   UNL     1      -9.020  14.257  68.585  1.00  0.00    -0.154 C  
BRANCH  12  18
HETATM   18  C   UNL     1      -6.925  17.568  68.584  1.00  0.00    -0.232 C  
BRANCH  18  19
HETATM   19  O   UNL     1      -6.125  17.047  69.641  1.00  0.00    -0.214 OA 
HETATM   20  C   UNL     1      -5.166  17.990  70.102  1.00  0.00    -0.234 C  
ENDBRANCH  18  19
ENDBRANCH  12  18
BRANCH  14  21
HETATM   21  C   UNL     1      -7.568  13.055  67.001  1.00  0.00     0.105 C  
BRANCH  21  22
HETATM   22  C   UNL     1      -7.407  11.909  68.016  1.00  0.00    -0.100 C  
BRANCH  22  23
HETATM   23  C   UNL     1      -8.364  10.794  67.729  1.00  0.00    -0.113 A  
HETATM   24  C   UNL     1      -9.212  10.154  68.607  1.00  0.00    -0.157 A  
HETATM   25  C   UNL     1      -9.968   9.136  67.961  1.00  0.00    -0.213 A  
HETATM   26  C   UNL     1      -9.676   9.037  66.620  1.00  0.00    -0.230 A  
HETATM   27  S   UNL     1      -8.490  10.164  66.140  1.00  0.00    -0.133 SA 
ENDBRANCH  22  23
ENDBRANCH  21  22
ENDBRANCH  14  21
ENDBRANCH   4  12
ENDBRANCH   2   3
TORSDOF 8
ENDMDL
MODEL      192
REMARK 921   NORMALIZED FREE ENERGY PREDICTED BY IDOCK:   -2.54 KCAL/MOL
REMARK 922        TOTAL FREE ENERGY PREDICTED BY IDOCK:   -4.24 KCAL/MOL
REMARK 923 INTER-LIGAND FREE ENERGY PREDICTED BY IDOCK:   -4.24 KCAL/MOL
REMARK 924 INTRA-LIGAND FREE ENERGY PREDICTED BY IDOCK:    0.00 KCAL/MOL
REMARK 927      BINDING AFFINITY PREDICTED BY RF-SCORE:    0.00 PKD
ROOT
HETATM    1  C   UNL     1     -11.338  12.230  64.041  1.00  0.00    -0.469 C  
HETATM    2  C   UNL     1     -11.128  10.926  64.789  1.00  0.00     0.100 C  
ENDROOT
BRANCH   2   3
HETATM    3  C   UNL     1      -9.745  10.316  64.630  1.00  0.00    -0.333 C  
HETATM    4  N   UNL     1      -8.983  10.080  65.792  1.00  0.00    -0.150 N  
HETATM    5  O   UNL     1      -9.315  10.110  63.490  1.00  0.00    -0.268 OA 
BRANCH   4   6
HETATM    6  C   UNL     1      -7.661   9.542  65.529  1.00  0.00    -0.105 A  
HETATM    7  C   UNL     1      -6.495  10.268  65.789  1.00  0.00    -0.119 A  
HETATM    8  C   UNL     1      -5.236   9.756  65.447  1.00  0.00    -0.048 A  
HETATM    9  C   UNL     1      -7.531   8.253  64.990  1.00  0.00    -0.090 A  
HETATM   10  C   UNL     1      -5.126   8.506  64.846  1.00  0.00    -0.035 A  
HETATM   11  C   UNL     1      -6.275   7.751  64.622  1.00  0.00    -0.045 A  
ENDBRANCH   4   6
BRANCH   4  12
HETATM   12  C   UNL     1      -9.506  10.008  67.253  1.00  0.00    -0.154 C  
HETATM   13  C   UNL     1      -8.569   9.214  68.230  1.00  0.00    -0.129 C  
HETATM   14  N   UNL     1      -9.806   7.057  67.969  1.00  0.00    -0.136 NA 
HETATM   15  C   UNL     1      -8.496   7.715  67.932  1.00  0.00    -0.123 C  
HETATM   16  C   UNL     1     -10.872   9.259  67.364  1.00  0.00    -0.165 C  
HETATM   17  C   UNL     1     -10.732   7.760  67.071  1.00  0.00    -0.246 C  
BRANCH  12  18
HETATM   18  C   UNL     1      -9.664  11.446  67.862  1.00  0.00    -0.180 C  
BRANCH  18  19
HETATM   19  O   UNL     1     -10.976  11.696  68.357  1.00  0.00    -0.193 OA 
HETATM   20  C   UNL     1     -11.520  12.905  67.845  1.00  0.00    -0.318 C  
ENDBRANCH  18  19
ENDBRANCH  12  18
BRANCH  14  21
HETATM   21  C   UNL     1     -10.322   6.900  69.341  1.00  0.00    -0.204 C  
BRANCH  21  22
HETATM   22  C   UNL     1     -10.379   5.436  69.815  1.00  0.00    -0.375 C  
BRANCH  22  23
HETATM   23  C   UNL     1      -9.103   5.036  70.487  1.00  0.00    -0.138 A  
HETATM   24  C   UNL     1      -8.488   3.802  70.480  1.00  0.00    -0.100 A  
HETATM   25  C   UNL     1      -7.286   3.808  71.242  1.00  0.00    -0.040 A  
HETATM   26  C   UNL     1      -7.024   5.039  71.799  1.00  0.00    -0.057 A  
HETATM   27  S   UNL     1      -8.226   6.184  71.410  1.00  0.00    -0.123 SA 
ENDBRANCH  22  23
ENDBRANCH  21  22
ENDBRANCH  14  21
ENDBRANCH   4  12
ENDBRANCH   2   3
TORSDOF 8
ENDMDL
MODEL      193
REMARK 921   NORMALIZED FREE ENERGY PREDICTED BY IDOCK:   -2.53 KCAL/MOL
REMARK 922        TOTAL FREE ENERGY PREDICTED BY IDOCK:   -4.22 KCAL/MOL
REMARK 923 INTER-LIGAND FREE ENERGY PREDICTED BY IDOCK:   -4.51 KCAL/MOL
REMARK 924 INTRA-LIGAND FREE ENERGY PREDICTED BY IDOCK:    0.30 KCAL/MOL
REMARK 927      BINDING AFFINITY PREDICTED BY RF-SCORE:    0.00 PKD
ROOT
HETATM    1  C   UNL     1      -5.406   2.123  67.762  1.00  0.00    -0.017 C  
HETATM    2  C   UNL     1      -5.858   3.569  67.862  1.00  0.00    -0.026 C  
ENDROOT
BRANCH   2   3
HETATM    3  C   UNL     1      -6.285   4.195  66.544  1.00  0.00    -0.032 C  
HETATM    4  N   UNL     1      -7.665   4.312  66.279  1.00  0.00    -0.093 N  
HETATM    5  O   UNL     1      -5.414   4.517  65.729  1.00  0.00    -0.012 OA 
BRANCH   4   6
HETATM    6  C   UNL     1      -7.967   4.878  64.977  1.00  0.00    -0.099 A  
HETATM    7  C   UNL     1      -8.493   4.108  63.934  1.00  0.00    -0.100 A  
HETATM    8  C   UNL     1      -8.696   4.662  62.662  1.00  0.00    -0.125 A  
HETATM    9  C   UNL     1      -7.723   6.238  64.737  1.00  0.00    -0.101 A  
HETATM   10  C   UNL     1      -8.382   5.995  62.418  1.00  0.00    -0.062 A  
HETATM   11  C   UNL     1      -7.900   6.786  63.459  1.00  0.00    -0.110 A  
ENDBRANCH   4   6
BRANCH   4  12
HETATM   12  C   UNL     1      -8.823   4.234  67.310  1.00  0.00    -0.113 C  
HETATM   13  C   UNL     1     -10.117   5.012  66.880  1.00  0.00    -0.261 C  
HETATM   14  N   UNL     1      -9.512   7.091  68.127  1.00  0.00    -0.125 NA 
HETATM   15  C   UNL     1      -9.939   6.531  66.841  1.00  0.00    -0.173 C  
HETATM   16  C   UNL     1      -8.449   4.876  68.683  1.00  0.00    -0.089 C  
HETATM   17  C   UNL     1      -8.300   6.399  68.585  1.00  0.00    -0.121 C  
BRANCH  12  18
HETATM   18  C   UNL     1      -9.261   2.745  67.547  1.00  0.00    -0.187 C  
BRANCH  18  19
HETATM   19  O   UNL     1      -9.585   2.474  68.908  1.00  0.00    -0.140 OA 
HETATM   20  C   UNL     1      -8.650   1.593  69.516  1.00  0.00    -0.054 C  
ENDBRANCH  18  19
ENDBRANCH  12  18
BRANCH  14  21
HETATM   21  C   UNL     1     -10.595   7.105  69.126  1.00  0.00    -0.214 C  
BRANCH  21  22
HETATM   22  C   UNL     1     -10.252   7.901  70.399  1.00  0.00    -0.197 C  
BRANCH  22  23
HETATM   23  C   UNL     1     -11.445   8.650  70.905  1.00  0.00    -0.275 A  
HETATM   24  C   UNL     1     -11.663  10.011  70.892  1.00  0.00    -0.462 A  
HETATM   25  C   UNL     1     -12.919  10.349  71.470  1.00  0.00    -0.562 A  
HETATM   26  C   UNL     1     -13.614   9.241  71.900  1.00  0.00    -0.427 A  
HETATM   27  S   UNL     1     -12.753   7.798  71.612  1.00  0.00    -0.336 SA 
ENDBRANCH  22  23
ENDBRANCH  21  22
ENDBRANCH  14  21
ENDBRANCH   4  12
ENDBRANCH   2   3
TORSDOF 8
ENDMDL
MODEL      194
REMARK 921   NORMALIZED FREE ENERGY PREDICTED BY IDOCK:   -2.35 KCAL/MOL
REMARK 922        TOTAL FREE ENERGY PREDICTED BY IDOCK:   -3.95 KCAL/MOL
REMARK 923 INTER-LIGAND FREE ENERGY PREDICTED BY IDOCK:   -5.37 KCAL/MOL
REMARK 924 INTRA-LIGAND FREE ENERGY PREDICTED BY IDOCK:    1.42 KCAL/MOL
REMARK 927      BINDING AFFINITY PREDICTED BY RF-SCORE:    0.00 PKD
ROOT
HETATM    1  C   UNL     1     -10.754  13.121  68.922  1.00  0.00    -0.202 C  
HETATM    2  C   UNL     1     -11.862  12.083  68.912  1.00  0.00    -0.356 C  
ENDROOT
BRANCH   2   3
HETATM    3  C   UNL     1     -11.751  11.023  69.995  1.00  0.00    -0.355 C  
HETATM    4  N   UNL     1     -11.248   9.755  69.637  1.00  0.00    -0.214 N  
HETATM    5  O   UNL     1     -12.165  11.287  71.129  1.00  0.00    -0.321 OA 
BRANCH   4   6
HETATM    6  C   UNL     1     -11.227   8.802  70.731  1.00  0.00    -0.266 A  
HETATM    7  C   UNL     1     -12.169   7.774  70.842  1.00  0.00    -0.166 A  
HETATM    8  C   UNL     1     -12.175   6.919  71.952  1.00  0.00    -0.370 A  
HETATM    9  C   UNL     1     -10.240   8.903  71.722  1.00  0.00    -0.414 A  
HETATM   10  C   UNL     1     -11.234   7.076  72.965  1.00  0.00    -0.242 A  
HETATM   11  C   UNL     1     -10.261   8.067  72.847  1.00  0.00    -0.384 A  
ENDBRANCH   4   6
BRANCH   4  12
HETATM   12  C   UNL     1     -10.433   9.400  68.364  1.00  0.00    -0.218 C  
HETATM   13  C   UNL     1     -10.417   7.868  68.020  1.00  0.00    -0.245 C  
HETATM   14  N   UNL     1      -8.253   7.434  69.194  1.00  0.00    -0.120 NA 
HETATM   15  C   UNL     1      -9.650   7.018  69.034  1.00  0.00    -0.141 C  
HETATM   16  C   UNL     1      -8.920   9.762  68.499  1.00  0.00    -0.124 C  
HETATM   17  C   UNL     1      -8.202   8.866  69.516  1.00  0.00    -0.107 C  
BRANCH  12  18
HETATM   18  C   UNL     1     -11.020  10.130  67.103  1.00  0.00    -0.134 C  
BRANCH  18  19
HETATM   19  O   UNL     1     -10.019  10.779  66.324  1.00  0.00    -0.207 OA 
HETATM   20  C   UNL     1     -10.001  10.313  64.981  1.00  0.00    -0.323 C  
ENDBRANCH  18  19
ENDBRANCH  12  18
BRANCH  14  21
HETATM   21  C   UNL     1      -7.416   7.060  68.040  1.00  0.00    -0.099 C  
BRANCH  21  22
HETATM   22  C   UNL     1      -6.499   5.852  68.307  1.00  0.00    -0.046 C  
BRANCH  22  23
HETATM   23  C   UNL     1      -6.882   4.684  67.454  1.00  0.00    -0.059 A  
HETATM   24  C   UNL     1      -8.067   4.473  66.782  1.00  0.00    -0.102 A  
HETATM   25  C   UNL     1      -8.061   3.237  66.077  1.00  0.00    -0.093 A  
HETATM   26  C   UNL     1      -6.877   2.552  66.230  1.00  0.00    -0.044 A  
HETATM   27  S   UNL     1      -5.778   3.393  67.226  1.00  0.00    -0.023 SA 
ENDBRANCH  22  23
ENDBRANCH  21  22
ENDBRANCH  14  21
ENDBRANCH   4  12
ENDBRANCH   2   3
TORSDOF 8
ENDMDL
MODEL      195
REMARK 921   NORMALIZED FREE ENERGY PREDICTED BY IDOCK:   -2.28 KCAL/MOL
REMARK 922        TOTAL FREE ENERGY PREDICTED BY IDOCK:   -3.86 KCAL/MOL
REMARK 923 INTER-LIGAND FREE ENERGY PREDICTED BY IDOCK:   -5.38 KCAL/MOL
REMARK 924 INTRA-LIGAND FREE ENERGY PREDICTED BY IDOCK:    1.52 KCAL/MOL
REMARK 927      BINDING AFFINITY PREDICTED BY RF-SCORE:    0.00 PKD
ROOT
HETATM    1  C   UNL     1      -9.012   8.021  65.971  1.00  0.00    -0.205 C  
HETATM    2  C   UNL     1     -10.103   7.140  66.553  1.00  0.00    -0.154 C  
ENDROOT
BRANCH   2   3
HETATM    3  C   UNL     1      -9.668   5.722  66.884  1.00  0.00    -0.148 C  
HETATM    4  N   UNL     1      -8.956   5.506  68.082  1.00  0.00    -0.108 N  
HETATM    5  O   UNL     1      -9.894   4.825  66.065  1.00  0.00    -0.177 OA 
BRANCH   4   6
HETATM    6  C   UNL     1      -8.546   4.128  68.281  1.00  0.00    -0.095 A  
HETATM    7  C   UNL     1      -9.469   3.096  68.475  1.00  0.00    -0.207 A  
HETATM    8  C   UNL     1      -9.042   1.790  68.748  1.00  0.00    -0.182 A  
HETATM    9  C   UNL     1      -7.180   3.804  68.289  1.00  0.00    -0.054 A  
HETATM   10  C   UNL     1      -7.684   1.495  68.825  1.00  0.00    -0.046 A  
HETATM   11  C   UNL     1      -6.752   2.504  68.589  1.00  0.00    -0.036 A  
ENDBRANCH   4   6
BRANCH   4  12
HETATM   12  C   UNL     1      -8.878   6.459  69.305  1.00  0.00    -0.128 C  
HETATM   13  C   UNL     1      -8.823   5.721  70.690  1.00  0.00    -0.145 C  
HETATM   14  N   UNL     1     -11.288   5.867  71.079  1.00  0.00    -0.222 NA 
HETATM   15  C   UNL     1     -10.116   4.986  71.047  1.00  0.00    -0.227 C  
HETATM   16  C   UNL     1     -10.132   7.380  69.430  1.00  0.00    -0.185 C  
HETATM   17  C   UNL     1     -11.392   6.590  69.805  1.00  0.00    -0.393 C  
BRANCH  12  18
HETATM   18  C   UNL     1      -7.592   7.357  69.233  1.00  0.00    -0.101 C  
BRANCH  18  19
HETATM   19  O   UNL     1      -7.253   7.940  70.487  1.00  0.00    -0.052 OA 
HETATM   20  C   UNL     1      -7.175   9.358  70.415  1.00  0.00    -0.111 C  
ENDBRANCH  18  19
ENDBRANCH  12  18
BRANCH  14  21
HETATM   21  C   UNL     1     -11.300   6.749  72.260  1.00  0.00    -0.273 C  
BRANCH  21  22
HETATM   22  C   UNL     1     -10.612   8.106  72.025  1.00  0.00    -0.334 C  
BRANCH  22  23
HETATM   23  C   UNL     1     -11.618   9.182  71.755  1.00  0.00    -0.387 A  
HETATM   24  C   UNL     1     -11.464  10.317  70.990  1.00  0.00    -0.386 A  
HETATM   25  C   UNL     1     -12.648  11.107  70.975  1.00  0.00    -0.503 A  
HETATM   26  C   UNL     1     -13.660  10.549  71.723  1.00  0.00    -0.116 A  
HETATM   27  S   UNL     1     -13.184   9.080  72.445  1.00  0.00    -0.407 SA 
ENDBRANCH  22  23
ENDBRANCH  21  22
ENDBRANCH  14  21
ENDBRANCH   4  12
ENDBRANCH   2   3
TORSDOF 8
ENDMDL
MODEL      196
REMARK 921   NORMALIZED FREE ENERGY PREDICTED BY IDOCK:   -2.24 KCAL/MOL
REMARK 922        TOTAL FREE ENERGY PREDICTED BY IDOCK:   -3.80 KCAL/MOL
REMARK 923 INTER-LIGAND FREE ENERGY PREDICTED BY IDOCK:   -4.31 KCAL/MOL
REMARK 924 INTRA-LIGAND FREE ENERGY PREDICTED BY IDOCK:    0.51 KCAL/MOL
REMARK 927      BINDING AFFINITY PREDICTED BY RF-SCORE:    0.00 PKD
ROOT
HETATM    1  C   UNL     1      -9.610   8.607  66.137  1.00  0.00    -0.305 C  
HETATM    2  C   UNL     1     -10.254   7.743  67.207  1.00  0.00    -0.343 C  
ENDROOT
BRANCH   2   3
HETATM    3  C   UNL     1      -9.816   6.288  67.201  1.00  0.00    -0.142 C  
HETATM    4  N   UNL     1      -9.101   5.803  68.315  1.00  0.00    -0.117 N  
HETATM    5  O   UNL     1     -10.041   5.604  66.197  1.00  0.00    -0.134 OA 
BRANCH   4   6
HETATM    6  C   UNL     1      -8.688   4.417  68.190  1.00  0.00    -0.101 A  
HETATM    7  C   UNL     1      -7.342   4.046  68.100  1.00  0.00    -0.059 A  
HETATM    8  C   UNL     1      -6.976   2.709  67.895  1.00  0.00    -0.048 A  
HETATM    9  C   UNL     1      -9.657   3.404  68.150  1.00  0.00    -0.158 A  
HETATM   10  C   UNL     1      -7.951   1.722  67.785  1.00  0.00    -0.060 A  
HETATM   11  C   UNL     1      -9.293   2.070  67.918  1.00  0.00    -0.214 A  
ENDBRANCH   4   6
BRANCH   4  12
HETATM   12  C   UNL     1      -9.023   6.447  69.726  1.00  0.00    -0.141 C  
HETATM   13  C   UNL     1      -8.989   5.409  70.903  1.00  0.00    -0.156 C  
HETATM   14  N   UNL     1     -11.455   5.492  71.302  1.00  0.00     0.108 NA 
HETATM   15  C   UNL     1     -10.292   4.627  71.074  1.00  0.00    -0.073 C  
HETATM   16  C   UNL     1     -10.269   7.330  70.052  1.00  0.00    -0.206 C  
HETATM   17  C   UNL     1     -11.540   6.491  70.228  1.00  0.00    -0.409 C  
BRANCH  12  18
HETATM   18  C   UNL     1      -7.727   7.322  69.870  1.00  0.00    -0.103 C  
BRANCH  18  19
HETATM   19  O   UNL     1      -7.140   7.650  68.615  1.00  0.00    -0.076 OA 
HETATM   20  C   UNL     1      -6.927   9.049  68.473  1.00  0.00    -0.064 C  
ENDBRANCH  18  19
ENDBRANCH  12  18
BRANCH  14  21
HETATM   21  C   UNL     1     -11.468   6.078  72.654  1.00  0.00    -0.253 C  
BRANCH  21  22
HETATM   22  C   UNL     1     -10.455   5.432  73.617  1.00  0.00    -0.291 C  
BRANCH  22  23
HETATM   23  C   UNL     1      -9.308   6.353  73.892  1.00  0.00    -0.147 A  
HETATM   24  C   UNL     1      -9.238   7.713  73.677  1.00  0.00    -0.339 A  
HETATM   25  C   UNL     1      -7.974   8.243  74.060  1.00  0.00    -0.270 A  
HETATM   26  C   UNL     1      -7.128   7.277  74.555  1.00  0.00    -0.105 A  
HETATM   27  S   UNL     1      -7.853   5.733  74.553  1.00  0.00    -0.099 SA 
ENDBRANCH  22  23
ENDBRANCH  21  22
ENDBRANCH  14  21
ENDBRANCH   4  12
ENDBRANCH   2   3
TORSDOF 8
ENDMDL
MODEL      197
REMARK 921   NORMALIZED FREE ENERGY PREDICTED BY IDOCK:   -2.13 KCAL/MOL
REMARK 922        TOTAL FREE ENERGY PREDICTED BY IDOCK:   -3.63 KCAL/MOL
REMARK 923 INTER-LIGAND FREE ENERGY PREDICTED BY IDOCK:   -3.82 KCAL/MOL
REMARK 924 INTRA-LIGAND FREE ENERGY PREDICTED BY IDOCK:    0.19 KCAL/MOL
REMARK 927      BINDING AFFINITY PREDICTED BY RF-SCORE:    0.00 PKD
ROOT
HETATM    1  C   UNL     1      -5.369   1.905  67.632  1.00  0.00    -0.016 C  
HETATM    2  C   UNL     1      -5.917   3.311  67.462  1.00  0.00    -0.027 C  
ENDROOT
BRANCH   2   3
HETATM    3  C   UNL     1      -6.672   3.547  66.164  1.00  0.00    -0.045 C  
HETATM    4  N   UNL     1      -8.050   3.840  66.239  1.00  0.00    -0.099 N  
HETATM    5  O   UNL     1      -6.071   3.409  65.094  1.00  0.00    -0.022 OA 
BRANCH   4   6
HETATM    6  C   UNL     1      -8.687   4.000  64.945  1.00  0.00    -0.118 A  
HETATM    7  C   UNL     1      -9.770   3.211  64.544  1.00  0.00    -0.143 A  
HETATM    8  C   UNL     1     -10.311   3.331  63.258  1.00  0.00    -0.206 A  
HETATM    9  C   UNL     1      -8.210   4.971  64.051  1.00  0.00    -0.125 A  
HETATM   10  C   UNL     1      -9.782   4.248  62.355  1.00  0.00    -0.135 A  
HETATM   11  C   UNL     1      -8.733   5.073  62.755  1.00  0.00    -0.102 A  
ENDBRANCH   4   6
BRANCH   4  12
HETATM   12  C   UNL     1      -8.833   4.330  67.487  1.00  0.00    -0.110 C  
HETATM   13  C   UNL     1     -10.170   5.080  67.150  1.00  0.00    -0.234 C  
HETATM   14  N   UNL     1      -9.139   7.355  67.244  1.00  0.00    -0.122 NA 
HETATM   15  C   UNL     1      -9.963   6.429  66.459  1.00  0.00    -0.103 C  
HETATM   16  C   UNL     1      -8.030   5.371  68.329  1.00  0.00    -0.088 C  
HETATM   17  C   UNL     1      -7.869   6.706  67.592  1.00  0.00    -0.111 C  
BRANCH  12  18
HETATM   18  C   UNL     1      -9.224   3.122  68.411  1.00  0.00    -0.178 C  
BRANCH  18  19
HETATM   19  O   UNL     1      -9.168   3.444  69.797  1.00  0.00    -0.119 OA 
HETATM   20  C   UNL     1      -9.049   2.286  70.612  1.00  0.00    -0.102 C  
ENDBRANCH  18  19
ENDBRANCH  12  18
BRANCH  14  21
HETATM   21  C   UNL     1      -9.858   7.906  68.406  1.00  0.00    -0.173 C  
BRANCH  21  22
HETATM   22  C   UNL     1      -9.404   9.324  68.799  1.00  0.00    -0.139 C  
BRANCH  22  23
HETATM   23  C   UNL     1      -9.973  10.349  67.868  1.00  0.00    -0.167 A  
HETATM   24  C   UNL     1     -11.274  10.797  67.788  1.00  0.00    -0.385 A  
HETATM   25  C   UNL     1     -11.431  11.779  66.770  1.00  0.00    -0.352 A  
HETATM   26  C   UNL     1     -10.251  12.048  66.113  1.00  0.00    -0.226 A  
HETATM   27  S   UNL     1      -8.958  11.117  66.719  1.00  0.00    -0.170 SA 
ENDBRANCH  22  23
ENDBRANCH  21  22
ENDBRANCH  14  21
ENDBRANCH   4  12
ENDBRANCH   2   3
TORSDOF 8
ENDMDL
MODEL      198
REMARK 921   NORMALIZED FREE ENERGY PREDICTED BY IDOCK:   -2.00 KCAL/MOL
REMARK 922        TOTAL FREE ENERGY PREDICTED BY IDOCK:   -3.44 KCAL/MOL
REMARK 923 INTER-LIGAND FREE ENERGY PREDICTED BY IDOCK:   -3.99 KCAL/MOL
REMARK 924 INTRA-LIGAND FREE ENERGY PREDICTED BY IDOCK:    0.55 KCAL/MOL
REMARK 927      BINDING AFFINITY PREDICTED BY RF-SCORE:    0.00 PKD
ROOT
HETATM    1  C   UNL     1      -6.610  18.304  65.205  1.00  0.00    -0.061 C  
HETATM    2  C   UNL     1      -7.295  19.106  66.298  1.00  0.00    -0.278 C  
ENDROOT
BRANCH   2   3
HETATM    3  C   UNL     1      -8.482  18.413  66.946  1.00  0.00    -0.265 C  
HETATM    4  N   UNL     1      -8.229  17.329  67.813  1.00  0.00    -0.200 N  
HETATM    5  O   UNL     1      -9.622  18.778  66.641  1.00  0.00    -0.310 OA 
BRANCH   4   6
HETATM    6  C   UNL     1      -9.430  16.707  68.341  1.00  0.00    -0.231 A  
HETATM    7  C   UNL     1     -10.100  15.684  67.662  1.00  0.00    -0.248 A  
HETATM    8  C   UNL     1     -11.302  15.160  68.155  1.00  0.00    -0.345 A  
HETATM    9  C   UNL     1      -9.953  17.139  69.569  1.00  0.00     0.053 A  
HETATM   10  C   UNL     1     -11.849  15.648  69.339  1.00  0.00    -0.391 A  
HETATM   11  C   UNL     1     -11.169  16.635  70.049  1.00  0.00    -0.020 A  
ENDBRANCH   4   6
BRANCH   4  12
HETATM   12  C   UNL     1      -6.882  16.978  68.499  1.00  0.00    -0.179 C  
HETATM   13  C   UNL     1      -5.925  16.098  67.619  1.00  0.00    -0.175 C  
HETATM   14  N   UNL     1      -6.683  13.936  68.619  1.00  0.00    -0.090 NA 
HETATM   15  C   UNL     1      -6.442  14.679  67.377  1.00  0.00     0.087 C  
HETATM   16  C   UNL     1      -7.072  16.129  69.796  1.00  0.00     0.048 C  
HETATM   17  C   UNL     1      -7.575  14.714  69.489  1.00  0.00    -0.042 C  
BRANCH  12  18
HETATM   18  C   UNL     1      -6.080  18.281  68.857  1.00  0.00    -0.217 C  
BRANCH  18  19
HETATM   19  O   UNL     1      -6.754  19.101  69.806  1.00  0.00    -0.221 OA 
HETATM   20  C   UNL     1      -5.858  19.954  70.507  1.00  0.00    -0.308 C  
ENDBRANCH  18  19
ENDBRANCH  12  18
BRANCH  14  21
HETATM   21  C   UNL     1      -5.434  13.517  69.279  1.00  0.00    -0.076 C  
BRANCH  21  22
HETATM   22  C   UNL     1      -5.624  12.369  70.287  1.00  0.00    -0.156 C  
BRANCH  22  23
HETATM   23  C   UNL     1      -6.220  11.164  69.629  1.00  0.00    -0.108 A  
HETATM   24  C   UNL     1      -7.481  10.635  69.804  1.00  0.00    -0.088 A  
HETATM   25  C   UNL     1      -7.681   9.476  69.004  1.00  0.00    -0.076 A  
HETATM   26  C   UNL     1      -6.575   9.163  68.247  1.00  0.00    -0.059 A  
HETATM   27  S   UNL     1      -5.296  10.260  68.503  1.00  0.00    -0.037 SA 
ENDBRANCH  22  23
ENDBRANCH  21  22
ENDBRANCH  14  21
ENDBRANCH   4  12
ENDBRANCH   2   3
TORSDOF 8
ENDMDL
MODEL      199
REMARK 921   NORMALIZED FREE ENERGY PREDICTED BY IDOCK:   -1.73 KCAL/MOL
REMARK 922        TOTAL FREE ENERGY PREDICTED BY IDOCK:   -3.04 KCAL/MOL
REMARK 923 INTER-LIGAND FREE ENERGY PREDICTED BY IDOCK:   -7.31 KCAL/MOL
REMARK 924 INTRA-LIGAND FREE ENERGY PREDICTED BY IDOCK:    4.27 KCAL/MOL
REMARK 927      BINDING AFFINITY PREDICTED BY RF-SCORE:    0.00 PKD
ROOT
HETATM    1  C   UNL     1     -12.211  14.204  63.918  1.00  0.00    -0.288 C  
HETATM    2  C   UNL     1     -11.738  14.576  65.312  1.00  0.00    -0.361 C  
ENDROOT
BRANCH   2   3
HETATM    3  C   UNL     1     -11.118  15.959  65.426  1.00  0.00    -0.195 C  
HETATM    4  N   UNL     1     -10.481  16.307  66.635  1.00  0.00    -0.302 N  
HETATM    5  O   UNL     1     -11.251  16.749  64.485  1.00  0.00    -0.997 OA 
BRANCH   4   6
HETATM    6  C   UNL     1      -9.965  17.663  66.658  1.00  0.00    -0.328 A  
HETATM    7  C   UNL     1     -10.738  18.748  67.086  1.00  0.00    -0.469 A  
HETATM    8  C   UNL     1     -10.242  20.056  67.019  1.00  0.00    -0.587 A  
HETATM    9  C   UNL     1      -8.651  17.914  66.235  1.00  0.00    -0.207 A  
HETATM   10  C   UNL     1      -8.962  20.299  66.529  1.00  0.00    -0.329 A  
HETATM   11  C   UNL     1      -8.164  19.225  66.142  1.00  0.00    -0.291 A  
ENDBRANCH   4   6
BRANCH   4  12
HETATM   12  C   UNL     1      -9.991  15.337  67.744  1.00  0.00    -0.224 C  
HETATM   13  C   UNL     1      -8.941  14.279  67.251  1.00  0.00    -0.221 C  
HETATM   14  N   UNL     1     -10.646  12.500  66.831  1.00  0.00    -0.234 NA 
HETATM   15  C   UNL     1      -9.514  13.250  66.276  1.00  0.00    -0.184 C  
HETATM   16  C   UNL     1     -11.145  14.463  68.329  1.00  0.00    -0.275 C  
HETATM   17  C   UNL     1     -11.666  13.440  67.312  1.00  0.00    -0.380 C  
BRANCH  12  18
HETATM   18  C   UNL     1      -9.307  16.127  68.915  1.00  0.00    -0.235 C  
BRANCH  18  19
HETATM   19  O   UNL     1      -8.013  15.627  69.238  1.00  0.00    -0.210 OA 
HETATM   20  C   UNL     1      -7.034  16.658  69.276  1.00  0.00    -0.225 C  
ENDBRANCH  18  19
ENDBRANCH  12  18
BRANCH  14  21
HETATM   21  C   UNL     1     -10.229  11.514  67.842  1.00  0.00    -0.184 C  
BRANCH  21  22
HETATM   22  C   UNL     1      -8.771  11.682  68.306  1.00  0.00    -0.163 C  
BRANCH  22  23
HETATM   23  C   UNL     1      -7.964  10.457  68.006  1.00  0.00    -0.105 A  
HETATM   24  C   UNL     1      -8.414   9.169  67.809  1.00  0.00    -0.117 A  
HETATM   25  C   UNL     1      -7.341   8.271  67.551  1.00  0.00    -0.093 A  
HETATM   26  C   UNL     1      -6.116   8.899  67.557  1.00  0.00    -0.051 A  
HETATM   27  S   UNL     1      -6.258  10.568  67.877  1.00  0.00    -0.058 SA 
ENDBRANCH  22  23
ENDBRANCH  21  22
ENDBRANCH  14  21
ENDBRANCH   4  12
ENDBRANCH   2   3
TORSDOF 8
ENDMDL
MODEL      200
REMARK 921   NORMALIZED FREE ENERGY PREDICTED BY IDOCK:   -1.66 KCAL/MOL
REMARK 922        TOTAL FREE ENERGY PREDICTED BY IDOCK:   -2.93 KCAL/MOL
REMARK 923 INTER-LIGAND FREE ENERGY PREDICTED BY IDOCK:   -3.19 KCAL/MOL
REMARK 924 INTRA-LIGAND FREE ENERGY PREDICTED BY IDOCK:    0.26 KCAL/MOL
REMARK 927      BINDING AFFINITY PREDICTED BY RF-SCORE:    0.00 PKD
ROOT
HETATM    1  C   UNL     1     -10.569  13.450  64.842  1.00  0.00    -0.398 C  
HETATM    2  C   UNL     1     -11.750  13.165  65.753  1.00  0.00    -0.415 C  
ENDROOT
BRANCH   2   3
HETATM    3  C   UNL     1     -11.806  14.019  67.009  1.00  0.00    -0.428 C  
HETATM    4  N   UNL     1     -11.392  13.441  68.226  1.00  0.00    -0.276 N  
HETATM    5  O   UNL     1     -12.270  15.161  66.931  1.00  0.00     0.082 OA 
BRANCH   4   6
HETATM    6  C   UNL     1     -11.528  14.322  69.372  1.00  0.00    -0.292 A  
HETATM    7  C   UNL     1     -12.616  14.243  70.247  1.00  0.00    -0.378 A  
HETATM    8  C   UNL     1     -12.764  15.161  71.295  1.00  0.00    -0.439 A  
HETATM    9  C   UNL     1     -10.548  15.294  69.620  1.00  0.00    -0.285 A  
HETATM   10  C   UNL     1     -11.822  16.167  71.488  1.00  0.00    -0.528 A  
HETATM   11  C   UNL     1     -10.709  16.229  70.652  1.00  0.00     0.096 A  
ENDBRANCH   4   6
BRANCH   4  12
HETATM   12  C   UNL     1     -10.527  12.164  68.406  1.00  0.00    -0.231 C  
HETATM   13  C   UNL     1     -11.226  10.843  67.923  1.00  0.00    -0.387 C  
HETATM   14  N   UNL     1     -12.091  10.246  70.191  1.00  0.00    -0.234 NA 
HETATM   15  C   UNL     1     -12.428  10.435  68.777  1.00  0.00     1.192 C  
HETATM   16  C   UNL     1     -10.190  11.873  69.903  1.00  0.00     1.308 C  
HETATM   17  C   UNL     1     -11.429  11.454  70.703  1.00  0.00     0.264 C  
BRANCH  12  18
HETATM   18  C   UNL     1      -9.187  12.277  67.596  1.00  0.00    -0.183 C  
BRANCH  18  19
HETATM   19  O   UNL     1      -8.033  12.274  68.431  1.00  0.00    -0.151 OA 
HETATM   20  C   UNL     1      -7.125  11.236  68.086  1.00  0.00    -0.071 C  
ENDBRANCH  18  19
ENDBRANCH  12  18
BRANCH  14  21
HETATM   21  C   UNL     1     -11.326   9.009  70.430  1.00  0.00    -0.210 C  
BRANCH  21  22
HETATM   22  C   UNL     1     -10.879   8.832  71.893  1.00  0.00    -0.431 C  
BRANCH  22  23
HETATM   23  C   UNL     1      -9.855   7.748  72.017  1.00  0.00    -0.174 A  
HETATM   24  C   UNL     1      -8.499   7.878  72.227  1.00  0.00    -0.185 A  
HETATM   25  C   UNL     1      -7.850   6.613  72.283  1.00  0.00    -0.096 A  
HETATM   26  C   UNL     1      -8.728   5.566  72.118  1.00  0.00    -0.130 A  
HETATM   27  S   UNL     1     -10.329   6.105  71.892  1.00  0.00    -0.213 SA 
ENDBRANCH  22  23
ENDBRANCH  21  22
ENDBRANCH  14  21
ENDBRANCH   4  12
ENDBRANCH   2   3
TORSDOF 8
ENDMDL
MODEL      201
REMARK 921   NORMALIZED FREE ENERGY PREDICTED BY IDOCK:   -1.64 KCAL/MOL
REMARK 922        TOTAL FREE ENERGY PREDICTED BY IDOCK:   -2.90 KCAL/MOL
REMARK 923 INTER-LIGAND FREE ENERGY PREDICTED BY IDOCK:   -2.98 KCAL/MOL
REMARK 924 INTRA-LIGAND FREE ENERGY PREDICTED BY IDOCK:    0.08 KCAL/MOL
REMARK 927      BINDING AFFINITY PREDICTED BY RF-SCORE:    0.00 PKD
ROOT
HETATM    1  C   UNL     1     -11.668  11.076  68.934  1.00  0.00    -0.400 C  
HETATM    2  C   UNL     1     -10.760   9.971  68.423  1.00  0.00    -0.271 C  
ENDROOT
BRANCH   2   3
HETATM    3  C   UNL     1      -9.743   9.465  69.433  1.00  0.00    -0.177 C  
HETATM    4  N   UNL     1      -8.398   9.355  69.025  1.00  0.00    -0.120 N  
HETATM    5  O   UNL     1     -10.140   9.107  70.547  1.00  0.00    -0.201 OA 
BRANCH   4   6
HETATM    6  C   UNL     1      -7.517   8.818  70.046  1.00  0.00    -0.054 A  
HETATM    7  C   UNL     1      -7.012   7.514  69.985  1.00  0.00    -0.059 A  
HETATM    8  C   UNL     1      -6.232   6.995  71.026  1.00  0.00    -0.036 A  
HETATM    9  C   UNL     1      -7.155   9.616  71.141  1.00  0.00     0.133 A  
HETATM   10  C   UNL     1      -5.940   7.774  72.142  1.00  0.00    -0.039 A  
HETATM   11  C   UNL     1      -6.397   9.088  72.196  1.00  0.00     0.019 A  
ENDBRANCH   4   6
BRANCH   4  12
HETATM   12  C   UNL     1      -7.736  10.037  67.797  1.00  0.00    -0.090 C  
HETATM   13  C   UNL     1      -6.217  10.381  67.997  1.00  0.00    -0.055 C  
HETATM   14  N   UNL     1      -6.651  12.733  68.725  1.00  0.00    -0.084 NA 
HETATM   15  C   UNL     1      -5.965  11.475  69.037  1.00  0.00    -0.052 C  
HETATM   16  C   UNL     1      -8.383  11.416  67.455  1.00  0.00    -0.137 C  
HETATM   17  C   UNL     1      -8.083  12.474  68.524  1.00  0.00    -0.089 C  
BRANCH  12  18
HETATM   18  C   UNL     1      -7.816   9.110  66.532  1.00  0.00    -0.100 C  
BRANCH  18  19
HETATM   19  O   UNL     1      -8.440   7.858  66.802  1.00  0.00    -0.123 OA 
HETATM   20  C   UNL     1      -7.603   6.759  66.468  1.00  0.00    -0.089 C  
ENDBRANCH  18  19
ENDBRANCH  12  18
BRANCH  14  21
HETATM   21  C   UNL     1      -6.021  13.458  67.607  1.00  0.00    -0.104 C  
BRANCH  21  22
HETATM   22  C   UNL     1      -5.359  14.784  68.026  1.00  0.00    -0.120 C  
BRANCH  22  23
HETATM   23  C   UNL     1      -6.385  15.846  68.271  1.00  0.00    -0.117 A  
HETATM   24  C   UNL     1      -6.706  16.460  69.462  1.00  0.00    -0.202 A  
HETATM   25  C   UNL     1      -7.743  17.421  69.297  1.00  0.00     0.063 A  
HETATM   26  C   UNL     1      -8.172  17.510  67.993  1.00  0.00    -0.239 A  
HETATM   27  S   UNL     1      -7.333  16.435  66.970  1.00  0.00    -0.239 SA 
ENDBRANCH  22  23
ENDBRANCH  21  22
ENDBRANCH  14  21
ENDBRANCH   4  12
ENDBRANCH   2   3
TORSDOF 8
ENDMDL
MODEL      202
REMARK 921   NORMALIZED FREE ENERGY PREDICTED BY IDOCK:   -1.60 KCAL/MOL
REMARK 922        TOTAL FREE ENERGY PREDICTED BY IDOCK:   -2.85 KCAL/MOL
REMARK 923 INTER-LIGAND FREE ENERGY PREDICTED BY IDOCK:   -3.80 KCAL/MOL
REMARK 924 INTRA-LIGAND FREE ENERGY PREDICTED BY IDOCK:    0.95 KCAL/MOL
REMARK 927      BINDING AFFINITY PREDICTED BY RF-SCORE:    0.00 PKD
ROOT
HETATM    1  C   UNL     1      -7.444   5.981  64.859  1.00  0.00    -0.082 C  
HETATM    2  C   UNL     1      -6.935   7.177  65.645  1.00  0.00    -0.060 C  
ENDROOT
BRANCH   2   3
HETATM    3  C   UNL     1      -7.607   8.497  65.303  1.00  0.00    -0.089 C  
HETATM    4  N   UNL     1      -8.870   8.767  65.868  1.00  0.00    -0.174 N  
HETATM    5  O   UNL     1      -7.056   9.251  64.495  1.00  0.00    -0.090 OA 
BRANCH   4   6
HETATM    6  C   UNL     1      -9.447  10.029  65.442  1.00  0.00    -0.250 A  
HETATM    7  C   UNL     1     -10.399  10.106  64.421  1.00  0.00     0.297 A  
HETATM    8  C   UNL     1     -10.876  11.345  63.973  1.00  0.00    -0.450 A  
HETATM    9  C   UNL     1      -9.041  11.221  66.059  1.00  0.00    -0.221 A  
HETATM   10  C   UNL     1     -10.412  12.525  64.545  1.00  0.00    -0.366 A  
HETATM   11  C   UNL     1      -9.497  12.462  65.594  1.00  0.00    -0.046 A  
ENDBRANCH   4   6
BRANCH   4  12
HETATM   12  C   UNL     1      -9.511   8.068  67.098  1.00  0.00    -0.162 C  
HETATM   13  C   UNL     1     -10.456   8.995  67.942  1.00  0.00    -0.291 C  
HETATM   14  N   UNL     1      -8.679   9.637  69.578  1.00  0.00    -0.169 NA 
HETATM   15  C   UNL     1      -9.723  10.123  68.670  1.00  0.00    -0.163 C  
HETATM   16  C   UNL     1      -8.449   7.585  68.135  1.00  0.00    -0.124 C  
HETATM   17  C   UNL     1      -7.760   8.758  68.843  1.00  0.00    -0.095 C  
BRANCH  12  18
HETATM   18  C   UNL     1     -10.381   6.839  66.651  1.00  0.00    -0.149 C  
BRANCH  18  19
HETATM   19  O   UNL     1     -10.954   6.138  67.751  1.00  0.00    -0.313 OA 
HETATM   20  C   UNL     1     -10.476   4.802  67.842  1.00  0.00     0.171 C  
ENDBRANCH  18  19
ENDBRANCH  12  18
BRANCH  14  21
HETATM   21  C   UNL     1      -9.232   9.023  70.798  1.00  0.00    -0.245 C  
BRANCH  21  22
HETATM   22  C   UNL     1      -8.552   7.697  71.186  1.00  0.00    -0.132 C  
BRANCH  22  23
HETATM   23  C   UNL     1      -7.614   7.888  72.337  1.00  0.00    -0.101 A  
HETATM   24  C   UNL     1      -7.911   7.900  73.683  1.00  0.00    -0.217 A  
HETATM   25  C   UNL     1      -6.749   8.116  74.476  1.00  0.00    -0.157 A  
HETATM   26  C   UNL     1      -5.612   8.257  73.715  1.00  0.00    -0.071 A  
HETATM   27  S   UNL     1      -5.943   8.135  72.046  1.00  0.00    -0.049 SA 
ENDBRANCH  22  23
ENDBRANCH  21  22
ENDBRANCH  14  21
ENDBRANCH   4  12
ENDBRANCH   2   3
TORSDOF 8
ENDMDL
MODEL      203
REMARK 921   NORMALIZED FREE ENERGY PREDICTED BY IDOCK:   -1.49 KCAL/MOL
REMARK 922        TOTAL FREE ENERGY PREDICTED BY IDOCK:   -2.69 KCAL/MOL
REMARK 923 INTER-LIGAND FREE ENERGY PREDICTED BY IDOCK:   -4.02 KCAL/MOL
REMARK 924 INTRA-LIGAND FREE ENERGY PREDICTED BY IDOCK:    1.34 KCAL/MOL
REMARK 927      BINDING AFFINITY PREDICTED BY RF-SCORE:    0.00 PKD
ROOT
HETATM    1  C   UNL     1      -8.002   8.451  65.099  1.00  0.00    -0.136 C  
HETATM    2  C   UNL     1      -9.237   7.870  65.765  1.00  0.00    -0.033 C  
ENDROOT
BRANCH   2   3
HETATM    3  C   UNL     1      -9.078   6.445  66.268  1.00  0.00    -0.151 C  
HETATM    4  N   UNL     1      -8.569   6.250  67.568  1.00  0.00    -0.108 N  
HETATM    5  O   UNL     1      -9.337   5.512  65.501  1.00  0.00    -0.113 OA 
BRANCH   4   6
HETATM    6  C   UNL     1      -8.411   4.854  67.934  1.00  0.00    -0.103 A  
HETATM    7  C   UNL     1      -7.154   4.262  68.091  1.00  0.00    -0.059 A  
HETATM    8  C   UNL     1      -7.032   2.893  68.363  1.00  0.00    -0.048 A  
HETATM    9  C   UNL     1      -9.548   4.056  68.135  1.00  0.00    -0.189 A  
HETATM   10  C   UNL     1      -8.166   2.097  68.488  1.00  0.00    -0.073 A  
HETATM   11  C   UNL     1      -9.426   2.681  68.380  1.00  0.00    -0.212 A  
ENDBRANCH   4   6
BRANCH   4  12
HETATM   12  C   UNL     1      -8.498   7.300  68.710  1.00  0.00    -0.129 C  
HETATM   13  C   UNL     1      -9.199   6.850  70.040  1.00  0.00    -0.155 C  
HETATM   14  N   UNL     1     -11.363   7.981  69.505  1.00  0.00     0.157 NA 
HETATM   15  C   UNL     1     -10.720   6.732  69.925  1.00  0.00    -0.250 C  
HETATM   16  C   UNL     1      -9.224   8.633  68.345  1.00  0.00    -0.138 C  
HETATM   17  C   UNL     1     -10.745   8.456  68.260  1.00  0.00    -0.028 C  
BRANCH  12  18
HETATM   18  C   UNL     1      -7.006   7.619  69.083  1.00  0.00    -0.068 C  
BRANCH  18  19
HETATM   19  O   UNL     1      -6.445   8.655  68.282  1.00  0.00    -0.057 OA 
HETATM   20  C   UNL     1      -5.137   8.332  67.828  1.00  0.00    -0.033 C  
ENDBRANCH  18  19
ENDBRANCH  12  18
BRANCH  14  21
HETATM   21  C   UNL     1     -11.385   8.993  70.576  1.00  0.00    -0.243 C  
BRANCH  21  22
HETATM   22  C   UNL     1     -10.998  10.405  70.099  1.00  0.00    -0.365 C  
BRANCH  22  23
HETATM   23  C   UNL     1     -11.928  11.437  70.657  1.00  0.00    -0.314 A  
HETATM   24  C   UNL     1     -12.909  11.272  71.611  1.00  0.00    -0.510 A  
HETATM   25  C   UNL     1     -13.593  12.490  71.879  1.00  0.00    -0.273 A  
HETATM   26  C   UNL     1     -13.113  13.539  71.128  1.00  0.00    -0.212 A  
HETATM   27  S   UNL     1     -11.843  13.056  70.098  1.00  0.00    -0.181 SA 
ENDBRANCH  22  23
ENDBRANCH  21  22
ENDBRANCH  14  21
ENDBRANCH   4  12
ENDBRANCH   2   3
TORSDOF 8
ENDMDL
MODEL      204
REMARK 921   NORMALIZED FREE ENERGY PREDICTED BY IDOCK:   -1.36 KCAL/MOL
REMARK 922        TOTAL FREE ENERGY PREDICTED BY IDOCK:   -2.50 KCAL/MOL
REMARK 923 INTER-LIGAND FREE ENERGY PREDICTED BY IDOCK:   -3.25 KCAL/MOL
REMARK 924 INTRA-LIGAND FREE ENERGY PREDICTED BY IDOCK:    0.75 KCAL/MOL
REMARK 927      BINDING AFFINITY PREDICTED BY RF-SCORE:    0.00 PKD
ROOT
HETATM    1  C   UNL     1     -12.231   9.635  70.494  1.00  0.00    -0.153 C  
HETATM    2  C   UNL     1     -11.397   8.381  70.686  1.00  0.00    -0.262 C  
ENDROOT
BRANCH   2   3
HETATM    3  C   UNL     1      -9.966   8.630  71.136  1.00  0.00    -0.225 C  
HETATM    4  N   UNL     1      -9.219   7.535  71.616  1.00  0.00    -0.134 N  
HETATM    5  O   UNL     1      -9.535   9.787  71.127  1.00  0.00    -0.063 OA 
BRANCH   4   6
HETATM    6  C   UNL     1      -7.884   7.887  72.065  1.00  0.00    -0.104 A  
HETATM    7  C   UNL     1      -7.377   7.466  73.299  1.00  0.00    -0.087 A  
HETATM    8  C   UNL     1      -6.117   7.890  73.742  1.00  0.00    -0.078 A  
HETATM    9  C   UNL     1      -7.064   8.681  71.249  1.00  0.00    -0.086 A  
HETATM   10  C   UNL     1      -5.343   8.736  72.954  1.00  0.00    -0.067 A  
HETATM   11  C   UNL     1      -5.815   9.127  71.703  1.00  0.00    -0.073 A  
ENDBRANCH   4   6
BRANCH   4  12
HETATM   12  C   UNL     1      -9.525   6.029  71.399  1.00  0.00    -0.156 C  
HETATM   13  C   UNL     1      -8.249   5.117  71.342  1.00  0.00    -0.115 C  
HETATM   14  N   UNL     1      -8.092   5.164  68.848  1.00  0.00    -0.085 NA 
HETATM   15  C   UNL     1      -7.373   5.357  70.112  1.00  0.00    -0.068 C  
HETATM   16  C   UNL     1     -10.235   5.751  70.036  1.00  0.00    -0.304 C  
HETATM   17  C   UNL     1      -9.304   5.994  68.842  1.00  0.00    -0.123 C  
BRANCH  12  18
HETATM   18  C   UNL     1     -10.419   5.467  72.561  1.00  0.00    -0.214 C  
BRANCH  18  19
HETATM   19  O   UNL     1      -9.755   5.470  73.821  1.00  0.00    -0.145 OA 
HETATM   20  C   UNL     1      -9.435   4.157  74.262  1.00  0.00    -0.107 C  
ENDBRANCH  18  19
ENDBRANCH  12  18
BRANCH  14  21
HETATM   21  C   UNL     1      -8.350   3.742  68.557  1.00  0.00    -0.078 C  
BRANCH  21  22
HETATM   22  C   UNL     1      -7.676   3.244  67.266  1.00  0.00    -0.078 C  
BRANCH  22  23
HETATM   23  C   UNL     1      -8.450   3.662  66.055  1.00  0.00    -0.111 A  
HETATM   24  C   UNL     1      -9.594   3.093  65.539  1.00  0.00    -0.015 A  
HETATM   25  C   UNL     1     -10.038   3.770  64.368  1.00  0.00    -0.220 A  
HETATM   26  C   UNL     1      -9.224   4.828  64.034  1.00  0.00     0.008 A  
HETATM   27  S   UNL     1      -7.926   5.004  65.126  1.00  0.00    -0.108 SA 
ENDBRANCH  22  23
ENDBRANCH  21  22
ENDBRANCH  14  21
ENDBRANCH   4  12
ENDBRANCH   2   3
TORSDOF 8
ENDMDL
MODEL      205
REMARK 921   NORMALIZED FREE ENERGY PREDICTED BY IDOCK:   -1.25 KCAL/MOL
REMARK 922        TOTAL FREE ENERGY PREDICTED BY IDOCK:   -2.33 KCAL/MOL
REMARK 923 INTER-LIGAND FREE ENERGY PREDICTED BY IDOCK:   -4.85 KCAL/MOL
REMARK 924 INTRA-LIGAND FREE ENERGY PREDICTED BY IDOCK:    2.52 KCAL/MOL
REMARK 927      BINDING AFFINITY PREDICTED BY RF-SCORE:    0.00 PKD
ROOT
HETATM    1  C   UNL     1      -8.848   7.253  71.421  1.00  0.00    -0.130 C  
HETATM    2  C   UNL     1      -8.519   8.219  70.296  1.00  0.00    -0.125 C  
ENDROOT
BRANCH   2   3
HETATM    3  C   UNL     1      -9.437   9.427  70.205  1.00  0.00    -0.251 C  
HETATM    4  N   UNL     1      -9.164  10.399  69.221  1.00  0.00    -0.198 N  
HETATM    5  O   UNL     1     -10.345   9.546  71.035  1.00  0.00    -0.298 OA 
BRANCH   4   6
HETATM    6  C   UNL     1     -10.068  11.534  69.249  1.00  0.00     0.129 A  
HETATM    7  C   UNL     1     -11.441  11.387  69.474  1.00  0.00    -0.381 A  
HETATM    8  C   UNL     1     -12.302  12.491  69.412  1.00  0.00     0.043 A  
HETATM    9  C   UNL     1      -9.567  12.827  69.039  1.00  0.00     0.379 A  
HETATM   10  C   UNL     1     -11.801  13.759  69.131  1.00  0.00    -0.398 A  
HETATM   11  C   UNL     1     -10.430  13.927  68.950  1.00  0.00    -0.199 A  
ENDBRANCH   4   6
BRANCH   4  12
HETATM   12  C   UNL     1      -8.273  10.226  67.961  1.00  0.00    -0.113 C  
HETATM   13  C   UNL     1      -8.443  11.366  66.895  1.00  0.00    -0.157 C  
HETATM   14  N   UNL     1     -10.128  10.110  65.541  1.00  0.00    -0.289 NA 
HETATM   15  C   UNL     1      -9.813  11.374  66.214  1.00  0.00    -0.218 C  
HETATM   16  C   UNL     1      -8.608   8.926  67.164  1.00  0.00    -0.112 C  
HETATM   17  C   UNL     1      -9.984   8.999  66.492  1.00  0.00    -0.285 C  
BRANCH  12  18
HETATM   18  C   UNL     1      -6.752  10.207  68.349  1.00  0.00    -0.054 C  
BRANCH  18  19
HETATM   19  O   UNL     1      -6.393  11.267  69.232  1.00  0.00    -0.063 OA 
HETATM   20  C   UNL     1      -5.848  10.785  70.453  1.00  0.00    -0.118 C  
ENDBRANCH  18  19
ENDBRANCH  12  18
BRANCH  14  21
HETATM   21  C   UNL     1      -9.359   9.924  64.298  1.00  0.00    -0.253 C  
BRANCH  21  22
HETATM   22  C   UNL     1      -9.936  10.691  63.094  1.00  0.00    -0.286 C  
BRANCH  22  23
HETATM   23  C   UNL     1     -10.699  11.899  63.539  1.00  0.00    -0.442 A  
HETATM   24  C   UNL     1     -10.202  13.079  64.049  1.00  0.00    -0.166 A  
HETATM   25  C   UNL     1     -11.243  13.997  64.364  1.00  0.00    -0.318 A  
HETATM   26  C   UNL     1     -12.491  13.491  64.083  1.00  0.00    -0.239 A  
HETATM   27  S   UNL     1     -12.411  11.912  63.445  1.00  0.00    -0.309 SA 
ENDBRANCH  22  23
ENDBRANCH  21  22
ENDBRANCH  14  21
ENDBRANCH   4  12
ENDBRANCH   2   3
TORSDOF 8
ENDMDL
MODEL      206
REMARK 921   NORMALIZED FREE ENERGY PREDICTED BY IDOCK:   -1.19 KCAL/MOL
REMARK 922        TOTAL FREE ENERGY PREDICTED BY IDOCK:   -2.26 KCAL/MOL
REMARK 923 INTER-LIGAND FREE ENERGY PREDICTED BY IDOCK:   -5.38 KCAL/MOL
REMARK 924 INTRA-LIGAND FREE ENERGY PREDICTED BY IDOCK:    3.12 KCAL/MOL
REMARK 927      BINDING AFFINITY PREDICTED BY RF-SCORE:    0.00 PKD
ROOT
HETATM    1  C   UNL     1      -5.125  12.945  70.109  1.00  0.00    -0.093 C  
HETATM    2  C   UNL     1      -6.394  13.589  69.579  1.00  0.00    -0.108 C  
ENDROOT
BRANCH   2   3
HETATM    3  C   UNL     1      -7.255  12.683  68.715  1.00  0.00    -0.083 C  
HETATM    4  N   UNL     1      -8.534  13.143  68.336  1.00  0.00    -0.156 N  
HETATM    5  O   UNL     1      -6.834  11.557  68.432  1.00  0.00    -0.063 OA 
BRANCH   4   6
HETATM    6  C   UNL     1      -9.293  12.185  67.554  1.00  0.00    -0.181 A  
HETATM    7  C   UNL     1     -10.146  11.248  68.146  1.00  0.00    -0.195 A  
HETATM    8  C   UNL     1     -10.803  10.282  67.372  1.00  0.00    -0.336 A  
HETATM    9  C   UNL     1      -9.175  12.181  66.156  1.00  0.00    -0.155 A  
HETATM   10  C   UNL     1     -10.621  10.243  65.993  1.00  0.00    -0.111 A  
HETATM   11  C   UNL     1      -9.810  11.198  65.384  1.00  0.00    -0.289 A  
ENDBRANCH   4   6
BRANCH   4  12
HETATM   12  C   UNL     1      -9.044  14.609  68.364  1.00  0.00    -0.192 C  
HETATM   13  C   UNL     1      -8.588  15.470  67.133  1.00  0.00    -0.240 C  
HETATM   14  N   UNL     1      -6.598  16.430  68.302  1.00  0.00    -0.128 NA 
HETATM   15  C   UNL     1      -7.084  15.746  67.099  1.00  0.00    -0.190 C  
HETATM   16  C   UNL     1      -8.506  15.409  69.592  1.00  0.00    -0.124 C  
HETATM   17  C   UNL     1      -6.998  15.669  69.493  1.00  0.00    -0.193 C  
BRANCH  12  18
HETATM   18  C   UNL     1     -10.614  14.653  68.377  1.00  0.00    -0.241 C  
BRANCH  18  19
HETATM   19  O   UNL     1     -11.151  15.533  67.393  1.00  0.00    -0.318 OA 
HETATM   20  C   UNL     1     -11.921  14.840  66.419  1.00  0.00    -0.168 C  
ENDBRANCH  18  19
ENDBRANCH  12  18
BRANCH  14  21
HETATM   21  C   UNL     1      -6.997  17.848  68.347  1.00  0.00    -0.234 C  
BRANCH  21  22
HETATM   22  C   UNL     1      -7.346  18.435  66.967  1.00  0.00    -0.223 C  
BRANCH  22  23
HETATM   23  C   UNL     1      -8.680  19.115  66.991  1.00  0.00    -0.294 A  
HETATM   24  C   UNL     1      -9.288  19.831  65.983  1.00  0.00    -0.367 A  
HETATM   25  C   UNL     1     -10.557  20.333  66.386  1.00  0.00    -0.230 A  
HETATM   26  C   UNL     1     -10.874  19.984  67.678  1.00  0.00    -0.071 A  
HETATM   27  S   UNL     1      -9.644  19.056  68.408  1.00  0.00    -0.397 SA 
ENDBRANCH  22  23
ENDBRANCH  21  22
ENDBRANCH  14  21
ENDBRANCH   4  12
ENDBRANCH   2   3
TORSDOF 8
ENDMDL
MODEL      207
REMARK 921   NORMALIZED FREE ENERGY PREDICTED BY IDOCK:   -1.00 KCAL/MOL
REMARK 922        TOTAL FREE ENERGY PREDICTED BY IDOCK:   -1.97 KCAL/MOL
REMARK 923 INTER-LIGAND FREE ENERGY PREDICTED BY IDOCK:   -3.05 KCAL/MOL
REMARK 924 INTRA-LIGAND FREE ENERGY PREDICTED BY IDOCK:    1.08 KCAL/MOL
REMARK 927      BINDING AFFINITY PREDICTED BY RF-SCORE:    0.00 PKD
ROOT
HETATM    1  C   UNL     1      -5.126   1.716  67.691  1.00  0.00    -0.004 C  
HETATM    2  C   UNL     1      -5.780   3.059  67.416  1.00  0.00    -0.022 C  
ENDROOT
BRANCH   2   3
HETATM    3  C   UNL     1      -6.621   3.109  66.151  1.00  0.00    -0.036 C  
HETATM    4  N   UNL     1      -7.916   3.661  66.233  1.00  0.00    -0.089 N  
HETATM    5  O   UNL     1      -6.168   2.608  65.116  1.00  0.00    -0.019 OA 
BRANCH   4   6
HETATM    6  C   UNL     1      -8.653   3.618  64.983  1.00  0.00    -0.109 A  
HETATM    7  C   UNL     1      -8.318   4.428  63.893  1.00  0.00    -0.108 A  
HETATM    8  C   UNL     1      -9.098   4.426  62.729  1.00  0.00    -0.124 A  
HETATM    9  C   UNL     1      -9.744   2.747  64.850  1.00  0.00     0.012 A  
HETATM   10  C   UNL     1     -10.221   3.609  62.636  1.00  0.00    -0.170 A  
HETATM   11  C   UNL     1     -10.541   2.764  63.696  1.00  0.00    -0.183 A  
ENDBRANCH   4   6
BRANCH   4  12
HETATM   12  C   UNL     1      -8.472   4.573  67.359  1.00  0.00    -0.104 C  
HETATM   13  C   UNL     1      -9.868   5.215  67.034  1.00  0.00    -0.197 C  
HETATM   14  N   UNL     1      -8.898   7.346  66.161  1.00  0.00    -0.161 NA 
HETATM   15  C   UNL     1      -9.825   6.241  65.901  1.00  0.00     0.297 C  
HETATM   16  C   UNL     1      -7.557   5.808  67.638  1.00  0.00    -0.089 C  
HETATM   17  C   UNL     1      -7.568   6.807  66.475  1.00  0.00    -0.089 C  
BRANCH  12  18
HETATM   18  C   UNL     1      -8.656   3.766  68.693  1.00  0.00    -0.094 C  
BRANCH  18  19
HETATM   19  O   UNL     1      -9.666   2.765  68.599  1.00  0.00    -0.085 OA 
HETATM   20  C   UNL     1      -9.164   1.547  68.064  1.00  0.00    -0.168 C  
ENDBRANCH  18  19
ENDBRANCH  12  18
BRANCH  14  21
HETATM   21  C   UNL     1      -9.407   8.285  67.176  1.00  0.00    -0.151 C  
BRANCH  21  22
HETATM   22  C   UNL     1      -9.042   9.754  66.898  1.00  0.00    -0.162 C  
BRANCH  22  23
HETATM   23  C   UNL     1      -9.024  10.038  65.429  1.00  0.00    -0.180 A  
HETATM   24  C   UNL     1      -8.143   9.564  64.481  1.00  0.00    -0.142 A  
HETATM   25  C   UNL     1      -8.447  10.062  63.183  1.00  0.00    -0.181 A  
HETATM   26  C   UNL     1      -9.545  10.892  63.183  1.00  0.00    -0.357 A  
HETATM   27  S   UNL     1     -10.206  11.074  64.744  1.00  0.00    -0.333 SA 
ENDBRANCH  22  23
ENDBRANCH  21  22
ENDBRANCH  14  21
ENDBRANCH   4  12
ENDBRANCH   2   3
TORSDOF 8
ENDMDL
MODEL      208
REMARK 921   NORMALIZED FREE ENERGY PREDICTED BY IDOCK:   -0.92 KCAL/MOL
REMARK 922        TOTAL FREE ENERGY PREDICTED BY IDOCK:   -1.86 KCAL/MOL
REMARK 923 INTER-LIGAND FREE ENERGY PREDICTED BY IDOCK:   -2.29 KCAL/MOL
REMARK 924 INTRA-LIGAND FREE ENERGY PREDICTED BY IDOCK:    0.43 KCAL/MOL
REMARK 927      BINDING AFFINITY PREDICTED BY RF-SCORE:    0.00 PKD
ROOT
HETATM    1  C   UNL     1      -8.093   8.598  73.810  1.00  0.00     0.084 C  
HETATM    2  C   UNL     1      -7.566   7.199  73.545  1.00  0.00    -0.102 C  
ENDROOT
BRANCH   2   3
HETATM    3  C   UNL     1      -8.271   6.454  72.424  1.00  0.00    -0.106 C  
HETATM    4  N   UNL     1      -7.768   6.591  71.114  1.00  0.00    -0.096 N  
HETATM    5  O   UNL     1      -9.293   5.812  72.688  1.00  0.00    -0.141 OA 
BRANCH   4   6
HETATM    6  C   UNL     1      -8.539   5.880  70.111  1.00  0.00    -0.134 A  
HETATM    7  C   UNL     1      -8.179   4.606  69.658  1.00  0.00    -0.072 A  
HETATM    8  C   UNL     1      -8.894   3.979  68.629  1.00  0.00    -0.146 A  
HETATM    9  C   UNL     1      -9.683   6.478  69.561  1.00  0.00    -0.161 A  
HETATM   10  C   UNL     1      -9.985   4.615  68.043  1.00  0.00    -0.129 A  
HETATM   11  C   UNL     1     -10.383   5.864  68.514  1.00  0.00    -0.268 A  
ENDBRANCH   4   6
BRANCH   4  12
HETATM   12  C   UNL     1      -6.359   7.099  70.703  1.00  0.00    -0.039 C  
HETATM   13  C   UNL     1      -6.088   8.601  71.071  1.00  0.00    -0.040 C  
HETATM   14  N   UNL     1      -6.755   9.469  68.824  1.00  0.00    -0.052 NA 
HETATM   15  C   UNL     1      -6.936   9.594  70.274  1.00  0.00    -0.119 C  
HETATM   16  C   UNL     1      -6.130   7.052  69.160  1.00  0.00    -0.026 C  
HETATM   17  C   UNL     1      -6.995   8.078  68.417  1.00  0.00    -0.072 C  
BRANCH  12  18
HETATM   18  C   UNL     1      -5.235   6.261  71.410  1.00  0.00    -0.021 C  
BRANCH  18  19
HETATM   19  O   UNL     1      -5.688   4.983  71.844  1.00  0.00    -0.011 OA 
HETATM   20  C   UNL     1      -5.372   4.737  73.209  1.00  0.00    -0.009 C  
ENDBRANCH  18  19
ENDBRANCH  12  18
BRANCH  14  21
HETATM   21  C   UNL     1      -5.458  10.001  68.368  1.00  0.00    -0.039 C  
BRANCH  21  22
HETATM   22  C   UNL     1      -5.580  11.059  67.256  1.00  0.00    -0.048 C  
BRANCH  22  23
HETATM   23  C   UNL     1      -6.151  12.337  67.787  1.00  0.00    -0.102 A  
HETATM   24  C   UNL     1      -7.340  12.945  67.444  1.00  0.00    -0.132 A  
HETATM   25  C   UNL     1      -7.538  14.157  68.163  1.00  0.00    -0.136 A  
HETATM   26  C   UNL     1      -6.502  14.430  69.028  1.00  0.00    -0.098 A  
HETATM   27  S   UNL     1      -5.291  13.231  68.970  1.00  0.00    -0.070 SA 
ENDBRANCH  22  23
ENDBRANCH  21  22
ENDBRANCH  14  21
ENDBRANCH   4  12
ENDBRANCH   2   3
TORSDOF 8
ENDMDL
MODEL      209
REMARK 921   NORMALIZED FREE ENERGY PREDICTED BY IDOCK:   -0.77 KCAL/MOL
REMARK 922        TOTAL FREE ENERGY PREDICTED BY IDOCK:   -1.63 KCAL/MOL
REMARK 923 INTER-LIGAND FREE ENERGY PREDICTED BY IDOCK:   -4.05 KCAL/MOL
REMARK 924 INTRA-LIGAND FREE ENERGY PREDICTED BY IDOCK:    2.42 KCAL/MOL
REMARK 927      BINDING AFFINITY PREDICTED BY RF-SCORE:    0.00 PKD
ROOT
HETATM    1  C   UNL     1     -12.308   9.506  70.223  1.00  0.00     0.172 C  
HETATM    2  C   UNL     1     -11.600   8.176  70.034  1.00  0.00     0.184 C  
ENDROOT
BRANCH   2   3
HETATM    3  C   UNL     1     -10.105   8.206  70.305  1.00  0.00    -0.192 C  
HETATM    4  N   UNL     1      -9.245   7.611  69.360  1.00  0.00    -0.149 N  
HETATM    5  O   UNL     1      -9.705   8.690  71.369  1.00  0.00    -0.196 OA 
BRANCH   4   6
HETATM    6  C   UNL     1      -7.843   7.650  69.735  1.00  0.00    -0.110 A  
HETATM    7  C   UNL     1      -6.887   6.823  69.136  1.00  0.00    -0.065 A  
HETATM    8  C   UNL     1      -5.557   6.824  69.576  1.00  0.00    -0.015 A  
HETATM    9  C   UNL     1      -7.416   8.538  70.735  1.00  0.00    -0.072 A  
HETATM   10  C   UNL     1      -5.162   7.657  70.618  1.00  0.00    -0.023 A  
HETATM   11  C   UNL     1      -6.092   8.520  71.194  1.00  0.00    -0.039 A  
ENDBRANCH   4   6
BRANCH   4  12
HETATM   12  C   UNL     1      -9.580   7.255  67.886  1.00  0.00    -0.139 C  
HETATM   13  C   UNL     1      -8.381   7.450  66.891  1.00  0.00    -0.122 C  
HETATM   14  N   UNL     1      -9.076   9.752  66.207  1.00  0.00    -0.152 NA 
HETATM   15  C   UNL     1      -7.976   8.912  66.694  1.00  0.00    -0.103 C  
HETATM   16  C   UNL     1     -10.702   8.162  67.291  1.00  0.00    -0.263 C  
HETATM   17  C   UNL     1     -10.233   9.610  67.101  1.00  0.00    -0.243 C  
BRANCH  12  18
HETATM   18  C   UNL     1     -10.020   5.753  67.760  1.00  0.00    -0.140 C  
BRANCH  18  19
HETATM   19  O   UNL     1      -8.950   4.842  67.994  1.00  0.00    -0.106 OA 
HETATM   20  C   UNL     1      -8.340   4.410  66.784  1.00  0.00    -0.105 C  
ENDBRANCH  18  19
ENDBRANCH  12  18
BRANCH  14  21
HETATM   21  C   UNL     1      -9.392   9.504  64.789  1.00  0.00    -0.169 C  
BRANCH  21  22
HETATM   22  C   UNL     1      -9.286  10.759  63.904  1.00  0.00    -0.284 C  
BRANCH  22  23
HETATM   23  C   UNL     1     -10.470  11.655  64.093  1.00  0.00    -0.351 A  
HETATM   24  C   UNL     1     -11.721  11.543  63.525  1.00  0.00    -0.248 A  
HETATM   25  C   UNL     1     -12.586  12.593  63.944  1.00  0.00    -0.432 A  
HETATM   26  C   UNL     1     -11.971  13.464  64.813  1.00  0.00    -0.390 A  
HETATM   27  S   UNL     1     -10.354  13.021  65.122  1.00  0.00    -0.292 SA 
ENDBRANCH  22  23
ENDBRANCH  21  22
ENDBRANCH  14  21
ENDBRANCH   4  12
ENDBRANCH   2   3
TORSDOF 8
ENDMDL
MODEL      210
REMARK 921   NORMALIZED FREE ENERGY PREDICTED BY IDOCK:   -0.73 KCAL/MOL
REMARK 922        TOTAL FREE ENERGY PREDICTED BY IDOCK:   -1.57 KCAL/MOL
REMARK 923 INTER-LIGAND FREE ENERGY PREDICTED BY IDOCK:   -4.50 KCAL/MOL
REMARK 924 INTRA-LIGAND FREE ENERGY PREDICTED BY IDOCK:    2.93 KCAL/MOL
REMARK 927      BINDING AFFINITY PREDICTED BY RF-SCORE:    0.00 PKD
ROOT
HETATM    1  C   UNL     1     -12.522  10.614  69.187  1.00  0.00     0.300 C  
HETATM    2  C   UNL     1     -11.196  10.827  68.478  1.00  0.00    -0.340 C  
ENDROOT
BRANCH   2   3
HETATM    3  C   UNL     1     -10.865  12.277  68.168  1.00  0.00    -0.227 C  
HETATM    4  N   UNL     1      -9.515  12.681  68.229  1.00  0.00    -0.216 N  
HETATM    5  O   UNL     1     -11.792  13.062  67.940  1.00  0.00    -0.344 OA 
BRANCH   4   6
HETATM    6  C   UNL     1      -9.312  14.093  67.965  1.00  0.00    -0.203 A  
HETATM    7  C   UNL     1      -9.165  14.595  66.667  1.00  0.00    -0.291 A  
HETATM    8  C   UNL     1      -8.886  15.950  66.447  1.00  0.00    -0.368 A  
HETATM    9  C   UNL     1      -9.251  14.998  69.035  1.00  0.00    -0.205 A  
HETATM   10  C   UNL     1      -8.756  16.825  67.521  1.00  0.00    -0.206 A  
HETATM   11  C   UNL     1      -8.945  16.349  68.817  1.00  0.00    -0.245 A  
ENDBRANCH   4   6
BRANCH   4  12
HETATM   12  C   UNL     1      -8.265  11.761  68.202  1.00  0.00    -0.153 C  
HETATM   13  C   UNL     1      -7.802  11.352  66.759  1.00  0.00    -0.157 C  
HETATM   14  N   UNL     1      -9.054   9.188  66.765  1.00  0.00    -0.140 NA 
HETATM   15  C   UNL     1      -8.786  10.431  66.034  1.00  0.00    -0.152 C  
HETATM   16  C   UNL     1      -8.511  10.392  68.910  1.00  0.00    -0.144 C  
HETATM   17  C   UNL     1      -9.492   9.507  68.130  1.00  0.00    -0.133 C  
BRANCH  12  18
HETATM   18  C   UNL     1      -7.036  12.468  68.876  1.00  0.00    -0.088 C  
BRANCH  18  19
HETATM   19  O   UNL     1      -5.952  12.673  67.975  1.00  0.00    -0.073 OA 
HETATM   20  C   UNL     1      -5.352  13.951  68.140  1.00  0.00    -0.119 C  
ENDBRANCH  18  19
ENDBRANCH  12  18
BRANCH  14  21
HETATM   21  C   UNL     1      -7.922   8.246  66.714  1.00  0.00    -0.099 C  
BRANCH  21  22
HETATM   22  C   UNL     1      -7.879   7.267  67.901  1.00  0.00    -0.118 C  
BRANCH  22  23
HETATM   23  C   UNL     1      -8.563   5.979  67.564  1.00  0.00    -0.106 A  
HETATM   24  C   UNL     1      -8.937   4.966  68.420  1.00  0.00    -0.129 A  
HETATM   25  C   UNL     1      -9.562   3.893  67.724  1.00  0.00    -0.199 A  
HETATM   26  C   UNL     1      -9.646   4.124  66.370  1.00  0.00    -0.202 A  
HETATM   27  S   UNL     1      -8.969   5.627  65.936  1.00  0.00    -0.141 SA 
ENDBRANCH  22  23
ENDBRANCH  21  22
ENDBRANCH  14  21
ENDBRANCH   4  12
ENDBRANCH   2   3
TORSDOF 8
ENDMDL
MODEL      211
REMARK 921   NORMALIZED FREE ENERGY PREDICTED BY IDOCK:   -0.34 KCAL/MOL
REMARK 922        TOTAL FREE ENERGY PREDICTED BY IDOCK:   -1.00 KCAL/MOL
REMARK 923 INTER-LIGAND FREE ENERGY PREDICTED BY IDOCK:   -2.45 KCAL/MOL
REMARK 924 INTRA-LIGAND FREE ENERGY PREDICTED BY IDOCK:    1.46 KCAL/MOL
REMARK 927      BINDING AFFINITY PREDICTED BY RF-SCORE:    0.00 PKD
ROOT
HETATM    1  C   UNL     1     -10.613   6.740  67.520  1.00  0.00    -0.348 C  
HETATM    2  C   UNL     1     -10.807   5.455  66.733  1.00  0.00    -0.190 C  
ENDROOT
BRANCH   2   3
HETATM    3  C   UNL     1      -9.573   4.972  65.988  1.00  0.00    -0.168 C  
HETATM    4  N   UNL     1      -8.375   4.815  66.715  1.00  0.00    -0.107 N  
HETATM    5  O   UNL     1      -9.647   4.799  64.767  1.00  0.00    -0.098 OA 
BRANCH   4   6
HETATM    6  C   UNL     1      -7.247   4.397  65.904  1.00  0.00    -0.075 A  
HETATM    7  C   UNL     1      -6.201   5.267  65.576  1.00  0.00    -0.034 A  
HETATM    8  C   UNL     1      -5.167   4.861  64.723  1.00  0.00    -0.013 A  
HETATM    9  C   UNL     1      -7.189   3.082  65.419  1.00  0.00    -0.066 A  
HETATM   10  C   UNL     1      -5.160   3.575  64.190  1.00  0.00    -0.008 A  
HETATM   11  C   UNL     1      -6.170   2.683  64.543  1.00  0.00    -0.019 A  
ENDBRANCH   4   6
BRANCH   4  12
HETATM   12  C   UNL     1      -8.227   4.706  68.257  1.00  0.00    -0.090 C  
HETATM   13  C   UNL     1      -6.989   3.860  68.723  1.00  0.00    -0.047 C  
HETATM   14  N   UNL     1      -8.291   1.740  68.971  1.00  0.00    -0.048 NA 
HETATM   15  C   UNL     1      -7.100   2.371  68.391  1.00  0.00    -0.047 C  
HETATM   16  C   UNL     1      -9.438   3.983  68.926  1.00  0.00    -0.237 C  
HETATM   17  C   UNL     1      -9.487   2.492  68.571  1.00  0.00    -0.142 C  
BRANCH  12  18
HETATM   18  C   UNL     1      -8.061   6.126  68.905  1.00  0.00    -0.108 C  
BRANCH  18  19
HETATM   19  O   UNL     1      -7.854   6.071  70.313  1.00  0.00    -0.097 OA 
HETATM   20  C   UNL     1      -8.454   7.170  70.986  1.00  0.00    -0.129 C  
ENDBRANCH  18  19
ENDBRANCH  12  18
BRANCH  14  21
HETATM   21  C   UNL     1      -8.176   1.548  70.428  1.00  0.00    -0.041 C  
BRANCH  21  22
HETATM   22  C   UNL     1      -6.884   2.134  71.028  1.00  0.00    -0.032 C  
BRANCH  22  23
HETATM   23  C   UNL     1      -7.187   3.037  72.183  1.00  0.00    -0.043 A  
HETATM   24  C   UNL     1      -6.297   3.701  72.999  1.00  0.00    -0.016 A  
HETATM   25  C   UNL     1      -6.966   4.465  73.996  1.00  0.00    -0.066 A  
HETATM   26  C   UNL     1      -8.336   4.361  73.906  1.00  0.00    -0.100 A  
HETATM   27  S   UNL     1      -8.815   3.342  72.626  1.00  0.00    -0.085 SA 
ENDBRANCH  22  23
ENDBRANCH  21  22
ENDBRANCH  14  21
ENDBRANCH   4  12
ENDBRANCH   2   3
TORSDOF 8
ENDMDL
MODEL      212
REMARK 921   NORMALIZED FREE ENERGY PREDICTED BY IDOCK:    0.62 KCAL/MOL
REMARK 922        TOTAL FREE ENERGY PREDICTED BY IDOCK:    0.41 KCAL/MOL
REMARK 923 INTER-LIGAND FREE ENERGY PREDICTED BY IDOCK:   -3.25 KCAL/MOL
REMARK 924 INTRA-LIGAND FREE ENERGY PREDICTED BY IDOCK:    3.66 KCAL/MOL
REMARK 927      BINDING AFFINITY PREDICTED BY RF-SCORE:    0.00 PKD
ROOT
HETATM    1  C   UNL     1      -7.099   8.280  70.765  1.00  0.00    -0.044 C  
HETATM    2  C   UNL     1      -8.047   9.467  70.760  1.00  0.00    -0.157 C  
ENDROOT
BRANCH   2   3
HETATM    3  C   UNL     1      -8.805   9.670  69.458  1.00  0.00    -0.190 C  
HETATM    4  N   UNL     1      -8.312  10.622  68.542  1.00  0.00    -0.123 N  
HETATM    5  O   UNL     1      -9.856   9.046  69.280  1.00  0.00    -0.171 OA 
BRANCH   4   6
HETATM    6  C   UNL     1      -9.133  10.774  67.355  1.00  0.00    -0.143 A  
HETATM    7  C   UNL     1     -10.220  11.653  67.308  1.00  0.00    -0.226 A  
HETATM    8  C   UNL     1     -11.045  11.718  66.178  1.00  0.00    -0.358 A  
HETATM    9  C   UNL     1      -8.844  10.018  66.209  1.00  0.00    -0.160 A  
HETATM   10  C   UNL     1     -10.790  10.910  65.074  1.00  0.00    -0.142 A  
HETATM   11  C   UNL     1      -9.684  10.063  65.088  1.00  0.00    -0.380 A  
ENDBRANCH   4   6
BRANCH   4  12
HETATM   12  C   UNL     1      -6.883  11.229  68.505  1.00  0.00    -0.071 C  
HETATM   13  C   UNL     1      -6.533  12.119  69.750  1.00  0.00    -0.050 C  
HETATM   14  N   UNL     1      -7.177  14.263  68.638  1.00  0.00    -0.117 NA 
HETATM   15  C   UNL     1      -7.339  13.417  69.826  1.00  0.00     0.684 C  
HETATM   16  C   UNL     1      -6.672  12.193  67.295  1.00  0.00    -0.144 C  
HETATM   17  C   UNL     1      -7.491  13.482  67.434  1.00  0.00    -0.122 C  
BRANCH  12  18
HETATM   18  C   UNL     1      -5.796  10.098  68.451  1.00  0.00    -0.041 C  
BRANCH  18  19
HETATM   19  O   UNL     1      -5.141  10.020  67.188  1.00  0.00    -0.040 OA 
HETATM   20  C   UNL     1      -5.662  10.958  66.256  1.00  0.00    -0.128 C  
ENDBRANCH  18  19
ENDBRANCH  12  18
BRANCH  14  21
HETATM   21  C   UNL     1      -5.860  14.921  68.587  1.00  0.00    -0.090 C  
BRANCH  21  22
HETATM   22  C   UNL     1      -5.872  16.369  69.111  1.00  0.00    -0.142 C  
BRANCH  22  23
HETATM   23  C   UNL     1      -5.955  17.350  67.984  1.00  0.00    -0.146 A  
HETATM   24  C   UNL     1      -5.404  18.612  67.912  1.00  0.00    -0.170 A  
HETATM   25  C   UNL     1      -5.706  19.248  66.676  1.00  0.00    -0.167 A  
HETATM   26  C   UNL     1      -6.469  18.455  65.849  1.00  0.00    -0.255 A  
HETATM   27  S   UNL     1      -6.826  16.949  66.563  1.00  0.00    -0.153 SA 
ENDBRANCH  22  23
ENDBRANCH  21  22
ENDBRANCH  14  21
ENDBRANCH   4  12
ENDBRANCH   2   3
TORSDOF 8
ENDMDL
MODEL      213
REMARK 921   NORMALIZED FREE ENERGY PREDICTED BY IDOCK:    0.84 KCAL/MOL
REMARK 922        TOTAL FREE ENERGY PREDICTED BY IDOCK:    0.73 KCAL/MOL
REMARK 923 INTER-LIGAND FREE ENERGY PREDICTED BY IDOCK:   -3.94 KCAL/MOL
REMARK 924 INTRA-LIGAND FREE ENERGY PREDICTED BY IDOCK:    4.66 KCAL/MOL
REMARK 927      BINDING AFFINITY PREDICTED BY RF-SCORE:    0.00 PKD
ROOT
HETATM    1  C   UNL     1     -12.091  11.372  68.098  1.00  0.00    -0.030 C  
HETATM    2  C   UNL     1     -11.187  11.675  66.917  1.00  0.00    -0.376 C  
ENDROOT
BRANCH   2   3
HETATM    3  C   UNL     1     -10.998  13.155  66.623  1.00  0.00    -0.283 C  
HETATM    4  N   UNL     1      -9.976  13.844  67.307  1.00  0.00    -0.240 N  
HETATM    5  O   UNL     1     -11.784  13.711  65.850  1.00  0.00    -0.329 OA 
BRANCH   4   6
HETATM    6  C   UNL     1      -9.910  15.259  66.992  1.00  0.00    -0.229 A  
HETATM    7  C   UNL     1      -9.004  15.774  66.058  1.00  0.00    -0.322 A  
HETATM    8  C   UNL     1      -8.905  17.153  65.836  1.00  0.00    -0.008 A  
HETATM    9  C   UNL     1     -10.771  16.157  67.641  1.00  0.00    -0.318 A  
HETATM   10  C   UNL     1      -9.716  18.039  66.539  1.00  0.00    -0.338 A  
HETATM   11  C   UNL     1     -10.654  17.539  67.439  1.00  0.00    -0.311 A  
ENDBRANCH   4   6
BRANCH   4  12
HETATM   12  C   UNL     1      -8.762  13.219  68.047  1.00  0.00    -0.186 C  
HETATM   13  C   UNL     1      -7.582  12.800  67.100  1.00  0.00    -0.050 C  
HETATM   14  N   UNL     1      -8.334  10.424  66.901  1.00  0.00    -0.123 NA 
HETATM   15  C   UNL     1      -7.920  11.629  66.175  1.00  0.00     0.173 C  
HETATM   16  C   UNL     1      -9.128  11.894  68.787  1.00  0.00     0.042 C  
HETATM   17  C   UNL     1      -9.441  10.755  67.809  1.00  0.00    -0.155 C  
BRANCH  12  18
HETATM   18  C   UNL     1      -8.158  14.232  69.084  1.00  0.00     0.074 C  
BRANCH  18  19
HETATM   19  O   UNL     1      -6.757  14.423  68.919  1.00  0.00    -0.087 OA 
HETATM   20  C   UNL     1      -6.434  15.772  68.606  1.00  0.00    -0.111 C  
ENDBRANCH  18  19
ENDBRANCH  12  18
BRANCH  14  21
HETATM   21  C   UNL     1      -7.206   9.750  67.568  1.00  0.00    -0.089 C  
BRANCH  21  22
HETATM   22  C   UNL     1      -7.526   9.280  68.999  1.00  0.00    -0.073 C  
BRANCH  22  23
HETATM   23  C   UNL     1      -7.855   7.819  69.026  1.00  0.00    -0.118 A  
HETATM   24  C   UNL     1      -8.597   7.132  69.962  1.00  0.00    -0.141 A  
HETATM   25  C   UNL     1      -8.686   5.746  69.649  1.00  0.00    -0.122 A  
HETATM   26  C   UNL     1      -8.015   5.426  68.491  1.00  0.00    -0.091 A  
HETATM   27  S   UNL     1      -7.275   6.790  67.784  1.00  0.00    -0.093 SA 
ENDBRANCH  22  23
ENDBRANCH  21  22
ENDBRANCH  14  21
ENDBRANCH   4  12
ENDBRANCH   2   3
TORSDOF 8
ENDMDL
MODEL      214
REMARK 921   NORMALIZED FREE ENERGY PREDICTED BY IDOCK:    1.74 KCAL/MOL
REMARK 922        TOTAL FREE ENERGY PREDICTED BY IDOCK:    2.06 KCAL/MOL
REMARK 923 INTER-LIGAND FREE ENERGY PREDICTED BY IDOCK:    0.43 KCAL/MOL
REMARK 924 INTRA-LIGAND FREE ENERGY PREDICTED BY IDOCK:    1.63 KCAL/MOL
REMARK 927      BINDING AFFINITY PREDICTED BY RF-SCORE:    0.00 PKD
ROOT
HETATM    1  C   UNL     1      -8.127   9.429  73.827  1.00  0.00     2.210 C  
HETATM    2  C   UNL     1      -8.491   7.994  74.167  1.00  0.00    -0.293 C  
ENDROOT
BRANCH   2   3
HETATM    3  C   UNL     1      -9.188   7.233  73.051  1.00  0.00    -0.150 C  
HETATM    4  N   UNL     1      -8.524   7.110  71.813  1.00  0.00    -0.113 N  
HETATM    5  O   UNL     1     -10.331   6.808  73.245  1.00  0.00    -0.218 OA 
BRANCH   4   6
HETATM    6  C   UNL     1      -9.292   6.408  70.801  1.00  0.00    -0.158 A  
HETATM    7  C   UNL     1      -9.871   7.069  69.713  1.00  0.00    -0.171 A  
HETATM    8  C   UNL     1     -10.677   6.379  68.798  1.00  0.00    -0.339 A  
HETATM    9  C   UNL     1      -9.475   5.021  70.907  1.00  0.00    -0.222 A  
HETATM   10  C   UNL     1     -10.910   5.016  68.954  1.00  0.00     0.533 A  
HETATM   11  C   UNL     1     -10.303   4.336  70.007  1.00  0.00     0.371 A  
ENDBRANCH   4   6
BRANCH   4  12
HETATM   12  C   UNL     1      -7.010   7.322  71.541  1.00  0.00    -0.059 C  
HETATM   13  C   UNL     1      -6.580   8.829  71.445  1.00  0.00    -0.078 C  
HETATM   14  N   UNL     1      -6.760   8.918  68.953  1.00  0.00    -0.052 NA 
HETATM   15  C   UNL     1      -7.142   9.552  70.219  1.00  0.00    -0.110 C  
HETATM   16  C   UNL     1      -6.556   6.723  70.172  1.00  0.00    -0.044 C  
HETATM   17  C   UNL     1      -7.137   7.498  68.983  1.00  0.00    -0.079 C  
BRANCH  12  18
HETATM   18  C   UNL     1      -6.142   6.687  72.686  1.00  0.00    -0.046 C  
BRANCH  18  19
HETATM   19  O   UNL     1      -6.359   5.287  72.833  1.00  0.00    -0.044 OA 
HETATM   20  C   UNL     1      -5.177   4.601  73.226  1.00  0.00    -0.008 C  
ENDBRANCH  18  19
ENDBRANCH  12  18
BRANCH  14  21
HETATM   21  C   UNL     1      -5.345   9.145  68.610  1.00  0.00    -0.034 C  
BRANCH  21  22
HETATM   22  C   UNL     1      -5.134   9.686  67.184  1.00  0.00    -0.035 C  
BRANCH  22  23
HETATM   23  C   UNL     1      -6.442   9.884  66.483  1.00  0.00    -0.071 A  
HETATM   24  C   UNL     1      -7.157   8.967  65.742  1.00  0.00    -0.085 A  
HETATM   25  C   UNL     1      -8.357   9.530  65.224  1.00  0.00    -0.144 A  
HETATM   26  C   UNL     1      -8.518  10.848  65.587  1.00  0.00    -0.139 A  
HETATM   27  S   UNL     1      -7.224  11.407  66.546  1.00  0.00     0.003 SA 
ENDBRANCH  22  23
ENDBRANCH  21  22
ENDBRANCH  14  21
ENDBRANCH   4  12
ENDBRANCH   2   3
TORSDOF 8
ENDMDL
MODEL      215
REMARK 921   NORMALIZED FREE ENERGY PREDICTED BY IDOCK:    2.83 KCAL/MOL
REMARK 922        TOTAL FREE ENERGY PREDICTED BY IDOCK:    3.65 KCAL/MOL
REMARK 923 INTER-LIGAND FREE ENERGY PREDICTED BY IDOCK:   -2.53 KCAL/MOL
REMARK 924 INTRA-LIGAND FREE ENERGY PREDICTED BY IDOCK:    6.18 KCAL/MOL
REMARK 927      BINDING AFFINITY PREDICTED BY RF-SCORE:    0.00 PKD
ROOT
HETATM    1  C   UNL     1     -10.729   4.874  73.578  1.00  0.00    -0.341 C  
HETATM    2  C   UNL     1     -11.571   5.131  72.340  1.00  0.00    -0.008 C  
ENDROOT
BRANCH   2   3
HETATM    3  C   UNL     1     -11.855   6.598  72.057  1.00  0.00    -0.324 C  
HETATM    4  N   UNL     1     -11.224   7.196  70.947  1.00  0.00    -0.266 N  
HETATM    5  O   UNL     1     -12.571   7.226  72.843  1.00  0.00     0.452 OA 
BRANCH   4   6
HETATM    6  C   UNL     1     -11.522   8.607  70.792  1.00  0.00    -0.259 A  
HETATM    7  C   UNL     1     -12.793   9.133  71.047  1.00  0.00    -0.158 A  
HETATM    8  C   UNL     1     -13.074  10.485  70.808  1.00  0.00    -0.335 A  
HETATM    9  C   UNL     1     -10.516   9.487  70.366  1.00  0.00    -0.336 A  
HETATM   10  C   UNL     1     -12.086  11.333  70.317  1.00  0.00    -0.459 A  
HETATM   11  C   UNL     1     -10.803  10.834  70.102  1.00  0.00    -0.148 A  
ENDBRANCH   4   6
BRANCH   4  12
HETATM   12  C   UNL     1     -10.567   6.468  69.742  1.00  0.00    -0.235 C  
HETATM   13  C   UNL     1     -10.890   4.933  69.668  1.00  0.00     0.699 C  
HETATM   14  N   UNL     1      -8.809   4.243  70.868  1.00  0.00    -0.094 NA 
HETATM   15  C   UNL     1     -10.269   4.117  70.802  1.00  0.00     0.109 C  
HETATM   16  C   UNL     1      -9.008   6.512  69.792  1.00  0.00    -0.142 C  
HETATM   17  C   UNL     1      -8.443   5.664  70.938  1.00  0.00    -0.125 C  
BRANCH  12  18
HETATM   18  C   UNL     1     -11.051   7.088  68.383  1.00  0.00     0.001 C  
BRANCH  18  19
HETATM   19  O   UNL     1     -11.345   6.102  67.399  1.00  0.00    -0.190 OA 
HETATM   20  C   UNL     1     -10.167   5.530  66.845  1.00  0.00    -0.233 C  
ENDBRANCH  18  19
ENDBRANCH  12  18
BRANCH  14  21
HETATM   21  C   UNL     1      -8.129   3.512  69.784  1.00  0.00    -0.052 C  
BRANCH  21  22
HETATM   22  C   UNL     1      -6.619   3.801  69.697  1.00  0.00    -0.033 C  
BRANCH  22  23
HETATM   23  C   UNL     1      -6.065   4.186  71.033  1.00  0.00    -0.014 A  
HETATM   24  C   UNL     1      -5.628   5.426  71.447  1.00  0.00    -0.009 A  
HETATM   25  C   UNL     1      -5.162   5.398  72.792  1.00  0.00    -0.017 A  
HETATM   26  C   UNL     1      -5.262   4.146  73.356  1.00  0.00    -0.003 A  
HETATM   27  S   UNL     1      -5.910   3.006  72.266  1.00  0.00    -0.009 SA 
ENDBRANCH  22  23
ENDBRANCH  21  22
ENDBRANCH  14  21
ENDBRANCH   4  12
ENDBRANCH   2   3
TORSDOF 8
ENDMDL
MODEL      216
REMARK 921   NORMALIZED FREE ENERGY PREDICTED BY IDOCK:    3.64 KCAL/MOL
REMARK 922        TOTAL FREE ENERGY PREDICTED BY IDOCK:    4.83 KCAL/MOL
REMARK 923 INTER-LIGAND FREE ENERGY PREDICTED BY IDOCK:   -2.00 KCAL/MOL
REMARK 924 INTRA-LIGAND FREE ENERGY PREDICTED BY IDOCK:    6.83 KCAL/MOL
REMARK 927      BINDING AFFINITY PREDICTED BY RF-SCORE:    0.00 PKD
ROOT
HETATM    1  C   UNL     1     -11.517  12.435  64.125  1.00  0.00    -0.448 C  
HETATM    2  C   UNL     1     -11.274  12.742  65.593  1.00  0.00    -0.335 C  
ENDROOT
BRANCH   2   3
HETATM    3  C   UNL     1      -9.896  13.301  65.907  1.00  0.00    -0.231 C  
HETATM    4  N   UNL     1      -9.338  13.026  67.172  1.00  0.00    -0.222 N  
HETATM    5  O   UNL     1      -9.346  14.028  65.073  1.00  0.00     0.425 OA 
BRANCH   4   6
HETATM    6  C   UNL     1      -8.043  13.643  67.390  1.00  0.00    -0.175 A  
HETATM    7  C   UNL     1      -6.959  12.935  67.917  1.00  0.00    -0.122 A  
HETATM    8  C   UNL     1      -5.745  13.578  68.195  1.00  0.00    -0.114 A  
HETATM    9  C   UNL     1      -7.858  14.998  67.074  1.00  0.00    -0.164 A  
HETATM   10  C   UNL     1      -5.597  14.939  67.943  1.00  0.00    -0.127 A  
HETATM   11  C   UNL     1      -6.653  15.648  67.376  1.00  0.00    -0.194 A  
ENDBRANCH   4   6
BRANCH   4  12
HETATM   12  C   UNL     1      -9.773  11.910  68.161  1.00  0.00    -0.194 C  
HETATM   13  C   UNL     1     -11.053  11.120  67.713  1.00  0.00    -0.344 C  
HETATM   14  N   UNL     1     -12.626  12.534  69.045  1.00  0.00     0.482 NA 
HETATM   15  C   UNL     1     -12.332  11.958  67.728  1.00  0.00     0.803 C  
HETATM   16  C   UNL     1     -10.162  12.471  69.565  1.00  0.00     0.780 C  
HETATM   17  C   UNL     1     -11.458  13.288  69.521  1.00  0.00    -0.234 C  
BRANCH  12  18
HETATM   18  C   UNL     1      -8.634  10.844  68.337  1.00  0.00    -0.146 C  
BRANCH  18  19
HETATM   19  O   UNL     1      -8.438  10.046  67.173  1.00  0.00    -0.124 OA 
HETATM   20  C   UNL     1      -9.634   9.898  66.418  1.00  0.00    -0.200 C  
ENDBRANCH  18  19
ENDBRANCH  12  18
BRANCH  14  21
HETATM   21  C   UNL     1     -13.109  11.528  70.007  1.00  0.00     0.640 C  
BRANCH  21  22
HETATM   22  C   UNL     1     -12.854  11.907  71.478  1.00  0.00    -0.421 C  
BRANCH  22  23
HETATM   23  C   UNL     1     -13.140  13.356  71.719  1.00  0.00    -0.388 A  
HETATM   24  C   UNL     1     -14.345  14.016  71.608  1.00  0.00    -0.266 A  
HETATM   25  C   UNL     1     -14.218  15.399  71.916  1.00  0.00    -0.640 A  
HETATM   26  C   UNL     1     -12.930  15.747  72.252  1.00  0.00    -0.447 A  
HETATM   27  S   UNL     1     -11.873  14.410  72.193  1.00  0.00     0.404 SA 
ENDBRANCH  22  23
ENDBRANCH  21  22
ENDBRANCH  14  21
ENDBRANCH   4  12
ENDBRANCH   2   3
TORSDOF 8
ENDMDL
MODEL      217
REMARK 921   NORMALIZED FREE ENERGY PREDICTED BY IDOCK:    3.67 KCAL/MOL
REMARK 922        TOTAL FREE ENERGY PREDICTED BY IDOCK:    4.89 KCAL/MOL
REMARK 923 INTER-LIGAND FREE ENERGY PREDICTED BY IDOCK:    0.12 KCAL/MOL
REMARK 924 INTRA-LIGAND FREE ENERGY PREDICTED BY IDOCK:    4.77 KCAL/MOL
REMARK 927      BINDING AFFINITY PREDICTED BY RF-SCORE:    0.00 PKD
ROOT
HETATM    1  C   UNL     1     -10.877  10.461  66.679  1.00  0.00    -0.140 C  
HETATM    2  C   UNL     1     -11.023  11.970  66.604  1.00  0.00    -0.330 C  
ENDROOT
BRANCH   2   3
HETATM    3  C   UNL     1     -11.430  12.636  67.909  1.00  0.00    -0.309 C  
HETATM    4  N   UNL     1     -10.952  12.085  69.115  1.00  0.00    -0.210 N  
HETATM    5  O   UNL     1     -12.214  13.590  67.869  1.00  0.00    -0.305 OA 
BRANCH   4   6
HETATM    6  C   UNL     1     -11.437  12.764  70.303  1.00  0.00     0.212 A  
HETATM    7  C   UNL     1     -11.047  14.068  70.628  1.00  0.00     0.535 A  
HETATM    8  C   UNL     1     -11.465  14.667  71.824  1.00  0.00     0.041 A  
HETATM    9  C   UNL     1     -12.321  12.103  71.169  1.00  0.00    -0.265 A  
HETATM   10  C   UNL     1     -12.284  13.973  72.710  1.00  0.00     0.220 A  
HETATM   11  C   UNL     1     -12.717  12.691  72.378  1.00  0.00     0.257 A  
ENDBRANCH   4   6
BRANCH   4  12
HETATM   12  C   UNL     1      -9.755  11.112  69.287  1.00  0.00     0.057 C  
HETATM   13  C   UNL     1      -9.896   9.773  68.480  1.00  0.00    -0.169 C  
HETATM   14  N   UNL     1     -10.859   8.494  70.399  1.00  0.00    -0.232 NA 
HETATM   15  C   UNL     1     -11.015   8.862  68.988  1.00  0.00     0.054 C  
HETATM   16  C   UNL     1      -9.578  10.633  70.763  1.00  0.00     2.229 C  
HETATM   17  C   UNL     1     -10.719   9.711  71.210  1.00  0.00    -0.247 C  
BRANCH  12  18
HETATM   18  C   UNL     1      -8.418  11.780  68.806  1.00  0.00     0.007 C  
BRANCH  18  19
HETATM   19  O   UNL     1      -7.260  11.067  69.230  1.00  0.00    -0.111 OA 
HETATM   20  C   UNL     1      -6.880  10.060  68.302  1.00  0.00    -0.063 C  
ENDBRANCH  18  19
ENDBRANCH  12  18
BRANCH  14  21
HETATM   21  C   UNL     1      -9.777   7.516  70.613  1.00  0.00    -0.175 C  
BRANCH  21  22
HETATM   22  C   UNL     1     -10.129   6.093  70.142  1.00  0.00    -0.233 C  
BRANCH  22  23
HETATM   23  C   UNL     1      -9.558   5.817  68.786  1.00  0.00    -0.127 A  
HETATM   24  C   UNL     1     -10.227   5.721  67.585  1.00  0.00    -0.236 A  
HETATM   25  C   UNL     1      -9.340   5.442  66.508  1.00  0.00    -0.150 A  
HETATM   26  C   UNL     1      -8.031   5.337  66.920  1.00  0.00    -0.101 A  
HETATM   27  S   UNL     1      -7.872   5.570  68.602  1.00  0.00    -0.092 SA 
ENDBRANCH  22  23
ENDBRANCH  21  22
ENDBRANCH  14  21
ENDBRANCH   4  12
ENDBRANCH   2   3
TORSDOF 8
ENDMDL
MODEL      218
REMARK 921   NORMALIZED FREE ENERGY PREDICTED BY IDOCK:    7.21 KCAL/MOL
REMARK 922        TOTAL FREE ENERGY PREDICTED BY IDOCK:   10.08 KCAL/MOL
REMARK 923 INTER-LIGAND FREE ENERGY PREDICTED BY IDOCK:    0.28 KCAL/MOL
REMARK 924 INTRA-LIGAND FREE ENERGY PREDICTED BY IDOCK:    9.80 KCAL/MOL
REMARK 927      BINDING AFFINITY PREDICTED BY RF-SCORE:    0.00 PKD
ROOT
HETATM    1  C   UNL     1     -11.035  11.717  67.175  1.00  0.00    -0.330 C  
HETATM    2  C   UNL     1     -11.710  12.433  66.019  1.00  0.00    -0.469 C  
ENDROOT
BRANCH   2   3
HETATM    3  C   UNL     1     -11.716  13.949  66.126  1.00  0.00    -0.376 C  
HETATM    4  N   UNL     1     -10.522  14.596  66.507  1.00  0.00    -0.284 N  
HETATM    5  O   UNL     1     -12.778  14.553  65.941  1.00  0.00    -0.280 OA 
BRANCH   4   6
HETATM    6  C   UNL     1     -10.647  16.037  66.626  1.00  0.00    -0.297 A  
HETATM    7  C   UNL     1     -10.874  16.666  67.855  1.00  0.00    -0.321 A  
HETATM    8  C   UNL     1     -11.073  18.051  67.928  1.00  0.00     0.098 A  
HETATM    9  C   UNL     1     -10.545  16.840  65.481  1.00  0.00    -0.243 A  
HETATM   10  C   UNL     1     -11.041  18.828  66.774  1.00  0.00     0.111 A  
HETATM   11  C   UNL     1     -10.771  18.222  65.550  1.00  0.00     0.058 A  
ENDBRANCH   4   6
BRANCH   4  12
HETATM   12  C   UNL     1      -9.088  14.003  66.469  1.00  0.00    -0.150 C  
HETATM   13  C   UNL     1      -8.741  13.083  67.692  1.00  0.00    -0.189 C  
HETATM   14  N   UNL     1      -7.656  14.913  69.005  1.00  0.00    -0.141 NA 
HETATM   15  C   UNL     1      -8.650  13.834  69.022  1.00  0.00     0.265 C  
HETATM   16  C   UNL     1      -7.982  15.105  66.514  1.00  0.00     0.263 C  
HETATM   17  C   UNL     1      -7.928  15.811  67.874  1.00  0.00    -0.138 C  
BRANCH  12  18
HETATM   18  C   UNL     1      -8.879  13.126  65.183  1.00  0.00     1.800 C  
BRANCH  18  19
HETATM   19  O   UNL     1      -8.471  11.795  65.482  1.00  0.00     0.230 OA 
HETATM   20  C   UNL     1      -7.882  11.692  66.772  1.00  0.00    -0.130 C  
ENDBRANCH  18  19
ENDBRANCH  12  18
BRANCH  14  21
HETATM   21  C   UNL     1      -6.272  14.407  69.037  1.00  0.00    -0.094 C  
BRANCH  21  22
HETATM   22  C   UNL     1      -5.985  13.467  70.222  1.00  0.00    -0.146 C  
BRANCH  22  23
HETATM   23  C   UNL     1      -6.488  12.084  69.948  1.00  0.00    -0.029 A  
HETATM   24  C   UNL     1      -7.795  11.658  69.850  1.00  0.00     1.324 A  
HETATM   25  C   UNL     1      -7.876  10.263  69.584  1.00  0.00    -0.168 A  
HETATM   26  C   UNL     1      -6.636   9.674  69.485  1.00  0.00    -0.049 A  
HETATM   27  S   UNL     1      -5.376  10.800  69.717  1.00  0.00    -0.042 SA 
ENDBRANCH  22  23
ENDBRANCH  21  22
ENDBRANCH  14  21
ENDBRANCH   4  12
ENDBRANCH   2   3
TORSDOF 8
ENDMDL
MODEL      219
REMARK 921   NORMALIZED FREE ENERGY PREDICTED BY IDOCK:    8.52 KCAL/MOL
REMARK 922        TOTAL FREE ENERGY PREDICTED BY IDOCK:   12.00 KCAL/MOL
REMARK 923 INTER-LIGAND FREE ENERGY PREDICTED BY IDOCK:    5.34 KCAL/MOL
REMARK 924 INTRA-LIGAND FREE ENERGY PREDICTED BY IDOCK:    6.66 KCAL/MOL
REMARK 927      BINDING AFFINITY PREDICTED BY RF-SCORE:    0.00 PKD
ROOT
HETATM    1  C   UNL     1      -6.508  19.190  64.910  1.00  0.00    -0.169 C  
HETATM    2  C   UNL     1      -7.459  20.288  65.352  1.00  0.00    -0.060 C  
ENDROOT
BRANCH   2   3
HETATM    3  C   UNL     1      -8.366  19.914  66.513  1.00  0.00    -0.336 C  
HETATM    4  N   UNL     1      -8.021  18.792  67.294  1.00  0.00    -0.238 N  
HETATM    5  O   UNL     1      -9.402  20.563  66.690  1.00  0.00    -0.289 OA 
BRANCH   4   6
HETATM    6  C   UNL     1      -8.975  18.491  68.345  1.00  0.00    -0.322 A  
HETATM    7  C   UNL     1      -9.498  17.208  68.533  1.00  0.00    -0.282 A  
HETATM    8  C   UNL     1     -10.481  16.965  69.502  1.00  0.00    -0.228 A  
HETATM    9  C   UNL     1      -9.403  19.512  69.207  1.00  0.00    -0.148 A  
HETATM   10  C   UNL     1     -10.949  18.002  70.303  1.00  0.00     2.130 A  
HETATM   11  C   UNL     1     -10.405  19.276  70.159  1.00  0.00     1.041 A  
ENDBRANCH   4   6
BRANCH   4  12
HETATM   12  C   UNL     1      -6.633  18.099  67.369  1.00  0.00    -0.185 C  
HETATM   13  C   UNL     1      -6.233  17.322  66.065  1.00  0.00    -0.004 C  
HETATM   14  N   UNL     1      -7.074  15.118  66.891  1.00  0.00    -0.063 NA 
HETATM   15  C   UNL     1      -7.096  16.089  65.792  1.00  0.00     2.957 C  
HETATM   16  C   UNL     1      -6.568  17.005  68.482  1.00  0.00    -0.168 C  
HETATM   17  C   UNL     1      -7.440  15.789  68.146  1.00  0.00    -0.124 C  
BRANCH  12  18
HETATM   18  C   UNL     1      -5.496  19.151  67.624  1.00  0.00    -0.175 C  
BRANCH  18  19
HETATM   19  O   UNL     1      -5.855  20.130  68.594  1.00  0.00    -0.235 OA 
HETATM   20  C   UNL     1      -5.214  21.377  68.360  1.00  0.00    -0.076 C  
ENDBRANCH  18  19
ENDBRANCH  12  18
BRANCH  14  21
HETATM   21  C   UNL     1      -5.801  14.380  66.967  1.00  0.00     1.266 C  
BRANCH  21  22
HETATM   22  C   UNL     1      -5.828  13.201  67.958  1.00  0.00    -0.116 C  
BRANCH  22  23
HETATM   23  C   UNL     1      -7.232  12.763  68.236  1.00  0.00    -0.114 A  
HETATM   24  C   UNL     1      -7.888  12.727  69.448  1.00  0.00     0.734 A  
HETATM   25  C   UNL     1      -9.219  12.243  69.313  1.00  0.00     0.835 A  
HETATM   26  C   UNL     1      -9.534  11.930  68.010  1.00  0.00    -0.197 A  
HETATM   27  S   UNL     1      -8.227  12.215  66.952  1.00  0.00    -0.086 SA 
ENDBRANCH  22  23
ENDBRANCH  21  22
ENDBRANCH  14  21
ENDBRANCH   4  12
ENDBRANCH   2   3
TORSDOF 8
ENDMDL
