MODEL        1
REMARK 921   NORMALIZED FREE ENERGY PREDICTED BY IDOCK:   -6.75 KCAL/MOL
REMARK 922        TOTAL FREE ENERGY PREDICTED BY IDOCK:  -10.04 KCAL/MOL
REMARK 923 INTER-LIGAND FREE ENERGY PREDICTED BY IDOCK:   -9.12 KCAL/MOL
REMARK 924 INTRA-LIGAND FREE ENERGY PREDICTED BY IDOCK:   -0.92 KCAL/MOL
REMARK 927      BINDING AFFINITY PREDICTED BY RF-SCORE:    0.00 PKD
ROOT
HETATM    1 CL   UNL     1     -10.636   7.448  73.617  1.00  0.00    -0.390 Cl 
HETATM    2  C   UNL     1     -10.471   8.453  72.231  1.00  0.00    -0.337 A  
HETATM    3  C   UNL     1     -11.567   9.171  71.762  1.00  0.00    -0.457 A  
HETATM    4  C   UNL     1     -11.433   9.985  70.629  1.00  0.00    -0.425 A  
HETATM    5  C   UNL     1     -10.204  10.076  69.951  1.00  0.00    -0.304 A  
HETATM    6  C   UNL     1      -9.106   9.360  70.455  1.00  0.00    -0.308 A  
HETATM    7  C   UNL     1      -9.240   8.549  71.587  1.00  0.00    -0.304 A  
ENDROOT
BRANCH   5   8
HETATM    8  C   UNL     1     -10.050  10.990  68.748  1.00  0.00    -0.203 C  
BRANCH   8   9
HETATM    9  S   UNL     1     -11.660  11.738  68.361  1.00  0.00    -0.324 SA 
BRANCH   9  10
HETATM   10  C   UNL     1     -11.374  13.599  68.406  1.00  0.00    -0.295 C  
BRANCH  10  11
HETATM   11  C   UNL     1     -11.687  14.181  69.816  1.00  0.00    -0.370 A  
HETATM   12  C   UNL     1     -12.376  15.246  72.367  1.00  0.00    -0.373 A  
HETATM   13  C   UNL     1     -11.207  15.437  70.251  1.00  0.00    -0.309 A  
HETATM   14  C   UNL     1     -12.498  13.479  70.740  1.00  0.00    -0.428 A  
HETATM   15  C   UNL     1     -11.572  15.974  71.498  1.00  0.00    -0.529 A  
HETATM   16 CL   UNL     1     -12.804  15.890  73.903  1.00  0.00    -0.674 Cl 
HETATM   17 CL   UNL     1     -10.117  16.399  69.313  1.00  0.00    -0.269 Cl 
HETATM   18  C   UNL     1     -12.826  13.991  71.999  1.00  0.00    -0.415 A  
ENDBRANCH  10  11
BRANCH  10  19
HETATM   19  C   UNL     1     -12.105  14.337  67.252  1.00  0.00    -0.355 C  
BRANCH  19  20
HETATM   20  N   UNL     1     -11.913  13.753  65.941  1.00  0.00    -0.383 NA 
HETATM   21  C   UNL     1     -10.722  13.560  65.304  1.00  0.00    -0.323 A  
HETATM   22  N   UNL     1     -12.415  12.874  63.975  1.00  0.00    -0.638 NA 
HETATM   23  C   UNL     1     -11.059  13.075  64.067  1.00  0.00    -0.395 A  
HETATM   24  C   UNL     1     -12.898  13.266  65.132  1.00  0.00    -0.310 A  
ENDBRANCH  19  20
ENDBRANCH  10  19
ENDBRANCH   9  10
ENDBRANCH   8   9
ENDBRANCH   5   8
TORSDOF 6
ENDMDL
MODEL        2
REMARK 921   NORMALIZED FREE ENERGY PREDICTED BY IDOCK:   -6.70 KCAL/MOL
REMARK 922        TOTAL FREE ENERGY PREDICTED BY IDOCK:   -9.98 KCAL/MOL
REMARK 923 INTER-LIGAND FREE ENERGY PREDICTED BY IDOCK:   -8.95 KCAL/MOL
REMARK 924 INTRA-LIGAND FREE ENERGY PREDICTED BY IDOCK:   -1.03 KCAL/MOL
REMARK 927      BINDING AFFINITY PREDICTED BY RF-SCORE:    0.00 PKD
ROOT
HETATM    1 CL   UNL     1     -12.649  16.029  74.399  1.00  0.00    -0.679 Cl 
HETATM    2  C   UNL     1     -12.438  15.201  72.906  1.00  0.00    -0.405 A  
HETATM    3  C   UNL     1     -11.612  15.743  71.925  1.00  0.00    -0.545 A  
HETATM    4  C   UNL     1     -11.446  15.071  70.707  1.00  0.00    -0.335 A  
HETATM    5  C   UNL     1     -12.115  13.860  70.457  1.00  0.00    -0.426 A  
HETATM    6  C   UNL     1     -12.926  13.321  71.469  1.00  0.00    -0.426 A  
HETATM    7  C   UNL     1     -13.090  13.991  72.686  1.00  0.00    -0.553 A  
ENDROOT
BRANCH   5   8
HETATM    8  C   UNL     1     -11.902  13.113  69.151  1.00  0.00    -0.314 C  
BRANCH   8   9
HETATM    9  S   UNL     1     -10.208  13.412  68.567  1.00  0.00    -0.189 SA 
BRANCH   9  10
HETATM   10  C   UNL     1     -10.381  14.576  67.097  1.00  0.00    -0.265 C  
BRANCH  10  11
HETATM   11  C   UNL     1      -9.721  15.955  67.393  1.00  0.00    -0.227 A  
HETATM   12  C   UNL     1      -8.565  18.521  67.833  1.00  0.00    -0.287 A  
HETATM   13  C   UNL     1      -8.321  16.138  67.457  1.00  0.00    -0.159 A  
HETATM   14  C   UNL     1     -10.503  17.119  67.594  1.00  0.00    -0.355 A  
HETATM   15  C   UNL     1      -7.751  17.410  67.645  1.00  0.00    -0.203 A  
HETATM   16 CL   UNL     1      -7.870  20.074  68.088  1.00  0.00    -0.304 Cl 
HETATM   17 CL   UNL     1      -7.200  14.826  67.343  1.00  0.00    -0.224 Cl 
HETATM   18  C   UNL     1      -9.939  18.377  67.826  1.00  0.00    -0.365 A  
ENDBRANCH  10  11
BRANCH  10  19
HETATM   19  C   UNL     1     -11.846  14.681  66.596  1.00  0.00    -0.310 C  
BRANCH  19  20
HETATM   20  N   UNL     1     -12.118  13.974  65.362  1.00  0.00    -0.381 NA 
HETATM   21  C   UNL     1     -12.302  12.629  65.220  1.00  0.00    -0.466 A  
HETATM   22  N   UNL     1     -12.428  13.633  63.200  1.00  0.00    -0.714 NA 
HETATM   23  C   UNL     1     -12.430  12.433  63.869  1.00  0.00    -0.476 A  
HETATM   24  C   UNL     1     -12.268  14.544  64.132  1.00  0.00    -0.342 A  
ENDBRANCH  19  20
ENDBRANCH  10  19
ENDBRANCH   9  10
ENDBRANCH   8   9
ENDBRANCH   5   8
TORSDOF 6
ENDMDL
MODEL        3
REMARK 921   NORMALIZED FREE ENERGY PREDICTED BY IDOCK:   -6.61 KCAL/MOL
REMARK 922        TOTAL FREE ENERGY PREDICTED BY IDOCK:   -9.85 KCAL/MOL
REMARK 923 INTER-LIGAND FREE ENERGY PREDICTED BY IDOCK:   -8.74 KCAL/MOL
REMARK 924 INTRA-LIGAND FREE ENERGY PREDICTED BY IDOCK:   -1.11 KCAL/MOL
REMARK 927      BINDING AFFINITY PREDICTED BY RF-SCORE:    0.00 PKD
ROOT
HETATM    1 CL   UNL     1     -12.692  16.239  73.988  1.00  0.00    -0.614 Cl 
HETATM    2  C   UNL     1     -12.420  15.392  72.515  1.00  0.00    -0.377 A  
HETATM    3  C   UNL     1     -12.943  14.113  72.345  1.00  0.00    -0.478 A  
HETATM    4  C   UNL     1     -12.716  13.423  71.147  1.00  0.00    -0.411 A  
HETATM    5  C   UNL     1     -11.953  14.002  70.118  1.00  0.00    -0.399 A  
HETATM    6  C   UNL     1     -11.454  15.302  70.302  1.00  0.00    -0.326 A  
HETATM    7  C   UNL     1     -11.683  15.991  71.497  1.00  0.00    -0.554 A  
ENDROOT
BRANCH   5   8
HETATM    8  C   UNL     1     -11.742  13.268  68.804  1.00  0.00    -0.329 C  
BRANCH   8   9
HETATM    9  S   UNL     1     -12.029  14.419  67.428  1.00  0.00    -0.309 SA 
BRANCH   9  10
HETATM   10  C   UNL     1     -10.340  14.693  66.640  1.00  0.00    -0.273 C  
BRANCH  10  11
HETATM   11  C   UNL     1      -9.612  15.910  67.282  1.00  0.00    -0.220 A  
HETATM   12  C   UNL     1      -8.245  18.172  68.346  1.00  0.00    -0.303 A  
HETATM   13  C   UNL     1      -8.545  15.771  68.198  1.00  0.00    -0.164 A  
HETATM   14  C   UNL     1      -9.974  17.240  66.959  1.00  0.00    -0.289 A  
HETATM   15  C   UNL     1      -7.852  16.887  68.699  1.00  0.00    -0.244 A  
HETATM   16 CL   UNL     1      -7.415  19.540  68.977  1.00  0.00    -0.403 Cl 
HETATM   17 CL   UNL     1      -8.024  14.235  68.800  1.00  0.00    -0.138 Cl 
HETATM   18  C   UNL     1      -9.316  18.354  67.491  1.00  0.00    -0.270 A  
ENDBRANCH  10  11
BRANCH  10  19
HETATM   19  C   UNL     1     -10.415  14.757  65.091  1.00  0.00    -0.418 C  
BRANCH  19  20
HETATM   20  N   UNL     1     -11.010  13.597  64.464  1.00  0.00    -0.393 NA 
HETATM   21  C   UNL     1     -10.460  12.351  64.370  1.00  0.00    -0.344 A  
HETATM   22  N   UNL     1     -12.467  12.376  63.334  1.00  0.00    -0.692 NA 
HETATM   23  C   UNL     1     -11.348  11.631  63.614  1.00  0.00    -0.394 A  
HETATM   24  C   UNL     1     -12.245  13.548  63.885  1.00  0.00    -0.399 A  
ENDBRANCH  19  20
ENDBRANCH  10  19
ENDBRANCH   9  10
ENDBRANCH   8   9
ENDBRANCH   5   8
TORSDOF 6
ENDMDL
MODEL        4
REMARK 921   NORMALIZED FREE ENERGY PREDICTED BY IDOCK:   -6.55 KCAL/MOL
REMARK 922        TOTAL FREE ENERGY PREDICTED BY IDOCK:   -9.77 KCAL/MOL
REMARK 923 INTER-LIGAND FREE ENERGY PREDICTED BY IDOCK:   -8.77 KCAL/MOL
REMARK 924 INTRA-LIGAND FREE ENERGY PREDICTED BY IDOCK:   -1.00 KCAL/MOL
REMARK 927      BINDING AFFINITY PREDICTED BY RF-SCORE:    0.00 PKD
ROOT
HETATM    1 CL   UNL     1     -10.749  19.678  67.235  1.00  0.00    -0.597 Cl 
HETATM    2  C   UNL     1     -10.057  18.103  67.232  1.00  0.00    -0.347 A  
HETATM    3  C   UNL     1     -10.268  17.256  66.147  1.00  0.00    -0.338 A  
HETATM    4  C   UNL     1      -9.709  15.971  66.149  1.00  0.00    -0.353 A  
HETATM    5  C   UNL     1      -8.945  15.521  67.240  1.00  0.00    -0.216 A  
HETATM    6  C   UNL     1      -8.726  16.401  68.313  1.00  0.00    -0.201 A  
HETATM    7  C   UNL     1      -9.283  17.683  68.311  1.00  0.00    -0.283 A  
ENDROOT
BRANCH   5   8
HETATM    8  C   UNL     1      -8.306  14.143  67.221  1.00  0.00    -0.196 C  
BRANCH   8   9
HETATM    9  S   UNL     1      -9.358  12.988  68.149  1.00  0.00    -0.206 SA 
BRANCH   9  10
HETATM   10  C   UNL     1     -11.120  13.613  67.914  1.00  0.00    -0.261 C  
BRANCH  10  11
HETATM   11  C   UNL     1     -11.727  14.097  69.263  1.00  0.00    -0.368 A  
HETATM   12  C   UNL     1     -12.737  15.045  71.753  1.00  0.00    -0.339 A  
HETATM   13  C   UNL     1     -12.080  13.213  70.308  1.00  0.00    -0.328 A  
HETATM   14  C   UNL     1     -11.942  15.472  69.524  1.00  0.00    -0.372 A  
HETATM   15  C   UNL     1     -12.550  13.683  71.546  1.00  0.00    -0.385 A  
HETATM   16 CL   UNL     1     -13.337  15.622  73.258  1.00  0.00    -0.632 Cl 
HETATM   17 CL   UNL     1     -11.993  11.492  70.146  1.00  0.00    -0.430 Cl 
HETATM   18  C   UNL     1     -12.452  15.940  70.739  1.00  0.00    -0.311 A  
ENDBRANCH  10  11
BRANCH  10  19
HETATM   19  C   UNL     1     -12.012  12.591  67.160  1.00  0.00    -0.215 C  
BRANCH  19  20
HETATM   20  N   UNL     1     -12.126  12.821  65.735  1.00  0.00    -0.487 NA 
HETATM   21  C   UNL     1     -11.636  12.023  64.742  1.00  0.00    -0.281 A  
HETATM   22  N   UNL     1     -12.633  13.836  63.838  1.00  0.00    -0.697 NA 
HETATM   23  C   UNL     1     -11.906  12.700  63.581  1.00  0.00    -0.530 A  
HETATM   24  C   UNL     1     -12.774  13.865  65.144  1.00  0.00    -0.398 A  
ENDBRANCH  19  20
ENDBRANCH  10  19
ENDBRANCH   9  10
ENDBRANCH   8   9
ENDBRANCH   5   8
TORSDOF 6
ENDMDL
MODEL        5
REMARK 921   NORMALIZED FREE ENERGY PREDICTED BY IDOCK:   -6.52 KCAL/MOL
REMARK 922        TOTAL FREE ENERGY PREDICTED BY IDOCK:   -9.73 KCAL/MOL
REMARK 923 INTER-LIGAND FREE ENERGY PREDICTED BY IDOCK:   -8.75 KCAL/MOL
REMARK 924 INTRA-LIGAND FREE ENERGY PREDICTED BY IDOCK:   -0.97 KCAL/MOL
REMARK 927      BINDING AFFINITY PREDICTED BY RF-SCORE:    0.00 PKD
ROOT
HETATM    1 CL   UNL     1      -6.775  20.220  64.972  1.00  0.00    -0.339 Cl 
HETATM    2  C   UNL     1      -7.754  19.415  66.135  1.00  0.00    -0.303 A  
HETATM    3  C   UNL     1      -7.582  18.052  66.360  1.00  0.00    -0.297 A  
HETATM    4  C   UNL     1      -8.385  17.396  67.303  1.00  0.00    -0.221 A  
HETATM    5  C   UNL     1      -9.372  18.098  68.018  1.00  0.00    -0.289 A  
HETATM    6  C   UNL     1      -9.512  19.477  67.791  1.00  0.00    -0.423 A  
HETATM    7  C   UNL     1      -8.710  20.131  66.851  1.00  0.00    -0.412 A  
ENDROOT
BRANCH   5   8
HETATM    8  C   UNL     1     -10.213  17.394  69.069  1.00  0.00    -0.317 C  
BRANCH   8   9
HETATM    9  S   UNL     1      -9.646  15.675  69.230  1.00  0.00    -0.280 SA 
BRANCH   9  10
HETATM   10  C   UNL     1     -11.189  14.615  69.027  1.00  0.00    -0.269 C  
BRANCH  10  11
HETATM   11  C   UNL     1     -11.355  14.142  67.553  1.00  0.00    -0.343 A  
HETATM   12  C   UNL     1     -11.753  13.354  64.845  1.00  0.00    -0.351 A  
HETATM   13  C   UNL     1     -11.678  12.810  67.206  1.00  0.00    -0.378 A  
HETATM   14  C   UNL     1     -11.211  15.041  66.469  1.00  0.00    -0.312 A  
HETATM   15  C   UNL     1     -11.903  12.429  65.872  1.00  0.00    -0.467 A  
HETATM   16 CL   UNL     1     -12.002  12.884  63.209  1.00  0.00    -0.605 Cl 
HETATM   17 CL   UNL     1     -11.793  11.540  68.376  1.00  0.00    -0.379 Cl 
HETATM   18  C   UNL     1     -11.389  14.655  65.137  1.00  0.00    -0.375 A  
ENDBRANCH  10  11
BRANCH  10  19
HETATM   19  C   UNL     1     -12.455  15.298  69.609  1.00  0.00    -0.139 C  
BRANCH  19  20
HETATM   20  N   UNL     1     -12.926  14.740  70.859  1.00  0.00    -0.353 NA 
HETATM   21  C   UNL     1     -12.840  13.435  71.251  1.00  0.00    -0.323 A  
HETATM   22  N   UNL     1     -13.899  14.638  72.842  1.00  0.00    -0.524 NA 
HETATM   23  C   UNL     1     -13.502  13.384  72.449  1.00  0.00    -0.584 A  
HETATM   24  C   UNL     1     -13.511  15.438  71.875  1.00  0.00    -0.475 A  
ENDBRANCH  19  20
ENDBRANCH  10  19
ENDBRANCH   9  10
ENDBRANCH   8   9
ENDBRANCH   5   8
TORSDOF 6
ENDMDL
MODEL        6
REMARK 921   NORMALIZED FREE ENERGY PREDICTED BY IDOCK:   -6.51 KCAL/MOL
REMARK 922        TOTAL FREE ENERGY PREDICTED BY IDOCK:   -9.71 KCAL/MOL
REMARK 923 INTER-LIGAND FREE ENERGY PREDICTED BY IDOCK:   -8.81 KCAL/MOL
REMARK 924 INTRA-LIGAND FREE ENERGY PREDICTED BY IDOCK:   -0.90 KCAL/MOL
REMARK 927      BINDING AFFINITY PREDICTED BY RF-SCORE:    0.00 PKD
ROOT
HETATM    1 CL   UNL     1     -13.181   9.690  72.168  1.00  0.00    -0.525 Cl 
HETATM    2  C   UNL     1     -12.868  11.246  71.505  1.00  0.00    -0.414 A  
HETATM    3  C   UNL     1     -13.363  12.381  72.139  1.00  0.00    -0.508 A  
HETATM    4  C   UNL     1     -13.112  13.648  71.594  1.00  0.00    -0.455 A  
HETATM    5  C   UNL     1     -12.376  13.785  70.404  1.00  0.00    -0.423 A  
HETATM    6  C   UNL     1     -11.867  12.627  69.793  1.00  0.00    -0.379 A  
HETATM    7  C   UNL     1     -12.116  11.364  70.338  1.00  0.00    -0.473 A  
ENDROOT
BRANCH   5   8
HETATM    8  C   UNL     1     -12.070  15.161  69.838  1.00  0.00    -0.336 C  
BRANCH   8   9
HETATM    9  S   UNL     1     -10.346  15.199  69.266  1.00  0.00    -0.264 SA 
BRANCH   9  10
HETATM   10  C   UNL     1     -10.428  15.703  67.453  1.00  0.00    -0.291 C  
BRANCH  10  11
HETATM   11  C   UNL     1     -10.436  14.454  66.523  1.00  0.00    -0.289 A  
HETATM   12  C   UNL     1     -10.332  12.164  64.833  1.00  0.00    -0.289 A  
HETATM   13  C   UNL     1     -10.880  14.499  65.182  1.00  0.00    -0.395 A  
HETATM   14  C   UNL     1      -9.972  13.195  66.975  1.00  0.00    -0.244 A  
HETATM   15  C   UNL     1     -10.801  13.376  64.341  1.00  0.00    -0.422 A  
HETATM   16 CL   UNL     1     -10.257  10.782  63.812  1.00  0.00    -0.395 Cl 
HETATM   17 CL   UNL     1     -11.581  15.915  64.476  1.00  0.00    -0.324 Cl 
HETATM   18  C   UNL     1      -9.934  12.064  66.153  1.00  0.00    -0.254 A  
ENDBRANCH  10  11
BRANCH  10  19
HETATM   19  C   UNL     1      -9.342  16.748  67.082  1.00  0.00    -0.229 C  
BRANCH  19  20
HETATM   20  N   UNL     1      -9.762  18.128  67.204  1.00  0.00    -0.291 NA 
HETATM   21  C   UNL     1     -10.168  18.946  66.189  1.00  0.00    -0.433 A  
HETATM   22  N   UNL     1     -10.186  20.086  68.140  1.00  0.00    -0.421 NA 
HETATM   23  C   UNL     1     -10.365  20.167  66.780  1.00  0.00    -0.374 A  
HETATM   24  C   UNL     1      -9.851  18.836  68.366  1.00  0.00    -0.382 A  
ENDBRANCH  19  20
ENDBRANCH  10  19
ENDBRANCH   9  10
ENDBRANCH   8   9
ENDBRANCH   5   8
TORSDOF 6
ENDMDL
MODEL        7
REMARK 921   NORMALIZED FREE ENERGY PREDICTED BY IDOCK:   -6.45 KCAL/MOL
REMARK 922        TOTAL FREE ENERGY PREDICTED BY IDOCK:   -9.64 KCAL/MOL
REMARK 923 INTER-LIGAND FREE ENERGY PREDICTED BY IDOCK:   -9.17 KCAL/MOL
REMARK 924 INTRA-LIGAND FREE ENERGY PREDICTED BY IDOCK:   -0.46 KCAL/MOL
REMARK 927      BINDING AFFINITY PREDICTED BY RF-SCORE:    0.00 PKD
ROOT
HETATM    1 CL   UNL     1     -12.594  15.859  74.565  1.00  0.00    -0.691 Cl 
HETATM    2  C   UNL     1     -12.463  15.112  73.021  1.00  0.00    -0.421 A  
HETATM    3  C   UNL     1     -11.654  15.684  72.042  1.00  0.00    -0.540 A  
HETATM    4  C   UNL     1     -11.554  15.078  70.783  1.00  0.00    -0.364 A  
HETATM    5  C   UNL     1     -12.271  13.904  70.490  1.00  0.00    -0.443 A  
HETATM    6  C   UNL     1     -13.063  13.333  71.500  1.00  0.00    -0.414 A  
HETATM    7  C   UNL     1     -13.161  13.937  72.758  1.00  0.00    -0.543 A  
ENDROOT
BRANCH   5   8
HETATM    8  C   UNL     1     -12.128  13.227  69.138  1.00  0.00    -0.238 C  
BRANCH   8   9
HETATM    9  S   UNL     1     -10.420  13.426  68.552  1.00  0.00    -0.236 SA 
BRANCH   9  10
HETATM   10  C   UNL     1     -10.555  14.331  66.906  1.00  0.00    -0.273 C  
BRANCH  10  11
HETATM   11  C   UNL     1     -10.324  15.860  67.086  1.00  0.00    -0.300 A  
HETATM   12  C   UNL     1      -9.985  18.658  67.502  1.00  0.00    -0.338 A  
HETATM   13  C   UNL     1     -10.575  16.800  66.061  1.00  0.00    -0.228 A  
HETATM   14  C   UNL     1      -9.863  16.397  68.312  1.00  0.00    -0.229 A  
HETATM   15  C   UNL     1     -10.436  18.182  66.277  1.00  0.00    -0.374 A  
HETATM   16 CL   UNL     1      -9.789  20.347  67.761  1.00  0.00    -0.536 Cl 
HETATM   17 CL   UNL     1     -11.041  16.336  64.460  1.00  0.00    -0.348 Cl 
HETATM   18  C   UNL     1      -9.680  17.769  68.516  1.00  0.00    -0.343 A  
ENDBRANCH  10  11
BRANCH  10  19
HETATM   19  C   UNL     1     -11.864  13.984  66.147  1.00  0.00    -0.407 C  
BRANCH  19  20
HETATM   20  N   UNL     1     -11.693  13.091  65.020  1.00  0.00    -0.323 NA 
HETATM   21  C   UNL     1     -10.512  12.738  64.434  1.00  0.00    -0.386 A  
HETATM   22  N   UNL     1     -12.227  11.755  63.341  1.00  0.00    -0.457 NA 
HETATM   23  C   UNL     1     -10.870  11.963  63.362  1.00  0.00    -0.399 A  
HETATM   24  C   UNL     1     -12.692  12.425  64.371  1.00  0.00    -0.342 A  
ENDBRANCH  19  20
ENDBRANCH  10  19
ENDBRANCH   9  10
ENDBRANCH   8   9
ENDBRANCH   5   8
TORSDOF 6
ENDMDL
MODEL        8
REMARK 921   NORMALIZED FREE ENERGY PREDICTED BY IDOCK:   -6.34 KCAL/MOL
REMARK 922        TOTAL FREE ENERGY PREDICTED BY IDOCK:   -9.48 KCAL/MOL
REMARK 923 INTER-LIGAND FREE ENERGY PREDICTED BY IDOCK:   -8.62 KCAL/MOL
REMARK 924 INTRA-LIGAND FREE ENERGY PREDICTED BY IDOCK:   -0.86 KCAL/MOL
REMARK 927      BINDING AFFINITY PREDICTED BY RF-SCORE:    0.00 PKD
ROOT
HETATM    1 CL   UNL     1      -9.801  20.437  66.997  1.00  0.00    -0.601 Cl 
HETATM    2  C   UNL     1      -9.528  18.740  66.944  1.00  0.00    -0.310 A  
HETATM    3  C   UNL     1      -8.325  18.247  66.445  1.00  0.00    -0.267 A  
HETATM    4  C   UNL     1      -8.107  16.864  66.397  1.00  0.00    -0.350 A  
HETATM    5  C   UNL     1      -9.094  15.964  66.836  1.00  0.00    -0.255 A  
HETATM    6  C   UNL     1     -10.291  16.484  67.356  1.00  0.00    -0.290 A  
HETATM    7  C   UNL     1     -10.508  17.865  67.406  1.00  0.00    -0.390 A  
ENDROOT
BRANCH   5   8
HETATM    8  C   UNL     1      -8.839  14.467  66.821  1.00  0.00    -0.200 C  
BRANCH   8   9
HETATM    9  S   UNL     1      -9.435  13.748  68.379  1.00  0.00    -0.167 SA 
BRANCH   9  10
HETATM   10  C   UNL     1     -11.034  12.853  67.942  1.00  0.00    -0.241 C  
BRANCH  10  11
HETATM   11  C   UNL     1     -11.560  12.023  69.149  1.00  0.00    -0.370 A  
HETATM   12  C   UNL     1     -12.593  10.440  71.280  1.00  0.00    -0.419 A  
HETATM   13  C   UNL     1     -12.280  12.598  70.221  1.00  0.00    -0.271 A  
HETATM   14  C   UNL     1     -11.361  10.623  69.224  1.00  0.00    -0.346 A  
HETATM   15  C   UNL     1     -12.815  11.812  71.257  1.00  0.00    -0.409 A  
HETATM   16 CL   UNL     1     -13.224   9.479  72.560  1.00  0.00    -0.435 Cl 
HETATM   17 CL   UNL     1     -12.537  14.302  70.367  1.00  0.00    -0.409 Cl 
HETATM   18  C   UNL     1     -11.852   9.844  70.277  1.00  0.00    -0.255 A  
ENDBRANCH  10  11
BRANCH  10  19
HETATM   19  C   UNL     1     -10.913  12.035  66.628  1.00  0.00    -0.287 C  
BRANCH  19  20
HETATM   20  N   UNL     1     -11.560  12.632  65.480  1.00  0.00    -0.351 NA 
HETATM   21  C   UNL     1     -11.616  12.115  64.218  1.00  0.00    -0.370 A  
HETATM   22  N   UNL     1     -12.656  14.120  64.264  1.00  0.00    -0.683 NA 
HETATM   23  C   UNL     1     -12.242  13.078  63.470  1.00  0.00    -0.501 A  
HETATM   24  C   UNL     1     -12.255  13.807  65.475  1.00  0.00    -0.442 A  
ENDBRANCH  19  20
ENDBRANCH  10  19
ENDBRANCH   9  10
ENDBRANCH   8   9
ENDBRANCH   5   8
TORSDOF 6
ENDMDL
MODEL        9
REMARK 921   NORMALIZED FREE ENERGY PREDICTED BY IDOCK:   -6.33 KCAL/MOL
REMARK 922        TOTAL FREE ENERGY PREDICTED BY IDOCK:   -9.47 KCAL/MOL
REMARK 923 INTER-LIGAND FREE ENERGY PREDICTED BY IDOCK:   -8.78 KCAL/MOL
REMARK 924 INTRA-LIGAND FREE ENERGY PREDICTED BY IDOCK:   -0.69 KCAL/MOL
REMARK 927      BINDING AFFINITY PREDICTED BY RF-SCORE:    0.00 PKD
ROOT
HETATM    1 CL   UNL     1     -13.322   9.537  72.207  1.00  0.00    -0.529 Cl 
HETATM    2  C   UNL     1     -12.819  10.956  71.374  1.00  0.00    -0.449 A  
HETATM    3  C   UNL     1     -12.143  10.845  70.162  1.00  0.00    -0.431 A  
HETATM    4  C   UNL     1     -11.729  12.001  69.488  1.00  0.00    -0.408 A  
HETATM    5  C   UNL     1     -11.978  13.276  70.028  1.00  0.00    -0.399 A  
HETATM    6  C   UNL     1     -12.682  13.365  71.240  1.00  0.00    -0.424 A  
HETATM    7  C   UNL     1     -13.096  12.210  71.912  1.00  0.00    -0.475 A  
ENDROOT
BRANCH   5   8
HETATM    8  C   UNL     1     -11.564  14.529  69.275  1.00  0.00    -0.302 C  
BRANCH   8   9
HETATM    9  S   UNL     1     -11.838  14.271  67.498  1.00  0.00    -0.380 SA 
BRANCH   9  10
HETATM   10  C   UNL     1     -10.220  14.755  66.664  1.00  0.00    -0.269 C  
BRANCH  10  11
HETATM   11  C   UNL     1      -9.581  15.994  67.357  1.00  0.00    -0.225 A  
HETATM   12  C   UNL     1      -8.398  18.313  68.515  1.00  0.00    -0.310 A  
HETATM   13  C   UNL     1      -8.378  15.925  68.097  1.00  0.00    -0.162 A  
HETATM   14  C   UNL     1     -10.169  17.279  67.261  1.00  0.00    -0.320 A  
HETATM   15  C   UNL     1      -7.780  17.074  68.642  1.00  0.00    -0.251 A  
HETATM   16 CL   UNL     1      -7.681  19.716  69.204  1.00  0.00    -0.322 Cl 
HETATM   17 CL   UNL     1      -7.563  14.433  68.418  1.00  0.00    -0.113 Cl 
HETATM   18  C   UNL     1      -9.600  18.416  67.842  1.00  0.00    -0.309 A  
ENDBRANCH  10  11
BRANCH  10  19
HETATM   19  C   UNL     1     -10.371  14.910  65.127  1.00  0.00    -0.401 C  
BRANCH  19  20
HETATM   20  N   UNL     1     -11.004  13.790  64.464  1.00  0.00    -0.399 NA 
HETATM   21  C   UNL     1     -10.461  12.554  64.259  1.00  0.00    -0.378 A  
HETATM   22  N   UNL     1     -12.526  12.638  63.347  1.00  0.00    -0.713 NA 
HETATM   23  C   UNL     1     -11.393  11.880  63.513  1.00  0.00    -0.428 A  
HETATM   24  C   UNL     1     -12.270  13.774  63.957  1.00  0.00    -0.380 A  
ENDBRANCH  19  20
ENDBRANCH  10  19
ENDBRANCH   9  10
ENDBRANCH   8   9
ENDBRANCH   5   8
TORSDOF 6
ENDMDL
MODEL       10
REMARK 921   NORMALIZED FREE ENERGY PREDICTED BY IDOCK:   -6.29 KCAL/MOL
REMARK 922        TOTAL FREE ENERGY PREDICTED BY IDOCK:   -9.41 KCAL/MOL
REMARK 923 INTER-LIGAND FREE ENERGY PREDICTED BY IDOCK:   -8.95 KCAL/MOL
REMARK 924 INTRA-LIGAND FREE ENERGY PREDICTED BY IDOCK:   -0.46 KCAL/MOL
REMARK 927      BINDING AFFINITY PREDICTED BY RF-SCORE:    0.00 PKD
ROOT
HETATM    1 CL   UNL     1      -7.151  21.230  67.209  1.00  0.00    -0.351 Cl 
HETATM    2  C   UNL     1      -8.259  19.940  67.469  1.00  0.00    -0.322 A  
HETATM    3  C   UNL     1      -9.533  19.997  66.911  1.00  0.00    -0.529 A  
HETATM    4  C   UNL     1     -10.436  18.948  67.129  1.00  0.00    -0.509 A  
HETATM    5  C   UNL     1     -10.075  17.842  67.918  1.00  0.00    -0.342 A  
HETATM    6  C   UNL     1      -8.777  17.795  68.454  1.00  0.00    -0.292 A  
HETATM    7  C   UNL     1      -7.875  18.841  68.234  1.00  0.00    -0.333 A  
ENDROOT
BRANCH   5   8
HETATM    8  C   UNL     1     -11.041  16.687  68.120  1.00  0.00    -0.285 C  
BRANCH   8   9
HETATM    9  S   UNL     1     -10.098  15.188  68.526  1.00  0.00    -0.234 SA 
BRANCH   9  10
HETATM   10  C   UNL     1     -11.064  13.763  67.762  1.00  0.00    -0.268 C  
BRANCH  10  11
HETATM   11  C   UNL     1     -11.375  12.665  68.821  1.00  0.00    -0.333 A  
HETATM   12  C   UNL     1     -12.002  10.593  70.674  1.00  0.00    -0.367 A  
HETATM   13  C   UNL     1     -12.139  12.913  69.984  1.00  0.00    -0.286 A  
HETATM   14  C   UNL     1     -10.917  11.334  68.660  1.00  0.00    -0.266 A  
HETATM   15  C   UNL     1     -12.473  11.884  70.881  1.00  0.00    -0.397 A  
HETATM   16 CL   UNL     1     -12.388   9.338  71.784  1.00  0.00    -0.426 Cl 
HETATM   17 CL   UNL     1     -12.699  14.493  70.415  1.00  0.00    -0.403 Cl 
HETATM   18  C   UNL     1     -11.210  10.318  69.576  1.00  0.00    -0.314 A  
ENDBRANCH  10  11
BRANCH  10  19
HETATM   19  C   UNL     1     -10.391  13.215  66.476  1.00  0.00    -0.283 C  
BRANCH  19  20
HETATM   20  N   UNL     1     -11.229  13.238  65.296  1.00  0.00    -0.292 NA 
HETATM   21  C   UNL     1     -11.557  12.170  64.511  1.00  0.00    -0.336 A  
HETATM   22  N   UNL     1     -12.482  14.049  63.664  1.00  0.00    -0.809 NA 
HETATM   23  C   UNL     1     -12.279  12.703  63.475  1.00  0.00    -0.547 A  
HETATM   24  C   UNL     1     -11.860  14.334  64.786  1.00  0.00    -0.429 A  
ENDBRANCH  19  20
ENDBRANCH  10  19
ENDBRANCH   9  10
ENDBRANCH   8   9
ENDBRANCH   5   8
TORSDOF 6
ENDMDL
MODEL       11
REMARK 921   NORMALIZED FREE ENERGY PREDICTED BY IDOCK:   -6.28 KCAL/MOL
REMARK 922        TOTAL FREE ENERGY PREDICTED BY IDOCK:   -9.41 KCAL/MOL
REMARK 923 INTER-LIGAND FREE ENERGY PREDICTED BY IDOCK:   -8.63 KCAL/MOL
REMARK 924 INTRA-LIGAND FREE ENERGY PREDICTED BY IDOCK:   -0.78 KCAL/MOL
REMARK 927      BINDING AFFINITY PREDICTED BY RF-SCORE:    0.00 PKD
ROOT
HETATM    1 CL   UNL     1     -11.314  16.292  64.460  1.00  0.00    -0.371 Cl 
HETATM    2  C   UNL     1     -11.256  14.739  65.198  1.00  0.00    -0.382 A  
HETATM    3  C   UNL     1     -10.264  14.453  66.132  1.00  0.00    -0.317 A  
HETATM    4  C   UNL     1     -10.213  13.186  66.728  1.00  0.00    -0.252 A  
HETATM    5  C   UNL     1     -11.148  12.193  66.383  1.00  0.00    -0.358 A  
HETATM    6  C   UNL     1     -12.153  12.510  65.456  1.00  0.00    -0.481 A  
HETATM    7  C   UNL     1     -12.204  13.776  64.863  1.00  0.00    -0.443 A  
ENDROOT
BRANCH   5   8
HETATM    8  C   UNL     1     -11.116  10.833  67.061  1.00  0.00    -0.174 C  
BRANCH   8   9
HETATM    9  S   UNL     1     -10.150  10.956  68.594  1.00  0.00    -0.197 SA 
BRANCH   9  10
HETATM   10  C   UNL     1     -11.327  10.445  69.973  1.00  0.00    -0.313 C  
BRANCH  10  11
HETATM   11  C   UNL     1     -12.085  11.677  70.548  1.00  0.00    -0.458 A  
HETATM   12  C   UNL     1     -13.367  13.978  71.634  1.00  0.00    -0.367 A  
HETATM   13  C   UNL     1     -13.011  11.580  71.612  1.00  0.00    -0.394 A  
HETATM   14  C   UNL     1     -11.867  12.980  70.041  1.00  0.00    -0.355 A  
HETATM   15  C   UNL     1     -13.620  12.719  72.167  1.00  0.00    -0.547 A  
HETATM   16 CL   UNL     1     -14.131  15.371  72.293  1.00  0.00    -0.637 Cl 
HETATM   17 CL   UNL     1     -13.492  10.066  72.298  1.00  0.00    -0.450 Cl 
HETATM   18  C   UNL     1     -12.507  14.111  70.560  1.00  0.00    -0.431 A  
ENDBRANCH  10  11
BRANCH  10  19
HETATM   19  C   UNL     1     -10.627   9.582  71.057  1.00  0.00    -0.322 C  
BRANCH  19  20
HETATM   20  N   UNL     1     -10.847   8.158  70.935  1.00  0.00    -0.226 NA 
HETATM   21  C   UNL     1     -10.597   7.387  69.837  1.00  0.00    -0.236 A  
HETATM   22  N   UNL     1     -11.482   6.109  71.475  1.00  0.00    -0.287 NA 
HETATM   23  C   UNL     1     -11.054   6.139  70.170  1.00  0.00    -0.378 A  
HETATM   24  C   UNL     1     -11.317   7.335  71.917  1.00  0.00    -0.254 A  
ENDBRANCH  19  20
ENDBRANCH  10  19
ENDBRANCH   9  10
ENDBRANCH   8   9
ENDBRANCH   5   8
TORSDOF 6
ENDMDL
MODEL       12
REMARK 921   NORMALIZED FREE ENERGY PREDICTED BY IDOCK:   -6.27 KCAL/MOL
REMARK 922        TOTAL FREE ENERGY PREDICTED BY IDOCK:   -9.40 KCAL/MOL
REMARK 923 INTER-LIGAND FREE ENERGY PREDICTED BY IDOCK:   -8.46 KCAL/MOL
REMARK 924 INTRA-LIGAND FREE ENERGY PREDICTED BY IDOCK:   -0.94 KCAL/MOL
REMARK 927      BINDING AFFINITY PREDICTED BY RF-SCORE:    0.00 PKD
ROOT
HETATM    1 CL   UNL     1     -12.855   9.144  71.470  1.00  0.00    -0.389 Cl 
HETATM    2  C   UNL     1     -12.743  10.839  71.199  1.00  0.00    -0.431 A  
HETATM    3  C   UNL     1     -13.360  11.723  72.079  1.00  0.00    -0.417 A  
HETATM    4  C   UNL     1     -13.273  13.103  71.852  1.00  0.00    -0.526 A  
HETATM    5  C   UNL     1     -12.579  13.606  70.738  1.00  0.00    -0.397 A  
HETATM    6  C   UNL     1     -11.945  12.696  69.876  1.00  0.00    -0.365 A  
HETATM    7  C   UNL     1     -12.030  11.319  70.103  1.00  0.00    -0.452 A  
ENDROOT
BRANCH   5   8
HETATM    8  C   UNL     1     -12.451  15.104  70.517  1.00  0.00    -0.379 C  
BRANCH   8   9
HETATM    9  S   UNL     1     -10.714  15.506  70.168  1.00  0.00    -0.329 SA 
BRANCH   9  10
HETATM   10  C   UNL     1     -10.679  16.068  68.370  1.00  0.00    -0.289 C  
BRANCH  10  11
HETATM   11  C   UNL     1     -10.787  14.854  67.401  1.00  0.00    -0.304 A  
HETATM   12  C   UNL     1     -11.079  12.594  65.691  1.00  0.00    -0.292 A  
HETATM   13  C   UNL     1      -9.770  13.881  67.275  1.00  0.00    -0.245 A  
HETATM   14  C   UNL     1     -11.936  14.648  66.601  1.00  0.00    -0.293 A  
HETATM   15  C   UNL     1      -9.928  12.751  66.453  1.00  0.00    -0.268 A  
HETATM   16 CL   UNL     1     -11.264  11.226  64.666  1.00  0.00    -0.229 Cl 
HETATM   17 CL   UNL     1      -8.247  14.008  68.086  1.00  0.00    -0.145 Cl 
HETATM   18  C   UNL     1     -12.077  13.549  65.748  1.00  0.00    -0.473 A  
ENDBRANCH  10  11
BRANCH  10  19
HETATM   19  C   UNL     1      -9.478  17.003  68.067  1.00  0.00    -0.256 C  
BRANCH  19  20
HETATM   20  N   UNL     1      -9.838  18.298  67.531  1.00  0.00    -0.306 NA 
HETATM   21  C   UNL     1     -10.346  18.552  66.290  1.00  0.00    -0.427 A  
HETATM   22  N   UNL     1     -10.081  20.493  67.414  1.00  0.00    -0.375 NA 
HETATM   23  C   UNL     1     -10.430  19.918  66.217  1.00  0.00    -0.479 A  
HETATM   24  C   UNL     1      -9.757  19.487  68.195  1.00  0.00    -0.388 A  
ENDBRANCH  19  20
ENDBRANCH  10  19
ENDBRANCH   9  10
ENDBRANCH   8   9
ENDBRANCH   5   8
TORSDOF 6
ENDMDL
MODEL       13
REMARK 921   NORMALIZED FREE ENERGY PREDICTED BY IDOCK:   -6.21 KCAL/MOL
REMARK 922        TOTAL FREE ENERGY PREDICTED BY IDOCK:   -9.31 KCAL/MOL
REMARK 923 INTER-LIGAND FREE ENERGY PREDICTED BY IDOCK:   -8.25 KCAL/MOL
REMARK 924 INTRA-LIGAND FREE ENERGY PREDICTED BY IDOCK:   -1.06 KCAL/MOL
REMARK 927      BINDING AFFINITY PREDICTED BY RF-SCORE:    0.00 PKD
ROOT
HETATM    1 CL   UNL     1     -13.224  16.033  73.639  1.00  0.00    -0.603 Cl 
HETATM    2  C   UNL     1     -12.769  15.174  72.220  1.00  0.00    -0.340 A  
HETATM    3  C   UNL     1     -12.159  15.850  71.167  1.00  0.00    -0.464 A  
HETATM    4  C   UNL     1     -11.795  15.150  70.009  1.00  0.00    -0.361 A  
HETATM    5  C   UNL     1     -12.051  13.772  69.892  1.00  0.00    -0.412 A  
HETATM    6  C   UNL     1     -12.647  13.106  70.975  1.00  0.00    -0.397 A  
HETATM    7  C   UNL     1     -13.008  13.805  72.132  1.00  0.00    -0.437 A  
ENDROOT
BRANCH   5   8
HETATM    8  C   UNL     1     -11.618  13.008  68.652  1.00  0.00    -0.318 C  
BRANCH   8   9
HETATM    9  S   UNL     1     -12.028  13.987  67.178  1.00  0.00    -0.405 SA 
BRANCH   9  10
HETATM   10  C   UNL     1     -10.374  14.488  66.430  1.00  0.00    -0.293 C  
BRANCH  10  11
HETATM   11  C   UNL     1     -10.049  15.979  66.736  1.00  0.00    -0.272 A  
HETATM   12  C   UNL     1      -9.408  18.719  67.185  1.00  0.00    -0.297 A  
HETATM   13  C   UNL     1      -9.146  16.376  67.750  1.00  0.00    -0.199 A  
HETATM   14  C   UNL     1     -10.633  17.030  65.989  1.00  0.00    -0.208 A  
HETATM   15  C   UNL     1      -8.809  17.726  67.950  1.00  0.00    -0.251 A  
HETATM   16 CL   UNL     1      -9.016  20.373  67.446  1.00  0.00    -0.455 Cl 
HETATM   17 CL   UNL     1      -8.411  15.251  68.839  1.00  0.00    -0.181 Cl 
HETATM   18  C   UNL     1     -10.334  18.377  66.217  1.00  0.00    -0.440 A  
ENDBRANCH  10  11
BRANCH  10  19
HETATM   19  C   UNL     1     -10.272  14.125  64.925  1.00  0.00    -0.341 C  
BRANCH  19  20
HETATM   20  N   UNL     1     -10.120  12.712  64.650  1.00  0.00    -0.270 NA 
HETATM   21  C   UNL     1      -9.665  11.760  65.516  1.00  0.00    -0.224 A  
HETATM   22  N   UNL     1     -10.113  10.815  63.514  1.00  0.00    -0.334 NA 
HETATM   23  C   UNL     1      -9.609  10.608  64.775  1.00  0.00    -0.280 A  
HETATM   24  C   UNL     1     -10.439  12.087  63.480  1.00  0.00    -0.464 A  
ENDBRANCH  19  20
ENDBRANCH  10  19
ENDBRANCH   9  10
ENDBRANCH   8   9
ENDBRANCH   5   8
TORSDOF 6
ENDMDL
MODEL       14
REMARK 921   NORMALIZED FREE ENERGY PREDICTED BY IDOCK:   -6.14 KCAL/MOL
REMARK 922        TOTAL FREE ENERGY PREDICTED BY IDOCK:   -9.21 KCAL/MOL
REMARK 923 INTER-LIGAND FREE ENERGY PREDICTED BY IDOCK:   -7.83 KCAL/MOL
REMARK 924 INTRA-LIGAND FREE ENERGY PREDICTED BY IDOCK:   -1.38 KCAL/MOL
REMARK 927      BINDING AFFINITY PREDICTED BY RF-SCORE:    0.00 PKD
ROOT
HETATM    1 CL   UNL     1      -8.690  19.680  67.448  1.00  0.00    -0.347 Cl 
HETATM    2  C   UNL     1      -9.225  18.200  66.752  1.00  0.00    -0.279 A  
HETATM    3  C   UNL     1     -10.452  18.147  66.097  1.00  0.00    -0.377 A  
HETATM    4  C   UNL     1     -10.888  16.939  65.536  1.00  0.00    -0.101 A  
HETATM    5  C   UNL     1     -10.106  15.775  65.637  1.00  0.00    -0.401 A  
HETATM    6  C   UNL     1      -8.861  15.858  66.283  1.00  0.00    -0.386 A  
HETATM    7  C   UNL     1      -8.425  17.064  66.841  1.00  0.00    -0.244 A  
ENDROOT
BRANCH   5   8
HETATM    8  C   UNL     1     -10.562  14.477  64.993  1.00  0.00    -0.437 C  
BRANCH   8   9
HETATM    9  S   UNL     1     -12.095  13.923  65.795  1.00  0.00    -0.452 SA 
BRANCH   9  10
HETATM   10  C   UNL     1     -11.546  12.920  67.292  1.00  0.00    -0.360 C  
BRANCH  10  11
HETATM   11  C   UNL     1     -11.820  13.693  68.616  1.00  0.00    -0.409 A  
HETATM   12  C   UNL     1     -12.208  15.153  71.031  1.00  0.00    -0.334 A  
HETATM   13  C   UNL     1     -12.088  13.043  69.842  1.00  0.00    -0.277 A  
HETATM   14  C   UNL     1     -11.792  15.108  68.663  1.00  0.00    -0.329 A  
HETATM   15  C   UNL     1     -12.250  13.763  71.038  1.00  0.00    -0.401 A  
HETATM   16 CL   UNL     1     -12.432  16.037  72.489  1.00  0.00    -0.537 Cl 
HETATM   17 CL   UNL     1     -12.269  11.327  69.972  1.00  0.00    -0.388 Cl 
HETATM   18  C   UNL     1     -11.998  15.829  69.844  1.00  0.00    -0.346 A  
ENDBRANCH  10  11
BRANCH  10  19
HETATM   19  C   UNL     1     -10.086  12.411  67.158  1.00  0.00    -0.213 C  
BRANCH  19  20
HETATM   20  N   UNL     1      -9.955  11.090  66.582  1.00  0.00    -0.203 NA 
HETATM   21  C   UNL     1     -10.308   9.909  67.168  1.00  0.00    -0.243 A  
HETATM   22  N   UNL     1      -9.412   9.510  65.133  1.00  0.00    -0.265 NA 
HETATM   23  C   UNL     1      -9.906   8.943  66.282  1.00  0.00    -0.285 A  
HETATM   24  C   UNL     1      -9.482  10.806  65.334  1.00  0.00    -0.214 A  
ENDBRANCH  19  20
ENDBRANCH  10  19
ENDBRANCH   9  10
ENDBRANCH   8   9
ENDBRANCH   5   8
TORSDOF 6
ENDMDL
MODEL       15
REMARK 921   NORMALIZED FREE ENERGY PREDICTED BY IDOCK:   -6.12 KCAL/MOL
REMARK 922        TOTAL FREE ENERGY PREDICTED BY IDOCK:   -9.19 KCAL/MOL
REMARK 923 INTER-LIGAND FREE ENERGY PREDICTED BY IDOCK:   -8.26 KCAL/MOL
REMARK 924 INTRA-LIGAND FREE ENERGY PREDICTED BY IDOCK:   -0.93 KCAL/MOL
REMARK 927      BINDING AFFINITY PREDICTED BY RF-SCORE:    0.00 PKD
ROOT
HETATM    1 CL   UNL     1     -13.011  11.882  63.550  1.00  0.00    -0.499 Cl 
HETATM    2  C   UNL     1     -11.941  13.033  64.247  1.00  0.00    -0.402 A  
HETATM    3  C   UNL     1     -10.786  12.602  64.895  1.00  0.00    -0.329 A  
HETATM    4  C   UNL     1      -9.918  13.541  65.468  1.00  0.00    -0.238 A  
HETATM    5  C   UNL     1     -10.206  14.916  65.407  1.00  0.00    -0.409 A  
HETATM    6  C   UNL     1     -11.364  15.330  64.729  1.00  0.00    -0.396 A  
HETATM    7  C   UNL     1     -12.229  14.392  64.156  1.00  0.00    -0.393 A  
ENDROOT
BRANCH   5   8
HETATM    8  C   UNL     1      -9.243  15.935  65.993  1.00  0.00    -0.337 C  
BRANCH   8   9
HETATM    9  S   UNL     1      -8.743  15.392  67.654  1.00  0.00    -0.172 SA 
BRANCH   9  10
HETATM   10  C   UNL     1     -10.144  15.917  68.798  1.00  0.00    -0.221 C  
BRANCH  10  11
HETATM   11  C   UNL     1     -10.870  14.679  69.401  1.00  0.00    -0.261 A  
HETATM   12  C   UNL     1     -12.262  12.404  70.402  1.00  0.00    -0.287 A  
HETATM   13  C   UNL     1     -11.668  14.748  70.565  1.00  0.00    -0.293 A  
HETATM   14  C   UNL     1     -10.783  13.403  68.791  1.00  0.00    -0.257 A  
HETATM   15  C   UNL     1     -12.378  13.632  71.041  1.00  0.00    -0.436 A  
HETATM   16 CL   UNL     1     -13.110  11.031  70.997  1.00  0.00    -0.342 Cl 
HETATM   17 CL   UNL     1     -11.815  16.188  71.514  1.00  0.00    -0.530 Cl 
HETATM   18  C   UNL     1     -11.452  12.281  69.289  1.00  0.00    -0.352 A  
ENDBRANCH  10  11
BRANCH  10  19
HETATM   19  C   UNL     1     -11.104  16.936  68.127  1.00  0.00    -0.205 C  
BRANCH  19  20
HETATM   20  N   UNL     1     -10.534  18.246  67.898  1.00  0.00    -0.394 NA 
HETATM   21  C   UNL     1     -10.626  18.984  66.754  1.00  0.00    -0.425 A  
HETATM   22  N   UNL     1      -9.379  20.094  68.276  1.00  0.00    -0.198 NA 
HETATM   23  C   UNL     1      -9.853  20.092  66.987  1.00  0.00    -0.455 A  
HETATM   24  C   UNL     1      -9.831  18.981  68.808  1.00  0.00    -0.425 A  
ENDBRANCH  19  20
ENDBRANCH  10  19
ENDBRANCH   9  10
ENDBRANCH   8   9
ENDBRANCH   5   8
TORSDOF 6
ENDMDL
MODEL       16
REMARK 921   NORMALIZED FREE ENERGY PREDICTED BY IDOCK:   -6.11 KCAL/MOL
REMARK 922        TOTAL FREE ENERGY PREDICTED BY IDOCK:   -9.18 KCAL/MOL
REMARK 923 INTER-LIGAND FREE ENERGY PREDICTED BY IDOCK:   -8.66 KCAL/MOL
REMARK 924 INTRA-LIGAND FREE ENERGY PREDICTED BY IDOCK:   -0.52 KCAL/MOL
REMARK 927      BINDING AFFINITY PREDICTED BY RF-SCORE:    0.00 PKD
ROOT
HETATM    1 CL   UNL     1      -9.599  20.944  67.228  1.00  0.00    -0.515 Cl 
HETATM    2  C   UNL     1      -9.522  19.305  67.744  1.00  0.00    -0.317 A  
HETATM    3  C   UNL     1      -8.326  18.789  68.236  1.00  0.00    -0.360 A  
HETATM    4  C   UNL     1      -8.263  17.452  68.650  1.00  0.00    -0.264 A  
HETATM    5  C   UNL     1      -9.392  16.619  68.563  1.00  0.00    -0.236 A  
HETATM    6  C   UNL     1     -10.594  17.166  68.084  1.00  0.00    -0.380 A  
HETATM    7  C   UNL     1     -10.657  18.501  67.673  1.00  0.00    -0.450 A  
ENDROOT
BRANCH   5   8
HETATM    8  C   UNL     1      -9.333  15.181  69.051  1.00  0.00    -0.219 C  
BRANCH   8   9
HETATM    9  S   UNL     1     -10.904  14.764  69.861  1.00  0.00    -0.102 SA 
BRANCH   9  10
HETATM   10  C   UNL     1     -11.584  13.287  68.910  1.00  0.00    -0.314 C  
BRANCH  10  11
HETATM   11  C   UNL     1     -11.770  12.055  69.844  1.00  0.00    -0.374 A  
HETATM   12  C   UNL     1     -12.154   9.740  71.459  1.00  0.00    -0.409 A  
HETATM   13  C   UNL     1     -12.636  12.063  70.961  1.00  0.00    -0.273 A  
HETATM   14  C   UNL     1     -11.086  10.839  69.606  1.00  0.00    -0.339 A  
HETATM   15  C   UNL     1     -12.847  10.911  71.739  1.00  0.00    -0.509 A  
HETATM   16 CL   UNL     1     -12.391   8.337  72.425  1.00  0.00    -0.400 Cl 
HETATM   17 CL   UNL     1     -13.479  13.482  71.480  1.00  0.00    -0.359 Cl 
HETATM   18  C   UNL     1     -11.259   9.705  70.405  1.00  0.00    -0.342 A  
ENDBRANCH  10  11
BRANCH  10  19
HETATM   19  C   UNL     1     -10.761  12.979  67.630  1.00  0.00    -0.227 C  
BRANCH  19  20
HETATM   20  N   UNL     1     -11.538  12.915  66.410  1.00  0.00    -0.351 NA 
HETATM   21  C   UNL     1     -11.440  11.967  65.433  1.00  0.00    -0.305 A  
HETATM   22  N   UNL     1     -12.988  13.505  64.849  1.00  0.00    -0.721 NA 
HETATM   23  C   UNL     1     -12.299  12.385  64.450  1.00  0.00    -0.447 A  
HETATM   24  C   UNL     1     -12.527  13.782  66.047  1.00  0.00    -0.445 A  
ENDBRANCH  19  20
ENDBRANCH  10  19
ENDBRANCH   9  10
ENDBRANCH   8   9
ENDBRANCH   5   8
TORSDOF 6
ENDMDL
MODEL       17
REMARK 921   NORMALIZED FREE ENERGY PREDICTED BY IDOCK:   -6.09 KCAL/MOL
REMARK 922        TOTAL FREE ENERGY PREDICTED BY IDOCK:   -9.15 KCAL/MOL
REMARK 923 INTER-LIGAND FREE ENERGY PREDICTED BY IDOCK:   -8.66 KCAL/MOL
REMARK 924 INTRA-LIGAND FREE ENERGY PREDICTED BY IDOCK:   -0.49 KCAL/MOL
REMARK 927      BINDING AFFINITY PREDICTED BY RF-SCORE:    0.00 PKD
ROOT
HETATM    1 CL   UNL     1      -9.953  20.060  65.916  1.00  0.00    -0.529 Cl 
HETATM    2  C   UNL     1     -10.166  18.599  66.798  1.00  0.00    -0.393 A  
HETATM    3  C   UNL     1     -10.201  18.629  68.189  1.00  0.00    -0.423 A  
HETATM    4  C   UNL     1     -10.369  17.436  68.906  1.00  0.00    -0.340 A  
HETATM    5  C   UNL     1     -10.489  16.206  68.236  1.00  0.00    -0.276 A  
HETATM    6  C   UNL     1     -10.473  16.202  66.832  1.00  0.00    -0.300 A  
HETATM    7  C   UNL     1     -10.308  17.393  66.117  1.00  0.00    -0.329 A  
ENDROOT
BRANCH   5   8
HETATM    8  C   UNL     1     -10.711  14.920  69.014  1.00  0.00    -0.247 C  
BRANCH   8   9
HETATM    9  S   UNL     1      -9.827  13.565  68.187  1.00  0.00    -0.239 SA 
BRANCH   9  10
HETATM   10  C   UNL     1     -11.115  12.220  67.906  1.00  0.00    -0.243 C  
BRANCH  10  11
HETATM   11  C   UNL     1     -11.123  11.197  69.080  1.00  0.00    -0.306 A  
HETATM   12  C   UNL     1     -11.156   9.418  71.304  1.00  0.00    -0.376 A  
HETATM   13  C   UNL     1     -10.003  10.402  69.412  1.00  0.00    -0.218 A  
HETATM   14  C   UNL     1     -12.264  11.025  69.901  1.00  0.00    -0.408 A  
HETATM   15  C   UNL     1     -10.011   9.546  70.528  1.00  0.00    -0.335 A  
HETATM   16 CL   UNL     1     -11.177   8.352  72.654  1.00  0.00    -0.413 Cl 
HETATM   17 CL   UNL     1      -8.553  10.388  68.469  1.00  0.00    -0.127 Cl 
HETATM   18  C   UNL     1     -12.290  10.140  70.984  1.00  0.00    -0.474 A  
ENDBRANCH  10  11
BRANCH  10  19
HETATM   19  C   UNL     1     -10.986  11.562  66.507  1.00  0.00    -0.293 C  
BRANCH  19  20
HETATM   20  N   UNL     1     -11.581  12.315  65.424  1.00  0.00    -0.361 NA 
HETATM   21  C   UNL     1     -11.396  12.104  64.088  1.00  0.00    -0.380 A  
HETATM   22  N   UNL     1     -12.758  13.880  64.395  1.00  0.00    -0.655 NA 
HETATM   23  C   UNL     1     -12.081  13.119  63.473  1.00  0.00    -0.514 A  
HETATM   24  C   UNL     1     -12.458  13.351  65.560  1.00  0.00    -0.483 A  
ENDBRANCH  19  20
ENDBRANCH  10  19
ENDBRANCH   9  10
ENDBRANCH   8   9
ENDBRANCH   5   8
TORSDOF 6
ENDMDL
MODEL       18
REMARK 921   NORMALIZED FREE ENERGY PREDICTED BY IDOCK:   -6.08 KCAL/MOL
REMARK 922        TOTAL FREE ENERGY PREDICTED BY IDOCK:   -9.13 KCAL/MOL
REMARK 923 INTER-LIGAND FREE ENERGY PREDICTED BY IDOCK:   -8.57 KCAL/MOL
REMARK 924 INTRA-LIGAND FREE ENERGY PREDICTED BY IDOCK:   -0.56 KCAL/MOL
REMARK 927      BINDING AFFINITY PREDICTED BY RF-SCORE:    0.00 PKD
ROOT
HETATM    1 CL   UNL     1     -12.548  15.856  74.507  1.00  0.00    -0.691 Cl 
HETATM    2  C   UNL     1     -12.473  15.208  72.915  1.00  0.00    -0.405 A  
HETATM    3  C   UNL     1     -11.812  15.912  71.911  1.00  0.00    -0.595 A  
HETATM    4  C   UNL     1     -11.757  15.386  70.614  1.00  0.00    -0.373 A  
HETATM    5  C   UNL     1     -12.374  14.159  70.309  1.00  0.00    -0.421 A  
HETATM    6  C   UNL     1     -13.015  13.456  71.342  1.00  0.00    -0.412 A  
HETATM    7  C   UNL     1     -13.068  13.981  72.637  1.00  0.00    -0.553 A  
ENDROOT
BRANCH   5   8
HETATM    8  C   UNL     1     -12.278  13.571  68.911  1.00  0.00    -0.159 C  
BRANCH   8   9
HETATM    9  S   UNL     1     -10.539  13.196  68.544  1.00  0.00    -0.248 SA 
BRANCH   9  10
HETATM   10  C   UNL     1     -10.277  13.725  66.755  1.00  0.00    -0.268 C  
BRANCH  10  11
HETATM   11  C   UNL     1      -9.949  12.501  65.850  1.00  0.00    -0.269 A  
HETATM   12  C   UNL     1      -9.237  10.305  64.181  1.00  0.00    -0.267 A  
HETATM   13  C   UNL     1     -10.611  12.252  64.626  1.00  0.00    -0.303 A  
HETATM   14  C   UNL     1      -8.940  11.572  66.203  1.00  0.00    -0.201 A  
HETATM   15  C   UNL     1     -10.238  11.186  63.789  1.00  0.00    -0.434 A  
HETATM   16 CL   UNL     1      -8.797   8.984  63.171  1.00  0.00    -0.120 Cl 
HETATM   17 CL   UNL     1     -11.941  13.209  64.071  1.00  0.00    -0.489 Cl 
HETATM   18  C   UNL     1      -8.599  10.483  65.394  1.00  0.00    -0.188 A  
ENDBRANCH  10  11
BRANCH  10  19
HETATM   19  C   UNL     1      -9.255  14.886  66.626  1.00  0.00    -0.276 C  
BRANCH  19  20
HETATM   20  N   UNL     1      -9.798  16.115  66.090  1.00  0.00    -0.310 NA 
HETATM   21  C   UNL     1      -9.481  17.384  66.483  1.00  0.00    -0.273 A  
HETATM   22  N   UNL     1     -11.059  17.460  64.868  1.00  0.00    -0.810 NA 
HETATM   23  C   UNL     1     -10.316  18.195  65.760  1.00  0.00    -0.172 A  
HETATM   24  C   UNL     1     -10.702  16.212  65.072  1.00  0.00    -0.337 A  
ENDBRANCH  19  20
ENDBRANCH  10  19
ENDBRANCH   9  10
ENDBRANCH   8   9
ENDBRANCH   5   8
TORSDOF 6
ENDMDL
MODEL       19
REMARK 921   NORMALIZED FREE ENERGY PREDICTED BY IDOCK:   -6.07 KCAL/MOL
REMARK 922        TOTAL FREE ENERGY PREDICTED BY IDOCK:   -9.13 KCAL/MOL
REMARK 923 INTER-LIGAND FREE ENERGY PREDICTED BY IDOCK:   -8.61 KCAL/MOL
REMARK 924 INTRA-LIGAND FREE ENERGY PREDICTED BY IDOCK:   -0.51 KCAL/MOL
REMARK 927      BINDING AFFINITY PREDICTED BY RF-SCORE:    0.00 PKD
ROOT
HETATM    1 CL   UNL     1      -9.580  10.517  62.752  1.00  0.00    -0.338 Cl 
HETATM    2  C   UNL     1     -10.276  11.620  63.875  1.00  0.00    -0.365 A  
HETATM    3  C   UNL     1      -9.836  11.632  65.196  1.00  0.00    -0.281 A  
HETATM    4  C   UNL     1     -10.408  12.527  66.111  1.00  0.00    -0.274 A  
HETATM    5  C   UNL     1     -11.432  13.405  65.713  1.00  0.00    -0.341 A  
HETATM    6  C   UNL     1     -11.844  13.390  64.370  1.00  0.00    -0.452 A  
HETATM    7  C   UNL     1     -11.272  12.498  63.457  1.00  0.00    -0.525 A  
ENDROOT
BRANCH   5   8
HETATM    8  C   UNL     1     -12.022  14.402  66.696  1.00  0.00    -0.392 C  
BRANCH   8   9
HETATM    9  S   UNL     1     -11.231  14.176  68.316  1.00  0.00    -0.288 SA 
BRANCH   9  10
HETATM   10  C   UNL     1     -11.259  15.874  69.130  1.00  0.00    -0.334 C  
BRANCH  10  11
HETATM   11  C   UNL     1     -10.378  16.889  68.343  1.00  0.00    -0.338 A  
HETATM   12  C   UNL     1      -8.825  18.711  66.800  1.00  0.00    -0.297 A  
HETATM   13  C   UNL     1      -8.972  16.781  68.260  1.00  0.00    -0.228 A  
HETATM   14  C   UNL     1     -10.954  17.975  67.641  1.00  0.00    -0.115 A  
HETATM   15  C   UNL     1      -8.209  17.663  67.474  1.00  0.00    -0.221 A  
HETATM   16 CL   UNL     1      -7.892  19.808  65.859  1.00  0.00    -0.339 Cl 
HETATM   17 CL   UNL     1      -8.072  15.588  69.131  1.00  0.00    -0.225 Cl 
HETATM   18  C   UNL     1     -10.193  18.882  66.896  1.00  0.00    -0.443 A  
ENDBRANCH  10  11
BRANCH  10  19
HETATM   19  C   UNL     1     -10.928  15.808  70.645  1.00  0.00    -0.320 C  
BRANCH  19  20
HETATM   20  N   UNL     1     -12.083  15.762  71.517  1.00  0.00    -0.414 NA 
HETATM   21  C   UNL     1     -13.349  15.389  71.170  1.00  0.00    -0.508 A  
HETATM   22  N   UNL     1     -13.306  15.998  73.344  1.00  0.00    -0.580 NA 
HETATM   23  C   UNL     1     -14.100  15.602  72.297  1.00  0.00    -0.475 A  
HETATM   24  C   UNL     1     -12.090  16.057  72.849  1.00  0.00    -0.520 A  
ENDBRANCH  19  20
ENDBRANCH  10  19
ENDBRANCH   9  10
ENDBRANCH   8   9
ENDBRANCH   5   8
TORSDOF 6
ENDMDL
MODEL       20
REMARK 921   NORMALIZED FREE ENERGY PREDICTED BY IDOCK:   -6.07 KCAL/MOL
REMARK 922        TOTAL FREE ENERGY PREDICTED BY IDOCK:   -9.12 KCAL/MOL
REMARK 923 INTER-LIGAND FREE ENERGY PREDICTED BY IDOCK:   -8.60 KCAL/MOL
REMARK 924 INTRA-LIGAND FREE ENERGY PREDICTED BY IDOCK:   -0.52 KCAL/MOL
REMARK 927      BINDING AFFINITY PREDICTED BY RF-SCORE:    0.00 PKD
ROOT
HETATM    1 CL   UNL     1     -13.210   9.003  72.384  1.00  0.00    -0.496 Cl 
HETATM    2  C   UNL     1     -12.307   9.775  71.141  1.00  0.00    -0.359 A  
HETATM    3  C   UNL     1     -11.360   9.052  70.421  1.00  0.00    -0.242 A  
HETATM    4  C   UNL     1     -10.620   9.684  69.413  1.00  0.00    -0.243 A  
HETATM    5  C   UNL     1     -10.814  11.047  69.127  1.00  0.00    -0.283 A  
HETATM    6  C   UNL     1     -11.790  11.752  69.851  1.00  0.00    -0.423 A  
HETATM    7  C   UNL     1     -12.529  11.120  70.856  1.00  0.00    -0.509 A  
ENDROOT
BRANCH   5   8
HETATM    8  C   UNL     1     -10.041  11.720  68.006  1.00  0.00    -0.192 C  
BRANCH   8   9
HETATM    9  S   UNL     1      -9.813  13.476  68.413  1.00  0.00    -0.197 SA 
BRANCH   9  10
HETATM   10  C   UNL     1     -10.590  14.429  66.986  1.00  0.00    -0.274 C  
BRANCH  10  11
HETATM   11  C   UNL     1     -10.486  15.965  67.214  1.00  0.00    -0.310 A  
HETATM   12  C   UNL     1     -10.177  18.769  67.615  1.00  0.00    -0.399 A  
HETATM   13  C   UNL     1     -10.839  16.585  68.435  1.00  0.00    -0.348 A  
HETATM   14  C   UNL     1     -10.005  16.831  66.202  1.00  0.00    -0.345 A  
HETATM   15  C   UNL     1     -10.657  17.964  68.641  1.00  0.00    -0.158 A  
HETATM   16 CL   UNL     1      -9.978  20.460  67.856  1.00  0.00    -0.495 Cl 
HETATM   17 CL   UNL     1     -11.544  15.718  69.755  1.00  0.00    -0.339 Cl 
HETATM   18  C   UNL     1      -9.867  18.210  66.389  1.00  0.00    -0.353 A  
ENDBRANCH  10  11
BRANCH  10  19
HETATM   19  C   UNL     1     -12.029  13.942  66.666  1.00  0.00    -0.442 C  
BRANCH  19  20
HETATM   20  N   UNL     1     -12.223  13.473  65.311  1.00  0.00    -0.414 NA 
HETATM   21  C   UNL     1     -12.253  12.173  64.897  1.00  0.00    -0.232 A  
HETATM   22  N   UNL     1     -12.502  13.542  63.118  1.00  0.00    -0.712 NA 
HETATM   23  C   UNL     1     -12.363  12.240  63.532  1.00  0.00    -0.565 A  
HETATM   24  C   UNL     1     -12.442  14.259  64.217  1.00  0.00    -0.272 A  
ENDBRANCH  19  20
ENDBRANCH  10  19
ENDBRANCH   9  10
ENDBRANCH   8   9
ENDBRANCH   5   8
TORSDOF 6
ENDMDL
MODEL       21
REMARK 921   NORMALIZED FREE ENERGY PREDICTED BY IDOCK:   -6.05 KCAL/MOL
REMARK 922        TOTAL FREE ENERGY PREDICTED BY IDOCK:   -9.09 KCAL/MOL
REMARK 923 INTER-LIGAND FREE ENERGY PREDICTED BY IDOCK:   -8.08 KCAL/MOL
REMARK 924 INTRA-LIGAND FREE ENERGY PREDICTED BY IDOCK:   -1.01 KCAL/MOL
REMARK 927      BINDING AFFINITY PREDICTED BY RF-SCORE:    0.00 PKD
ROOT
HETATM    1 CL   UNL     1     -13.336   9.357  72.329  1.00  0.00    -0.525 Cl 
HETATM    2  C   UNL     1     -12.730  10.642  71.359  1.00  0.00    -0.440 A  
HETATM    3  C   UNL     1     -12.976  11.962  71.725  1.00  0.00    -0.455 A  
HETATM    4  C   UNL     1     -12.486  13.007  70.930  1.00  0.00    -0.396 A  
HETATM    5  C   UNL     1     -11.759  12.737  69.757  1.00  0.00    -0.352 A  
HETATM    6  C   UNL     1     -11.503  11.398  69.419  1.00  0.00    -0.378 A  
HETATM    7  C   UNL     1     -11.990  10.356  70.214  1.00  0.00    -0.387 A  
ENDROOT
BRANCH   5   8
HETATM    8  C   UNL     1     -11.194  13.872  68.919  1.00  0.00    -0.271 C  
BRANCH   8   9
HETATM    9  S   UNL     1     -12.015  13.878  67.298  1.00  0.00    -0.382 SA 
BRANCH   9  10
HETATM   10  C   UNL     1     -10.624  13.847  66.029  1.00  0.00    -0.293 C  
BRANCH  10  11
HETATM   11  C   UNL     1     -10.069  12.405  65.840  1.00  0.00    -0.272 A  
HETATM   12  C   UNL     1      -8.943   9.813  65.475  1.00  0.00    -0.176 A  
HETATM   13  C   UNL     1     -10.506  11.543  64.809  1.00  0.00    -0.299 A  
HETATM   14  C   UNL     1      -9.066  11.883  66.693  1.00  0.00    -0.203 A  
HETATM   15  C   UNL     1      -9.928  10.276  64.611  1.00  0.00    -0.377 A  
HETATM   16 CL   UNL     1      -8.253   8.254  65.252  1.00  0.00    -0.141 Cl 
HETATM   17 CL   UNL     1     -11.794  11.953  63.730  1.00  0.00    -0.551 Cl 
HETATM   18  C   UNL     1      -8.522  10.605  66.527  1.00  0.00    -0.144 A  
ENDBRANCH  10  11
BRANCH  10  19
HETATM   19  C   UNL     1      -9.527  14.902  66.330  1.00  0.00    -0.309 C  
BRANCH  19  20
HETATM   20  N   UNL     1      -9.916  16.272  66.071  1.00  0.00    -0.325 NA 
HETATM   21  C   UNL     1      -9.486  17.380  66.744  1.00  0.00    -0.273 A  
HETATM   22  N   UNL     1     -10.975  17.984  65.157  1.00  0.00    -0.556 NA 
HETATM   23  C   UNL     1     -10.200  18.418  66.204  1.00  0.00    -0.389 A  
HETATM   24  C   UNL     1     -10.759  16.690  65.084  1.00  0.00    -0.189 A  
ENDBRANCH  19  20
ENDBRANCH  10  19
ENDBRANCH   9  10
ENDBRANCH   8   9
ENDBRANCH   5   8
TORSDOF 6
ENDMDL
MODEL       22
REMARK 921   NORMALIZED FREE ENERGY PREDICTED BY IDOCK:   -6.04 KCAL/MOL
REMARK 922        TOTAL FREE ENERGY PREDICTED BY IDOCK:   -9.08 KCAL/MOL
REMARK 923 INTER-LIGAND FREE ENERGY PREDICTED BY IDOCK:   -8.26 KCAL/MOL
REMARK 924 INTRA-LIGAND FREE ENERGY PREDICTED BY IDOCK:   -0.82 KCAL/MOL
REMARK 927      BINDING AFFINITY PREDICTED BY RF-SCORE:    0.00 PKD
ROOT
HETATM    1 CL   UNL     1     -10.707   5.483  69.087  1.00  0.00    -0.307 Cl 
HETATM    2  C   UNL     1     -10.303   7.031  68.456  1.00  0.00    -0.186 A  
HETATM    3  C   UNL     1     -10.496   7.299  67.103  1.00  0.00    -0.394 A  
HETATM    4  C   UNL     1     -10.161   8.559  66.589  1.00  0.00    -0.364 A  
HETATM    5  C   UNL     1      -9.618   9.554  67.422  1.00  0.00    -0.178 A  
HETATM    6  C   UNL     1      -9.453   9.269  68.788  1.00  0.00    -0.150 A  
HETATM    7  C   UNL     1      -9.789   8.012  69.301  1.00  0.00    -0.178 A  
ENDROOT
BRANCH   5   8
HETATM    8  C   UNL     1      -9.294  10.932  66.871  1.00  0.00    -0.168 C  
BRANCH   8   9
HETATM    9  S   UNL     1      -9.406  12.150  68.215  1.00  0.00    -0.175 SA 
BRANCH   9  10
HETATM   10  C   UNL     1     -10.928  13.188  67.827  1.00  0.00    -0.251 C  
BRANCH  10  11
HETATM   11  C   UNL     1     -11.556  13.771  69.127  1.00  0.00    -0.363 A  
HETATM   12  C   UNL     1     -12.809  14.785  71.477  1.00  0.00    -0.331 A  
HETATM   13  C   UNL     1     -11.668  15.159  69.370  1.00  0.00    -0.332 A  
HETATM   14  C   UNL     1     -12.074  12.927  70.139  1.00  0.00    -0.373 A  
HETATM   15  C   UNL     1     -12.313  15.658  70.516  1.00  0.00    -0.443 A  
HETATM   16 CL   UNL     1     -13.576  15.393  72.891  1.00  0.00    -0.601 Cl 
HETATM   17 CL   UNL     1     -11.003  16.351  68.308  1.00  0.00    -0.350 Cl 
HETATM   18  C   UNL     1     -12.675  13.420  71.302  1.00  0.00    -0.424 A  
ENDBRANCH  10  11
BRANCH  10  19
HETATM   19  C   UNL     1     -11.945  12.434  66.929  1.00  0.00    -0.196 C  
BRANCH  19  20
HETATM   20  N   UNL     1     -12.052  12.939  65.577  1.00  0.00    -0.434 NA 
HETATM   21  C   UNL     1     -11.901  12.222  64.426  1.00  0.00    -0.388 A  
HETATM   22  N   UNL     1     -12.302  14.387  63.924  1.00  0.00    -0.762 NA 
HETATM   23  C   UNL     1     -11.997  13.147  63.420  1.00  0.00    -0.483 A  
HETATM   24  C   UNL     1     -12.357  14.222  65.227  1.00  0.00    -0.424 A  
ENDBRANCH  19  20
ENDBRANCH  10  19
ENDBRANCH   9  10
ENDBRANCH   8   9
ENDBRANCH   5   8
TORSDOF 6
ENDMDL
MODEL       23
REMARK 921   NORMALIZED FREE ENERGY PREDICTED BY IDOCK:   -6.00 KCAL/MOL
REMARK 922        TOTAL FREE ENERGY PREDICTED BY IDOCK:   -9.03 KCAL/MOL
REMARK 923 INTER-LIGAND FREE ENERGY PREDICTED BY IDOCK:   -8.33 KCAL/MOL
REMARK 924 INTRA-LIGAND FREE ENERGY PREDICTED BY IDOCK:   -0.70 KCAL/MOL
REMARK 927      BINDING AFFINITY PREDICTED BY RF-SCORE:    0.00 PKD
ROOT
HETATM    1 CL   UNL     1     -10.771   7.220  73.369  1.00  0.00    -0.429 Cl 
HETATM    2  C   UNL     1     -11.070   8.438  72.191  1.00  0.00    -0.345 A  
HETATM    3  C   UNL     1     -10.093   8.742  71.247  1.00  0.00    -0.336 A  
HETATM    4  C   UNL     1     -10.335   9.739  70.292  1.00  0.00    -0.348 A  
HETATM    5  C   UNL     1     -11.551  10.445  70.283  1.00  0.00    -0.410 A  
HETATM    6  C   UNL     1     -12.531  10.106  71.231  1.00  0.00    -0.510 A  
HETATM    7  C   UNL     1     -12.290   9.110  72.183  1.00  0.00    -0.424 A  
ENDROOT
BRANCH   5   8
HETATM    8  C   UNL     1     -11.828  11.496  69.222  1.00  0.00    -0.348 C  
BRANCH   8   9
HETATM    9  S   UNL     1     -10.319  12.469  68.943  1.00  0.00     0.047 SA 
BRANCH   9  10
HETATM   10  C   UNL     1     -10.731  13.641  67.527  1.00  0.00    -0.259 C  
BRANCH  10  11
HETATM   11  C   UNL     1     -10.468  15.122  67.930  1.00  0.00    -0.245 A  
HETATM   12  C   UNL     1     -10.106  17.845  68.684  1.00  0.00    -0.394 A  
HETATM   13  C   UNL     1      -9.896  16.067  67.049  1.00  0.00    -0.236 A  
HETATM   14  C   UNL     1     -10.814  15.610  69.214  1.00  0.00    -0.250 A  
HETATM   15  C   UNL     1      -9.745  17.417  67.411  1.00  0.00    -0.269 A  
HETATM   16 CL   UNL     1      -9.899  19.491  69.139  1.00  0.00    -0.490 Cl 
HETATM   17 CL   UNL     1      -9.309  15.645  65.477  1.00  0.00    -0.211 Cl 
HETATM   18  C   UNL     1     -10.623  16.942  69.593  1.00  0.00    -0.172 A  
ENDBRANCH  10  11
BRANCH  10  19
HETATM   19  C   UNL     1     -12.151  13.395  66.951  1.00  0.00    -0.354 C  
BRANCH  19  20
HETATM   20  N   UNL     1     -12.208  13.273  65.510  1.00  0.00    -0.431 NA 
HETATM   21  C   UNL     1     -11.956  12.148  64.779  1.00  0.00    -0.307 A  
HETATM   22  N   UNL     1     -12.438  13.865  63.392  1.00  0.00    -0.791 NA 
HETATM   23  C   UNL     1     -12.043  12.552  63.472  1.00  0.00    -0.562 A  
HETATM   24  C   UNL     1     -12.558  14.263  64.638  1.00  0.00    -0.255 A  
ENDBRANCH  19  20
ENDBRANCH  10  19
ENDBRANCH   9  10
ENDBRANCH   8   9
ENDBRANCH   5   8
TORSDOF 6
ENDMDL
MODEL       24
REMARK 921   NORMALIZED FREE ENERGY PREDICTED BY IDOCK:   -6.00 KCAL/MOL
REMARK 922        TOTAL FREE ENERGY PREDICTED BY IDOCK:   -9.02 KCAL/MOL
REMARK 923 INTER-LIGAND FREE ENERGY PREDICTED BY IDOCK:   -8.23 KCAL/MOL
REMARK 924 INTRA-LIGAND FREE ENERGY PREDICTED BY IDOCK:   -0.79 KCAL/MOL
REMARK 927      BINDING AFFINITY PREDICTED BY RF-SCORE:    0.00 PKD
ROOT
HETATM    1 CL   UNL     1     -12.600  16.302  74.490  1.00  0.00    -0.544 Cl 
HETATM    2  C   UNL     1     -12.507  15.695  72.883  1.00  0.00    -0.439 A  
HETATM    3  C   UNL     1     -13.247  14.572  72.523  1.00  0.00    -0.538 A  
HETATM    4  C   UNL     1     -13.165  14.075  71.215  1.00  0.00    -0.373 A  
HETATM    5  C   UNL     1     -12.334  14.692  70.263  1.00  0.00    -0.406 A  
HETATM    6  C   UNL     1     -11.615  15.837  70.642  1.00  0.00    -0.416 A  
HETATM    7  C   UNL     1     -11.698  16.333  71.946  1.00  0.00    -0.518 A  
ENDROOT
BRANCH   5   8
HETATM    8  C   UNL     1     -12.279  14.176  68.835  1.00  0.00    -0.222 C  
BRANCH   8   9
HETATM    9  S   UNL     1     -10.558  13.773  68.415  1.00  0.00    -0.258 SA 
BRANCH   9  10
HETATM   10  C   UNL     1     -10.595  11.996  67.792  1.00  0.00    -0.207 C  
BRANCH  10  11
HETATM   11  C   UNL     1      -9.932  11.028  68.816  1.00  0.00    -0.215 A  
HETATM   12  C   UNL     1      -8.680   9.190  70.596  1.00  0.00    -0.229 A  
HETATM   13  C   UNL     1     -10.673  10.296  69.771  1.00  0.00    -0.285 A  
HETATM   14  C   UNL     1      -8.533  10.813  68.828  1.00  0.00    -0.148 A  
HETATM   15  C   UNL     1     -10.058   9.368  70.629  1.00  0.00    -0.356 A  
HETATM   16 CL   UNL     1      -7.921   8.074  71.662  1.00  0.00    -0.113 Cl 
HETATM   17 CL   UNL     1     -12.378  10.498  69.987  1.00  0.00    -0.322 Cl 
HETATM   18  C   UNL     1      -7.912   9.923  69.711  1.00  0.00    -0.181 A  
ENDBRANCH  10  11
BRANCH  10  19
HETATM   19  C   UNL     1     -10.029  11.863  66.353  1.00  0.00    -0.213 C  
BRANCH  19  20
HETATM   20  N   UNL     1     -10.934  12.284  65.304  1.00  0.00    -0.297 NA 
HETATM   21  C   UNL     1     -10.632  12.432  63.981  1.00  0.00    -0.413 A  
HETATM   22  N   UNL     1     -12.789  13.000  64.337  1.00  0.00    -0.701 NA 
HETATM   23  C   UNL     1     -11.774  12.935  63.414  1.00  0.00    -0.461 A  
HETATM   24  C   UNL     1     -12.258  12.573  65.460  1.00  0.00    -0.377 A  
ENDBRANCH  19  20
ENDBRANCH  10  19
ENDBRANCH   9  10
ENDBRANCH   8   9
ENDBRANCH   5   8
TORSDOF 6
ENDMDL
MODEL       25
REMARK 921   NORMALIZED FREE ENERGY PREDICTED BY IDOCK:   -5.98 KCAL/MOL
REMARK 922        TOTAL FREE ENERGY PREDICTED BY IDOCK:   -9.01 KCAL/MOL
REMARK 923 INTER-LIGAND FREE ENERGY PREDICTED BY IDOCK:   -8.45 KCAL/MOL
REMARK 924 INTRA-LIGAND FREE ENERGY PREDICTED BY IDOCK:   -0.56 KCAL/MOL
REMARK 927      BINDING AFFINITY PREDICTED BY RF-SCORE:    0.00 PKD
ROOT
HETATM    1 CL   UNL     1      -7.002  21.345  67.328  1.00  0.00    -0.302 Cl 
HETATM    2  C   UNL     1      -7.477  19.777  67.852  1.00  0.00    -0.287 A  
HETATM    3  C   UNL     1      -6.512  18.868  68.279  1.00  0.00    -0.242 A  
HETATM    4  C   UNL     1      -6.900  17.589  68.700  1.00  0.00    -0.227 A  
HETATM    5  C   UNL     1      -8.253  17.207  68.685  1.00  0.00    -0.255 A  
HETATM    6  C   UNL     1      -9.211  18.147  68.272  1.00  0.00    -0.307 A  
HETATM    7  C   UNL     1      -8.824  19.424  67.853  1.00  0.00    -0.362 A  
ENDROOT
BRANCH   5   8
HETATM    8  C   UNL     1      -8.675  15.834  69.180  1.00  0.00    -0.253 C  
BRANCH   8   9
HETATM    9  S   UNL     1     -10.397  15.914  69.755  1.00  0.00    -0.274 SA 
BRANCH   9  10
HETATM   10  C   UNL     1     -11.323  14.617  68.751  1.00  0.00    -0.281 C  
BRANCH  10  11
HETATM   11  C   UNL     1     -11.778  13.430  69.650  1.00  0.00    -0.375 A  
HETATM   12  C   UNL     1     -12.656  11.206  71.198  1.00  0.00    -0.409 A  
HETATM   13  C   UNL     1     -12.698  13.581  70.713  1.00  0.00    -0.245 A  
HETATM   14  C   UNL     1     -11.301  12.115  69.433  1.00  0.00    -0.311 A  
HETATM   15  C   UNL     1     -13.153  12.478  71.456  1.00  0.00    -0.373 A  
HETATM   16 CL   UNL     1     -13.192   9.858  72.123  1.00  0.00    -0.536 Cl 
HETATM   17 CL   UNL     1     -13.314  15.120  71.205  1.00  0.00    -0.505 Cl 
HETATM   18  C   UNL     1     -11.717  11.023  70.201  1.00  0.00    -0.442 A  
ENDBRANCH  10  11
BRANCH  10  19
HETATM   19  C   UNL     1     -10.537  14.176  67.488  1.00  0.00    -0.257 C  
BRANCH  19  20
HETATM   20  N   UNL     1     -11.318  14.135  66.270  1.00  0.00    -0.329 NA 
HETATM   21  C   UNL     1     -11.332  15.075  65.281  1.00  0.00    -0.349 A  
HETATM   22  N   UNL     1     -12.779  13.417  64.773  1.00  0.00    -0.685 NA 
HETATM   23  C   UNL     1     -12.287  14.643  64.398  1.00  0.00    -0.398 A  
HETATM   24  C   UNL     1     -12.153  13.125  65.891  1.00  0.00    -0.444 A  
ENDBRANCH  19  20
ENDBRANCH  10  19
ENDBRANCH   9  10
ENDBRANCH   8   9
ENDBRANCH   5   8
TORSDOF 6
ENDMDL
MODEL       26
REMARK 921   NORMALIZED FREE ENERGY PREDICTED BY IDOCK:   -5.96 KCAL/MOL
REMARK 922        TOTAL FREE ENERGY PREDICTED BY IDOCK:   -8.97 KCAL/MOL
REMARK 923 INTER-LIGAND FREE ENERGY PREDICTED BY IDOCK:   -8.15 KCAL/MOL
REMARK 924 INTRA-LIGAND FREE ENERGY PREDICTED BY IDOCK:   -0.82 KCAL/MOL
REMARK 927      BINDING AFFINITY PREDICTED BY RF-SCORE:    0.00 PKD
ROOT
HETATM    1 CL   UNL     1     -10.733   5.532  70.102  1.00  0.00    -0.374 Cl 
HETATM    2  C   UNL     1     -10.334   6.991  69.283  1.00  0.00    -0.200 A  
HETATM    3  C   UNL     1     -10.618   7.123  67.927  1.00  0.00    -0.269 A  
HETATM    4  C   UNL     1     -10.286   8.310  67.259  1.00  0.00    -0.344 A  
HETATM    5  C   UNL     1      -9.657   9.366  67.942  1.00  0.00    -0.155 A  
HETATM    6  C   UNL     1      -9.401   9.219  69.316  1.00  0.00    -0.160 A  
HETATM    7  C   UNL     1      -9.734   8.035  69.981  1.00  0.00    -0.173 A  
ENDROOT
BRANCH   5   8
HETATM    8  C   UNL     1      -9.336  10.667  67.227  1.00  0.00    -0.150 C  
BRANCH   8   9
HETATM    9  S   UNL     1      -9.437  12.039  68.414  1.00  0.00    -0.143 SA 
BRANCH   9  10
HETATM   10  C   UNL     1     -10.973  13.014  67.928  1.00  0.00    -0.241 C  
BRANCH  10  11
HETATM   11  C   UNL     1     -11.695  13.586  69.183  1.00  0.00    -0.374 A  
HETATM   12  C   UNL     1     -12.911  14.682  71.514  1.00  0.00    -0.339 A  
HETATM   13  C   UNL     1     -12.278  12.764  70.174  1.00  0.00    -0.249 A  
HETATM   14  C   UNL     1     -11.787  14.980  69.410  1.00  0.00    -0.358 A  
HETATM   15  C   UNL     1     -12.851  13.305  71.338  1.00  0.00    -0.411 A  
HETATM   16 CL   UNL     1     -13.635  15.348  72.925  1.00  0.00    -0.601 Cl 
HETATM   17 CL   UNL     1     -12.363  11.042  70.029  1.00  0.00    -0.383 Cl 
HETATM   18  C   UNL     1     -12.398  15.523  70.545  1.00  0.00    -0.461 A  
ENDBRANCH  10  11
BRANCH  10  19
HETATM   19  C   UNL     1     -11.907  12.212  66.983  1.00  0.00    -0.216 C  
BRANCH  19  20
HETATM   20  N   UNL     1     -12.099  12.801  65.676  1.00  0.00    -0.454 NA 
HETATM   21  C   UNL     1     -11.812  12.224  64.473  1.00  0.00    -0.369 A  
HETATM   22  N   UNL     1     -12.604  14.313  64.142  1.00  0.00    -0.708 NA 
HETATM   23  C   UNL     1     -12.072  13.197  63.544  1.00  0.00    -0.514 A  
HETATM   24  C   UNL     1     -12.634  14.031  65.425  1.00  0.00    -0.505 A  
ENDBRANCH  19  20
ENDBRANCH  10  19
ENDBRANCH   9  10
ENDBRANCH   8   9
ENDBRANCH   5   8
TORSDOF 6
ENDMDL
MODEL       27
REMARK 921   NORMALIZED FREE ENERGY PREDICTED BY IDOCK:   -5.93 KCAL/MOL
REMARK 922        TOTAL FREE ENERGY PREDICTED BY IDOCK:   -8.93 KCAL/MOL
REMARK 923 INTER-LIGAND FREE ENERGY PREDICTED BY IDOCK:   -8.29 KCAL/MOL
REMARK 924 INTRA-LIGAND FREE ENERGY PREDICTED BY IDOCK:   -0.64 KCAL/MOL
REMARK 927      BINDING AFFINITY PREDICTED BY RF-SCORE:    0.00 PKD
ROOT
HETATM    1 CL   UNL     1     -10.390   5.038  69.154  1.00  0.00    -0.229 Cl 
HETATM    2  C   UNL     1     -10.350   6.702  68.717  1.00  0.00    -0.194 A  
HETATM    3  C   UNL     1     -10.304   7.064  67.374  1.00  0.00    -0.313 A  
HETATM    4  C   UNL     1     -10.265   8.419  67.020  1.00  0.00    -0.377 A  
HETATM    5  C   UNL     1     -10.260   9.420  68.008  1.00  0.00    -0.248 A  
HETATM    6  C   UNL     1     -10.330   9.032  69.356  1.00  0.00    -0.217 A  
HETATM    7  C   UNL     1     -10.371   7.679  69.709  1.00  0.00    -0.223 A  
ENDROOT
BRANCH   5   8
HETATM    8  C   UNL     1     -10.259  10.889  67.621  1.00  0.00    -0.183 C  
BRANCH   8   9
HETATM    9  S   UNL     1     -11.733  11.688  68.322  1.00  0.00    -0.275 SA 
BRANCH   9  10
HETATM   10  C   UNL     1     -11.354  13.533  68.320  1.00  0.00    -0.294 C  
BRANCH  10  11
HETATM   11  C   UNL     1     -11.694  14.178  69.696  1.00  0.00    -0.372 A  
HETATM   12  C   UNL     1     -12.434  15.350  72.184  1.00  0.00    -0.373 A  
HETATM   13  C   UNL     1     -11.278  15.479  70.057  1.00  0.00    -0.315 A  
HETATM   14  C   UNL     1     -12.468  13.490  70.661  1.00  0.00    -0.405 A  
HETATM   15  C   UNL     1     -11.669  16.068  71.273  1.00  0.00    -0.516 A  
HETATM   16 CL   UNL     1     -12.892  16.058  73.683  1.00  0.00    -0.669 Cl 
HETATM   17 CL   UNL     1     -10.239  16.440  69.062  1.00  0.00    -0.252 Cl 
HETATM   18  C   UNL     1     -12.820  14.056  71.891  1.00  0.00    -0.421 A  
ENDBRANCH  10  11
BRANCH  10  19
HETATM   19  C   UNL     1     -11.998  14.266  67.113  1.00  0.00    -0.417 C  
BRANCH  19  20
HETATM   20  N   UNL     1     -11.638  13.733  65.816  1.00  0.00    -0.322 NA 
HETATM   21  C   UNL     1     -12.458  13.059  64.958  1.00  0.00    -0.477 A  
HETATM   22  N   UNL     1     -10.380  13.188  64.081  1.00  0.00    -0.373 NA 
HETATM   23  C   UNL     1     -11.645  12.677  63.922  1.00  0.00    -0.451 A  
HETATM   24  C   UNL     1     -10.416  13.844  65.219  1.00  0.00    -0.371 A  
ENDBRANCH  19  20
ENDBRANCH  10  19
ENDBRANCH   9  10
ENDBRANCH   8   9
ENDBRANCH   5   8
TORSDOF 6
ENDMDL
MODEL       28
REMARK 921   NORMALIZED FREE ENERGY PREDICTED BY IDOCK:   -5.92 KCAL/MOL
REMARK 922        TOTAL FREE ENERGY PREDICTED BY IDOCK:   -8.92 KCAL/MOL
REMARK 923 INTER-LIGAND FREE ENERGY PREDICTED BY IDOCK:   -8.15 KCAL/MOL
REMARK 924 INTRA-LIGAND FREE ENERGY PREDICTED BY IDOCK:   -0.77 KCAL/MOL
REMARK 927      BINDING AFFINITY PREDICTED BY RF-SCORE:    0.00 PKD
ROOT
HETATM    1 CL   UNL     1      -7.144  21.099  67.035  1.00  0.00    -0.351 Cl 
HETATM    2  C   UNL     1      -8.244  19.846  67.460  1.00  0.00    -0.322 A  
HETATM    3  C   UNL     1      -7.758  18.592  67.823  1.00  0.00    -0.253 A  
HETATM    4  C   UNL     1      -8.655  17.571  68.163  1.00  0.00    -0.258 A  
HETATM    5  C   UNL     1     -10.044  17.793  68.129  1.00  0.00    -0.362 A  
HETATM    6  C   UNL     1     -10.510  19.071  67.781  1.00  0.00    -0.499 A  
HETATM    7  C   UNL     1      -9.614  20.091  67.444  1.00  0.00    -0.524 A  
ENDROOT
BRANCH   5   8
HETATM    8  C   UNL     1     -11.013  16.696  68.537  1.00  0.00    -0.339 C  
BRANCH   8   9
HETATM    9  S   UNL     1     -10.124  15.455  69.521  1.00  0.00    -0.272 SA 
BRANCH   9  10
HETATM   10  C   UNL     1     -10.946  13.809  69.116  1.00  0.00    -0.208 C  
BRANCH  10  11
HETATM   11  C   UNL     1     -11.208  13.674  67.588  1.00  0.00    -0.303 A  
HETATM   12  C   UNL     1     -11.761  13.332  64.814  1.00  0.00    -0.355 A  
HETATM   13  C   UNL     1     -10.186  13.376  66.657  1.00  0.00    -0.274 A  
HETATM   14  C   UNL     1     -12.508  13.823  67.046  1.00  0.00    -0.146 A  
HETATM   15  C   UNL     1     -10.465  13.178  65.294  1.00  0.00    -0.319 A  
HETATM   16 CL   UNL     1     -12.100  13.116  63.142  1.00  0.00    -0.496 Cl 
HETATM   17 CL   UNL     1      -8.519  13.260  67.104  1.00  0.00    -0.201 Cl 
HETATM   18  C   UNL     1     -12.780  13.672  65.683  1.00  0.00    -0.505 A  
ENDBRANCH  10  11
BRANCH  10  19
HETATM   19  C   UNL     1     -12.202  13.546  69.990  1.00  0.00    -0.312 C  
BRANCH  19  20
HETATM   20  N   UNL     1     -12.268  12.223  70.574  1.00  0.00    -0.350 NA 
HETATM   21  C   UNL     1     -11.539  11.132  70.200  1.00  0.00    -0.323 A  
HETATM   22  N   UNL     1     -12.950  10.567  71.871  1.00  0.00    -0.466 NA 
HETATM   23  C   UNL     1     -12.020  10.106  70.972  1.00  0.00    -0.378 A  
HETATM   24  C   UNL     1     -13.056  11.854  71.625  1.00  0.00    -0.328 A  
ENDBRANCH  19  20
ENDBRANCH  10  19
ENDBRANCH   9  10
ENDBRANCH   8   9
ENDBRANCH   5   8
TORSDOF 6
ENDMDL
MODEL       29
REMARK 921   NORMALIZED FREE ENERGY PREDICTED BY IDOCK:   -5.91 KCAL/MOL
REMARK 922        TOTAL FREE ENERGY PREDICTED BY IDOCK:   -8.91 KCAL/MOL
REMARK 923 INTER-LIGAND FREE ENERGY PREDICTED BY IDOCK:   -8.09 KCAL/MOL
REMARK 924 INTRA-LIGAND FREE ENERGY PREDICTED BY IDOCK:   -0.82 KCAL/MOL
REMARK 927      BINDING AFFINITY PREDICTED BY RF-SCORE:    0.00 PKD
ROOT
HETATM    1 CL   UNL     1     -10.108   8.545  66.777  1.00  0.00    -0.347 Cl 
HETATM    2  C   UNL     1     -10.649  10.178  66.797  1.00  0.00    -0.169 A  
HETATM    3  C   UNL     1     -10.472  10.980  65.672  1.00  0.00    -0.293 A  
HETATM    4  C   UNL     1     -10.908  12.311  65.692  1.00  0.00    -0.321 A  
HETATM    5  C   UNL     1     -11.511  12.853  66.841  1.00  0.00    -0.393 A  
HETATM    6  C   UNL     1     -11.700  12.019  67.956  1.00  0.00    -0.398 A  
HETATM    7  C   UNL     1     -11.266  10.690  67.935  1.00  0.00    -0.376 A  
ENDROOT
BRANCH   5   8
HETATM    8  C   UNL     1     -12.020  14.285  66.846  1.00  0.00    -0.438 C  
BRANCH   8   9
HETATM    9  S   UNL     1     -10.602  15.418  66.768  1.00  0.00    -0.311 SA 
BRANCH   9  10
HETATM   10  C   UNL     1     -10.484  16.196  68.479  1.00  0.00    -0.269 C  
BRANCH  10  11
HETATM   11  C   UNL     1      -9.296  17.199  68.558  1.00  0.00    -0.274 A  
HETATM   12  C   UNL     1      -7.122  19.021  68.824  1.00  0.00    -0.318 A  
HETATM   13  C   UNL     1      -9.401  18.547  68.147  1.00  0.00    -0.314 A  
HETATM   14  C   UNL     1      -8.036  16.811  69.075  1.00  0.00    -0.188 A  
HETATM   15  C   UNL     1      -8.337  19.452  68.306  1.00  0.00    -0.379 A  
HETATM   16 CL   UNL     1      -5.810  20.120  68.996  1.00  0.00    -0.304 Cl 
HETATM   17 CL   UNL     1     -10.820  19.187  67.392  1.00  0.00    -0.569 Cl 
HETATM   18  C   UNL     1      -6.961  17.698  69.193  1.00  0.00    -0.217 A  
ENDBRANCH  10  11
BRANCH  10  19
HETATM   19  C   UNL     1     -10.479  15.134  69.611  1.00  0.00    -0.250 C  
BRANCH  19  20
HETATM   20  N   UNL     1     -11.580  15.237  70.545  1.00  0.00    -0.279 NA 
HETATM   21  C   UNL     1     -12.758  14.550  70.492  1.00  0.00    -0.345 A  
HETATM   22  N   UNL     1     -12.777  15.957  72.259  1.00  0.00    -0.443 NA 
HETATM   23  C   UNL     1     -13.506  15.056  71.523  1.00  0.00    -0.436 A  
HETATM   24  C   UNL     1     -11.609  16.022  71.660  1.00  0.00    -0.459 A  
ENDBRANCH  19  20
ENDBRANCH  10  19
ENDBRANCH   9  10
ENDBRANCH   8   9
ENDBRANCH   5   8
TORSDOF 6
ENDMDL
MODEL       30
REMARK 921   NORMALIZED FREE ENERGY PREDICTED BY IDOCK:   -5.89 KCAL/MOL
REMARK 922        TOTAL FREE ENERGY PREDICTED BY IDOCK:   -8.88 KCAL/MOL
REMARK 923 INTER-LIGAND FREE ENERGY PREDICTED BY IDOCK:   -8.02 KCAL/MOL
REMARK 924 INTRA-LIGAND FREE ENERGY PREDICTED BY IDOCK:   -0.86 KCAL/MOL
REMARK 927      BINDING AFFINITY PREDICTED BY RF-SCORE:    0.00 PKD
ROOT
HETATM    1 CL   UNL     1      -7.997   8.782  62.655  1.00  0.00    -0.141 Cl 
HETATM    2  C   UNL     1      -8.857   9.331  64.040  1.00  0.00    -0.133 A  
HETATM    3  C   UNL     1      -9.677  10.452  63.947  1.00  0.00    -0.367 A  
HETATM    4  C   UNL     1     -10.371  10.902  65.078  1.00  0.00    -0.356 A  
HETATM    5  C   UNL     1     -10.240  10.241  66.312  1.00  0.00    -0.287 A  
HETATM    6  C   UNL     1      -9.425   9.099  66.377  1.00  0.00    -0.288 A  
HETATM    7  C   UNL     1      -8.733   8.649  65.248  1.00  0.00    -0.200 A  
ENDROOT
BRANCH   5   8
HETATM    8  C   UNL     1     -11.026  10.705  67.526  1.00  0.00    -0.310 C  
BRANCH   8   9
HETATM    9  S   UNL     1     -10.069  11.979  68.400  1.00  0.00    -0.197 SA 
BRANCH   9  10
HETATM   10  C   UNL     1     -11.052  13.573  68.199  1.00  0.00    -0.257 C  
BRANCH  10  11
HETATM   11  C   UNL     1     -11.527  14.117  69.578  1.00  0.00    -0.334 A  
HETATM   12  C   UNL     1     -12.513  15.092  72.067  1.00  0.00    -0.340 A  
HETATM   13  C   UNL     1     -11.294  15.445  70.001  1.00  0.00    -0.306 A  
HETATM   14  C   UNL     1     -12.249  13.302  70.483  1.00  0.00    -0.416 A  
HETATM   15  C   UNL     1     -11.806  15.934  71.216  1.00  0.00    -0.502 A  
HETATM   16 CL   UNL     1     -13.118  15.680  73.565  1.00  0.00    -0.641 Cl 
HETATM   17 CL   UNL     1     -10.342  16.565  69.087  1.00  0.00    -0.296 Cl 
HETATM   18  C   UNL     1     -12.721  13.772  71.713  1.00  0.00    -0.373 A  
ENDBRANCH  10  11
BRANCH  10  19
HETATM   19  C   UNL     1     -12.193  13.435  67.156  1.00  0.00    -0.256 C  
BRANCH  19  20
HETATM   20  N   UNL     1     -12.006  14.207  65.946  1.00  0.00    -0.392 NA 
HETATM   21  C   UNL     1     -11.128  15.236  65.766  1.00  0.00    -0.301 A  
HETATM   22  N   UNL     1     -12.329  14.923  63.879  1.00  0.00    -0.711 NA 
HETATM   23  C   UNL     1     -11.388  15.704  64.504  1.00  0.00    -0.320 A  
HETATM   24  C   UNL     1     -12.660  14.012  64.765  1.00  0.00    -0.296 A  
ENDBRANCH  19  20
ENDBRANCH  10  19
ENDBRANCH   9  10
ENDBRANCH   8   9
ENDBRANCH   5   8
TORSDOF 6
ENDMDL
MODEL       31
REMARK 921   NORMALIZED FREE ENERGY PREDICTED BY IDOCK:   -5.88 KCAL/MOL
REMARK 922        TOTAL FREE ENERGY PREDICTED BY IDOCK:   -8.87 KCAL/MOL
REMARK 923 INTER-LIGAND FREE ENERGY PREDICTED BY IDOCK:   -8.53 KCAL/MOL
REMARK 924 INTRA-LIGAND FREE ENERGY PREDICTED BY IDOCK:   -0.34 KCAL/MOL
REMARK 927      BINDING AFFINITY PREDICTED BY RF-SCORE:    0.00 PKD
ROOT
HETATM    1 CL   UNL     1     -11.040   7.965  72.755  1.00  0.00    -0.445 Cl 
HETATM    2  C   UNL     1     -11.298   9.224  71.611  1.00  0.00    -0.397 A  
HETATM    3  C   UNL     1     -12.451  10.000  71.684  1.00  0.00    -0.513 A  
HETATM    4  C   UNL     1     -12.663  11.021  70.747  1.00  0.00    -0.414 A  
HETATM    5  C   UNL     1     -11.729  11.263  69.725  1.00  0.00    -0.422 A  
HETATM    6  C   UNL     1     -10.561  10.483  69.684  1.00  0.00    -0.281 A  
HETATM    7  C   UNL     1     -10.350   9.465  70.620  1.00  0.00    -0.349 A  
ENDROOT
BRANCH   5   8
HETATM    8  C   UNL     1     -11.941  12.397  68.736  1.00  0.00    -0.229 C  
BRANCH   8   9
HETATM    9  S   UNL     1     -10.447  13.431  68.689  1.00  0.00    -0.189 SA 
BRANCH   9  10
HETATM   10  C   UNL     1     -10.544  14.382  67.067  1.00  0.00    -0.274 C  
BRANCH  10  11
HETATM   11  C   UNL     1     -10.366  15.911  67.301  1.00  0.00    -0.293 A  
HETATM   12  C   UNL     1     -10.131  18.704  67.810  1.00  0.00    -0.371 A  
HETATM   13  C   UNL     1     -10.535  16.870  66.277  1.00  0.00    -0.262 A  
HETATM   14  C   UNL     1     -10.040  16.428  68.579  1.00  0.00    -0.248 A  
HETATM   15  C   UNL     1     -10.449  18.249  66.535  1.00  0.00    -0.378 A  
HETATM   16 CL   UNL     1      -9.999  20.390  68.123  1.00  0.00    -0.418 Cl 
HETATM   17 CL   UNL     1     -10.831  16.435  64.629  1.00  0.00    -0.256 Cl 
HETATM   18  C   UNL     1      -9.908  17.798  68.829  1.00  0.00    -0.343 A  
ENDBRANCH  10  11
BRANCH  10  19
HETATM   19  C   UNL     1     -11.812  14.022  66.246  1.00  0.00    -0.411 C  
BRANCH  19  20
HETATM   20  N   UNL     1     -11.572  13.163  65.107  1.00  0.00    -0.308 NA 
HETATM   21  C   UNL     1     -10.357  12.792  64.608  1.00  0.00    -0.338 A  
HETATM   22  N   UNL     1     -12.001  11.899  63.343  1.00  0.00    -0.476 NA 
HETATM   23  C   UNL     1     -10.645  12.064  63.484  1.00  0.00    -0.465 A  
HETATM   24  C   UNL     1     -12.531  12.549  64.354  1.00  0.00    -0.446 A  
ENDBRANCH  19  20
ENDBRANCH  10  19
ENDBRANCH   9  10
ENDBRANCH   8   9
ENDBRANCH   5   8
TORSDOF 6
ENDMDL
MODEL       32
REMARK 921   NORMALIZED FREE ENERGY PREDICTED BY IDOCK:   -5.86 KCAL/MOL
REMARK 922        TOTAL FREE ENERGY PREDICTED BY IDOCK:   -8.84 KCAL/MOL
REMARK 923 INTER-LIGAND FREE ENERGY PREDICTED BY IDOCK:   -7.05 KCAL/MOL
REMARK 924 INTRA-LIGAND FREE ENERGY PREDICTED BY IDOCK:   -1.79 KCAL/MOL
REMARK 927      BINDING AFFINITY PREDICTED BY RF-SCORE:    0.00 PKD
ROOT
HETATM    1 CL   UNL     1     -10.852  10.511  70.132  1.00  0.00    -0.326 Cl 
HETATM    2  C   UNL     1     -10.711  11.322  68.622  1.00  0.00    -0.205 A  
HETATM    3  C   UNL     1      -9.460  11.466  68.027  1.00  0.00    -0.181 A  
HETATM    4  C   UNL     1      -9.346  12.132  66.800  1.00  0.00    -0.212 A  
HETATM    5  C   UNL     1     -10.480  12.669  66.166  1.00  0.00    -0.278 A  
HETATM    6  C   UNL     1     -11.735  12.493  66.772  1.00  0.00    -0.453 A  
HETATM    7  C   UNL     1     -11.848  11.826  67.996  1.00  0.00    -0.304 A  
ENDROOT
BRANCH   5   8
HETATM    8  C   UNL     1     -10.359  13.355  64.815  1.00  0.00    -0.379 C  
BRANCH   8   9
HETATM    9  S   UNL     1     -11.351  14.877  64.832  1.00  0.00    -0.406 SA 
BRANCH   9  10
HETATM   10  C   UNL     1     -10.388  16.093  65.901  1.00  0.00    -0.367 C  
BRANCH  10  11
HETATM   11  C   UNL     1     -10.597  15.796  67.415  1.00  0.00    -0.313 A  
HETATM   12  C   UNL     1     -11.028  15.364  70.198  1.00  0.00    -0.310 A  
HETATM   13  C   UNL     1      -9.527  15.543  68.303  1.00  0.00    -0.200 A  
HETATM   14  C   UNL     1     -11.890  15.787  67.994  1.00  0.00     0.024 A  
HETATM   15  C   UNL     1      -9.738  15.359  69.680  1.00  0.00    -0.251 A  
HETATM   16 CL   UNL     1     -11.291  15.114  71.879  1.00  0.00    -0.456 Cl 
HETATM   17 CL   UNL     1      -7.885  15.407  67.773  1.00  0.00    -0.144 Cl 
HETATM   18  C   UNL     1     -12.107  15.559  69.356  1.00  0.00    -0.302 A  
ENDBRANCH  10  11
BRANCH  10  19
HETATM   19  C   UNL     1     -10.666  17.570  65.512  1.00  0.00    -0.062 C  
BRANCH  19  20
HETATM   20  N   UNL     1     -10.076  18.552  66.396  1.00  0.00    -0.385 NA 
HETATM   21  C   UNL     1      -8.750  18.861  66.499  1.00  0.00    -0.316 A  
HETATM   22  N   UNL     1      -9.934  20.089  67.980  1.00  0.00    -0.410 NA 
HETATM   23  C   UNL     1      -8.678  19.766  67.526  1.00  0.00    -0.330 A  
HETATM   24  C   UNL     1     -10.756  19.361  67.259  1.00  0.00    -0.490 A  
ENDBRANCH  19  20
ENDBRANCH  10  19
ENDBRANCH   9  10
ENDBRANCH   8   9
ENDBRANCH   5   8
TORSDOF 6
ENDMDL
MODEL       33
REMARK 921   NORMALIZED FREE ENERGY PREDICTED BY IDOCK:   -5.81 KCAL/MOL
REMARK 922        TOTAL FREE ENERGY PREDICTED BY IDOCK:   -8.77 KCAL/MOL
REMARK 923 INTER-LIGAND FREE ENERGY PREDICTED BY IDOCK:   -7.66 KCAL/MOL
REMARK 924 INTRA-LIGAND FREE ENERGY PREDICTED BY IDOCK:   -1.11 KCAL/MOL
REMARK 927      BINDING AFFINITY PREDICTED BY RF-SCORE:    0.00 PKD
ROOT
HETATM    1 CL   UNL     1      -9.904  19.894  66.792  1.00  0.00    -0.511 Cl 
HETATM    2  C   UNL     1      -9.956  18.179  66.671  1.00  0.00    -0.362 A  
HETATM    3  C   UNL     1      -9.400  17.396  67.680  1.00  0.00    -0.245 A  
HETATM    4  C   UNL     1      -9.437  15.999  67.576  1.00  0.00    -0.223 A  
HETATM    5  C   UNL     1     -10.019  15.377  66.458  1.00  0.00    -0.282 A  
HETATM    6  C   UNL     1     -10.594  16.186  65.463  1.00  0.00    -0.394 A  
HETATM    7  C   UNL     1     -10.558  17.580  65.568  1.00  0.00    -0.097 A  
ENDROOT
BRANCH   5   8
HETATM    8  C   UNL     1     -10.095  13.862  66.367  1.00  0.00    -0.295 C  
BRANCH   8   9
HETATM    9  S   UNL     1     -11.778  13.326  66.794  1.00  0.00    -0.399 SA 
BRANCH   9  10
HETATM   10  C   UNL     1     -11.610  12.387  68.419  1.00  0.00    -0.324 C  
BRANCH  10  11
HETATM   11  C   UNL     1     -12.093  13.253  69.619  1.00  0.00    -0.331 A  
HETATM   12  C   UNL     1     -12.864  14.881  71.827  1.00  0.00    -0.330 A  
HETATM   13  C   UNL     1     -12.601  12.694  70.814  1.00  0.00    -0.217 A  
HETATM   14  C   UNL     1     -12.026  14.667  69.583  1.00  0.00    -0.368 A  
HETATM   15  C   UNL     1     -12.953  13.497  71.913  1.00  0.00    -0.431 A  
HETATM   16 CL   UNL     1     -13.318  15.866  73.161  1.00  0.00    -0.672 Cl 
HETATM   17 CL   UNL     1     -12.860  10.995  71.015  1.00  0.00    -0.453 Cl 
HETATM   18  C   UNL     1     -12.419  15.470  70.658  1.00  0.00    -0.483 A  
ENDBRANCH  10  11
BRANCH  10  19
HETATM   19  C   UNL     1     -10.190  11.791  68.612  1.00  0.00    -0.201 C  
BRANCH  19  20
HETATM   20  N   UNL     1     -10.147  10.349  68.724  1.00  0.00    -0.178 NA 
HETATM   21  C   UNL     1     -10.367   9.449  67.722  1.00  0.00    -0.238 A  
HETATM   22  N   UNL     1      -9.967   8.351  69.655  1.00  0.00    -0.189 NA 
HETATM   23  C   UNL     1     -10.313   8.223  68.332  1.00  0.00    -0.199 A  
HETATM   24  C   UNL     1      -9.846   9.644  69.853  1.00  0.00    -0.239 A  
ENDBRANCH  19  20
ENDBRANCH  10  19
ENDBRANCH   9  10
ENDBRANCH   8   9
ENDBRANCH   5   8
TORSDOF 6
ENDMDL
MODEL       34
REMARK 921   NORMALIZED FREE ENERGY PREDICTED BY IDOCK:   -5.80 KCAL/MOL
REMARK 922        TOTAL FREE ENERGY PREDICTED BY IDOCK:   -8.76 KCAL/MOL
REMARK 923 INTER-LIGAND FREE ENERGY PREDICTED BY IDOCK:   -8.10 KCAL/MOL
REMARK 924 INTRA-LIGAND FREE ENERGY PREDICTED BY IDOCK:   -0.65 KCAL/MOL
REMARK 927      BINDING AFFINITY PREDICTED BY RF-SCORE:    0.00 PKD
ROOT
HETATM    1 CL   UNL     1     -10.656  19.613  65.710  1.00  0.00    -0.602 Cl 
HETATM    2  C   UNL     1     -10.472  18.145  66.588  1.00  0.00    -0.339 A  
HETATM    3  C   UNL     1     -10.489  18.164  67.980  1.00  0.00    -0.387 A  
HETATM    4  C   UNL     1     -10.332  16.969  68.694  1.00  0.00    -0.351 A  
HETATM    5  C   UNL     1     -10.144  15.749  68.020  1.00  0.00    -0.228 A  
HETATM    6  C   UNL     1     -10.152  15.750  66.615  1.00  0.00    -0.287 A  
HETATM    7  C   UNL     1     -10.311  16.943  65.903  1.00  0.00    -0.327 A  
ENDROOT
BRANCH   5   8
HETATM    8  C   UNL     1     -10.015  14.449  68.795  1.00  0.00    -0.223 C  
BRANCH   8   9
HETATM    9  S   UNL     1     -11.624  13.605  68.811  1.00  0.00    -0.347 SA 
BRANCH   9  10
HETATM   10  C   UNL     1     -11.300  11.891  68.101  1.00  0.00    -0.288 C  
BRANCH  10  11
HETATM   11  C   UNL     1     -10.708  10.939  69.182  1.00  0.00    -0.265 A  
HETATM   12  C   UNL     1      -9.599   9.117  71.071  1.00  0.00    -0.280 A  
HETATM   13  C   UNL     1     -11.485  10.385  70.225  1.00  0.00    -0.325 A  
HETATM   14  C   UNL     1      -9.345  10.556  69.161  1.00  0.00    -0.200 A  
HETATM   15  C   UNL     1     -10.943   9.463  71.138  1.00  0.00    -0.430 A  
HETATM   16 CL   UNL     1      -8.928   8.010  72.203  1.00  0.00    -0.199 Cl 
HETATM   17 CL   UNL     1     -13.141  10.810  70.485  1.00  0.00    -0.247 Cl 
HETATM   18  C   UNL     1      -8.793   9.675  70.096  1.00  0.00    -0.266 A  
ENDBRANCH  10  11
BRANCH  10  19
HETATM   19  C   UNL     1     -10.467  11.941  66.792  1.00  0.00    -0.221 C  
BRANCH  19  20
HETATM   20  N   UNL     1     -11.248  12.073  65.581  1.00  0.00    -0.326 NA 
HETATM   21  C   UNL     1     -11.031  11.426  64.399  1.00  0.00    -0.302 A  
HETATM   22  N   UNL     1     -12.799  12.816  64.190  1.00  0.00    -0.710 NA 
HETATM   23  C   UNL     1     -11.961  11.946  63.537  1.00  0.00    -0.466 A  
HETATM   24  C   UNL     1     -12.360  12.849  65.428  1.00  0.00    -0.485 A  
ENDBRANCH  19  20
ENDBRANCH  10  19
ENDBRANCH   9  10
ENDBRANCH   8   9
ENDBRANCH   5   8
TORSDOF 6
ENDMDL
MODEL       35
REMARK 921   NORMALIZED FREE ENERGY PREDICTED BY IDOCK:   -5.79 KCAL/MOL
REMARK 922        TOTAL FREE ENERGY PREDICTED BY IDOCK:   -8.74 KCAL/MOL
REMARK 923 INTER-LIGAND FREE ENERGY PREDICTED BY IDOCK:   -7.09 KCAL/MOL
REMARK 924 INTRA-LIGAND FREE ENERGY PREDICTED BY IDOCK:   -1.65 KCAL/MOL
REMARK 927      BINDING AFFINITY PREDICTED BY RF-SCORE:    0.00 PKD
ROOT
HETATM    1 CL   UNL     1     -10.752   8.167  67.578  1.00  0.00    -0.283 Cl 
HETATM    2  C   UNL     1      -9.913   9.668  67.534  1.00  0.00    -0.183 A  
HETATM    3  C   UNL     1      -9.381  10.129  66.333  1.00  0.00    -0.209 A  
HETATM    4  C   UNL     1      -8.693  11.349  66.301  1.00  0.00    -0.173 A  
HETATM    5  C   UNL     1      -8.521  12.109  67.471  1.00  0.00    -0.169 A  
HETATM    6  C   UNL     1      -9.085  11.635  68.668  1.00  0.00    -0.103 A  
HETATM    7  C   UNL     1      -9.773  10.418  68.699  1.00  0.00    -0.178 A  
ENDROOT
BRANCH   5   8
HETATM    8  C   UNL     1      -7.809  13.451  67.426  1.00  0.00    -0.146 C  
BRANCH   8   9
HETATM    9  S   UNL     1      -8.701  14.631  68.480  1.00  0.00    -0.178 SA 
BRANCH   9  10
HETATM   10  C   UNL     1      -9.858  15.565  67.323  1.00  0.00    -0.224 C  
BRANCH  10  11
HETATM   11  C   UNL     1     -10.615  14.587  66.377  1.00  0.00    -0.302 A  
HETATM   12  C   UNL     1     -12.038  12.892  64.583  1.00  0.00    -0.418 A  
HETATM   13  C   UNL     1     -11.663  13.748  66.820  1.00  0.00    -0.391 A  
HETATM   14  C   UNL     1     -10.301  14.502  64.999  1.00  0.00    -0.442 A  
HETATM   15  C   UNL     1     -12.384  12.935  65.928  1.00  0.00    -0.378 A  
HETATM   16 CL   UNL     1     -12.902  11.879  63.494  1.00  0.00    -0.587 Cl 
HETATM   17 CL   UNL     1     -12.125  13.627  68.483  1.00  0.00    -0.385 Cl 
HETATM   18  C   UNL     1     -10.987  13.660  64.118  1.00  0.00    -0.211 A  
ENDBRANCH  10  11
BRANCH  10  19
HETATM   19  C   UNL     1      -9.140  16.722  66.577  1.00  0.00    -0.273 C  
BRANCH  19  20
HETATM   20  N   UNL     1      -9.537  18.050  66.993  1.00  0.00    -0.278 NA 
HETATM   21  C   UNL     1      -9.986  19.055  66.186  1.00  0.00    -0.364 A  
HETATM   22  N   UNL     1      -9.889  19.782  68.322  1.00  0.00    -0.410 NA 
HETATM   23  C   UNL     1     -10.138  20.133  67.018  1.00  0.00    -0.459 A  
HETATM   24  C   UNL     1      -9.558  18.511  68.277  1.00  0.00    -0.343 A  
ENDBRANCH  19  20
ENDBRANCH  10  19
ENDBRANCH   9  10
ENDBRANCH   8   9
ENDBRANCH   5   8
TORSDOF 6
ENDMDL
MODEL       36
REMARK 921   NORMALIZED FREE ENERGY PREDICTED BY IDOCK:   -5.76 KCAL/MOL
REMARK 922        TOTAL FREE ENERGY PREDICTED BY IDOCK:   -8.70 KCAL/MOL
REMARK 923 INTER-LIGAND FREE ENERGY PREDICTED BY IDOCK:   -7.86 KCAL/MOL
REMARK 924 INTRA-LIGAND FREE ENERGY PREDICTED BY IDOCK:   -0.84 KCAL/MOL
REMARK 927      BINDING AFFINITY PREDICTED BY RF-SCORE:    0.00 PKD
ROOT
HETATM    1 CL   UNL     1     -13.960  15.515  72.546  1.00  0.00    -0.649 Cl 
HETATM    2  C   UNL     1     -13.307  14.103  71.812  1.00  0.00    -0.380 A  
HETATM    3  C   UNL     1     -13.564  12.852  72.368  1.00  0.00    -0.577 A  
HETATM    4  C   UNL     1     -13.026  11.703  71.772  1.00  0.00    -0.483 A  
HETATM    5  C   UNL     1     -12.219  11.799  70.625  1.00  0.00    -0.443 A  
HETATM    6  C   UNL     1     -11.991  13.069  70.069  1.00  0.00    -0.383 A  
HETATM    7  C   UNL     1     -12.530  14.215  70.663  1.00  0.00    -0.432 A  
ENDROOT
BRANCH   5   8
HETATM    8  C   UNL     1     -11.671  10.549  69.958  1.00  0.00    -0.312 C  
BRANCH   8   9
HETATM    9  S   UNL     1     -10.003  10.895  69.328  1.00  0.00    -0.044 SA 
BRANCH   9  10
HETATM   10  C   UNL     1      -9.881   9.971  67.691  1.00  0.00    -0.162 C  
BRANCH  10  11
HETATM   11  C   UNL     1     -10.407  10.844  66.514  1.00  0.00    -0.299 A  
HETATM   12  C   UNL     1     -11.482  12.404  64.386  1.00  0.00    -0.347 A  
HETATM   13  C   UNL     1     -10.045  10.615  65.167  1.00  0.00    -0.307 A  
HETATM   14  C   UNL     1     -11.306  11.915  66.734  1.00  0.00    -0.393 A  
HETATM   15  C   UNL     1     -10.599  11.366  64.115  1.00  0.00    -0.430 A  
HETATM   16 CL   UNL     1     -12.141  13.342  63.104  1.00  0.00    -0.455 Cl 
HETATM   17 CL   UNL     1      -8.879   9.424  64.702  1.00  0.00    -0.235 Cl 
HETATM   18  C   UNL     1     -11.824  12.694  65.694  1.00  0.00    -0.488 A  
ENDBRANCH  10  11
BRANCH  10  19
HETATM   19  C   UNL     1     -10.528   8.562  67.759  1.00  0.00    -0.223 C  
BRANCH  19  20
HETATM   20  N   UNL     1      -9.910   7.656  68.702  1.00  0.00    -0.166 NA 
HETATM   21  C   UNL     1     -10.552   6.779  69.529  1.00  0.00    -0.232 A  
HETATM   22  N   UNL     1      -8.324   6.661  69.879  1.00  0.00    -0.130 NA 
HETATM   23  C   UNL     1      -9.558   6.221  70.290  1.00  0.00    -0.164 A  
HETATM   24  C   UNL     1      -8.568   7.502  68.901  1.00  0.00    -0.129 A  
ENDBRANCH  19  20
ENDBRANCH  10  19
ENDBRANCH   9  10
ENDBRANCH   8   9
ENDBRANCH   5   8
TORSDOF 6
ENDMDL
MODEL       37
REMARK 921   NORMALIZED FREE ENERGY PREDICTED BY IDOCK:   -5.75 KCAL/MOL
REMARK 922        TOTAL FREE ENERGY PREDICTED BY IDOCK:   -8.68 KCAL/MOL
REMARK 923 INTER-LIGAND FREE ENERGY PREDICTED BY IDOCK:   -7.95 KCAL/MOL
REMARK 924 INTRA-LIGAND FREE ENERGY PREDICTED BY IDOCK:   -0.74 KCAL/MOL
REMARK 927      BINDING AFFINITY PREDICTED BY RF-SCORE:    0.00 PKD
ROOT
HETATM    1 CL   UNL     1      -9.183   9.743  63.377  1.00  0.00    -0.272 Cl 
HETATM    2  C   UNL     1      -9.967  11.031  64.205  1.00  0.00    -0.329 A  
HETATM    3  C   UNL     1      -9.906  11.100  65.594  1.00  0.00    -0.280 A  
HETATM    4  C   UNL     1     -10.550  12.147  66.267  1.00  0.00    -0.285 A  
HETATM    5  C   UNL     1     -11.270  13.123  65.556  1.00  0.00    -0.305 A  
HETATM    6  C   UNL     1     -11.299  13.046  64.153  1.00  0.00    -0.442 A  
HETATM    7  C   UNL     1     -10.655  12.003  63.482  1.00  0.00    -0.514 A  
ENDROOT
BRANCH   5   8
HETATM    8  C   UNL     1     -11.933  14.280  66.285  1.00  0.00    -0.412 C  
BRANCH   8   9
HETATM    9  S   UNL     1     -11.896  13.955  68.072  1.00  0.00    -0.363 SA 
BRANCH   9  10
HETATM   10  C   UNL     1     -11.186  15.515  68.852  1.00  0.00    -0.304 C  
BRANCH  10  11
HETATM   11  C   UNL     1      -9.949  16.027  68.058  1.00  0.00    -0.229 A  
HETATM   12  C   UNL     1      -7.617  16.945  66.702  1.00  0.00    -0.266 A  
HETATM   13  C   UNL     1      -9.851  17.345  67.555  1.00  0.00    -0.277 A  
HETATM   14  C   UNL     1      -8.832  15.192  67.813  1.00  0.00    -0.171 A  
HETATM   15  C   UNL     1      -8.688  17.805  66.913  1.00  0.00    -0.262 A  
HETATM   16 CL   UNL     1      -6.203  17.498  65.894  1.00  0.00    -0.193 Cl 
HETATM   17 CL   UNL     1     -11.149  18.484  67.659  1.00  0.00    -0.174 Cl 
HETATM   18  C   UNL     1      -7.692  15.634  67.134  1.00  0.00    -0.258 A  
ENDBRANCH  10  11
BRANCH  10  19
HETATM   19  C   UNL     1     -10.924  15.347  70.373  1.00  0.00    -0.323 C  
BRANCH  19  20
HETATM   20  N   UNL     1     -12.097  15.481  71.209  1.00  0.00    -0.347 NA 
HETATM   21  C   UNL     1     -13.380  15.164  70.867  1.00  0.00    -0.408 A  
HETATM   22  N   UNL     1     -13.338  16.005  72.963  1.00  0.00    -0.539 NA 
HETATM   23  C   UNL     1     -14.137  15.554  71.941  1.00  0.00    -0.486 A  
HETATM   24  C   UNL     1     -12.111  15.922  72.501  1.00  0.00    -0.509 A  
ENDBRANCH  19  20
ENDBRANCH  10  19
ENDBRANCH   9  10
ENDBRANCH   8   9
ENDBRANCH   5   8
TORSDOF 6
ENDMDL
MODEL       38
REMARK 921   NORMALIZED FREE ENERGY PREDICTED BY IDOCK:   -5.70 KCAL/MOL
REMARK 922        TOTAL FREE ENERGY PREDICTED BY IDOCK:   -8.62 KCAL/MOL
REMARK 923 INTER-LIGAND FREE ENERGY PREDICTED BY IDOCK:   -8.14 KCAL/MOL
REMARK 924 INTRA-LIGAND FREE ENERGY PREDICTED BY IDOCK:   -0.48 KCAL/MOL
REMARK 927      BINDING AFFINITY PREDICTED BY RF-SCORE:    0.00 PKD
ROOT
HETATM    1 CL   UNL     1     -13.591  15.823  72.946  1.00  0.00    -0.660 Cl 
HETATM    2  C   UNL     1     -12.684  15.354  71.561  1.00  0.00    -0.411 A  
HETATM    3  C   UNL     1     -11.504  16.023  71.247  1.00  0.00    -0.475 A  
HETATM    4  C   UNL     1     -10.770  15.644  70.115  1.00  0.00    -0.355 A  
HETATM    5  C   UNL     1     -11.218  14.602  69.284  1.00  0.00    -0.306 A  
HETATM    6  C   UNL     1     -12.399  13.927  69.633  1.00  0.00    -0.301 A  
HETATM    7  C   UNL     1     -13.130  14.304  70.763  1.00  0.00    -0.321 A  
ENDROOT
BRANCH   5   8
HETATM    8  C   UNL     1     -10.399  14.166  68.081  1.00  0.00    -0.239 C  
BRANCH   8   9
HETATM    9  S   UNL     1      -9.636  12.556  68.435  1.00  0.00    -0.129 SA 
BRANCH   9  10
HETATM   10  C   UNL     1     -10.661  11.293  67.486  1.00  0.00    -0.232 C  
BRANCH  10  11
HETATM   11  C   UNL     1     -10.628   9.903  68.186  1.00  0.00    -0.270 A  
HETATM   12  C   UNL     1     -10.647   7.319  69.387  1.00  0.00    -0.229 A  
HETATM   13  C   UNL     1     -11.034   9.709  69.526  1.00  0.00    -0.208 A  
HETATM   14  C   UNL     1     -10.202   8.740  67.499  1.00  0.00    -0.309 A  
HETATM   15  C   UNL     1     -11.072   8.429  70.108  1.00  0.00    -0.183 A  
HETATM   16 CL   UNL     1     -10.667   5.757  70.105  1.00  0.00    -0.377 Cl 
HETATM   17 CL   UNL     1     -11.487  11.016  70.565  1.00  0.00    -0.335 Cl 
HETATM   18  C   UNL     1     -10.195   7.473  68.090  1.00  0.00    -0.228 A  
ENDBRANCH  10  11
BRANCH  10  19
HETATM   19  C   UNL     1     -10.288  11.241  65.980  1.00  0.00    -0.252 C  
BRANCH  19  20
HETATM   20  N   UNL     1     -11.147  12.021  65.115  1.00  0.00    -0.311 NA 
HETATM   21  C   UNL     1     -10.890  12.377  63.822  1.00  0.00    -0.454 A  
HETATM   22  N   UNL     1     -12.874  13.241  64.470  1.00  0.00    -0.680 NA 
HETATM   23  C   UNL     1     -11.941  13.182  63.465  1.00  0.00    -0.513 A  
HETATM   24  C   UNL     1     -12.379  12.506  65.440  1.00  0.00    -0.359 A  
ENDBRANCH  19  20
ENDBRANCH  10  19
ENDBRANCH   9  10
ENDBRANCH   8   9
ENDBRANCH   5   8
TORSDOF 6
ENDMDL
MODEL       39
REMARK 921   NORMALIZED FREE ENERGY PREDICTED BY IDOCK:   -5.62 KCAL/MOL
REMARK 922        TOTAL FREE ENERGY PREDICTED BY IDOCK:   -8.51 KCAL/MOL
REMARK 923 INTER-LIGAND FREE ENERGY PREDICTED BY IDOCK:   -7.88 KCAL/MOL
REMARK 924 INTRA-LIGAND FREE ENERGY PREDICTED BY IDOCK:   -0.63 KCAL/MOL
REMARK 927      BINDING AFFINITY PREDICTED BY RF-SCORE:    0.00 PKD
ROOT
HETATM    1 CL   UNL     1      -7.864   8.772  62.682  1.00  0.00    -0.129 Cl 
HETATM    2  C   UNL     1      -8.933   9.805  63.547  1.00  0.00    -0.244 A  
HETATM    3  C   UNL     1      -9.104   9.634  64.918  1.00  0.00    -0.284 A  
HETATM    4  C   UNL     1      -9.980  10.472  65.620  1.00  0.00    -0.332 A  
HETATM    5  C   UNL     1     -10.701  11.479  64.953  1.00  0.00    -0.357 A  
HETATM    6  C   UNL     1     -10.496  11.648  63.574  1.00  0.00    -0.498 A  
HETATM    7  C   UNL     1      -9.620  10.812  62.874  1.00  0.00    -0.366 A  
ENDROOT
BRANCH   5   8
HETATM    8  C   UNL     1     -11.619  12.413  65.723  1.00  0.00    -0.398 C  
BRANCH   8   9
HETATM    9  S   UNL     1     -11.156  12.385  67.480  1.00  0.00    -0.283 SA 
BRANCH   9  10
HETATM   10  C   UNL     1     -10.723  14.166  67.915  1.00  0.00    -0.240 C  
BRANCH  10  11
HETATM   11  C   UNL     1     -11.297  14.559  69.307  1.00  0.00    -0.317 A  
HETATM   12  C   UNL     1     -12.455  15.301  71.802  1.00  0.00    -0.359 A  
HETATM   13  C   UNL     1     -10.794  15.638  70.069  1.00  0.00    -0.330 A  
HETATM   14  C   UNL     1     -12.385  13.857  69.882  1.00  0.00    -0.358 A  
HETATM   15  C   UNL     1     -11.385  16.022  71.285  1.00  0.00    -0.397 A  
HETATM   16 CL   UNL     1     -13.163  15.753  73.303  1.00  0.00    -0.661 Cl 
HETATM   17 CL   UNL     1      -9.404  16.551  69.591  1.00  0.00     0.113 Cl 
HETATM   18  C   UNL     1     -12.946  14.208  71.114  1.00  0.00    -0.419 A  
ENDBRANCH  10  11
BRANCH  10  19
HETATM   19  C   UNL     1     -11.100  15.158  66.783  1.00  0.00    -0.307 C  
BRANCH  19  20
HETATM   20  N   UNL     1     -10.073  16.125  66.457  1.00  0.00    -0.277 NA 
HETATM   21  C   UNL     1      -8.744  15.871  66.281  1.00  0.00    -0.337 A  
HETATM   22  N   UNL     1      -9.134  18.083  66.041  1.00  0.00    -0.521 NA 
HETATM   23  C   UNL     1      -8.173  17.103  66.087  1.00  0.00    -0.234 A  
HETATM   24  C   UNL     1     -10.272  17.457  66.239  1.00  0.00    -0.341 A  
ENDBRANCH  19  20
ENDBRANCH  10  19
ENDBRANCH   9  10
ENDBRANCH   8   9
ENDBRANCH   5   8
TORSDOF 6
ENDMDL
MODEL       40
REMARK 921   NORMALIZED FREE ENERGY PREDICTED BY IDOCK:   -5.59 KCAL/MOL
REMARK 922        TOTAL FREE ENERGY PREDICTED BY IDOCK:   -8.47 KCAL/MOL
REMARK 923 INTER-LIGAND FREE ENERGY PREDICTED BY IDOCK:   -7.85 KCAL/MOL
REMARK 924 INTRA-LIGAND FREE ENERGY PREDICTED BY IDOCK:   -0.62 KCAL/MOL
REMARK 927      BINDING AFFINITY PREDICTED BY RF-SCORE:    0.00 PKD
ROOT
HETATM    1 CL   UNL     1     -12.760  16.008  74.399  1.00  0.00    -0.585 Cl 
HETATM    2  C   UNL     1     -12.548  15.253  72.868  1.00  0.00    -0.408 A  
HETATM    3  C   UNL     1     -11.803  15.889  71.879  1.00  0.00    -0.595 A  
HETATM    4  C   UNL     1     -11.636  15.275  70.631  1.00  0.00    -0.355 A  
HETATM    5  C   UNL     1     -12.224  14.027  70.360  1.00  0.00    -0.433 A  
HETATM    6  C   UNL     1     -12.953  13.393  71.379  1.00  0.00    -0.412 A  
HETATM    7  C   UNL     1     -13.118  14.006  72.626  1.00  0.00    -0.553 A  
ENDROOT
BRANCH   5   8
HETATM    8  C   UNL     1     -12.008  13.345  69.019  1.00  0.00    -0.315 C  
BRANCH   8   9
HETATM    9  S   UNL     1     -11.534  11.614  69.304  1.00  0.00    -0.325 SA 
BRANCH   9  10
HETATM   10  C   UNL     1     -10.627  11.077  67.743  1.00  0.00    -0.211 C  
BRANCH  10  11
HETATM   11  C   UNL     1      -9.345  10.266  68.091  1.00  0.00    -0.144 A  
HETATM   12  C   UNL     1      -6.933   8.861  68.660  1.00  0.00    -0.064 A  
HETATM   13  C   UNL     1      -9.159   8.920  67.702  1.00  0.00    -0.134 A  
HETATM   14  C   UNL     1      -8.272  10.852  68.806  1.00  0.00    -0.151 A  
HETATM   15  C   UNL     1      -7.957   8.237  67.957  1.00  0.00    -0.123 A  
HETATM   16 CL   UNL     1      -5.471   8.019  68.997  1.00  0.00    -0.029 Cl 
HETATM   17 CL   UNL     1     -10.391   7.995  66.914  1.00  0.00    -0.403 Cl 
HETATM   18  C   UNL     1      -7.093  10.160  69.102  1.00  0.00    -0.073 A  
ENDBRANCH  10  11
BRANCH  10  19
HETATM   19  C   UNL     1     -10.372  12.260  66.772  1.00  0.00    -0.217 C  
BRANCH  19  20
HETATM   20  N   UNL     1     -11.203  12.263  65.587  1.00  0.00    -0.320 NA 
HETATM   21  C   UNL     1     -11.005  11.531  64.453  1.00  0.00    -0.324 A  
HETATM   22  N   UNL     1     -12.835  12.832  64.207  1.00  0.00    -0.720 NA 
HETATM   23  C   UNL     1     -11.987  11.944  63.591  1.00  0.00    -0.476 A  
HETATM   24  C   UNL     1     -12.352  12.981  65.419  1.00  0.00    -0.486 A  
ENDBRANCH  19  20
ENDBRANCH  10  19
ENDBRANCH   9  10
ENDBRANCH   8   9
ENDBRANCH   5   8
TORSDOF 6
ENDMDL
MODEL       41
REMARK 921   NORMALIZED FREE ENERGY PREDICTED BY IDOCK:   -5.58 KCAL/MOL
REMARK 922        TOTAL FREE ENERGY PREDICTED BY IDOCK:   -8.45 KCAL/MOL
REMARK 923 INTER-LIGAND FREE ENERGY PREDICTED BY IDOCK:   -7.16 KCAL/MOL
REMARK 924 INTRA-LIGAND FREE ENERGY PREDICTED BY IDOCK:   -1.30 KCAL/MOL
REMARK 927      BINDING AFFINITY PREDICTED BY RF-SCORE:    0.00 PKD
ROOT
HETATM    1 CL   UNL     1      -9.208   5.094  68.246  1.00  0.00    -0.128 Cl 
HETATM    2  C   UNL     1      -8.996   6.729  67.755  1.00  0.00    -0.116 A  
HETATM    3  C   UNL     1      -9.817   7.267  66.768  1.00  0.00    -0.281 A  
HETATM    4  C   UNL     1      -9.638   8.597  66.365  1.00  0.00    -0.316 A  
HETATM    5  C   UNL     1      -8.630   9.393  66.937  1.00  0.00    -0.132 A  
HETATM    6  C   UNL     1      -7.829   8.835  67.947  1.00  0.00    -0.102 A  
HETATM    7  C   UNL     1      -8.008   7.509  68.351  1.00  0.00    -0.123 A  
ENDROOT
BRANCH   5   8
HETATM    8  C   UNL     1      -8.465  10.846  66.528  1.00  0.00    -0.159 C  
BRANCH   8   9
HETATM    9  S   UNL     1      -8.780  11.908  67.968  1.00  0.00    -0.178 SA 
BRANCH   9  10
HETATM   10  C   UNL     1     -10.651  12.113  68.043  1.00  0.00    -0.210 C  
BRANCH  10  11
HETATM   11  C   UNL     1     -11.252  11.346  69.258  1.00  0.00    -0.342 A  
HETATM   12  C   UNL     1     -12.406   9.869  71.403  1.00  0.00    -0.404 A  
HETATM   13  C   UNL     1     -12.128  11.949  70.188  1.00  0.00    -0.302 A  
HETATM   14  C   UNL     1     -10.962   9.979  69.483  1.00  0.00    -0.289 A  
HETATM   15  C   UNL     1     -12.720  11.212  71.229  1.00  0.00    -0.531 A  
HETATM   16 CL   UNL     1     -13.109   8.971  72.690  1.00  0.00    -0.446 Cl 
HETATM   17 CL   UNL     1     -12.521  13.633  70.148  1.00  0.00    -0.344 Cl 
HETATM   18  C   UNL     1     -11.514   9.254  70.544  1.00  0.00    -0.296 A  
ENDBRANCH  10  11
BRANCH  10  19
HETATM   19  C   UNL     1     -11.337  11.774  66.692  1.00  0.00    -0.316 C  
BRANCH  19  20
HETATM   20  N   UNL     1     -11.564  12.910  65.825  1.00  0.00    -0.348 NA 
HETATM   21  C   UNL     1     -10.609  13.696  65.247  1.00  0.00    -0.346 A  
HETATM   22  N   UNL     1     -12.660  14.463  64.695  1.00  0.00    -0.653 NA 
HETATM   23  C   UNL     1     -11.307  14.685  64.605  1.00  0.00    -0.369 A  
HETATM   24  C   UNL     1     -12.780  13.369  65.412  1.00  0.00    -0.426 A  
ENDBRANCH  19  20
ENDBRANCH  10  19
ENDBRANCH   9  10
ENDBRANCH   8   9
ENDBRANCH   5   8
TORSDOF 6
ENDMDL
MODEL       42
REMARK 921   NORMALIZED FREE ENERGY PREDICTED BY IDOCK:   -5.56 KCAL/MOL
REMARK 922        TOTAL FREE ENERGY PREDICTED BY IDOCK:   -8.43 KCAL/MOL
REMARK 923 INTER-LIGAND FREE ENERGY PREDICTED BY IDOCK:   -7.66 KCAL/MOL
REMARK 924 INTRA-LIGAND FREE ENERGY PREDICTED BY IDOCK:   -0.77 KCAL/MOL
REMARK 927      BINDING AFFINITY PREDICTED BY RF-SCORE:    0.00 PKD
ROOT
HETATM    1 CL   UNL     1     -12.457  12.124  63.253  1.00  0.00    -0.620 Cl 
HETATM    2  C   UNL     1     -11.618  11.980  64.748  1.00  0.00    -0.281 A  
HETATM    3  C   UNL     1     -10.551  11.093  64.861  1.00  0.00    -0.356 A  
HETATM    4  C   UNL     1      -9.873  10.972  66.081  1.00  0.00    -0.268 A  
HETATM    5  C   UNL     1     -10.265  11.730  67.199  1.00  0.00    -0.236 A  
HETATM    6  C   UNL     1     -11.329  12.635  67.056  1.00  0.00    -0.377 A  
HETATM    7  C   UNL     1     -12.005  12.756  65.838  1.00  0.00    -0.506 A  
ENDROOT
BRANCH   5   8
HETATM    8  C   UNL     1      -9.502  11.628  68.509  1.00  0.00    -0.173 C  
BRANCH   8   9
HETATM    9  S   UNL     1      -9.625   9.927  69.137  1.00  0.00    -0.211 SA 
BRANCH   9  10
HETATM   10  C   UNL     1     -10.890   9.996  70.531  1.00  0.00    -0.314 C  
BRANCH  10  11
HETATM   11  C   UNL     1     -11.076   8.597  71.188  1.00  0.00    -0.324 A  
HETATM   12  C   UNL     1     -11.512   6.081  72.452  1.00  0.00    -0.308 A  
HETATM   13  C   UNL     1     -10.104   8.009  72.030  1.00  0.00    -0.218 A  
HETATM   14  C   UNL     1     -12.256   7.840  70.991  1.00  0.00    -0.236 A  
HETATM   15  C   UNL     1     -10.333   6.782  72.677  1.00  0.00    -0.225 A  
HETATM   16 CL   UNL     1     -11.783   4.567  73.222  1.00  0.00    -0.283 Cl 
HETATM   17 CL   UNL     1      -8.554   8.725  72.311  1.00  0.00    -0.155 Cl 
HETATM   18  C   UNL     1     -12.467   6.597  71.597  1.00  0.00    -0.353 A  
ENDBRANCH  10  11
BRANCH  10  19
HETATM   19  C   UNL     1     -12.222  10.657  70.087  1.00  0.00    -0.320 C  
BRANCH  19  20
HETATM   20  N   UNL     1     -12.608  11.820  70.857  1.00  0.00    -0.333 NA 
HETATM   21  C   UNL     1     -13.380  11.831  71.982  1.00  0.00    -0.312 A  
HETATM   22  N   UNL     1     -12.810  13.946  71.432  1.00  0.00    -0.346 NA 
HETATM   23  C   UNL     1     -13.544  13.157  72.284  1.00  0.00    -0.581 A  
HETATM   24  C   UNL     1     -12.234  13.107  70.601  1.00  0.00    -0.321 A  
ENDBRANCH  19  20
ENDBRANCH  10  19
ENDBRANCH   9  10
ENDBRANCH   8   9
ENDBRANCH   5   8
TORSDOF 6
ENDMDL
MODEL       43
REMARK 921   NORMALIZED FREE ENERGY PREDICTED BY IDOCK:   -5.53 KCAL/MOL
REMARK 922        TOTAL FREE ENERGY PREDICTED BY IDOCK:   -8.40 KCAL/MOL
REMARK 923 INTER-LIGAND FREE ENERGY PREDICTED BY IDOCK:   -7.93 KCAL/MOL
REMARK 924 INTRA-LIGAND FREE ENERGY PREDICTED BY IDOCK:   -0.47 KCAL/MOL
REMARK 927      BINDING AFFINITY PREDICTED BY RF-SCORE:    0.00 PKD
ROOT
HETATM    1 CL   UNL     1     -10.322   8.217  72.525  1.00  0.00    -0.396 Cl 
HETATM    2  C   UNL     1     -10.740   9.364  71.313  1.00  0.00    -0.350 A  
HETATM    3  C   UNL     1      -9.947   9.490  70.176  1.00  0.00    -0.285 A  
HETATM    4  C   UNL     1     -10.286  10.429  69.192  1.00  0.00    -0.241 A  
HETATM    5  C   UNL     1     -11.412  11.257  69.347  1.00  0.00    -0.370 A  
HETATM    6  C   UNL     1     -12.210  11.098  70.492  1.00  0.00    -0.475 A  
HETATM    7  C   UNL     1     -11.872  10.159  71.472  1.00  0.00    -0.356 A  
ENDROOT
BRANCH   5   8
HETATM    8  C   UNL     1     -11.800  12.246  68.261  1.00  0.00    -0.310 C  
BRANCH   8   9
HETATM    9  S   UNL     1     -11.130  13.881  68.680  1.00  0.00    -0.278 SA 
BRANCH   9  10
HETATM   10  C   UNL     1     -10.616  14.651  67.039  1.00  0.00    -0.280 C  
BRANCH  10  11
HETATM   11  C   UNL     1     -10.411  13.559  65.948  1.00  0.00    -0.292 A  
HETATM   12  C   UNL     1      -9.917  11.590  63.950  1.00  0.00    -0.324 A  
HETATM   13  C   UNL     1     -11.016  13.626  64.672  1.00  0.00    -0.396 A  
HETATM   14  C   UNL     1      -9.577  12.438  66.174  1.00  0.00    -0.238 A  
HETATM   15  C   UNL     1     -10.748  12.670  63.678  1.00  0.00    -0.410 A  
HETATM   16 CL   UNL     1      -9.608  10.404  62.743  1.00  0.00    -0.339 Cl 
HETATM   17 CL   UNL     1     -12.150  14.859  64.238  1.00  0.00    -0.451 Cl 
HETATM   18  C   UNL     1      -9.344  11.460  65.202  1.00  0.00    -0.172 A  
ENDBRANCH  10  11
BRANCH  10  19
HETATM   19  C   UNL     1      -9.409  15.614  67.192  1.00  0.00    -0.218 C  
BRANCH  19  20
HETATM   20  N   UNL     1      -9.763  17.000  67.415  1.00  0.00    -0.247 NA 
HETATM   21  C   UNL     1      -9.597  17.705  68.572  1.00  0.00    -0.315 A  
HETATM   22  N   UNL     1     -10.580  19.016  67.018  1.00  0.00    -0.444 NA 
HETATM   23  C   UNL     1     -10.165  18.927  68.324  1.00  0.00    -0.380 A  
HETATM   24  C   UNL     1     -10.298  17.847  66.489  1.00  0.00    -0.362 A  
ENDBRANCH  19  20
ENDBRANCH  10  19
ENDBRANCH   9  10
ENDBRANCH   8   9
ENDBRANCH   5   8
TORSDOF 6
ENDMDL
MODEL       44
REMARK 921   NORMALIZED FREE ENERGY PREDICTED BY IDOCK:   -5.52 KCAL/MOL
REMARK 922        TOTAL FREE ENERGY PREDICTED BY IDOCK:   -8.37 KCAL/MOL
REMARK 923 INTER-LIGAND FREE ENERGY PREDICTED BY IDOCK:   -7.25 KCAL/MOL
REMARK 924 INTRA-LIGAND FREE ENERGY PREDICTED BY IDOCK:   -1.12 KCAL/MOL
REMARK 927      BINDING AFFINITY PREDICTED BY RF-SCORE:    0.00 PKD
ROOT
HETATM    1 CL   UNL     1     -13.509  15.754  72.606  1.00  0.00    -0.611 Cl 
HETATM    2  C   UNL     1     -13.109  14.259  71.854  1.00  0.00    -0.365 A  
HETATM    3  C   UNL     1     -13.578  13.065  72.394  1.00  0.00    -0.628 A  
HETATM    4  C   UNL     1     -13.246  11.848  71.783  1.00  0.00    -0.426 A  
HETATM    5  C   UNL     1     -12.433  11.818  70.636  1.00  0.00    -0.364 A  
HETATM    6  C   UNL     1     -11.990  13.036  70.096  1.00  0.00    -0.374 A  
HETATM    7  C   UNL     1     -12.323  14.250  70.704  1.00  0.00    -0.431 A  
ENDROOT
BRANCH   5   8
HETATM    8  C   UNL     1     -12.108  10.500  69.953  1.00  0.00    -0.245 C  
BRANCH   8   9
HETATM    9  S   UNL     1     -10.315  10.401  69.677  1.00  0.00    -0.196 SA 
BRANCH   9  10
HETATM   10  C   UNL     1     -10.093  10.400  67.806  1.00  0.00    -0.181 C  
BRANCH  10  11
HETATM   11  C   UNL     1     -10.291  11.827  67.217  1.00  0.00    -0.231 A  
HETATM   12  C   UNL     1     -10.663  14.389  66.028  1.00  0.00    -0.302 A  
HETATM   13  C   UNL     1      -9.305  12.836  67.303  1.00  0.00    -0.200 A  
HETATM   14  C   UNL     1     -11.479  12.186  66.535  1.00  0.00    -0.430 A  
HETATM   15  C   UNL     1      -9.478  14.090  66.690  1.00  0.00    -0.300 A  
HETATM   16 CL   UNL     1     -10.886  15.931  65.300  1.00  0.00    -0.407 Cl 
HETATM   17 CL   UNL     1      -7.831  12.631  68.184  1.00  0.00    -0.135 Cl 
HETATM   18  C   UNL     1     -11.672  13.448  65.964  1.00  0.00    -0.398 A  
ENDBRANCH  10  11
BRANCH  10  19
HETATM   19  C   UNL     1     -10.956   9.313  67.110  1.00  0.00     0.118 C  
BRANCH  19  20
HETATM   20  N   UNL     1     -10.312   8.025  66.971  1.00  0.00    -0.321 NA 
HETATM   21  C   UNL     1      -9.079   7.786  66.436  1.00  0.00    -0.175 A  
HETATM   22  N   UNL     1     -10.035   5.832  67.045  1.00  0.00    -0.149 NA 
HETATM   23  C   UNL     1      -8.955   6.421  66.435  1.00  0.00    -0.153 A  
HETATM   24  C   UNL     1     -10.822   6.828  67.383  1.00  0.00    -0.347 A  
ENDBRANCH  19  20
ENDBRANCH  10  19
ENDBRANCH   9  10
ENDBRANCH   8   9
ENDBRANCH   5   8
TORSDOF 6
ENDMDL
MODEL       45
REMARK 921   NORMALIZED FREE ENERGY PREDICTED BY IDOCK:   -5.51 KCAL/MOL
REMARK 922        TOTAL FREE ENERGY PREDICTED BY IDOCK:   -8.37 KCAL/MOL
REMARK 923 INTER-LIGAND FREE ENERGY PREDICTED BY IDOCK:   -7.77 KCAL/MOL
REMARK 924 INTRA-LIGAND FREE ENERGY PREDICTED BY IDOCK:   -0.60 KCAL/MOL
REMARK 927      BINDING AFFINITY PREDICTED BY RF-SCORE:    0.00 PKD
ROOT
HETATM    1 CL   UNL     1     -11.624  16.080  64.235  1.00  0.00    -0.323 Cl 
HETATM    2  C   UNL     1     -11.195  14.882  65.392  1.00  0.00    -0.359 A  
HETATM    3  C   UNL     1      -9.866  14.736  65.779  1.00  0.00    -0.373 A  
HETATM    4  C   UNL     1      -9.518  13.755  66.717  1.00  0.00    -0.281 A  
HETATM    5  C   UNL     1     -10.496  12.907  67.265  1.00  0.00    -0.236 A  
HETATM    6  C   UNL     1     -11.834  13.087  66.878  1.00  0.00    -0.442 A  
HETATM    7  C   UNL     1     -12.181  14.067  65.943  1.00  0.00    -0.481 A  
ENDROOT
BRANCH   5   8
HETATM    8  C   UNL     1     -10.122  11.871  68.313  1.00  0.00    -0.203 C  
BRANCH   8   9
HETATM    9  S   UNL     1     -11.599  10.905  68.746  1.00  0.00    -0.285 SA 
BRANCH   9  10
HETATM   10  C   UNL     1     -11.732  11.002  70.622  1.00  0.00    -0.269 C  
BRANCH  10  11
HETATM   11  C   UNL     1     -11.509   9.605  71.273  1.00  0.00    -0.463 A  
HETATM   12  C   UNL     1     -11.132   7.097  72.571  1.00  0.00    -0.280 A  
HETATM   13  C   UNL     1     -10.253   8.957  71.288  1.00  0.00    -0.291 A  
HETATM   14  C   UNL     1     -12.565   8.912  71.912  1.00  0.00    -0.439 A  
HETATM   15  C   UNL     1     -10.062   7.734  71.954  1.00  0.00    -0.231 A  
HETATM   16 CL   UNL     1     -10.907   5.588  73.364  1.00  0.00    -0.315 Cl 
HETATM   17 CL   UNL     1      -8.864   9.589  70.472  1.00  0.00    -0.279 Cl 
HETATM   18  C   UNL     1     -12.388   7.673  72.536  1.00  0.00    -0.080 A  
ENDBRANCH  10  11
BRANCH  10  19
HETATM   19  C   UNL     1     -13.036  11.704  71.086  1.00  0.00    -0.212 C  
BRANCH  19  20
HETATM   20  N   UNL     1     -12.884  13.104  71.423  1.00  0.00    -0.354 NA 
HETATM   21  C   UNL     1     -13.516  13.770  72.433  1.00  0.00    -0.571 A  
HETATM   22  N   UNL     1     -12.200  15.202  71.284  1.00  0.00    -0.304 NA 
HETATM   23  C   UNL     1     -13.127  15.076  72.290  1.00  0.00    -0.358 A  
HETATM   24  C   UNL     1     -12.054  13.989  70.800  1.00  0.00    -0.345 A  
ENDBRANCH  19  20
ENDBRANCH  10  19
ENDBRANCH   9  10
ENDBRANCH   8   9
ENDBRANCH   5   8
TORSDOF 6
ENDMDL
MODEL       46
REMARK 921   NORMALIZED FREE ENERGY PREDICTED BY IDOCK:   -5.51 KCAL/MOL
REMARK 922        TOTAL FREE ENERGY PREDICTED BY IDOCK:   -8.36 KCAL/MOL
REMARK 923 INTER-LIGAND FREE ENERGY PREDICTED BY IDOCK:   -7.96 KCAL/MOL
REMARK 924 INTRA-LIGAND FREE ENERGY PREDICTED BY IDOCK:   -0.41 KCAL/MOL
REMARK 927      BINDING AFFINITY PREDICTED BY RF-SCORE:    0.00 PKD
ROOT
HETATM    1 CL   UNL     1     -13.559  15.944  72.780  1.00  0.00    -0.623 Cl 
HETATM    2  C   UNL     1     -13.144  14.552  71.857  1.00  0.00    -0.350 A  
HETATM    3  C   UNL     1     -12.488  14.699  70.639  1.00  0.00    -0.408 A  
HETATM    4  C   UNL     1     -12.156  13.565  69.886  1.00  0.00    -0.408 A  
HETATM    5  C   UNL     1     -12.490  12.277  70.341  1.00  0.00    -0.221 A  
HETATM    6  C   UNL     1     -13.132  12.151  71.584  1.00  0.00    -0.413 A  
HETATM    7  C   UNL     1     -13.461  13.283  72.336  1.00  0.00    -0.670 A  
ENDROOT
BRANCH   5   8
HETATM    8  C   UNL     1     -12.093  11.047  69.543  1.00  0.00    -0.329 C  
BRANCH   8   9
HETATM    9  S   UNL     1     -10.440  11.306  68.836  1.00  0.00    -0.188 SA 
BRANCH   9  10
HETATM   10  C   UNL     1     -10.489  10.504  67.132  1.00  0.00    -0.249 C  
BRANCH  10  11
HETATM   11  C   UNL     1      -9.789   9.114  67.146  1.00  0.00    -0.253 A  
HETATM   12  C   UNL     1      -8.581   6.536  67.262  1.00  0.00    -0.111 A  
HETATM   13  C   UNL     1      -8.418   8.948  67.448  1.00  0.00    -0.115 A  
HETATM   14  C   UNL     1     -10.506   7.924  66.874  1.00  0.00    -0.388 A  
HETATM   15  C   UNL     1      -7.830   7.674  67.534  1.00  0.00    -0.119 A  
HETATM   16 CL   UNL     1      -7.857   4.978  67.341  1.00  0.00    -0.095 Cl 
HETATM   17 CL   UNL     1      -7.349  10.284  67.705  1.00  0.00    -0.087 Cl 
HETATM   18  C   UNL     1      -9.913   6.658  66.914  1.00  0.00    -0.238 A  
ENDBRANCH  10  11
BRANCH  10  19
HETATM   19  C   UNL     1      -9.970  11.452  66.018  1.00  0.00    -0.231 C  
BRANCH  19  20
HETATM   20  N   UNL     1     -11.002  12.027  65.182  1.00  0.00    -0.302 NA 
HETATM   21  C   UNL     1     -11.039  12.021  63.817  1.00  0.00    -0.439 A  
HETATM   22  N   UNL     1     -12.834  13.132  64.621  1.00  0.00    -0.720 NA 
HETATM   23  C   UNL     1     -12.145  12.762  63.492  1.00  0.00    -0.559 A  
HETATM   24  C   UNL     1     -12.134  12.648  65.623  1.00  0.00    -0.443 A  
ENDBRANCH  19  20
ENDBRANCH  10  19
ENDBRANCH   9  10
ENDBRANCH   8   9
ENDBRANCH   5   8
TORSDOF 6
ENDMDL
MODEL       47
REMARK 921   NORMALIZED FREE ENERGY PREDICTED BY IDOCK:   -5.50 KCAL/MOL
REMARK 922        TOTAL FREE ENERGY PREDICTED BY IDOCK:   -8.35 KCAL/MOL
REMARK 923 INTER-LIGAND FREE ENERGY PREDICTED BY IDOCK:   -7.34 KCAL/MOL
REMARK 924 INTRA-LIGAND FREE ENERGY PREDICTED BY IDOCK:   -1.00 KCAL/MOL
REMARK 927      BINDING AFFINITY PREDICTED BY RF-SCORE:    0.00 PKD
ROOT
HETATM    1 CL   UNL     1     -13.484   8.478  72.858  1.00  0.00    -0.092 Cl 
HETATM    2  C   UNL     1     -12.623   9.297  71.614  1.00  0.00    -0.365 A  
HETATM    3  C   UNL     1     -11.692   8.605  70.845  1.00  0.00    -0.287 A  
HETATM    4  C   UNL     1     -10.987   9.276  69.836  1.00  0.00    -0.231 A  
HETATM    5  C   UNL     1     -11.201  10.645  69.599  1.00  0.00    -0.351 A  
HETATM    6  C   UNL     1     -12.162  11.318  70.372  1.00  0.00    -0.453 A  
HETATM    7  C   UNL     1     -12.866  10.648  71.377  1.00  0.00    -0.556 A  
ENDROOT
BRANCH   5   8
HETATM    8  C   UNL     1     -10.466  11.360  68.478  1.00  0.00    -0.203 C  
BRANCH   8   9
HETATM    9  S   UNL     1     -11.624  12.468  67.621  1.00  0.00    -0.361 SA 
BRANCH   9  10
HETATM   10  C   UNL     1     -10.942  14.205  67.879  1.00  0.00    -0.251 C  
BRANCH  10  11
HETATM   11  C   UNL     1     -11.300  14.744  69.295  1.00  0.00    -0.317 A  
HETATM   12  C   UNL     1     -12.044  15.794  71.836  1.00  0.00    -0.465 A  
HETATM   13  C   UNL     1     -10.412  15.533  70.062  1.00  0.00    -0.309 A  
HETATM   14  C   UNL     1     -12.560  14.486  69.886  1.00  0.00    -0.226 A  
HETATM   15  C   UNL     1     -10.792  16.075  71.303  1.00  0.00     0.250 A  
HETATM   16 CL   UNL     1     -12.502  16.435  73.365  1.00  0.00    -0.560 Cl 
HETATM   17 CL   UNL     1      -8.791  15.870  69.563  1.00  0.00    -0.198 Cl 
HETATM   18  C   UNL     1     -12.924  14.986  71.140  1.00  0.00    -0.457 A  
ENDBRANCH  10  11
BRANCH  10  19
HETATM   19  C   UNL     1     -11.334  15.170  66.728  1.00  0.00    -0.248 C  
BRANCH  19  20
HETATM   20  N   UNL     1     -10.472  16.323  66.582  1.00  0.00    -0.302 NA 
HETATM   21  C   UNL     1     -10.755  17.603  66.962  1.00  0.00    -0.174 A  
HETATM   22  N   UNL     1      -8.715  17.531  65.994  1.00  0.00    -0.524 NA 
HETATM   23  C   UNL     1      -9.684  18.342  66.533  1.00  0.00    -0.348 A  
HETATM   24  C   UNL     1      -9.209  16.316  66.065  1.00  0.00    -0.316 A  
ENDBRANCH  19  20
ENDBRANCH  10  19
ENDBRANCH   9  10
ENDBRANCH   8   9
ENDBRANCH   5   8
TORSDOF 6
ENDMDL
MODEL       48
REMARK 921   NORMALIZED FREE ENERGY PREDICTED BY IDOCK:   -5.49 KCAL/MOL
REMARK 922        TOTAL FREE ENERGY PREDICTED BY IDOCK:   -8.34 KCAL/MOL
REMARK 923 INTER-LIGAND FREE ENERGY PREDICTED BY IDOCK:   -7.40 KCAL/MOL
REMARK 924 INTRA-LIGAND FREE ENERGY PREDICTED BY IDOCK:   -0.93 KCAL/MOL
REMARK 927      BINDING AFFINITY PREDICTED BY RF-SCORE:    0.00 PKD
ROOT
HETATM    1 CL   UNL     1     -14.251   8.957  72.523  1.00  0.00    -0.485 Cl 
HETATM    2  C   UNL     1     -12.846   9.384  71.628  1.00  0.00    -0.378 A  
HETATM    3  C   UNL     1     -11.704   8.592  71.712  1.00  0.00    -0.392 A  
HETATM    4  C   UNL     1     -10.558   8.944  70.987  1.00  0.00    -0.315 A  
HETATM    5  C   UNL     1     -10.542  10.097  70.183  1.00  0.00    -0.337 A  
HETATM    6  C   UNL     1     -11.713  10.869  70.095  1.00  0.00    -0.433 A  
HETATM    7  C   UNL     1     -12.857  10.516  70.818  1.00  0.00    -0.454 A  
ENDROOT
BRANCH   5   8
HETATM    8  C   UNL     1      -9.312  10.455  69.366  1.00  0.00    -0.167 C  
BRANCH   8   9
HETATM    9  S   UNL     1      -9.598   9.994  67.632  1.00  0.00    -0.150 SA 
BRANCH   9  10
HETATM   10  C   UNL     1      -9.987  11.607  66.741  1.00  0.00    -0.204 C  
BRANCH  10  11
HETATM   11  C   UNL     1      -9.295  12.815  67.438  1.00  0.00    -0.193 A  
HETATM   12  C   UNL     1      -8.087  15.099  68.638  1.00  0.00    -0.154 A  
HETATM   13  C   UNL     1      -7.894  13.001  67.438  1.00  0.00    -0.164 A  
HETATM   14  C   UNL     1     -10.047  13.816  68.099  1.00  0.00    -0.245 A  
HETATM   15  C   UNL     1      -7.301  14.143  68.004  1.00  0.00    -0.142 A  
HETATM   16 CL   UNL     1      -7.362  16.485  69.354  1.00  0.00    -0.196 Cl 
HETATM   17 CL   UNL     1      -6.796  11.839  66.777  1.00  0.00    -0.098 Cl 
HETATM   18  C   UNL     1      -9.457  14.930  68.703  1.00  0.00    -0.208 A  
ENDBRANCH  10  11
BRANCH  10  19
HETATM   19  C   UNL     1     -11.511  11.806  66.519  1.00  0.00    -0.255 C  
BRANCH  19  20
HETATM   20  N   UNL     1     -11.861  12.495  65.295  1.00  0.00    -0.394 NA 
HETATM   21  C   UNL     1     -11.683  12.034  64.023  1.00  0.00    -0.410 A  
HETATM   22  N   UNL     1     -12.576  14.107  63.962  1.00  0.00    -0.728 NA 
HETATM   23  C   UNL     1     -12.074  13.070  63.215  1.00  0.00    -0.422 A  
HETATM   24  C   UNL     1     -12.461  13.717  65.211  1.00  0.00    -0.480 A  
ENDBRANCH  19  20
ENDBRANCH  10  19
ENDBRANCH   9  10
ENDBRANCH   8   9
ENDBRANCH   5   8
TORSDOF 6
ENDMDL
MODEL       49
REMARK 921   NORMALIZED FREE ENERGY PREDICTED BY IDOCK:   -5.49 KCAL/MOL
REMARK 922        TOTAL FREE ENERGY PREDICTED BY IDOCK:   -8.33 KCAL/MOL
REMARK 923 INTER-LIGAND FREE ENERGY PREDICTED BY IDOCK:   -7.54 KCAL/MOL
REMARK 924 INTRA-LIGAND FREE ENERGY PREDICTED BY IDOCK:   -0.79 KCAL/MOL
REMARK 927      BINDING AFFINITY PREDICTED BY RF-SCORE:    0.00 PKD
ROOT
HETATM    1 CL   UNL     1     -13.455  15.590  71.388  1.00  0.00    -0.583 Cl 
HETATM    2  C   UNL     1     -13.096  13.912  71.267  1.00  0.00    -0.315 A  
HETATM    3  C   UNL     1     -13.658  13.016  72.173  1.00  0.00    -0.618 A  
HETATM    4  C   UNL     1     -13.359  11.651  72.077  1.00  0.00    -0.405 A  
HETATM    5  C   UNL     1     -12.486  11.174  71.084  1.00  0.00    -0.498 A  
HETATM    6  C   UNL     1     -11.948  12.092  70.167  1.00  0.00    -0.394 A  
HETATM    7  C   UNL     1     -12.248  13.455  70.262  1.00  0.00    -0.405 A  
ENDROOT
BRANCH   5   8
HETATM    8  C   UNL     1     -12.196   9.688  70.956  1.00  0.00    -0.323 C  
BRANCH   8   9
HETATM    9  S   UNL     1     -10.397   9.434  70.940  1.00  0.00    -0.306 SA 
BRANCH   9  10
HETATM   10  C   UNL     1     -10.094   8.060  69.688  1.00  0.00    -0.198 C  
BRANCH  10  11
HETATM   11  C   UNL     1      -9.940   8.635  68.250  1.00  0.00    -0.207 A  
HETATM   12  C   UNL     1      -9.777   9.676  65.603  1.00  0.00    -0.293 A  
HETATM   13  C   UNL     1      -9.186   7.991  67.243  1.00  0.00    -0.139 A  
HETATM   14  C   UNL     1     -10.575   9.840  67.865  1.00  0.00    -0.310 A  
HETATM   15  C   UNL     1      -9.131   8.490  65.929  1.00  0.00    -0.237 A  
HETATM   16 CL   UNL     1      -9.690  10.302  64.003  1.00  0.00    -0.368 Cl 
HETATM   17 CL   UNL     1      -8.250   6.566  67.541  1.00  0.00    -0.120 Cl 
HETATM   18  C   UNL     1     -10.485  10.363  66.571  1.00  0.00    -0.262 A  
ENDBRANCH  10  11
BRANCH  10  19
HETATM   19  C   UNL     1     -11.145   6.922  69.795  1.00  0.00    -0.271 C  
BRANCH  19  20
HETATM   20  N   UNL     1     -11.011   6.080  70.964  1.00  0.00    -0.284 NA 
HETATM   21  C   UNL     1     -10.112   5.067  71.138  1.00  0.00    -0.223 A  
HETATM   22  N   UNL     1     -11.442   5.224  72.957  1.00  0.00    -0.309 NA 
HETATM   23  C   UNL     1     -10.437   4.512  72.348  1.00  0.00    -0.168 A  
HETATM   24  C   UNL     1     -11.746   6.180  72.109  1.00  0.00    -0.309 A  
ENDBRANCH  19  20
ENDBRANCH  10  19
ENDBRANCH   9  10
ENDBRANCH   8   9
ENDBRANCH   5   8
TORSDOF 6
ENDMDL
MODEL       50
REMARK 921   NORMALIZED FREE ENERGY PREDICTED BY IDOCK:   -5.48 KCAL/MOL
REMARK 922        TOTAL FREE ENERGY PREDICTED BY IDOCK:   -8.33 KCAL/MOL
REMARK 923 INTER-LIGAND FREE ENERGY PREDICTED BY IDOCK:   -7.28 KCAL/MOL
REMARK 924 INTRA-LIGAND FREE ENERGY PREDICTED BY IDOCK:   -1.05 KCAL/MOL
REMARK 927      BINDING AFFINITY PREDICTED BY RF-SCORE:    0.00 PKD
ROOT
HETATM    1 CL   UNL     1      -7.338  17.017  67.121  1.00  0.00    -0.185 Cl 
HETATM    2  C   UNL     1      -8.044  15.449  67.141  1.00  0.00    -0.217 A  
HETATM    3  C   UNL     1      -9.322  15.258  66.621  1.00  0.00    -0.285 A  
HETATM    4  C   UNL     1      -9.898  13.981  66.643  1.00  0.00    -0.288 A  
HETATM    5  C   UNL     1      -9.206  12.890  67.197  1.00  0.00    -0.225 A  
HETATM    6  C   UNL     1      -7.910  13.101  67.696  1.00  0.00    -0.169 A  
HETATM    7  C   UNL     1      -7.334  14.375  67.671  1.00  0.00    -0.197 A  
ENDROOT
BRANCH   5   8
HETATM    8  C   UNL     1      -9.816  11.499  67.183  1.00  0.00    -0.191 C  
BRANCH   8   9
HETATM    9  S   UNL     1     -11.600  11.630  67.503  1.00  0.00    -0.225 SA 
BRANCH   9  10
HETATM   10  C   UNL     1     -11.839  11.034  69.274  1.00  0.00    -0.340 C  
BRANCH  10  11
HETATM   11  C   UNL     1     -12.258  12.207  70.209  1.00  0.00    -0.344 A  
HETATM   12  C   UNL     1     -12.907  14.385  71.927  1.00  0.00    -0.349 A  
HETATM   13  C   UNL     1     -12.877  12.005  71.463  1.00  0.00    -0.297 A  
HETATM   14  C   UNL     1     -12.016  13.556  69.853  1.00  0.00    -0.416 A  
HETATM   15  C   UNL     1     -13.170  13.078  72.323  1.00  0.00    -0.539 A  
HETATM   16 CL   UNL     1     -13.288  15.701  72.966  1.00  0.00    -0.626 Cl 
HETATM   17 CL   UNL     1     -13.351  10.441  72.031  1.00  0.00    -0.514 Cl 
HETATM   18  C   UNL     1     -12.348  14.629  70.687  1.00  0.00    -0.398 A  
ENDBRANCH  10  11
BRANCH  10  19
HETATM   19  C   UNL     1     -10.619  10.228  69.795  1.00  0.00    -0.271 C  
BRANCH  19  20
HETATM   20  N   UNL     1     -10.678   8.805  69.537  1.00  0.00    -0.217 NA 
HETATM   21  C   UNL     1     -10.335   8.174  68.376  1.00  0.00    -0.199 A  
HETATM   22  N   UNL     1     -11.083   6.657  69.873  1.00  0.00    -0.317 NA 
HETATM   23  C   UNL     1     -10.652   6.857  68.585  1.00  0.00    -0.223 A  
HETATM   24  C   UNL     1     -11.060   7.847  70.430  1.00  0.00    -0.245 A  
ENDBRANCH  19  20
ENDBRANCH  10  19
ENDBRANCH   9  10
ENDBRANCH   8   9
ENDBRANCH   5   8
TORSDOF 6
ENDMDL
MODEL       51
REMARK 921   NORMALIZED FREE ENERGY PREDICTED BY IDOCK:   -5.45 KCAL/MOL
REMARK 922        TOTAL FREE ENERGY PREDICTED BY IDOCK:   -8.29 KCAL/MOL
REMARK 923 INTER-LIGAND FREE ENERGY PREDICTED BY IDOCK:   -7.54 KCAL/MOL
REMARK 924 INTRA-LIGAND FREE ENERGY PREDICTED BY IDOCK:   -0.75 KCAL/MOL
REMARK 927      BINDING AFFINITY PREDICTED BY RF-SCORE:    0.00 PKD
ROOT
HETATM    1 CL   UNL     1     -10.030   6.832  68.757  1.00  0.00    -0.143 Cl 
HETATM    2  C   UNL     1     -10.438   8.500  68.861  1.00  0.00    -0.188 A  
HETATM    3  C   UNL     1     -10.502   9.271  67.704  1.00  0.00    -0.325 A  
HETATM    4  C   UNL     1     -10.828  10.631  67.791  1.00  0.00    -0.338 A  
HETATM    5  C   UNL     1     -11.079  11.231  69.038  1.00  0.00    -0.301 A  
HETATM    6  C   UNL     1     -11.030  10.429  70.190  1.00  0.00    -0.365 A  
HETATM    7  C   UNL     1     -10.707   9.072  70.102  1.00  0.00    -0.258 A  
ENDROOT
BRANCH   5   8
HETATM    8  C   UNL     1     -11.472  12.696  69.127  1.00  0.00    -0.304 C  
BRANCH   8   9
HETATM    9  S   UNL     1     -10.019  13.724  68.762  1.00  0.00    -0.041 SA 
BRANCH   9  10
HETATM   10  C   UNL     1     -10.443  14.652  67.178  1.00  0.00    -0.268 C  
BRANCH  10  11
HETATM   11  C   UNL     1      -9.975  16.135  67.255  1.00  0.00    -0.248 A  
HETATM   12  C   UNL     1      -9.182  18.871  67.294  1.00  0.00    -0.283 A  
HETATM   13  C   UNL     1      -8.618  16.517  67.155  1.00  0.00    -0.186 A  
HETATM   14  C   UNL     1     -10.902  17.194  67.408  1.00  0.00    -0.164 A  
HETATM   15  C   UNL     1      -8.231  17.868  67.145  1.00  0.00    -0.228 A  
HETATM   16 CL   UNL     1      -8.709  20.524  67.307  1.00  0.00    -0.426 Cl 
HETATM   17 CL   UNL     1      -7.326  15.369  67.069  1.00  0.00    -0.200 Cl 
HETATM   18  C   UNL     1     -10.515  18.538  67.444  1.00  0.00    -0.455 A  
ENDBRANCH  10  11
BRANCH  10  19
HETATM   19  C   UNL     1     -11.935  14.489  66.781  1.00  0.00    -0.342 C  
BRANCH  19  20
HETATM   20  N   UNL     1     -12.154  13.937  65.462  1.00  0.00    -0.383 NA 
HETATM   21  C   UNL     1     -12.319  12.618  65.149  1.00  0.00    -0.484 A  
HETATM   22  N   UNL     1     -12.383  13.860  63.263  1.00  0.00    -0.698 NA 
HETATM   23  C   UNL     1     -12.396  12.588  63.781  1.00  0.00    -0.502 A  
HETATM   24  C   UNL     1     -12.266  14.652  64.305  1.00  0.00    -0.408 A  
ENDBRANCH  19  20
ENDBRANCH  10  19
ENDBRANCH   9  10
ENDBRANCH   8   9
ENDBRANCH   5   8
TORSDOF 6
ENDMDL
MODEL       52
REMARK 921   NORMALIZED FREE ENERGY PREDICTED BY IDOCK:   -5.44 KCAL/MOL
REMARK 922        TOTAL FREE ENERGY PREDICTED BY IDOCK:   -8.27 KCAL/MOL
REMARK 923 INTER-LIGAND FREE ENERGY PREDICTED BY IDOCK:   -7.73 KCAL/MOL
REMARK 924 INTRA-LIGAND FREE ENERGY PREDICTED BY IDOCK:   -0.54 KCAL/MOL
REMARK 927      BINDING AFFINITY PREDICTED BY RF-SCORE:    0.00 PKD
ROOT
HETATM    1 CL   UNL     1     -12.534  16.067  74.559  1.00  0.00    -0.727 Cl 
HETATM    2  C   UNL     1     -12.397  15.664  72.892  1.00  0.00    -0.447 A  
HETATM    3  C   UNL     1     -11.562  16.411  72.065  1.00  0.00    -0.339 A  
HETATM    4  C   UNL     1     -11.456  16.084  70.707  1.00  0.00    -0.444 A  
HETATM    5  C   UNL     1     -12.194  15.017  70.164  1.00  0.00    -0.392 A  
HETATM    6  C   UNL     1     -13.013  14.264  71.021  1.00  0.00    -0.411 A  
HETATM    7  C   UNL     1     -13.116  14.588  72.378  1.00  0.00    -0.487 A  
ENDROOT
BRANCH   5   8
HETATM    8  C   UNL     1     -12.046  14.640  68.700  1.00  0.00    -0.202 C  
BRANCH   8   9
HETATM    9  S   UNL     1     -10.354  14.045  68.408  1.00  0.00    -0.254 SA 
BRANCH   9  10
HETATM   10  C   UNL     1     -10.471  12.165  68.428  1.00  0.00    -0.231 C  
BRANCH  10  11
HETATM   11  C   UNL     1      -9.946  11.557  67.095  1.00  0.00    -0.222 A  
HETATM   12  C   UNL     1      -8.886  10.512  64.665  1.00  0.00    -0.196 A  
HETATM   13  C   UNL     1     -10.619  11.715  65.861  1.00  0.00    -0.271 A  
HETATM   14  C   UNL     1      -8.738  10.820  67.045  1.00  0.00    -0.136 A  
HETATM   15  C   UNL     1     -10.080  11.225  64.659  1.00  0.00    -0.343 A  
HETATM   16 CL   UNL     1      -8.238   9.889  63.199  1.00  0.00    -0.144 Cl 
HETATM   17 CL   UNL     1     -12.160  12.489  65.729  1.00  0.00    -0.479 Cl 
HETATM   18  C   UNL     1      -8.222  10.292  65.857  1.00  0.00    -0.148 A  
ENDBRANCH  10  11
BRANCH  10  19
HETATM   19  C   UNL     1     -11.886  11.666  68.826  1.00  0.00    -0.325 C  
BRANCH  19  20
HETATM   20  N   UNL     1     -11.900  10.605  69.810  1.00  0.00    -0.297 NA 
HETATM   21  C   UNL     1     -12.679  10.545  70.930  1.00  0.00    -0.402 A  
HETATM   22  N   UNL     1     -11.332   8.733  70.842  1.00  0.00    -0.268 NA 
HETATM   23  C   UNL     1     -12.267   9.413  71.584  1.00  0.00    -0.390 A  
HETATM   24  C   UNL     1     -11.154   9.463  69.764  1.00  0.00    -0.172 A  
ENDBRANCH  19  20
ENDBRANCH  10  19
ENDBRANCH   9  10
ENDBRANCH   8   9
ENDBRANCH   5   8
TORSDOF 6
ENDMDL
MODEL       53
REMARK 921   NORMALIZED FREE ENERGY PREDICTED BY IDOCK:   -5.44 KCAL/MOL
REMARK 922        TOTAL FREE ENERGY PREDICTED BY IDOCK:   -8.27 KCAL/MOL
REMARK 923 INTER-LIGAND FREE ENERGY PREDICTED BY IDOCK:   -6.99 KCAL/MOL
REMARK 924 INTRA-LIGAND FREE ENERGY PREDICTED BY IDOCK:   -1.28 KCAL/MOL
REMARK 927      BINDING AFFINITY PREDICTED BY RF-SCORE:    0.00 PKD
ROOT
HETATM    1 CL   UNL     1      -9.594   3.720  68.135  1.00  0.00    -0.209 Cl 
HETATM    2  C   UNL     1      -9.621   5.354  67.598  1.00  0.00    -0.127 A  
HETATM    3  C   UNL     1     -10.838   6.003  67.413  1.00  0.00    -0.394 A  
HETATM    4  C   UNL     1     -10.858   7.332  66.970  1.00  0.00    -0.350 A  
HETATM    5  C   UNL     1      -9.660   8.016  66.696  1.00  0.00    -0.297 A  
HETATM    6  C   UNL     1      -8.443   7.349  66.912  1.00  0.00    -0.123 A  
HETATM    7  C   UNL     1      -8.424   6.024  67.356  1.00  0.00    -0.104 A  
ENDROOT
BRANCH   5   8
HETATM    8  C   UNL     1      -9.683   9.470  66.255  1.00  0.00    -0.245 C  
BRANCH   8   9
HETATM    9  S   UNL     1      -8.982  10.502  67.576  1.00  0.00    -0.135 SA 
BRANCH   9  10
HETATM   10  C   UNL     1     -10.440  10.975  68.671  1.00  0.00    -0.192 C  
BRANCH  10  11
HETATM   11  C   UNL     1     -10.575  10.000  69.878  1.00  0.00    -0.324 A  
HETATM   12  C   UNL     1     -10.850   8.128  72.007  1.00  0.00    -0.284 A  
HETATM   13  C   UNL     1     -11.532  10.176  70.903  1.00  0.00    -0.360 A  
HETATM   14  C   UNL     1      -9.747   8.858  69.999  1.00  0.00    -0.187 A  
HETATM   15  C   UNL     1     -11.686   9.235  71.937  1.00  0.00    -0.420 A  
HETATM   16 CL   UNL     1     -11.020   6.989  73.285  1.00  0.00    -0.319 Cl 
HETATM   17 CL   UNL     1     -12.564  11.561  70.992  1.00  0.00    -0.484 Cl 
HETATM   18  C   UNL     1      -9.868   7.945  71.052  1.00  0.00    -0.189 A  
ENDBRANCH  10  11
BRANCH  10  19
HETATM   19  C   UNL     1     -11.753  11.152  67.863  1.00  0.00    -0.182 C  
BRANCH  19  20
HETATM   20  N   UNL     1     -11.889  12.430  67.198  1.00  0.00    -0.534 NA 
HETATM   21  C   UNL     1     -11.965  12.642  65.852  1.00  0.00    -0.438 A  
HETATM   22  N   UNL     1     -12.028  14.622  66.938  1.00  0.00    -0.340 NA 
HETATM   23  C   UNL     1     -11.987  14.005  65.712  1.00  0.00    -0.404 A  
HETATM   24  C   UNL     1     -11.997  13.643  67.814  1.00  0.00    -0.352 A  
ENDBRANCH  19  20
ENDBRANCH  10  19
ENDBRANCH   9  10
ENDBRANCH   8   9
ENDBRANCH   5   8
TORSDOF 6
ENDMDL
MODEL       54
REMARK 921   NORMALIZED FREE ENERGY PREDICTED BY IDOCK:   -5.41 KCAL/MOL
REMARK 922        TOTAL FREE ENERGY PREDICTED BY IDOCK:   -8.23 KCAL/MOL
REMARK 923 INTER-LIGAND FREE ENERGY PREDICTED BY IDOCK:   -7.40 KCAL/MOL
REMARK 924 INTRA-LIGAND FREE ENERGY PREDICTED BY IDOCK:   -0.83 KCAL/MOL
REMARK 927      BINDING AFFINITY PREDICTED BY RF-SCORE:    0.00 PKD
ROOT
HETATM    1 CL   UNL     1     -12.256  13.074  63.205  1.00  0.00    -0.589 Cl 
HETATM    2  C   UNL     1     -11.936  12.877  64.884  1.00  0.00    -0.392 A  
HETATM    3  C   UNL     1     -11.072  11.872  65.311  1.00  0.00    -0.354 A  
HETATM    4  C   UNL     1     -10.817  11.709  66.679  1.00  0.00    -0.327 A  
HETATM    5  C   UNL     1     -11.435  12.542  67.629  1.00  0.00    -0.392 A  
HETATM    6  C   UNL     1     -12.286  13.563  67.174  1.00  0.00    -0.328 A  
HETATM    7  C   UNL     1     -12.538  13.726  65.809  1.00  0.00    -0.525 A  
ENDROOT
BRANCH   5   8
HETATM    8  C   UNL     1     -11.126  12.390  69.109  1.00  0.00    -0.203 C  
BRANCH   8   9
HETATM    9  S   UNL     1     -11.905  10.868  69.725  1.00  0.00    -0.370 SA 
BRANCH   9  10
HETATM   10  C   UNL     1     -10.487   9.787  70.333  1.00  0.00    -0.297 C  
BRANCH  10  11
HETATM   11  C   UNL     1      -9.989   8.831  69.210  1.00  0.00    -0.194 A  
HETATM   12  C   UNL     1      -9.173   7.009  67.178  1.00  0.00    -0.137 A  
HETATM   13  C   UNL     1      -8.744   8.164  69.265  1.00  0.00    -0.140 A  
HETATM   14  C   UNL     1     -10.781   8.559  68.067  1.00  0.00    -0.122 A  
HETATM   15  C   UNL     1      -8.356   7.243  68.277  1.00  0.00    -0.125 A  
HETATM   16 CL   UNL     1      -8.688   5.902  65.954  1.00  0.00    -0.148 Cl 
HETATM   17 CL   UNL     1      -7.590   8.443  70.523  1.00  0.00    -0.070 Cl 
HETATM   18  C   UNL     1     -10.377   7.678  67.060  1.00  0.00    -0.400 A  
ENDBRANCH  10  11
BRANCH  10  19
HETATM   19  C   UNL     1     -10.826   9.063  71.663  1.00  0.00    -0.366 C  
BRANCH  19  20
HETATM   20  N   UNL     1     -12.158   8.499  71.725  1.00  0.00    -0.311 NA 
HETATM   21  C   UNL     1     -12.541   7.267  71.277  1.00  0.00    -0.366 A  
HETATM   22  N   UNL     1     -14.332   8.365  72.106  1.00  0.00    -0.436 NA 
HETATM   23  C   UNL     1     -13.898   7.231  71.465  1.00  0.00    -0.350 A  
HETATM   24  C   UNL     1     -13.253   9.097  72.275  1.00  0.00    -0.461 A  
ENDBRANCH  19  20
ENDBRANCH  10  19
ENDBRANCH   9  10
ENDBRANCH   8   9
ENDBRANCH   5   8
TORSDOF 6
ENDMDL
MODEL       55
REMARK 921   NORMALIZED FREE ENERGY PREDICTED BY IDOCK:   -5.41 KCAL/MOL
REMARK 922        TOTAL FREE ENERGY PREDICTED BY IDOCK:   -8.23 KCAL/MOL
REMARK 923 INTER-LIGAND FREE ENERGY PREDICTED BY IDOCK:   -7.36 KCAL/MOL
REMARK 924 INTRA-LIGAND FREE ENERGY PREDICTED BY IDOCK:   -0.86 KCAL/MOL
REMARK 927      BINDING AFFINITY PREDICTED BY RF-SCORE:    0.00 PKD
ROOT
HETATM    1 CL   UNL     1     -13.826  15.160  72.752  1.00  0.00    -0.538 Cl 
HETATM    2  C   UNL     1     -13.135  13.981  71.707  1.00  0.00    -0.370 A  
HETATM    3  C   UNL     1     -12.493  14.382  70.539  1.00  0.00    -0.416 A  
HETATM    4  C   UNL     1     -11.936  13.420  69.686  1.00  0.00    -0.386 A  
HETATM    5  C   UNL     1     -12.031  12.050  69.989  1.00  0.00    -0.400 A  
HETATM    6  C   UNL     1     -12.664  11.669  71.184  1.00  0.00    -0.426 A  
HETATM    7  C   UNL     1     -13.217  12.630  72.036  1.00  0.00    -0.531 A  
ENDROOT
BRANCH   5   8
HETATM    8  C   UNL     1     -11.391  11.011  69.083  1.00  0.00    -0.280 C  
BRANCH   8   9
HETATM    9  S   UNL     1      -9.714  11.556  68.648  1.00  0.00    -0.122 SA 
BRANCH   9  10
HETATM   10  C   UNL     1      -9.734  11.805  66.781  1.00  0.00    -0.197 C  
BRANCH  10  11
HETATM   11  C   UNL     1      -8.654  10.924  66.086  1.00  0.00    -0.170 A  
HETATM   12  C   UNL     1      -6.600   9.407  64.823  1.00  0.00    -0.079 A  
HETATM   13  C   UNL     1      -8.796  10.434  64.768  1.00  0.00    -0.193 A  
HETATM   14  C   UNL     1      -7.446  10.584  66.741  1.00  0.00    -0.115 A  
HETATM   15  C   UNL     1      -7.770   9.710  64.135  1.00  0.00    -0.129 A  
HETATM   16 CL   UNL     1      -5.354   8.500  64.060  1.00  0.00    -0.055 Cl 
HETATM   17 CL   UNL     1     -10.240  10.651  63.839  1.00  0.00    -0.372 Cl 
HETATM   18  C   UNL     1      -6.442   9.825  66.130  1.00  0.00    -0.076 A  
ENDBRANCH  10  11
BRANCH  10  19
HETATM   19  C   UNL     1      -9.666  13.304  66.384  1.00  0.00    -0.276 C  
BRANCH  19  20
HETATM   20  N   UNL     1     -10.843  13.807  65.709  1.00  0.00    -0.275 NA 
HETATM   21  C   UNL     1     -10.901  14.879  64.867  1.00  0.00    -0.413 A  
HETATM   22  N   UNL     1     -12.965  13.998  65.118  1.00  0.00    -0.771 NA 
HETATM   23  C   UNL     1     -12.230  15.017  64.564  1.00  0.00    -0.331 A  
HETATM   24  C   UNL     1     -12.095  13.269  65.779  1.00  0.00    -0.441 A  
ENDBRANCH  19  20
ENDBRANCH  10  19
ENDBRANCH   9  10
ENDBRANCH   8   9
ENDBRANCH   5   8
TORSDOF 6
ENDMDL
MODEL       56
REMARK 921   NORMALIZED FREE ENERGY PREDICTED BY IDOCK:   -5.37 KCAL/MOL
REMARK 922        TOTAL FREE ENERGY PREDICTED BY IDOCK:   -8.18 KCAL/MOL
REMARK 923 INTER-LIGAND FREE ENERGY PREDICTED BY IDOCK:   -7.38 KCAL/MOL
REMARK 924 INTRA-LIGAND FREE ENERGY PREDICTED BY IDOCK:   -0.80 KCAL/MOL
REMARK 927      BINDING AFFINITY PREDICTED BY RF-SCORE:    0.00 PKD
ROOT
HETATM    1 CL   UNL     1     -13.986  13.733  72.689  1.00  0.00    -0.541 Cl 
HETATM    2  C   UNL     1     -13.086  12.892  71.489  1.00  0.00    -0.298 A  
HETATM    3  C   UNL     1     -12.461  13.603  70.467  1.00  0.00    -0.394 A  
HETATM    4  C   UNL     1     -11.734  12.916  69.486  1.00  0.00    -0.387 A  
HETATM    5  C   UNL     1     -11.637  11.513  69.514  1.00  0.00    -0.400 A  
HETATM    6  C   UNL     1     -12.257  10.818  70.566  1.00  0.00    -0.457 A  
HETATM    7  C   UNL     1     -12.981  11.504  71.546  1.00  0.00    -0.485 A  
ENDROOT
BRANCH   5   8
HETATM    8  C   UNL     1     -10.814  10.774  68.473  1.00  0.00    -0.228 C  
BRANCH   8   9
HETATM    9  S   UNL     1      -9.219  11.619  68.268  1.00  0.00    -0.185 SA 
BRANCH   9  10
HETATM   10  C   UNL     1      -9.390  12.643  66.697  1.00  0.00    -0.236 C  
BRANCH  10  11
HETATM   11  C   UNL     1      -9.601  14.150  67.029  1.00  0.00    -0.264 A  
HETATM   12  C   UNL     1     -10.037  16.920  67.528  1.00  0.00    -0.282 A  
HETATM   13  C   UNL     1      -8.530  15.038  67.278  1.00  0.00    -0.198 A  
HETATM   14  C   UNL     1     -10.895  14.720  67.079  1.00  0.00    -0.315 A  
HETATM   15  C   UNL     1      -8.744  16.410  67.495  1.00  0.00    -0.188 A  
HETATM   16 CL   UNL     1     -10.303  18.594  67.819  1.00  0.00    -0.424 Cl 
HETATM   17 CL   UNL     1      -6.883  14.515  67.367  1.00  0.00    -0.162 Cl 
HETATM   18  C   UNL     1     -11.115  16.077  67.339  1.00  0.00    -0.167 A  
ENDBRANCH  10  11
BRANCH  10  19
HETATM   19  C   UNL     1     -10.455  12.065  65.728  1.00  0.00    -0.254 C  
BRANCH  19  20
HETATM   20  N   UNL     1      -9.919  11.287  64.631  1.00  0.00    -0.262 NA 
HETATM   21  C   UNL     1      -9.462  10.003  64.691  1.00  0.00    -0.305 A  
HETATM   22  N   UNL     1      -9.213  10.800  62.593  1.00  0.00    -0.302 NA 
HETATM   23  C   UNL     1      -8.973   9.743  63.437  1.00  0.00    -0.246 A  
HETATM   24  C   UNL     1      -9.811  11.703  63.336  1.00  0.00    -0.404 A  
ENDBRANCH  19  20
ENDBRANCH  10  19
ENDBRANCH   9  10
ENDBRANCH   8   9
ENDBRANCH   5   8
TORSDOF 6
ENDMDL
MODEL       57
REMARK 921   NORMALIZED FREE ENERGY PREDICTED BY IDOCK:   -5.37 KCAL/MOL
REMARK 922        TOTAL FREE ENERGY PREDICTED BY IDOCK:   -8.18 KCAL/MOL
REMARK 923 INTER-LIGAND FREE ENERGY PREDICTED BY IDOCK:   -7.45 KCAL/MOL
REMARK 924 INTRA-LIGAND FREE ENERGY PREDICTED BY IDOCK:   -0.72 KCAL/MOL
REMARK 927      BINDING AFFINITY PREDICTED BY RF-SCORE:    0.00 PKD
ROOT
HETATM    1 CL   UNL     1     -13.969   8.648  72.952  1.00  0.00    -0.168 Cl 
HETATM    2  C   UNL     1     -12.720   8.918  71.801  1.00  0.00    -0.364 A  
HETATM    3  C   UNL     1     -12.327  10.219  71.497  1.00  0.00    -0.488 A  
HETATM    4  C   UNL     1     -11.313  10.438  70.555  1.00  0.00    -0.424 A  
HETATM    5  C   UNL     1     -10.695   9.357  69.901  1.00  0.00    -0.258 A  
HETATM    6  C   UNL     1     -11.092   8.053  70.239  1.00  0.00    -0.224 A  
HETATM    7  C   UNL     1     -12.102   7.835  71.181  1.00  0.00    -0.306 A  
ENDROOT
BRANCH   5   8
HETATM    8  C   UNL     1      -9.568   9.595  68.910  1.00  0.00    -0.161 C  
BRANCH   8   9
HETATM    9  S   UNL     1     -10.277  10.098  67.315  1.00  0.00    -0.236 SA 
BRANCH   9  10
HETATM   10  C   UNL     1      -9.498  11.767  66.921  1.00  0.00    -0.193 C  
BRANCH  10  11
HETATM   11  C   UNL     1      -9.973  12.858  67.924  1.00  0.00    -0.233 A  
HETATM   12  C   UNL     1     -10.931  14.885  69.683  1.00  0.00    -0.274 A  
HETATM   13  C   UNL     1      -9.167  13.957  68.302  1.00  0.00    -0.207 A  
HETATM   14  C   UNL     1     -11.265  12.817  68.503  1.00  0.00    -0.314 A  
HETATM   15  C   UNL     1      -9.652  14.971  69.146  1.00  0.00    -0.202 A  
HETATM   16 CL   UNL     1     -11.516  16.112  70.736  1.00  0.00    -0.430 Cl 
HETATM   17 CL   UNL     1      -7.524  14.132  67.789  1.00  0.00    -0.154 Cl 
HETATM   18  C   UNL     1     -11.733  13.801  69.379  1.00  0.00    -0.379 A  
ENDBRANCH  10  11
BRANCH  10  19
HETATM   19  C   UNL     1      -9.680  12.167  65.433  1.00  0.00    -0.162 C  
BRANCH  19  20
HETATM   20  N   UNL     1     -10.860  12.959  65.157  1.00  0.00    -0.289 NA 
HETATM   21  C   UNL     1     -10.898  14.300  64.906  1.00  0.00    -0.416 A  
HETATM   22  N   UNL     1     -12.996  13.463  64.888  1.00  0.00    -0.730 NA 
HETATM   23  C   UNL     1     -12.232  14.601  64.805  1.00  0.00    -0.394 A  
HETATM   24  C   UNL     1     -12.136  12.486  65.071  1.00  0.00    -0.446 A  
ENDBRANCH  19  20
ENDBRANCH  10  19
ENDBRANCH   9  10
ENDBRANCH   8   9
ENDBRANCH   5   8
TORSDOF 6
ENDMDL
MODEL       58
REMARK 921   NORMALIZED FREE ENERGY PREDICTED BY IDOCK:   -5.37 KCAL/MOL
REMARK 922        TOTAL FREE ENERGY PREDICTED BY IDOCK:   -8.17 KCAL/MOL
REMARK 923 INTER-LIGAND FREE ENERGY PREDICTED BY IDOCK:   -7.51 KCAL/MOL
REMARK 924 INTRA-LIGAND FREE ENERGY PREDICTED BY IDOCK:   -0.66 KCAL/MOL
REMARK 927      BINDING AFFINITY PREDICTED BY RF-SCORE:    0.00 PKD
ROOT
HETATM    1 CL   UNL     1     -11.329   8.185  72.735  1.00  0.00    -0.454 Cl 
HETATM    2  C   UNL     1     -11.466   9.352  71.479  1.00  0.00    -0.397 A  
HETATM    3  C   UNL     1     -12.636  10.095  71.348  1.00  0.00    -0.526 A  
HETATM    4  C   UNL     1     -12.748  11.041  70.320  1.00  0.00    -0.256 A  
HETATM    5  C   UNL     1     -11.695  11.241  69.410  1.00  0.00    -0.409 A  
HETATM    6  C   UNL     1     -10.515  10.496  69.574  1.00  0.00    -0.265 A  
HETATM    7  C   UNL     1     -10.403   9.554  70.601  1.00  0.00    -0.369 A  
ENDROOT
BRANCH   5   8
HETATM    8  C   UNL     1     -11.803  12.296  68.322  1.00  0.00    -0.310 C  
BRANCH   8   9
HETATM    9  S   UNL     1     -10.519  13.554  68.585  1.00  0.00    -0.199 SA 
BRANCH   9  10
HETATM   10  C   UNL     1      -9.980  14.092  66.863  1.00  0.00    -0.263 C  
BRANCH  10  11
HETATM   11  C   UNL     1      -8.971  15.275  66.935  1.00  0.00    -0.274 A  
HETATM   12  C   UNL     1      -7.148  17.465  66.950  1.00  0.00    -0.194 A  
HETATM   13  C   UNL     1      -7.594  15.095  67.202  1.00  0.00    -0.168 A  
HETATM   14  C   UNL     1      -9.383  16.611  66.711  1.00  0.00    -0.262 A  
HETATM   15  C   UNL     1      -6.691  16.172  67.179  1.00  0.00    -0.227 A  
HETATM   16 CL   UNL     1      -6.049  18.788  66.948  1.00  0.00    -0.171 Cl 
HETATM   17 CL   UNL     1      -6.913  13.556  67.604  1.00  0.00    -0.166 Cl 
HETATM   18  C   UNL     1      -8.495  17.691  66.734  1.00  0.00    -0.274 A  
ENDBRANCH  10  11
BRANCH  10  19
HETATM   19  C   UNL     1     -11.186  14.358  65.923  1.00  0.00    -0.324 C  
BRANCH  19  20
HETATM   20  N   UNL     1     -11.396  13.350  64.906  1.00  0.00    -0.318 NA 
HETATM   21  C   UNL     1     -12.593  12.814  64.528  1.00  0.00    -0.389 A  
HETATM   22  N   UNL     1     -10.923  11.847  63.354  1.00  0.00    -0.407 NA 
HETATM   23  C   UNL     1     -12.272  11.844  63.614  1.00  0.00    -0.479 A  
HETATM   24  C   UNL     1     -10.428  12.786  64.128  1.00  0.00    -0.413 A  
ENDBRANCH  19  20
ENDBRANCH  10  19
ENDBRANCH   9  10
ENDBRANCH   8   9
ENDBRANCH   5   8
TORSDOF 6
ENDMDL
MODEL       59
REMARK 921   NORMALIZED FREE ENERGY PREDICTED BY IDOCK:   -5.30 KCAL/MOL
REMARK 922        TOTAL FREE ENERGY PREDICTED BY IDOCK:   -8.08 KCAL/MOL
REMARK 923 INTER-LIGAND FREE ENERGY PREDICTED BY IDOCK:   -7.50 KCAL/MOL
REMARK 924 INTRA-LIGAND FREE ENERGY PREDICTED BY IDOCK:   -0.58 KCAL/MOL
REMARK 927      BINDING AFFINITY PREDICTED BY RF-SCORE:    0.00 PKD
ROOT
HETATM    1 CL   UNL     1      -9.914   4.521  71.437  1.00  0.00    -0.262 Cl 
HETATM    2  C   UNL     1      -9.991   5.922  70.441  1.00  0.00    -0.192 A  
HETATM    3  C   UNL     1      -9.492   7.134  70.911  1.00  0.00    -0.160 A  
HETATM    4  C   UNL     1      -9.562   8.276  70.102  1.00  0.00    -0.167 A  
HETATM    5  C   UNL     1     -10.143   8.215  68.822  1.00  0.00    -0.211 A  
HETATM    6  C   UNL     1     -10.619   6.977  68.360  1.00  0.00    -0.240 A  
HETATM    7  C   UNL     1     -10.548   5.838  69.168  1.00  0.00    -0.365 A  
ENDROOT
BRANCH   5   8
HETATM    8  C   UNL     1     -10.180   9.444  67.931  1.00  0.00    -0.211 C  
BRANCH   8   9
HETATM    9  S   UNL     1      -9.813  10.915  68.932  1.00  0.00    -0.169 SA 
BRANCH   9  10
HETATM   10  C   UNL     1     -10.946  12.268  68.273  1.00  0.00    -0.232 C  
BRANCH  10  11
HETATM   11  C   UNL     1     -11.668  13.011  69.436  1.00  0.00    -0.386 A  
HETATM   12  C   UNL     1     -12.880  14.415  71.598  1.00  0.00    -0.343 A  
HETATM   13  C   UNL     1     -12.362  12.335  70.465  1.00  0.00    -0.264 A  
HETATM   14  C   UNL     1     -11.646  14.423  69.535  1.00  0.00    -0.352 A  
HETATM   15  C   UNL     1     -12.934  13.027  71.547  1.00  0.00    -0.398 A  
HETATM   16 CL   UNL     1     -13.602  15.265  72.907  1.00  0.00    -0.581 Cl 
HETATM   17 CL   UNL     1     -12.593  10.620  70.468  1.00  0.00    -0.429 Cl 
HETATM   18  C   UNL     1     -12.254  15.117  70.586  1.00  0.00    -0.401 A  
ENDBRANCH  10  11
BRANCH  10  19
HETATM   19  C   UNL     1     -11.910  11.747  67.174  1.00  0.00    -0.077 C  
BRANCH  19  20
HETATM   20  N   UNL     1     -11.727  12.350  65.871  1.00  0.00    -0.414 NA 
HETATM   21  C   UNL     1     -12.463  13.367  65.335  1.00  0.00    -0.494 A  
HETATM   22  N   UNL     1     -10.904  12.691  63.847  1.00  0.00    -0.408 NA 
HETATM   23  C   UNL     1     -11.979  13.519  64.062  1.00  0.00    -0.449 A  
HETATM   24  C   UNL     1     -10.760  12.020  64.967  1.00  0.00    -0.296 A  
ENDBRANCH  19  20
ENDBRANCH  10  19
ENDBRANCH   9  10
ENDBRANCH   8   9
ENDBRANCH   5   8
TORSDOF 6
ENDMDL
MODEL       60
REMARK 921   NORMALIZED FREE ENERGY PREDICTED BY IDOCK:   -5.30 KCAL/MOL
REMARK 922        TOTAL FREE ENERGY PREDICTED BY IDOCK:   -8.08 KCAL/MOL
REMARK 923 INTER-LIGAND FREE ENERGY PREDICTED BY IDOCK:   -6.87 KCAL/MOL
REMARK 924 INTRA-LIGAND FREE ENERGY PREDICTED BY IDOCK:   -1.21 KCAL/MOL
REMARK 927      BINDING AFFINITY PREDICTED BY RF-SCORE:    0.00 PKD
ROOT
HETATM    1 CL   UNL     1      -9.907   4.596  68.907  1.00  0.00    -0.234 Cl 
HETATM    2  C   UNL     1      -9.666   6.047  68.016  1.00  0.00    -0.119 A  
HETATM    3  C   UNL     1     -10.764   6.805  67.617  1.00  0.00    -0.357 A  
HETATM    4  C   UNL     1     -10.566   7.985  66.886  1.00  0.00    -0.324 A  
HETATM    5  C   UNL     1      -9.270   8.406  66.539  1.00  0.00    -0.238 A  
HETATM    6  C   UNL     1      -8.176   7.637  66.971  1.00  0.00    -0.117 A  
HETATM    7  C   UNL     1      -8.374   6.462  67.702  1.00  0.00    -0.117 A  
ENDROOT
BRANCH   5   8
HETATM    8  C   UNL     1      -9.055   9.706  65.782  1.00  0.00    -0.185 C  
BRANCH   8   9
HETATM    9  S   UNL     1     -10.389  10.865  66.203  1.00  0.00    -0.232 SA 
BRANCH   9  10
HETATM   10  C   UNL     1      -9.898  11.617  67.859  1.00  0.00    -0.184 C  
BRANCH  10  11
HETATM   11  C   UNL     1     -10.662  10.938  69.033  1.00  0.00    -0.262 A  
HETATM   12  C   UNL     1     -12.081   9.805  71.228  1.00  0.00    -0.382 A  
HETATM   13  C   UNL     1     -10.043  10.045  69.937  1.00  0.00    -0.246 A  
HETATM   14  C   UNL     1     -12.033  11.201  69.271  1.00  0.00    -0.421 A  
HETATM   15  C   UNL     1     -10.737   9.510  71.037  1.00  0.00    -0.411 A  
HETATM   16 CL   UNL     1     -12.939   9.132  72.558  1.00  0.00    -0.456 Cl 
HETATM   17 CL   UNL     1      -8.407   9.514  69.755  1.00  0.00    -0.148 Cl 
HETATM   18  C   UNL     1     -12.737  10.635  70.338  1.00  0.00    -0.340 A  
ENDBRANCH  10  11
BRANCH  10  19
HETATM   19  C   UNL     1     -10.005  13.166  67.858  1.00  0.00    -0.233 C  
BRANCH  19  20
HETATM   20  N   UNL     1     -10.777  13.720  66.767  1.00  0.00    -0.276 NA 
HETATM   21  C   UNL     1     -12.134  13.865  66.721  1.00  0.00    -0.439 A  
HETATM   22  N   UNL     1     -11.227  14.580  64.780  1.00  0.00    -0.389 NA 
HETATM   23  C   UNL     1     -12.395  14.339  65.462  1.00  0.00    -0.408 A  
HETATM   24  C   UNL     1     -10.269  14.224  65.605  1.00  0.00    -0.347 A  
ENDBRANCH  19  20
ENDBRANCH  10  19
ENDBRANCH   9  10
ENDBRANCH   8   9
ENDBRANCH   5   8
TORSDOF 6
ENDMDL
MODEL       61
REMARK 921   NORMALIZED FREE ENERGY PREDICTED BY IDOCK:   -5.28 KCAL/MOL
REMARK 922        TOTAL FREE ENERGY PREDICTED BY IDOCK:   -8.05 KCAL/MOL
REMARK 923 INTER-LIGAND FREE ENERGY PREDICTED BY IDOCK:   -6.99 KCAL/MOL
REMARK 924 INTRA-LIGAND FREE ENERGY PREDICTED BY IDOCK:   -1.06 KCAL/MOL
REMARK 927      BINDING AFFINITY PREDICTED BY RF-SCORE:    0.00 PKD
ROOT
HETATM    1 CL   UNL     1     -13.456  15.781  72.969  1.00  0.00    -0.658 Cl 
HETATM    2  C   UNL     1     -13.045  14.429  71.988  1.00  0.00    -0.361 A  
HETATM    3  C   UNL     1     -13.454  13.152  72.363  1.00  0.00    -0.643 A  
HETATM    4  C   UNL     1     -13.113  12.051  71.567  1.00  0.00    -0.362 A  
HETATM    5  C   UNL     1     -12.351  12.219  70.397  1.00  0.00    -0.309 A  
HETATM    6  C   UNL     1     -11.969  13.519  70.026  1.00  0.00    -0.410 A  
HETATM    7  C   UNL     1     -12.311  14.617  70.820  1.00  0.00    -0.398 A  
ENDROOT
BRANCH   5   8
HETATM    8  C   UNL     1     -12.018  11.029  69.513  1.00  0.00    -0.342 C  
BRANCH   8   9
HETATM    9  S   UNL     1     -10.214  10.822  69.451  1.00  0.00    -0.104 SA 
BRANCH   9  10
HETATM   10  C   UNL     1      -9.713  11.292  67.698  1.00  0.00    -0.171 C  
BRANCH  10  11
HETATM   11  C   UNL     1      -8.711  12.484  67.701  1.00  0.00    -0.177 A  
HETATM   12  C   UNL     1      -6.934  14.709  67.610  1.00  0.00    -0.184 A  
HETATM   13  C   UNL     1      -7.318  12.316  67.532  1.00  0.00    -0.137 A  
HETATM   14  C   UNL     1      -9.154  13.820  67.855  1.00  0.00    -0.193 A  
HETATM   15  C   UNL     1      -6.446  13.416  67.457  1.00  0.00    -0.129 A  
HETATM   16 CL   UNL     1      -5.866  16.055  67.544  1.00  0.00    -0.174 Cl 
HETATM   17 CL   UNL     1      -6.569  10.760  67.434  1.00  0.00    -0.069 Cl 
HETATM   18  C   UNL     1      -8.283  14.914  67.827  1.00  0.00    -0.164 A  
ENDBRANCH  10  11
BRANCH  10  19
HETATM   19  C   UNL     1     -10.940  11.513  66.772  1.00  0.00    -0.294 C  
BRANCH  19  20
HETATM   20  N   UNL     1     -10.653  11.435  65.356  1.00  0.00    -0.278 NA 
HETATM   21  C   UNL     1     -10.023  10.412  64.708  1.00  0.00    -0.339 A  
HETATM   22  N   UNL     1     -10.526  12.048  63.235  1.00  0.00    -0.414 NA 
HETATM   23  C   UNL     1      -9.900  10.838  63.412  1.00  0.00    -0.349 A  
HETATM   24  C   UNL     1     -10.995  12.367  64.420  1.00  0.00    -0.334 A  
ENDBRANCH  19  20
ENDBRANCH  10  19
ENDBRANCH   9  10
ENDBRANCH   8   9
ENDBRANCH   5   8
TORSDOF 6
ENDMDL
MODEL       62
REMARK 921   NORMALIZED FREE ENERGY PREDICTED BY IDOCK:   -5.27 KCAL/MOL
REMARK 922        TOTAL FREE ENERGY PREDICTED BY IDOCK:   -8.05 KCAL/MOL
REMARK 923 INTER-LIGAND FREE ENERGY PREDICTED BY IDOCK:   -6.84 KCAL/MOL
REMARK 924 INTRA-LIGAND FREE ENERGY PREDICTED BY IDOCK:   -1.21 KCAL/MOL
REMARK 927      BINDING AFFINITY PREDICTED BY RF-SCORE:    0.00 PKD
ROOT
HETATM    1 CL   UNL     1     -10.893   5.290  73.533  1.00  0.00    -0.335 Cl 
HETATM    2  C   UNL     1     -10.917   5.597  71.841  1.00  0.00    -0.235 A  
HETATM    3  C   UNL     1     -11.836   6.500  71.314  1.00  0.00    -0.385 A  
HETATM    4  C   UNL     1     -11.858   6.744  69.934  1.00  0.00    -0.208 A  
HETATM    5  C   UNL     1     -10.970   6.076  69.072  1.00  0.00    -0.409 A  
HETATM    6  C   UNL     1     -10.037   5.186  69.628  1.00  0.00    -0.332 A  
HETATM    7  C   UNL     1     -10.013   4.945  71.005  1.00  0.00    -0.282 A  
ENDROOT
BRANCH   5   8
HETATM    8  C   UNL     1     -10.969   6.373  67.582  1.00  0.00    -0.349 C  
BRANCH   8   9
HETATM    9  S   UNL     1      -9.496   7.354  67.173  1.00  0.00    -0.158 SA 
BRANCH   9  10
HETATM   10  C   UNL     1      -9.804   9.058  67.913  1.00  0.00    -0.171 C  
BRANCH  10  11
HETATM   11  C   UNL     1     -10.283  10.064  66.825  1.00  0.00    -0.295 A  
HETATM   12  C   UNL     1     -11.044  11.933  64.815  1.00  0.00    -0.311 A  
HETATM   13  C   UNL     1     -11.112  11.171  67.115  1.00  0.00    -0.287 A  
HETATM   14  C   UNL     1      -9.889   9.930  65.472  1.00  0.00    -0.381 A  
HETATM   15  C   UNL     1     -11.462  12.109  66.128  1.00  0.00    -0.429 A  
HETATM   16 CL   UNL     1     -11.492  13.066  63.600  1.00  0.00    -0.480 Cl 
HETATM   17 CL   UNL     1     -11.786  11.450  68.684  1.00  0.00    -0.381 Cl 
HETATM   18  C   UNL     1     -10.274  10.836  64.479  1.00  0.00    -0.428 A  
ENDBRANCH  10  11
BRANCH  10  19
HETATM   19  C   UNL     1      -8.597   9.569  68.744  1.00  0.00    -0.123 C  
BRANCH  19  20
HETATM   20  N   UNL     1      -8.535   9.062  70.098  1.00  0.00    -0.141 NA 
HETATM   21  C   UNL     1      -7.551   8.279  70.629  1.00  0.00    -0.071 A  
HETATM   22  N   UNL     1      -9.151   8.646  72.181  1.00  0.00    -0.319 NA 
HETATM   23  C   UNL     1      -7.982   7.982  71.896  1.00  0.00    -0.115 A  
HETATM   24  C   UNL     1      -9.443   9.311  71.087  1.00  0.00    -0.217 A  
ENDBRANCH  19  20
ENDBRANCH  10  19
ENDBRANCH   9  10
ENDBRANCH   8   9
ENDBRANCH   5   8
TORSDOF 6
ENDMDL
MODEL       63
REMARK 921   NORMALIZED FREE ENERGY PREDICTED BY IDOCK:   -5.27 KCAL/MOL
REMARK 922        TOTAL FREE ENERGY PREDICTED BY IDOCK:   -8.05 KCAL/MOL
REMARK 923 INTER-LIGAND FREE ENERGY PREDICTED BY IDOCK:   -7.19 KCAL/MOL
REMARK 924 INTRA-LIGAND FREE ENERGY PREDICTED BY IDOCK:   -0.86 KCAL/MOL
REMARK 927      BINDING AFFINITY PREDICTED BY RF-SCORE:    0.00 PKD
ROOT
HETATM    1 CL   UNL     1     -12.338  13.413  63.261  1.00  0.00    -0.431 Cl 
HETATM    2  C   UNL     1     -11.530  12.324  64.320  1.00  0.00    -0.362 A  
HETATM    3  C   UNL     1     -10.688  11.347  63.797  1.00  0.00    -0.470 A  
HETATM    4  C   UNL     1     -10.036  10.456  64.660  1.00  0.00    -0.408 A  
HETATM    5  C   UNL     1     -10.232  10.530  66.051  1.00  0.00    -0.310 A  
HETATM    6  C   UNL     1     -11.068  11.538  66.558  1.00  0.00    -0.341 A  
HETATM    7  C   UNL     1     -11.717  12.428  65.696  1.00  0.00    -0.468 A  
ENDROOT
BRANCH   5   8
HETATM    8  C   UNL     1      -9.492   9.590  66.987  1.00  0.00    -0.155 C  
BRANCH   8   9
HETATM    9  S   UNL     1     -10.656   8.349  67.625  1.00  0.00    -0.139 SA 
BRANCH   9  10
HETATM   10  C   UNL     1     -10.419   8.350  69.493  1.00  0.00    -0.224 C  
BRANCH  10  11
HETATM   11  C   UNL     1     -11.317   9.426  70.172  1.00  0.00    -0.220 A  
HETATM   12  C   UNL     1     -12.859  11.445  71.460  1.00  0.00    -0.403 A  
HETATM   13  C   UNL     1     -12.286   9.110  71.152  1.00  0.00    -0.285 A  
HETATM   14  C   UNL     1     -11.191  10.799  69.854  1.00  0.00    -0.371 A  
HETATM   15  C   UNL     1     -13.025  10.109  71.808  1.00  0.00    -0.567 A  
HETATM   16 CL   UNL     1     -13.781  12.668  72.243  1.00  0.00    -0.548 Cl 
HETATM   17 CL   UNL     1     -12.665   7.483  71.602  1.00  0.00    -0.370 Cl 
HETATM   18  C   UNL     1     -11.958  11.792  70.472  1.00  0.00    -0.383 A  
ENDBRANCH  10  11
BRANCH  10  19
HETATM   19  C   UNL     1      -8.924   8.440  69.899  1.00  0.00    -0.142 C  
BRANCH  19  20
HETATM   20  N   UNL     1      -8.609   7.864  71.188  1.00  0.00    -0.125 NA 
HETATM   21  C   UNL     1      -7.749   8.372  72.118  1.00  0.00    -0.115 A  
HETATM   22  N   UNL     1      -8.602   6.418  72.861  1.00  0.00    -0.124 NA 
HETATM   23  C   UNL     1      -7.712   7.432  73.115  1.00  0.00    -0.092 A  
HETATM   24  C   UNL     1      -9.148   6.722  71.706  1.00  0.00    -0.140 A  
ENDBRANCH  19  20
ENDBRANCH  10  19
ENDBRANCH   9  10
ENDBRANCH   8   9
ENDBRANCH   5   8
TORSDOF 6
ENDMDL
MODEL       64
REMARK 921   NORMALIZED FREE ENERGY PREDICTED BY IDOCK:   -5.27 KCAL/MOL
REMARK 922        TOTAL FREE ENERGY PREDICTED BY IDOCK:   -8.04 KCAL/MOL
REMARK 923 INTER-LIGAND FREE ENERGY PREDICTED BY IDOCK:   -7.31 KCAL/MOL
REMARK 924 INTRA-LIGAND FREE ENERGY PREDICTED BY IDOCK:   -0.74 KCAL/MOL
REMARK 927      BINDING AFFINITY PREDICTED BY RF-SCORE:    0.00 PKD
ROOT
HETATM    1 CL   UNL     1     -14.021  16.335  72.973  1.00  0.00    -0.248 Cl 
HETATM    2  C   UNL     1     -13.441  14.969  72.103  1.00  0.00    -0.407 A  
HETATM    3  C   UNL     1     -13.579  13.694  72.644  1.00  0.00    -0.596 A  
HETATM    4  C   UNL     1     -13.101  12.583  71.937  1.00  0.00    -0.473 A  
HETATM    5  C   UNL     1     -12.471  12.742  70.690  1.00  0.00    -0.328 A  
HETATM    6  C   UNL     1     -12.363  14.035  70.153  1.00  0.00    -0.409 A  
HETATM    7  C   UNL     1     -12.842  15.144  70.858  1.00  0.00    -0.479 A  
ENDROOT
BRANCH   5   8
HETATM    8  C   UNL     1     -11.990  11.532  69.906  1.00  0.00    -0.351 C  
BRANCH   8   9
HETATM    9  S   UNL     1     -12.357  10.027  70.854  1.00  0.00    -0.346 SA 
BRANCH   9  10
HETATM   10  C   UNL     1     -11.106   8.746  70.270  1.00  0.00    -0.222 C  
BRANCH  10  11
HETATM   11  C   UNL     1     -10.924   7.617  71.326  1.00  0.00    -0.260 A  
HETATM   12  C   UNL     1     -10.492   5.609  73.300  1.00  0.00    -0.231 A  
HETATM   13  C   UNL     1     -10.676   6.270  70.975  1.00  0.00    -0.259 A  
HETATM   14  C   UNL     1     -10.977   7.890  72.714  1.00  0.00    -0.456 A  
HETATM   15  C   UNL     1     -10.433   5.286  71.949  1.00  0.00    -0.282 A  
HETATM   16 CL   UNL     1     -10.222   4.401  74.495  1.00  0.00    -0.257 Cl 
HETATM   17 CL   UNL     1     -10.678   5.715  69.336  1.00  0.00    -0.378 Cl 
HETATM   18  C   UNL     1     -10.782   6.904  73.687  1.00  0.00    -0.304 A  
ENDBRANCH  10  11
BRANCH  10  19
HETATM   19  C   UNL     1      -9.771   9.392  69.812  1.00  0.00    -0.199 C  
BRANCH  19  20
HETATM   20  N   UNL     1      -9.432   9.166  68.423  1.00  0.00    -0.142 NA 
HETATM   21  C   UNL     1     -10.112   9.631  67.334  1.00  0.00    -0.204 A  
HETATM   22  N   UNL     1      -8.361   8.374  66.657  1.00  0.00    -0.108 NA 
HETATM   23  C   UNL     1      -9.470   9.079  66.256  1.00  0.00    -0.242 A  
HETATM   24  C   UNL     1      -8.350   8.470  67.967  1.00  0.00    -0.127 A  
ENDBRANCH  19  20
ENDBRANCH  10  19
ENDBRANCH   9  10
ENDBRANCH   8   9
ENDBRANCH   5   8
TORSDOF 6
ENDMDL
MODEL       65
REMARK 921   NORMALIZED FREE ENERGY PREDICTED BY IDOCK:   -5.26 KCAL/MOL
REMARK 922        TOTAL FREE ENERGY PREDICTED BY IDOCK:   -8.03 KCAL/MOL
REMARK 923 INTER-LIGAND FREE ENERGY PREDICTED BY IDOCK:   -7.63 KCAL/MOL
REMARK 924 INTRA-LIGAND FREE ENERGY PREDICTED BY IDOCK:   -0.41 KCAL/MOL
REMARK 927      BINDING AFFINITY PREDICTED BY RF-SCORE:    0.00 PKD
ROOT
HETATM    1 CL   UNL     1      -6.671  21.229  67.421  1.00  0.00    -0.424 Cl 
HETATM    2  C   UNL     1      -7.592  19.811  67.108  1.00  0.00    -0.256 A  
HETATM    3  C   UNL     1      -7.069  18.561  67.428  1.00  0.00    -0.208 A  
HETATM    4  C   UNL     1      -7.819  17.406  67.167  1.00  0.00    -0.226 A  
HETATM    5  C   UNL     1      -9.090  17.493  66.573  1.00  0.00    -0.284 A  
HETATM    6  C   UNL     1      -9.608  18.766  66.279  1.00  0.00    -0.316 A  
HETATM    7  C   UNL     1      -8.860  19.918  66.542  1.00  0.00    -0.432 A  
ENDROOT
BRANCH   5   8
HETATM    8  C   UNL     1      -9.918  16.243  66.329  1.00  0.00    -0.317 C  
BRANCH   8   9
HETATM    9  S   UNL     1     -11.159  16.086  67.646  1.00  0.00    -0.183 SA 
BRANCH   9  10
HETATM   10  C   UNL     1     -10.946  14.346  68.334  1.00  0.00    -0.248 C  
BRANCH  10  11
HETATM   11  C   UNL     1     -10.681  13.320  67.193  1.00  0.00    -0.264 A  
HETATM   12  C   UNL     1     -10.092  11.502  65.080  1.00  0.00    -0.268 A  
HETATM   13  C   UNL     1     -11.537  13.173  66.079  1.00  0.00    -0.353 A  
HETATM   14  C   UNL     1      -9.538  12.484  67.204  1.00  0.00    -0.208 A  
HETATM   15  C   UNL     1     -11.230  12.297  65.023  1.00  0.00    -0.367 A  
HETATM   16 CL   UNL     1      -9.728  10.411  63.802  1.00  0.00    -0.363 Cl 
HETATM   17 CL   UNL     1     -13.036  14.025  65.932  1.00  0.00    -0.391 Cl 
HETATM   18  C   UNL     1      -9.254  11.579  66.176  1.00  0.00    -0.230 A  
ENDBRANCH  10  11
BRANCH  10  19
HETATM   19  C   UNL     1     -12.107  13.939  69.280  1.00  0.00    -0.339 C  
BRANCH  19  20
HETATM   20  N   UNL     1     -12.215  14.734  70.485  1.00  0.00    -0.300 NA 
HETATM   21  C   UNL     1     -11.183  15.198  71.248  1.00  0.00    -0.275 A  
HETATM   22  N   UNL     1     -13.150  15.810  72.175  1.00  0.00    -0.455 NA 
HETATM   23  C   UNL     1     -11.784  15.806  72.319  1.00  0.00    -0.478 A  
HETATM   24  C   UNL     1     -13.376  15.181  71.044  1.00  0.00    -0.443 A  
ENDBRANCH  19  20
ENDBRANCH  10  19
ENDBRANCH   9  10
ENDBRANCH   8   9
ENDBRANCH   5   8
TORSDOF 6
ENDMDL
MODEL       66
REMARK 921   NORMALIZED FREE ENERGY PREDICTED BY IDOCK:   -5.26 KCAL/MOL
REMARK 922        TOTAL FREE ENERGY PREDICTED BY IDOCK:   -8.03 KCAL/MOL
REMARK 923 INTER-LIGAND FREE ENERGY PREDICTED BY IDOCK:   -7.37 KCAL/MOL
REMARK 924 INTRA-LIGAND FREE ENERGY PREDICTED BY IDOCK:   -0.66 KCAL/MOL
REMARK 927      BINDING AFFINITY PREDICTED BY RF-SCORE:    0.00 PKD
ROOT
HETATM    1 CL   UNL     1      -8.727   7.070  65.365  1.00  0.00    -0.053 Cl 
HETATM    2  C   UNL     1      -9.185   8.459  66.271  1.00  0.00    -0.208 A  
HETATM    3  C   UNL     1      -8.476   9.648  66.122  1.00  0.00    -0.126 A  
HETATM    4  C   UNL     1      -8.847  10.776  66.865  1.00  0.00    -0.144 A  
HETATM    5  C   UNL     1      -9.921  10.719  67.771  1.00  0.00    -0.195 A  
HETATM    6  C   UNL     1     -10.636   9.516  67.889  1.00  0.00    -0.299 A  
HETATM    7  C   UNL     1     -10.267   8.390  67.146  1.00  0.00    -0.362 A  
ENDROOT
BRANCH   5   8
HETATM    8  C   UNL     1     -10.346  11.955  68.545  1.00  0.00    -0.218 C  
BRANCH   8   9
HETATM    9  S   UNL     1      -9.198  13.313  68.173  1.00  0.00    -0.204 SA 
BRANCH   9  10
HETATM   10  C   UNL     1     -10.053  14.347  66.851  1.00  0.00    -0.259 C  
BRANCH  10  11
HETATM   11  C   UNL     1      -9.828  15.868  67.096  1.00  0.00    -0.232 A  
HETATM   12  C   UNL     1      -9.298  18.629  67.560  1.00  0.00    -0.283 A  
HETATM   13  C   UNL     1     -10.413  16.566  68.177  1.00  0.00    -0.313 A  
HETATM   14  C   UNL     1      -8.996  16.637  66.247  1.00  0.00    -0.340 A  
HETATM   15  C   UNL     1     -10.127  17.921  68.422  1.00  0.00    -0.385 A  
HETATM   16 CL   UNL     1      -8.968  20.293  67.842  1.00  0.00    -0.323 Cl 
HETATM   17 CL   UNL     1     -11.541  15.832  69.264  1.00  0.00    -0.360 Cl 
HETATM   18  C   UNL     1      -8.746  17.996  66.462  1.00  0.00    -0.279 A  
ENDBRANCH  10  11
BRANCH  10  19
HETATM   19  C   UNL     1     -11.545  13.959  66.671  1.00  0.00    -0.374 C  
BRANCH  19  20
HETATM   20  N   UNL     1     -11.904  13.530  65.337  1.00  0.00    -0.341 NA 
HETATM   21  C   UNL     1     -11.920  12.246  64.873  1.00  0.00    -0.357 A  
HETATM   22  N   UNL     1     -12.495  13.663  63.210  1.00  0.00    -0.773 NA 
HETATM   23  C   UNL     1     -12.227  12.357  63.542  1.00  0.00    -0.563 A  
HETATM   24  C   UNL     1     -12.319  14.341  64.322  1.00  0.00    -0.377 A  
ENDBRANCH  19  20
ENDBRANCH  10  19
ENDBRANCH   9  10
ENDBRANCH   8   9
ENDBRANCH   5   8
TORSDOF 6
ENDMDL
MODEL       67
REMARK 921   NORMALIZED FREE ENERGY PREDICTED BY IDOCK:   -5.24 KCAL/MOL
REMARK 922        TOTAL FREE ENERGY PREDICTED BY IDOCK:   -8.00 KCAL/MOL
REMARK 923 INTER-LIGAND FREE ENERGY PREDICTED BY IDOCK:   -7.33 KCAL/MOL
REMARK 924 INTRA-LIGAND FREE ENERGY PREDICTED BY IDOCK:   -0.67 KCAL/MOL
REMARK 927      BINDING AFFINITY PREDICTED BY RF-SCORE:    0.00 PKD
ROOT
HETATM    1 CL   UNL     1     -12.806  11.958  63.340  1.00  0.00    -0.588 Cl 
HETATM    2  C   UNL     1     -11.689  12.826  64.319  1.00  0.00    -0.381 A  
HETATM    3  C   UNL     1     -10.830  12.135  65.169  1.00  0.00    -0.343 A  
HETATM    4  C   UNL     1      -9.925  12.844  65.970  1.00  0.00    -0.275 A  
HETATM    5  C   UNL     1      -9.883  14.249  65.936  1.00  0.00    -0.322 A  
HETATM    6  C   UNL     1     -10.744  14.925  65.055  1.00  0.00    -0.451 A  
HETATM    7  C   UNL     1     -11.645  14.216  64.254  1.00  0.00    -0.327 A  
ENDROOT
BRANCH   5   8
HETATM    8  C   UNL     1      -8.874  15.014  66.776  1.00  0.00    -0.268 C  
BRANCH   8   9
HETATM    9  S   UNL     1      -9.429  15.027  68.505  1.00  0.00    -0.209 SA 
BRANCH   9  10
HETATM   10  C   UNL     1     -10.122  16.754  68.798  1.00  0.00    -0.286 C  
BRANCH  10  11
HETATM   11  C   UNL     1      -9.131  17.848  68.301  1.00  0.00    -0.280 A  
HETATM   12  C   UNL     1      -7.296  19.877  67.507  1.00  0.00    -0.270 A  
HETATM   13  C   UNL     1      -9.537  18.951  67.517  1.00  0.00    -0.305 A  
HETATM   14  C   UNL     1      -7.755  17.803  68.632  1.00  0.00    -0.283 A  
HETATM   15  C   UNL     1      -8.636  19.967  67.151  1.00  0.00    -0.400 A  
HETATM   16 CL   UNL     1      -6.187  21.105  67.039  1.00  0.00    -0.368 Cl 
HETATM   17 CL   UNL     1     -11.151  19.132  66.920  1.00  0.00    -0.293 Cl 
HETATM   18  C   UNL     1      -6.848  18.788  68.231  1.00  0.00    -0.261 A  
ENDBRANCH  10  11
BRANCH  10  19
HETATM   19  C   UNL     1     -10.593  16.960  70.262  1.00  0.00     0.310 C  
BRANCH  19  20
HETATM   20  N   UNL     1     -11.487  15.938  70.762  1.00  0.00    -0.379 NA 
HETATM   21  C   UNL     1     -11.432  15.337  71.986  1.00  0.00    -0.413 A  
HETATM   22  N   UNL     1     -13.127  14.454  70.782  1.00  0.00    -0.337 NA 
HETATM   23  C   UNL     1     -12.414  14.381  71.954  1.00  0.00    -0.309 A  
HETATM   24  C   UNL     1     -12.561  15.422  70.097  1.00  0.00    -0.293 A  
ENDBRANCH  19  20
ENDBRANCH  10  19
ENDBRANCH   9  10
ENDBRANCH   8   9
ENDBRANCH   5   8
TORSDOF 6
ENDMDL
MODEL       68
REMARK 921   NORMALIZED FREE ENERGY PREDICTED BY IDOCK:   -5.24 KCAL/MOL
REMARK 922        TOTAL FREE ENERGY PREDICTED BY IDOCK:   -7.99 KCAL/MOL
REMARK 923 INTER-LIGAND FREE ENERGY PREDICTED BY IDOCK:   -7.30 KCAL/MOL
REMARK 924 INTRA-LIGAND FREE ENERGY PREDICTED BY IDOCK:   -0.70 KCAL/MOL
REMARK 927      BINDING AFFINITY PREDICTED BY RF-SCORE:    0.00 PKD
ROOT
HETATM    1 CL   UNL     1     -11.317  16.492  64.490  1.00  0.00    -0.254 Cl 
HETATM    2  C   UNL     1     -11.190  14.918  65.172  1.00  0.00    -0.386 A  
HETATM    3  C   UNL     1     -10.067  14.576  65.920  1.00  0.00    -0.346 A  
HETATM    4  C   UNL     1      -9.962  13.291  66.470  1.00  0.00    -0.280 A  
HETATM    5  C   UNL     1     -10.974  12.337  66.263  1.00  0.00    -0.327 A  
HETATM    6  C   UNL     1     -12.109  12.711  65.524  1.00  0.00    -0.515 A  
HETATM    7  C   UNL     1     -12.213  13.994  64.977  1.00  0.00    -0.448 A  
ENDROOT
BRANCH   5   8
HETATM    8  C   UNL     1     -10.878  10.958  66.894  1.00  0.00    -0.249 C  
BRANCH   8   9
HETATM    9  S   UNL     1      -9.746  11.033  68.313  1.00  0.00    -0.183 SA 
BRANCH   9  10
HETATM   10  C   UNL     1     -10.673  10.225  69.740  1.00  0.00    -0.285 C  
BRANCH  10  11
HETATM   11  C   UNL     1     -10.422   8.689  69.774  1.00  0.00    -0.220 A  
HETATM   12  C   UNL     1     -10.050   5.865  69.754  1.00  0.00    -0.197 A  
HETATM   13  C   UNL     1     -10.625   7.904  70.932  1.00  0.00    -0.213 A  
HETATM   14  C   UNL     1      -9.991   7.986  68.623  1.00  0.00    -0.200 A  
HETATM   15  C   UNL     1     -10.470   6.507  70.912  1.00  0.00    -0.263 A  
HETATM   16 CL   UNL     1      -9.834   4.159  69.734  1.00  0.00    -0.276 Cl 
HETATM   17 CL   UNL     1     -11.048   8.588  72.464  1.00  0.00    -0.395 Cl 
HETATM   18  C   UNL     1      -9.792   6.602  68.613  1.00  0.00    -0.138 A  
ENDBRANCH  10  11
BRANCH  10  19
HETATM   19  C   UNL     1     -12.176  10.612  69.761  1.00  0.00    -0.247 C  
BRANCH  19  20
HETATM   20  N   UNL     1     -12.510  11.701  70.652  1.00  0.00    -0.322 NA 
HETATM   21  C   UNL     1     -13.159  11.603  71.850  1.00  0.00    -0.385 A  
HETATM   22  N   UNL     1     -12.709  13.771  71.405  1.00  0.00    -0.361 NA 
HETATM   23  C   UNL     1     -13.326  12.898  72.266  1.00  0.00    -0.494 A  
HETATM   24  C   UNL     1     -12.201  13.016  70.457  1.00  0.00    -0.313 A  
ENDBRANCH  19  20
ENDBRANCH  10  19
ENDBRANCH   9  10
ENDBRANCH   8   9
ENDBRANCH   5   8
TORSDOF 6
ENDMDL
MODEL       69
REMARK 921   NORMALIZED FREE ENERGY PREDICTED BY IDOCK:   -5.19 KCAL/MOL
REMARK 922        TOTAL FREE ENERGY PREDICTED BY IDOCK:   -7.93 KCAL/MOL
REMARK 923 INTER-LIGAND FREE ENERGY PREDICTED BY IDOCK:   -7.01 KCAL/MOL
REMARK 924 INTRA-LIGAND FREE ENERGY PREDICTED BY IDOCK:   -0.93 KCAL/MOL
REMARK 927      BINDING AFFINITY PREDICTED BY RF-SCORE:    0.00 PKD
ROOT
HETATM    1 CL   UNL     1     -10.933   6.478  69.039  1.00  0.00    -0.355 Cl 
HETATM    2  C   UNL     1     -10.523   7.976  68.301  1.00  0.00    -0.161 A  
HETATM    3  C   UNL     1     -10.303   8.034  66.928  1.00  0.00    -0.408 A  
HETATM    4  C   UNL     1      -9.962   9.254  66.329  1.00  0.00    -0.357 A  
HETATM    5  C   UNL     1      -9.827  10.421  67.102  1.00  0.00    -0.221 A  
HETATM    6  C   UNL     1     -10.075  10.344  68.482  1.00  0.00    -0.186 A  
HETATM    7  C   UNL     1     -10.417   9.126  69.079  1.00  0.00    -0.238 A  
ENDROOT
BRANCH   5   8
HETATM    8  C   UNL     1      -9.498  11.751  66.445  1.00  0.00    -0.221 C  
BRANCH   8   9
HETATM    9  S   UNL     1     -10.998  12.775  66.393  1.00  0.00    -0.285 SA 
BRANCH   9  10
HETATM   10  C   UNL     1     -10.507  14.426  67.154  1.00  0.00    -0.263 C  
BRANCH  10  11
HETATM   11  C   UNL     1     -11.011  14.538  68.623  1.00  0.00    -0.263 A  
HETATM   12  C   UNL     1     -12.030  14.804  71.270  1.00  0.00    -0.349 A  
HETATM   13  C   UNL     1     -10.296  15.227  69.629  1.00  0.00    -0.262 A  
HETATM   14  C   UNL     1     -12.242  13.966  69.026  1.00  0.00    -0.274 A  
HETATM   15  C   UNL     1     -10.814  15.383  70.927  1.00  0.00    -0.253 A  
HETATM   16 CL   UNL     1     -12.654  14.972  72.864  1.00  0.00    -0.466 Cl 
HETATM   17 CL   UNL     1      -8.726  15.904  69.364  1.00  0.00    -0.244 Cl 
HETATM   18  C   UNL     1     -12.738  14.080  70.329  1.00  0.00    -0.270 A  
ENDBRANCH  10  11
BRANCH  10  19
HETATM   19  C   UNL     1     -10.912  15.630  66.263  1.00  0.00    -0.201 C  
BRANCH  19  20
HETATM   20  N   UNL     1      -9.991  16.747  66.297  1.00  0.00    -0.305 NA 
HETATM   21  C   UNL     1     -10.272  18.020  66.699  1.00  0.00    -0.373 A  
HETATM   22  N   UNL     1      -8.122  17.895  66.019  1.00  0.00    -0.525 NA 
HETATM   23  C   UNL     1      -9.122  18.726  66.461  1.00  0.00    -0.323 A  
HETATM   24  C   UNL     1      -8.670  16.702  65.959  1.00  0.00    -0.204 A  
ENDBRANCH  19  20
ENDBRANCH  10  19
ENDBRANCH   9  10
ENDBRANCH   8   9
ENDBRANCH   5   8
TORSDOF 6
ENDMDL
MODEL       70
REMARK 921   NORMALIZED FREE ENERGY PREDICTED BY IDOCK:   -5.18 KCAL/MOL
REMARK 922        TOTAL FREE ENERGY PREDICTED BY IDOCK:   -7.92 KCAL/MOL
REMARK 923 INTER-LIGAND FREE ENERGY PREDICTED BY IDOCK:   -6.76 KCAL/MOL
REMARK 924 INTRA-LIGAND FREE ENERGY PREDICTED BY IDOCK:   -1.16 KCAL/MOL
REMARK 927      BINDING AFFINITY PREDICTED BY RF-SCORE:    0.00 PKD
ROOT
HETATM    1 CL   UNL     1     -14.158  14.148  72.343  1.00  0.00    -0.603 Cl 
HETATM    2  C   UNL     1     -13.145  13.143  71.383  1.00  0.00    -0.266 A  
HETATM    3  C   UNL     1     -13.060  11.781  71.658  1.00  0.00    -0.443 A  
HETATM    4  C   UNL     1     -12.229  10.965  70.879  1.00  0.00    -0.485 A  
HETATM    5  C   UNL     1     -11.468  11.508  69.828  1.00  0.00    -0.362 A  
HETATM    6  C   UNL     1     -11.587  12.881  69.555  1.00  0.00    -0.348 A  
HETATM    7  C   UNL     1     -12.417  13.695  70.332  1.00  0.00    -0.364 A  
ENDROOT
BRANCH   5   8
HETATM    8  C   UNL     1     -10.600  10.615  68.959  1.00  0.00    -0.219 C  
BRANCH   8   9
HETATM    9  S   UNL     1     -11.150  10.750  67.233  1.00  0.00    -0.201 SA 
BRANCH   9  10
HETATM   10  C   UNL     1      -9.718  11.551  66.309  1.00  0.00    -0.215 C  
BRANCH  10  11
HETATM   11  C   UNL     1      -9.891  13.097  66.238  1.00  0.00    -0.284 A  
HETATM   12  C   UNL     1     -10.166  15.922  65.995  1.00  0.00    -0.334 A  
HETATM   13  C   UNL     1      -9.169  13.988  67.065  1.00  0.00    -0.254 A  
HETATM   14  C   UNL     1     -10.777  13.699  65.313  1.00  0.00    -0.340 A  
HETATM   15  C   UNL     1      -9.284  15.382  66.924  1.00  0.00    -0.254 A  
HETATM   16 CL   UNL     1     -10.327  17.627  65.838  1.00  0.00    -0.322 Cl 
HETATM   17 CL   UNL     1      -8.117  13.449  68.328  1.00  0.00    -0.147 Cl 
HETATM   18  C   UNL     1     -10.928  15.085  65.202  1.00  0.00    -0.417 A  
ENDBRANCH  10  11
BRANCH  10  19
HETATM   19  C   UNL     1      -9.462  10.890  64.928  1.00  0.00    -0.235 C  
BRANCH  19  20
HETATM   20  N   UNL     1      -8.098  10.460  64.705  1.00  0.00    -0.153 NA 
HETATM   21  C   UNL     1      -7.087  10.456  65.621  1.00  0.00    -0.142 A  
HETATM   22  N   UNL     1      -6.310   9.730  63.628  1.00  0.00    -0.111 NA 
HETATM   23  C   UNL     1      -5.978  10.061  64.919  1.00  0.00    -0.114 A  
HETATM   24  C   UNL     1      -7.602   9.954  63.539  1.00  0.00    -0.143 A  
ENDBRANCH  19  20
ENDBRANCH  10  19
ENDBRANCH   9  10
ENDBRANCH   8   9
ENDBRANCH   5   8
TORSDOF 6
ENDMDL
MODEL       71
REMARK 921   NORMALIZED FREE ENERGY PREDICTED BY IDOCK:   -5.17 KCAL/MOL
REMARK 922        TOTAL FREE ENERGY PREDICTED BY IDOCK:   -7.91 KCAL/MOL
REMARK 923 INTER-LIGAND FREE ENERGY PREDICTED BY IDOCK:   -8.27 KCAL/MOL
REMARK 924 INTRA-LIGAND FREE ENERGY PREDICTED BY IDOCK:    0.36 KCAL/MOL
REMARK 927      BINDING AFFINITY PREDICTED BY RF-SCORE:    0.00 PKD
ROOT
HETATM    1 CL   UNL     1      -6.482  20.566  68.493  1.00  0.00    -0.333 Cl 
HETATM    2  C   UNL     1      -7.181  19.003  68.665  1.00  0.00    -0.316 A  
HETATM    3  C   UNL     1      -6.407  17.947  69.138  1.00  0.00    -0.236 A  
HETATM    4  C   UNL     1      -6.977  16.673  69.272  1.00  0.00    -0.225 A  
HETATM    5  C   UNL     1      -8.320  16.446  68.922  1.00  0.00    -0.234 A  
HETATM    6  C   UNL     1      -9.088  17.532  68.469  1.00  0.00    -0.277 A  
HETATM    7  C   UNL     1      -8.520  18.803  68.337  1.00  0.00    -0.374 A  
ENDROOT
BRANCH   5   8
HETATM    8  C   UNL     1      -8.946  15.074  69.107  1.00  0.00    -0.186 C  
BRANCH   8   9
HETATM    9  S   UNL     1     -10.691  15.276  69.571  1.00  0.00    -0.281 SA 
BRANCH   9  10
HETATM   10  C   UNL     1     -11.618  13.924  68.644  1.00  0.00    -0.328 C  
BRANCH  10  11
HETATM   11  C   UNL     1     -12.028  12.767  69.601  1.00  0.00    -0.354 A  
HETATM   12  C   UNL     1     -12.698  10.692  71.435  1.00  0.00    -0.440 A  
HETATM   13  C   UNL     1     -11.842  11.403  69.281  1.00  0.00    -0.349 A  
HETATM   14  C   UNL     1     -12.597  13.027  70.872  1.00  0.00    -0.364 A  
HETATM   15  C   UNL     1     -12.145  10.382  70.198  1.00  0.00    -0.334 A  
HETATM   16 CL   UNL     1     -13.094   9.443  72.548  1.00  0.00    -0.441 Cl 
HETATM   17 CL   UNL     1     -11.261  10.876  67.739  1.00  0.00    -0.371 Cl 
HETATM   18  C   UNL     1     -12.942  12.011  71.768  1.00  0.00    -0.445 A  
ENDBRANCH  10  11
BRANCH  10  19
HETATM   19  C   UNL     1     -10.855  13.446  67.380  1.00  0.00    -0.268 C  
BRANCH  19  20
HETATM   20  N   UNL     1     -11.455  13.841  66.123  1.00  0.00    -0.328 NA 
HETATM   21  C   UNL     1     -11.108  14.919  65.360  1.00  0.00    -0.364 A  
HETATM   22  N   UNL     1     -12.836  13.829  64.396  1.00  0.00    -0.567 NA 
HETATM   23  C   UNL     1     -12.014  14.928  64.332  1.00  0.00    -0.394 A  
HETATM   24  C   UNL     1     -12.454  13.178  65.471  1.00  0.00    -0.458 A  
ENDBRANCH  19  20
ENDBRANCH  10  19
ENDBRANCH   9  10
ENDBRANCH   8   9
ENDBRANCH   5   8
TORSDOF 6
ENDMDL
MODEL       72
REMARK 921   NORMALIZED FREE ENERGY PREDICTED BY IDOCK:   -5.17 KCAL/MOL
REMARK 922        TOTAL FREE ENERGY PREDICTED BY IDOCK:   -7.91 KCAL/MOL
REMARK 923 INTER-LIGAND FREE ENERGY PREDICTED BY IDOCK:   -6.59 KCAL/MOL
REMARK 924 INTRA-LIGAND FREE ENERGY PREDICTED BY IDOCK:   -1.31 KCAL/MOL
REMARK 927      BINDING AFFINITY PREDICTED BY RF-SCORE:    0.00 PKD
ROOT
HETATM    1 CL   UNL     1     -12.019  11.092  68.875  1.00  0.00    -0.382 Cl 
HETATM    2  C   UNL     1     -11.505  12.528  68.079  1.00  0.00    -0.317 A  
HETATM    3  C   UNL     1     -10.582  12.451  67.040  1.00  0.00    -0.248 A  
HETATM    4  C   UNL     1     -10.160  13.623  66.397  1.00  0.00    -0.295 A  
HETATM    5  C   UNL     1     -10.649  14.879  66.798  1.00  0.00    -0.305 A  
HETATM    6  C   UNL     1     -11.596  14.930  67.834  1.00  0.00    -0.364 A  
HETATM    7  C   UNL     1     -12.018  13.761  68.474  1.00  0.00    -0.402 A  
ENDROOT
BRANCH   5   8
HETATM    8  C   UNL     1     -10.220  16.143  66.073  1.00  0.00    -0.356 C  
BRANCH   8   9
HETATM    9  S   UNL     1     -10.361  17.555  67.208  1.00  0.00    -0.327 SA 
BRANCH   9  10
HETATM   10  C   UNL     1      -8.591  18.092  67.565  1.00  0.00    -0.244 C  
BRANCH  10  11
HETATM   11  C   UNL     1      -7.719  16.885  68.021  1.00  0.00    -0.179 A  
HETATM   12  C   UNL     1      -6.124  14.722  68.967  1.00  0.00    -0.093 A  
HETATM   13  C   UNL     1      -6.428  16.632  67.505  1.00  0.00    -0.156 A  
HETATM   14  C   UNL     1      -8.175  15.976  69.006  1.00  0.00    -0.235 A  
HETATM   15  C   UNL     1      -5.630  15.583  67.994  1.00  0.00    -0.142 A  
HETATM   16 CL   UNL     1      -5.160  13.422  69.549  1.00  0.00    -0.082 Cl 
HETATM   17 CL   UNL     1      -5.735  17.563  66.222  1.00  0.00    -0.235 Cl 
HETATM   18  C   UNL     1      -7.402  14.904  69.462  1.00  0.00    -0.178 A  
ENDBRANCH  10  11
BRANCH  10  19
HETATM   19  C   UNL     1      -8.525  19.306  68.529  1.00  0.00    -0.366 C  
BRANCH  19  20
HETATM   20  N   UNL     1      -7.236  19.960  68.594  1.00  0.00    -0.312 NA 
HETATM   21  C   UNL     1      -6.341  19.891  69.623  1.00  0.00    -0.352 A  
HETATM   22  N   UNL     1      -5.538  21.249  68.007  1.00  0.00    -0.327 NA 
HETATM   23  C   UNL     1      -5.329  20.744  69.267  1.00  0.00    -0.356 A  
HETATM   24  C   UNL     1      -6.682  20.734  67.617  1.00  0.00    -0.343 A  
ENDBRANCH  19  20
ENDBRANCH  10  19
ENDBRANCH   9  10
ENDBRANCH   8   9
ENDBRANCH   5   8
TORSDOF 6
ENDMDL
MODEL       73
REMARK 921   NORMALIZED FREE ENERGY PREDICTED BY IDOCK:   -5.15 KCAL/MOL
REMARK 922        TOTAL FREE ENERGY PREDICTED BY IDOCK:   -7.87 KCAL/MOL
REMARK 923 INTER-LIGAND FREE ENERGY PREDICTED BY IDOCK:   -7.63 KCAL/MOL
REMARK 924 INTRA-LIGAND FREE ENERGY PREDICTED BY IDOCK:   -0.25 KCAL/MOL
REMARK 927      BINDING AFFINITY PREDICTED BY RF-SCORE:    0.00 PKD
ROOT
HETATM    1 CL   UNL     1      -9.764  20.736  67.412  1.00  0.00    -0.573 Cl 
HETATM    2  C   UNL     1      -9.666  19.032  67.624  1.00  0.00    -0.315 A  
HETATM    3  C   UNL     1      -8.606  18.483  68.341  1.00  0.00    -0.355 A  
HETATM    4  C   UNL     1      -8.524  17.094  68.507  1.00  0.00    -0.262 A  
HETATM    5  C   UNL     1      -9.495  16.245  67.947  1.00  0.00    -0.218 A  
HETATM    6  C   UNL     1     -10.567  16.822  67.246  1.00  0.00    -0.275 A  
HETATM    7  C   UNL     1     -10.649  18.208  67.082  1.00  0.00    -0.362 A  
ENDROOT
BRANCH   5   8
HETATM    8  C   UNL     1      -9.426  14.743  68.163  1.00  0.00    -0.208 C  
BRANCH   8   9
HETATM    9  S   UNL     1     -11.063  14.141  68.672  1.00  0.00    -0.275 SA 
BRANCH   9  10
HETATM   10  C   UNL     1     -10.962  12.263  68.572  1.00  0.00    -0.240 C  
BRANCH  10  11
HETATM   11  C   UNL     1     -10.738  11.790  67.106  1.00  0.00    -0.283 A  
HETATM   12  C   UNL     1     -10.209  10.955  64.434  1.00  0.00    -0.358 A  
HETATM   13  C   UNL     1     -11.365  12.403  65.997  1.00  0.00    -0.353 A  
HETATM   14  C   UNL     1      -9.862  10.720  66.801  1.00  0.00    -0.233 A  
HETATM   15  C   UNL     1     -11.081  12.009  64.678  1.00  0.00    -0.375 A  
HETATM   16 CL   UNL     1      -9.880  10.454  62.822  1.00  0.00    -0.237 Cl 
HETATM   17 CL   UNL     1     -12.547  13.655  66.166  1.00  0.00    -0.435 Cl 
HETATM   18  C   UNL     1      -9.613  10.296  65.492  1.00  0.00    -0.299 A  
ENDBRANCH  10  11
BRANCH  10  19
HETATM   19  C   UNL     1     -12.161  11.569  69.273  1.00  0.00    -0.278 C  
BRANCH  19  20
HETATM   20  N   UNL     1     -11.795  10.601  70.284  1.00  0.00    -0.312 NA 
HETATM   21  C   UNL     1     -10.562  10.043  70.467  1.00  0.00    -0.246 A  
HETATM   22  N   UNL     1     -12.016   9.185  71.968  1.00  0.00    -0.367 NA 
HETATM   23  C   UNL     1     -10.737   9.126  71.471  1.00  0.00    -0.367 A  
HETATM   24  C   UNL     1     -12.620  10.104  71.250  1.00  0.00    -0.404 A  
ENDBRANCH  19  20
ENDBRANCH  10  19
ENDBRANCH   9  10
ENDBRANCH   8   9
ENDBRANCH   5   8
TORSDOF 6
ENDMDL
MODEL       74
REMARK 921   NORMALIZED FREE ENERGY PREDICTED BY IDOCK:   -5.14 KCAL/MOL
REMARK 922        TOTAL FREE ENERGY PREDICTED BY IDOCK:   -7.87 KCAL/MOL
REMARK 923 INTER-LIGAND FREE ENERGY PREDICTED BY IDOCK:   -7.10 KCAL/MOL
REMARK 924 INTRA-LIGAND FREE ENERGY PREDICTED BY IDOCK:   -0.77 KCAL/MOL
REMARK 927      BINDING AFFINITY PREDICTED BY RF-SCORE:    0.00 PKD
ROOT
HETATM    1 CL   UNL     1     -12.424  16.015  71.365  1.00  0.00    -0.442 Cl 
HETATM    2  C   UNL     1     -12.626  14.307  71.337  1.00  0.00    -0.360 A  
HETATM    3  C   UNL     1     -13.356  13.680  72.342  1.00  0.00    -0.641 A  
HETATM    4  C   UNL     1     -13.515  12.287  72.320  1.00  0.00    -0.365 A  
HETATM    5  C   UNL     1     -12.933  11.514  71.301  1.00  0.00    -0.397 A  
HETATM    6  C   UNL     1     -12.219  12.170  70.285  1.00  0.00    -0.344 A  
HETATM    7  C   UNL     1     -12.063  13.560  70.305  1.00  0.00    -0.425 A  
ENDROOT
BRANCH   5   8
HETATM    8  C   UNL     1     -13.140  10.009  71.257  1.00  0.00    -0.402 C  
BRANCH   8   9
HETATM    9  S   UNL     1     -11.557   9.182  71.591  1.00  0.00    -0.398 SA 
BRANCH   9  10
HETATM   10  C   UNL     1     -10.902   8.650  69.907  1.00  0.00    -0.208 C  
BRANCH  10  11
HETATM   11  C   UNL     1     -10.590   7.125  69.883  1.00  0.00    -0.246 A  
HETATM   12  C   UNL     1      -9.909   4.359  69.884  1.00  0.00    -0.220 A  
HETATM   13  C   UNL     1     -10.548   6.369  68.689  1.00  0.00    -0.253 A  
HETATM   14  C   UNL     1     -10.307   6.411  71.072  1.00  0.00    -0.247 A  
HETATM   15  C   UNL     1     -10.183   5.012  68.688  1.00  0.00    -0.154 A  
HETATM   16 CL   UNL     1      -9.488   2.691  69.888  1.00  0.00    -0.190 Cl 
HETATM   17 CL   UNL     1     -10.966   7.033  67.147  1.00  0.00    -0.429 Cl 
HETATM   18  C   UNL     1      -9.988   5.049  71.079  1.00  0.00    -0.281 A  
ENDBRANCH  10  11
BRANCH  10  19
HETATM   19  C   UNL     1      -9.721   9.535  69.427  1.00  0.00    -0.183 C  
BRANCH  19  20
HETATM   20  N   UNL     1      -9.848  10.036  68.075  1.00  0.00    -0.140 NA 
HETATM   21  C   UNL     1     -10.981  10.528  67.493  1.00  0.00    -0.303 A  
HETATM   22  N   UNL     1      -9.287  10.549  65.998  1.00  0.00    -0.171 NA 
HETATM   23  C   UNL     1     -10.627  10.780  66.193  1.00  0.00    -0.175 A  
HETATM   24  C   UNL     1      -8.840  10.129  67.160  1.00  0.00    -0.132 A  
ENDBRANCH  19  20
ENDBRANCH  10  19
ENDBRANCH   9  10
ENDBRANCH   8   9
ENDBRANCH   5   8
TORSDOF 6
ENDMDL
MODEL       75
REMARK 921   NORMALIZED FREE ENERGY PREDICTED BY IDOCK:   -5.14 KCAL/MOL
REMARK 922        TOTAL FREE ENERGY PREDICTED BY IDOCK:   -7.86 KCAL/MOL
REMARK 923 INTER-LIGAND FREE ENERGY PREDICTED BY IDOCK:   -7.05 KCAL/MOL
REMARK 924 INTRA-LIGAND FREE ENERGY PREDICTED BY IDOCK:   -0.81 KCAL/MOL
REMARK 927      BINDING AFFINITY PREDICTED BY RF-SCORE:    0.00 PKD
ROOT
HETATM    1 CL   UNL     1      -8.079   8.223  63.018  1.00  0.00    -0.165 Cl 
HETATM    2  C   UNL     1      -8.982   9.563  63.609  1.00  0.00    -0.173 A  
HETATM    3  C   UNL     1      -9.355  10.584  62.739  1.00  0.00    -0.342 A  
HETATM    4  C   UNL     1     -10.085  11.678  63.222  1.00  0.00    -0.454 A  
HETATM    5  C   UNL     1     -10.436  11.763  64.581  1.00  0.00    -0.347 A  
HETATM    6  C   UNL     1     -10.070  10.710  65.436  1.00  0.00    -0.356 A  
HETATM    7  C   UNL     1      -9.342   9.618  64.953  1.00  0.00    -0.306 A  
ENDROOT
BRANCH   5   8
HETATM    8  C   UNL     1     -11.263  12.929  65.095  1.00  0.00    -0.288 C  
BRANCH   8   9
HETATM    9  S   UNL     1     -11.951  12.499  66.721  1.00  0.00    -0.134 SA 
BRANCH   9  10
HETATM   10  C   UNL     1     -10.790  13.280  67.981  1.00  0.00    -0.243 C  
BRANCH  10  11
HETATM   11  C   UNL     1     -11.580  13.844  69.198  1.00  0.00    -0.359 A  
HETATM   12  C   UNL     1     -12.927  14.936  71.458  1.00  0.00    -0.342 A  
HETATM   13  C   UNL     1     -12.108  13.021  70.219  1.00  0.00    -0.314 A  
HETATM   14  C   UNL     1     -11.796  15.234  69.358  1.00  0.00    -0.367 A  
HETATM   15  C   UNL     1     -12.746  13.563  71.348  1.00  0.00    -0.423 A  
HETATM   16 CL   UNL     1     -13.731  15.601  72.826  1.00  0.00    -0.654 Cl 
HETATM   17 CL   UNL     1     -12.043  11.293  70.154  1.00  0.00    -0.423 Cl 
HETATM   18  C   UNL     1     -12.470  15.773  70.458  1.00  0.00    -0.371 A  
ENDBRANCH  10  11
BRANCH  10  19
HETATM   19  C   UNL     1      -9.823  14.308  67.336  1.00  0.00    -0.235 C  
BRANCH  19  20
HETATM   20  N   UNL     1      -8.419  13.977  67.453  1.00  0.00    -0.189 NA 
HETATM   21  C   UNL     1      -7.409  14.828  67.800  1.00  0.00    -0.170 A  
HETATM   22  N   UNL     1      -6.562  12.780  67.365  1.00  0.00    -0.156 NA 
HETATM   23  C   UNL     1      -6.265  14.084  67.678  1.00  0.00    -0.093 A  
HETATM   24  C   UNL     1      -7.871  12.742  67.264  1.00  0.00    -0.146 A  
ENDBRANCH  19  20
ENDBRANCH  10  19
ENDBRANCH   9  10
ENDBRANCH   8   9
ENDBRANCH   5   8
TORSDOF 6
ENDMDL
MODEL       76
REMARK 921   NORMALIZED FREE ENERGY PREDICTED BY IDOCK:   -5.14 KCAL/MOL
REMARK 922        TOTAL FREE ENERGY PREDICTED BY IDOCK:   -7.86 KCAL/MOL
REMARK 923 INTER-LIGAND FREE ENERGY PREDICTED BY IDOCK:   -6.70 KCAL/MOL
REMARK 924 INTRA-LIGAND FREE ENERGY PREDICTED BY IDOCK:   -1.16 KCAL/MOL
REMARK 927      BINDING AFFINITY PREDICTED BY RF-SCORE:    0.00 PKD
ROOT
HETATM    1 CL   UNL     1     -12.297  13.207  63.080  1.00  0.00    -0.426 Cl 
HETATM    2  C   UNL     1     -11.805  12.974  64.712  1.00  0.00    -0.363 A  
HETATM    3  C   UNL     1     -10.876  11.984  65.021  1.00  0.00    -0.351 A  
HETATM    4  C   UNL     1     -10.482  11.791  66.352  1.00  0.00    -0.271 A  
HETATM    5  C   UNL     1     -11.024  12.578  67.383  1.00  0.00    -0.297 A  
HETATM    6  C   UNL     1     -11.944  13.586  67.046  1.00  0.00    -0.440 A  
HETATM    7  C   UNL     1     -12.335  13.779  65.717  1.00  0.00    -0.523 A  
ENDROOT
BRANCH   5   8
HETATM    8  C   UNL     1     -10.565  12.395  68.820  1.00  0.00    -0.183 C  
BRANCH   8   9
HETATM    9  S   UNL     1     -11.875  11.557  69.759  1.00  0.00    -0.370 SA 
BRANCH   9  10
HETATM   10  C   UNL     1     -11.116   9.934  70.343  1.00  0.00    -0.319 C  
BRANCH  10  11
HETATM   11  C   UNL     1     -10.297   9.257  69.205  1.00  0.00    -0.222 A  
HETATM   12  C   UNL     1      -8.869   7.919  67.135  1.00  0.00    -0.132 A  
HETATM   13  C   UNL     1      -8.916   8.978  69.315  1.00  0.00    -0.144 A  
HETATM   14  C   UNL     1     -10.909   8.860  67.992  1.00  0.00    -0.079 A  
HETATM   15  C   UNL     1      -8.219   8.291  68.306  1.00  0.00    -0.128 A  
HETATM   16 CL   UNL     1      -8.013   7.101  65.887  1.00  0.00    -0.109 Cl 
HETATM   17 CL   UNL     1      -7.966   9.477  70.673  1.00  0.00    -0.190 Cl 
HETATM   18  C   UNL     1     -10.208   8.217  66.966  1.00  0.00    -0.380 A  
ENDBRANCH  10  11
BRANCH  10  19
HETATM   19  C   UNL     1     -12.163   8.996  71.000  1.00  0.00    -0.223 C  
BRANCH  19  20
HETATM   20  N   UNL     1     -11.604   7.866  71.711  1.00  0.00    -0.266 NA 
HETATM   21  C   UNL     1     -11.647   6.559  71.321  1.00  0.00    -0.327 A  
HETATM   22  N   UNL     1     -10.599   6.724  73.316  1.00  0.00    -0.284 NA 
HETATM   23  C   UNL     1     -11.076   5.864  72.356  1.00  0.00    -0.280 A  
HETATM   24  C   UNL     1     -10.907   7.925  72.883  1.00  0.00    -0.386 A  
ENDBRANCH  19  20
ENDBRANCH  10  19
ENDBRANCH   9  10
ENDBRANCH   8   9
ENDBRANCH   5   8
TORSDOF 6
ENDMDL
MODEL       77
REMARK 921   NORMALIZED FREE ENERGY PREDICTED BY IDOCK:   -5.12 KCAL/MOL
REMARK 922        TOTAL FREE ENERGY PREDICTED BY IDOCK:   -7.84 KCAL/MOL
REMARK 923 INTER-LIGAND FREE ENERGY PREDICTED BY IDOCK:   -6.74 KCAL/MOL
REMARK 924 INTRA-LIGAND FREE ENERGY PREDICTED BY IDOCK:   -1.10 KCAL/MOL
REMARK 927      BINDING AFFINITY PREDICTED BY RF-SCORE:    0.00 PKD
ROOT
HETATM    1 CL   UNL     1     -13.026  15.728  73.887  1.00  0.00    -0.623 Cl 
HETATM    2  C   UNL     1     -12.435  15.158  72.375  1.00  0.00    -0.352 A  
HETATM    3  C   UNL     1     -12.847  13.918  71.894  1.00  0.00    -0.411 A  
HETATM    4  C   UNL     1     -12.360  13.452  70.666  1.00  0.00    -0.423 A  
HETATM    5  C   UNL     1     -11.448  14.217  69.917  1.00  0.00    -0.301 A  
HETATM    6  C   UNL     1     -11.063  15.475  70.411  1.00  0.00    -0.357 A  
HETATM    7  C   UNL     1     -11.551  15.940  71.636  1.00  0.00    -0.541 A  
ENDROOT
BRANCH   5   8
HETATM    8  C   UNL     1     -10.953  13.728  68.567  1.00  0.00    -0.262 C  
BRANCH   8   9
HETATM    9  S   UNL     1     -11.896  12.251  68.089  1.00  0.00    -0.220 SA 
BRANCH   9  10
HETATM   10  C   UNL     1     -10.609  10.911  67.777  1.00  0.00    -0.217 C  
BRANCH  10  11
HETATM   11  C   UNL     1     -10.684   9.797  68.862  1.00  0.00    -0.241 A  
HETATM   12  C   UNL     1     -10.724   7.809  70.902  1.00  0.00    -0.221 A  
HETATM   13  C   UNL     1     -10.533   8.424  68.565  1.00  0.00    -0.164 A  
HETATM   14  C   UNL     1     -10.889  10.111  70.228  1.00  0.00    -0.370 A  
HETATM   15  C   UNL     1     -10.523   7.447  69.575  1.00  0.00    -0.236 A  
HETATM   16 CL   UNL     1     -10.739   6.612  72.137  1.00  0.00    -0.235 Cl 
HETATM   17 CL   UNL     1     -10.378   7.829  66.947  1.00  0.00    -0.390 Cl 
HETATM   18  C   UNL     1     -10.926   9.136  71.230  1.00  0.00    -0.400 A  
ENDBRANCH  10  11
BRANCH  10  19
HETATM   19  C   UNL     1      -9.184  11.495  67.582  1.00  0.00    -0.171 C  
BRANCH  19  20
HETATM   20  N   UNL     1      -8.322  10.717  66.718  1.00  0.00    -0.132 NA 
HETATM   21  C   UNL     1      -7.239   9.980  67.101  1.00  0.00    -0.090 A  
HETATM   22  N   UNL     1      -7.484   9.863  64.859  1.00  0.00    -0.130 NA 
HETATM   23  C   UNL     1      -6.700   9.513  65.931  1.00  0.00    -0.082 A  
HETATM   24  C   UNL     1      -8.470  10.564  65.371  1.00  0.00    -0.170 A  
ENDBRANCH  19  20
ENDBRANCH  10  19
ENDBRANCH   9  10
ENDBRANCH   8   9
ENDBRANCH   5   8
TORSDOF 6
ENDMDL
MODEL       78
REMARK 921   NORMALIZED FREE ENERGY PREDICTED BY IDOCK:   -5.09 KCAL/MOL
REMARK 922        TOTAL FREE ENERGY PREDICTED BY IDOCK:   -7.80 KCAL/MOL
REMARK 923 INTER-LIGAND FREE ENERGY PREDICTED BY IDOCK:   -6.64 KCAL/MOL
REMARK 924 INTRA-LIGAND FREE ENERGY PREDICTED BY IDOCK:   -1.15 KCAL/MOL
REMARK 927      BINDING AFFINITY PREDICTED BY RF-SCORE:    0.00 PKD
ROOT
HETATM    1 CL   UNL     1     -11.195  14.222  67.617  1.00  0.00    -0.305 Cl 
HETATM    2  C   UNL     1     -11.731  13.192  68.886  1.00  0.00    -0.326 A  
HETATM    3  C   UNL     1     -12.129  13.741  70.102  1.00  0.00    -0.429 A  
HETATM    4  C   UNL     1     -12.560  12.900  71.137  1.00  0.00    -0.373 A  
HETATM    5  C   UNL     1     -12.583  11.504  70.966  1.00  0.00    -0.457 A  
HETATM    6  C   UNL     1     -12.198  10.974  69.723  1.00  0.00    -0.388 A  
HETATM    7  C   UNL     1     -11.771  11.814  68.691  1.00  0.00    -0.389 A  
ENDROOT
BRANCH   5   8
HETATM    8  C   UNL     1     -13.089  10.597  72.075  1.00  0.00    -0.396 C  
BRANCH   8   9
HETATM    9  S   UNL     1     -13.065   8.876  71.492  1.00  0.00    -0.307 SA 
BRANCH   9  10
HETATM   10  C   UNL     1     -11.305   8.271  71.784  1.00  0.00    -0.288 C  
BRANCH  10  11
HETATM   11  C   UNL     1     -10.718   7.613  70.500  1.00  0.00    -0.241 A  
HETATM   12  C   UNL     1      -9.618   6.311  68.218  1.00  0.00    -0.119 A  
HETATM   13  C   UNL     1      -9.603   8.139  69.810  1.00  0.00    -0.171 A  
HETATM   14  C   UNL     1     -11.267   6.423  69.964  1.00  0.00    -0.475 A  
HETATM   15  C   UNL     1      -9.043   7.480  68.701  1.00  0.00    -0.134 A  
HETATM   16 CL   UNL     1      -8.951   5.516  66.846  1.00  0.00    -0.111 Cl 
HETATM   17 CL   UNL     1      -8.856   9.638  70.243  1.00  0.00    -0.268 Cl 
HETATM   18  C   UNL     1     -10.740   5.790  68.834  1.00  0.00    -0.334 A  
ENDBRANCH  10  11
BRANCH  10  19
HETATM   19  C   UNL     1     -11.190   7.380  73.049  1.00  0.00    -0.297 C  
BRANCH  19  20
HETATM   20  N   UNL     1      -9.834   7.076  73.456  1.00  0.00    -0.228 NA 
HETATM   21  C   UNL     1      -8.855   7.977  73.760  1.00  0.00    -0.247 A  
HETATM   22  N   UNL     1      -8.036   5.879  73.929  1.00  0.00    -0.109 NA 
HETATM   23  C   UNL     1      -7.737   7.218  73.988  1.00  0.00    -0.112 A  
HETATM   24  C   UNL     1      -9.316   5.827  73.634  1.00  0.00    -0.137 A  
ENDBRANCH  19  20
ENDBRANCH  10  19
ENDBRANCH   9  10
ENDBRANCH   8   9
ENDBRANCH   5   8
TORSDOF 6
ENDMDL
MODEL       79
REMARK 921   NORMALIZED FREE ENERGY PREDICTED BY IDOCK:   -5.07 KCAL/MOL
REMARK 922        TOTAL FREE ENERGY PREDICTED BY IDOCK:   -7.77 KCAL/MOL
REMARK 923 INTER-LIGAND FREE ENERGY PREDICTED BY IDOCK:   -6.97 KCAL/MOL
REMARK 924 INTRA-LIGAND FREE ENERGY PREDICTED BY IDOCK:   -0.80 KCAL/MOL
REMARK 927      BINDING AFFINITY PREDICTED BY RF-SCORE:    0.00 PKD
ROOT
HETATM    1 CL   UNL     1     -11.899   8.040  72.366  1.00  0.00    -0.418 Cl 
HETATM    2  C   UNL     1     -11.883   9.493  71.445  1.00  0.00    -0.389 A  
HETATM    3  C   UNL     1     -10.959   9.651  70.416  1.00  0.00    -0.356 A  
HETATM    4  C   UNL     1     -10.943  10.838  69.671  1.00  0.00    -0.320 A  
HETATM    5  C   UNL     1     -11.843  11.879  69.959  1.00  0.00    -0.407 A  
HETATM    6  C   UNL     1     -12.782  11.689  70.987  1.00  0.00    -0.395 A  
HETATM    7  C   UNL     1     -12.799  10.504  71.729  1.00  0.00    -0.559 A  
ENDROOT
BRANCH   5   8
HETATM    8  C   UNL     1     -11.851  13.148  69.124  1.00  0.00    -0.314 C  
BRANCH   8   9
HETATM    9  S   UNL     1     -11.866  12.699  67.363  1.00  0.00    -0.256 SA 
BRANCH   9  10
HETATM   10  C   UNL     1     -10.086  12.893  66.779  1.00  0.00    -0.238 C  
BRANCH  10  11
HETATM   11  C   UNL     1      -9.678  14.394  66.712  1.00  0.00    -0.278 A  
HETATM   12  C   UNL     1      -8.956  17.140  66.471  1.00  0.00    -0.272 A  
HETATM   13  C   UNL     1      -8.374  14.850  67.014  1.00  0.00    -0.216 A  
HETATM   14  C   UNL     1     -10.602  15.393  66.319  1.00  0.00    -0.311 A  
HETATM   15  C   UNL     1      -8.012  16.200  66.865  1.00  0.00    -0.279 A  
HETATM   16 CL   UNL     1      -8.522  18.796  66.314  1.00  0.00    -0.289 Cl 
HETATM   17 CL   UNL     1      -7.134  13.804  67.613  1.00  0.00    -0.176 Cl 
HETATM   18  C   UNL     1     -10.256  16.744  66.215  1.00  0.00    -0.341 A  
ENDBRANCH  10  11
BRANCH  10  19
HETATM   19  C   UNL     1      -9.807  12.113  65.467  1.00  0.00    -0.221 C  
BRANCH  19  20
HETATM   20  N   UNL     1      -9.285  10.776  65.655  1.00  0.00    -0.191 NA 
HETATM   21  C   UNL     1     -10.014   9.637  65.838  1.00  0.00    -0.281 A  
HETATM   22  N   UNL     1      -7.810   9.151  65.925  1.00  0.00    -0.104 NA 
HETATM   23  C   UNL     1      -9.084   8.656  66.065  1.00  0.00    -0.204 A  
HETATM   24  C   UNL     1      -7.966  10.426  65.649  1.00  0.00    -0.153 A  
ENDBRANCH  19  20
ENDBRANCH  10  19
ENDBRANCH   9  10
ENDBRANCH   8   9
ENDBRANCH   5   8
TORSDOF 6
ENDMDL
MODEL       80
REMARK 921   NORMALIZED FREE ENERGY PREDICTED BY IDOCK:   -5.06 KCAL/MOL
REMARK 922        TOTAL FREE ENERGY PREDICTED BY IDOCK:   -7.75 KCAL/MOL
REMARK 923 INTER-LIGAND FREE ENERGY PREDICTED BY IDOCK:   -7.46 KCAL/MOL
REMARK 924 INTRA-LIGAND FREE ENERGY PREDICTED BY IDOCK:   -0.30 KCAL/MOL
REMARK 927      BINDING AFFINITY PREDICTED BY RF-SCORE:    0.00 PKD
ROOT
HETATM    1 CL   UNL     1     -11.606  16.197  64.149  1.00  0.00    -0.210 Cl 
HETATM    2  C   UNL     1     -11.351  14.668  64.895  1.00  0.00    -0.403 A  
HETATM    3  C   UNL     1     -10.129  14.388  65.500  1.00  0.00    -0.382 A  
HETATM    4  C   UNL     1      -9.920  13.140  66.102  1.00  0.00    -0.291 A  
HETATM    5  C   UNL     1     -10.928  12.159  66.091  1.00  0.00    -0.335 A  
HETATM    6  C   UNL     1     -12.161  12.471  65.494  1.00  0.00    -0.481 A  
HETATM    7  C   UNL     1     -12.369  13.718  64.895  1.00  0.00    -0.435 A  
ENDROOT
BRANCH   5   8
HETATM    8  C   UNL     1     -10.714  10.822  66.779  1.00  0.00    -0.231 C  
BRANCH   8   9
HETATM    9  S   UNL     1      -9.644  11.065  68.227  1.00  0.00    -0.177 SA 
BRANCH   9  10
HETATM   10  C   UNL     1     -10.813  11.360  69.674  1.00  0.00    -0.047 C  
BRANCH  10  11
HETATM   11  C   UNL     1     -11.200  10.019  70.364  1.00  0.00    -0.393 A  
HETATM   12  C   UNL     1     -11.940   7.522  71.519  1.00  0.00    -0.307 A  
HETATM   13  C   UNL     1     -12.227   9.922  71.331  1.00  0.00    -0.408 A  
HETATM   14  C   UNL     1     -10.547   8.806  70.039  1.00  0.00    -0.232 A  
HETATM   15  C   UNL     1     -12.611   8.685  71.878  1.00  0.00    -0.411 A  
HETATM   16 CL   UNL     1     -12.390   6.011  72.206  1.00  0.00    -0.198 Cl 
HETATM   17 CL   UNL     1     -13.071  11.303  71.940  1.00  0.00    -0.583 Cl 
HETATM   18  C   UNL     1     -10.896   7.580  70.615  1.00  0.00    -0.251 A  
ENDBRANCH  10  11
BRANCH  10  19
HETATM   19  C   UNL     1     -12.034  12.231  69.278  1.00  0.00    -0.253 C  
BRANCH  19  20
HETATM   20  N   UNL     1     -11.944  13.619  69.678  1.00  0.00    -0.329 NA 
HETATM   21  C   UNL     1     -12.863  14.316  70.408  1.00  0.00    -0.218 A  
HETATM   22  N   UNL     1     -11.152  15.677  69.842  1.00  0.00    -0.288 NA 
HETATM   23  C   UNL     1     -12.384  15.600  70.444  1.00  0.00    -0.391 A  
HETATM   24  C   UNL     1     -10.902  14.460  69.415  1.00  0.00    -0.201 A  
ENDBRANCH  19  20
ENDBRANCH  10  19
ENDBRANCH   9  10
ENDBRANCH   8   9
ENDBRANCH   5   8
TORSDOF 6
ENDMDL
MODEL       81
REMARK 921   NORMALIZED FREE ENERGY PREDICTED BY IDOCK:   -5.04 KCAL/MOL
REMARK 922        TOTAL FREE ENERGY PREDICTED BY IDOCK:   -7.74 KCAL/MOL
REMARK 923 INTER-LIGAND FREE ENERGY PREDICTED BY IDOCK:   -6.81 KCAL/MOL
REMARK 924 INTRA-LIGAND FREE ENERGY PREDICTED BY IDOCK:   -0.93 KCAL/MOL
REMARK 927      BINDING AFFINITY PREDICTED BY RF-SCORE:    0.00 PKD
ROOT
HETATM    1 CL   UNL     1     -12.512  15.681  70.879  1.00  0.00    -0.478 Cl 
HETATM    2  C   UNL     1     -12.630  13.966  70.955  1.00  0.00    -0.361 A  
HETATM    3  C   UNL     1     -13.303  13.364  72.014  1.00  0.00    -0.569 A  
HETATM    4  C   UNL     1     -13.394  11.967  72.077  1.00  0.00    -0.447 A  
HETATM    5  C   UNL     1     -12.800  11.164  71.088  1.00  0.00    -0.473 A  
HETATM    6  C   UNL     1     -12.145  11.793  70.016  1.00  0.00    -0.387 A  
HETATM    7  C   UNL     1     -12.057  13.187  69.953  1.00  0.00    -0.357 A  
ENDROOT
BRANCH   5   8
HETATM    8  C   UNL     1     -12.934   9.651  71.137  1.00  0.00    -0.309 C  
BRANCH   8   9
HETATM    9  S   UNL     1     -11.417   8.943  71.841  1.00  0.00    -0.368 SA 
BRANCH   9  10
HETATM   10  C   UNL     1     -10.109   9.115  70.496  1.00  0.00    -0.235 C  
BRANCH  10  11
HETATM   11  C   UNL     1     -10.309   8.048  69.380  1.00  0.00    -0.217 A  
HETATM   12  C   UNL     1     -10.563   6.052  67.363  1.00  0.00    -0.283 A  
HETATM   13  C   UNL     1     -10.484   8.385  68.019  1.00  0.00    -0.184 A  
HETATM   14  C   UNL     1     -10.302   6.663  69.674  1.00  0.00    -0.226 A  
HETATM   15  C   UNL     1     -10.580   7.399  67.021  1.00  0.00    -0.414 A  
HETATM   16 CL   UNL     1     -10.706   4.844  66.147  1.00  0.00    -0.334 Cl 
HETATM   17 CL   UNL     1     -10.626  10.020  67.471  1.00  0.00    -0.314 Cl 
HETATM   18  C   UNL     1     -10.443   5.680  68.689  1.00  0.00    -0.277 A  
ENDBRANCH  10  11
BRANCH  10  19
HETATM   19  C   UNL     1      -8.669   9.151  71.074  1.00  0.00    -0.189 C  
BRANCH  19  20
HETATM   20  N   UNL     1      -7.643   9.518  70.123  1.00  0.00    -0.123 NA 
HETATM   21  C   UNL     1      -7.599  10.659  69.373  1.00  0.00    -0.134 A  
HETATM   22  N   UNL     1      -5.824   9.353  68.875  1.00  0.00    -0.040 NA 
HETATM   23  C   UNL     1      -6.502  10.507  68.565  1.00  0.00    -0.055 A  
HETATM   24  C   UNL     1      -6.522   8.794  69.838  1.00  0.00    -0.038 A  
ENDBRANCH  19  20
ENDBRANCH  10  19
ENDBRANCH   9  10
ENDBRANCH   8   9
ENDBRANCH   5   8
TORSDOF 6
ENDMDL
MODEL       82
REMARK 921   NORMALIZED FREE ENERGY PREDICTED BY IDOCK:   -5.03 KCAL/MOL
REMARK 922        TOTAL FREE ENERGY PREDICTED BY IDOCK:   -7.72 KCAL/MOL
REMARK 923 INTER-LIGAND FREE ENERGY PREDICTED BY IDOCK:   -6.84 KCAL/MOL
REMARK 924 INTRA-LIGAND FREE ENERGY PREDICTED BY IDOCK:   -0.88 KCAL/MOL
REMARK 927      BINDING AFFINITY PREDICTED BY RF-SCORE:    0.00 PKD
ROOT
HETATM    1 CL   UNL     1      -7.863   6.335  66.405  1.00  0.00    -0.102 Cl 
HETATM    2  C   UNL     1      -8.530   7.775  67.069  1.00  0.00    -0.124 A  
HETATM    3  C   UNL     1      -7.721   8.637  67.805  1.00  0.00    -0.102 A  
HETATM    4  C   UNL     1      -8.268   9.806  68.351  1.00  0.00    -0.105 A  
HETATM    5  C   UNL     1      -9.628  10.114  68.174  1.00  0.00    -0.151 A  
HETATM    6  C   UNL     1     -10.420   9.241  67.409  1.00  0.00    -0.340 A  
HETATM    7  C   UNL     1      -9.874   8.075  66.863  1.00  0.00    -0.318 A  
ENDROOT
BRANCH   5   8
HETATM    8  C   UNL     1     -10.209  11.403  68.731  1.00  0.00    -0.197 C  
BRANCH   8   9
HETATM    9  S   UNL     1      -9.143  12.792  68.247  1.00  0.00    -0.143 SA 
BRANCH   9  10
HETATM   10  C   UNL     1     -10.154  13.796  67.014  1.00  0.00    -0.256 C  
BRANCH  10  11
HETATM   11  C   UNL     1     -10.131  15.311  67.372  1.00  0.00    -0.232 A  
HETATM   12  C   UNL     1     -10.177  18.062  68.109  1.00  0.00    -0.384 A  
HETATM   13  C   UNL     1     -10.462  16.324  66.443  1.00  0.00    -0.294 A  
HETATM   14  C   UNL     1      -9.794  15.757  68.673  1.00  0.00    -0.210 A  
HETATM   15  C   UNL     1     -10.513  17.678  66.816  1.00  0.00    -0.289 A  
HETATM   16 CL   UNL     1     -10.214  19.721  68.560  1.00  0.00    -0.559 Cl 
HETATM   17 CL   UNL     1     -10.798  15.993  64.779  1.00  0.00    -0.417 Cl 
HETATM   18  C   UNL     1      -9.800  17.108  69.034  1.00  0.00    -0.240 A  
ENDBRANCH  10  11
BRANCH  10  19
HETATM   19  C   UNL     1     -11.583  13.223  66.818  1.00  0.00    -0.365 C  
BRANCH  19  20
HETATM   20  N   UNL     1     -11.850  12.699  65.495  1.00  0.00    -0.409 NA 
HETATM   21  C   UNL     1     -11.042  11.872  64.770  1.00  0.00    -0.311 A  
HETATM   22  N   UNL     1     -12.889  12.373  63.571  1.00  0.00    -0.764 NA 
HETATM   23  C   UNL     1     -11.673  11.735  63.561  1.00  0.00    -0.383 A  
HETATM   24  C   UNL     1     -12.978  12.921  64.761  1.00  0.00    -0.145 A  
ENDBRANCH  19  20
ENDBRANCH  10  19
ENDBRANCH   9  10
ENDBRANCH   8   9
ENDBRANCH   5   8
TORSDOF 6
ENDMDL
MODEL       83
REMARK 921   NORMALIZED FREE ENERGY PREDICTED BY IDOCK:   -5.02 KCAL/MOL
REMARK 922        TOTAL FREE ENERGY PREDICTED BY IDOCK:   -7.70 KCAL/MOL
REMARK 923 INTER-LIGAND FREE ENERGY PREDICTED BY IDOCK:   -6.54 KCAL/MOL
REMARK 924 INTRA-LIGAND FREE ENERGY PREDICTED BY IDOCK:   -1.16 KCAL/MOL
REMARK 927      BINDING AFFINITY PREDICTED BY RF-SCORE:    0.00 PKD
ROOT
HETATM    1 CL   UNL     1     -12.443  14.052  66.075  1.00  0.00    -0.505 Cl 
HETATM    2  C   UNL     1     -11.706  12.543  66.447  1.00  0.00    -0.397 A  
HETATM    3  C   UNL     1     -11.795  12.028  67.738  1.00  0.00    -0.308 A  
HETATM    4  C   UNL     1     -11.189  10.802  68.041  1.00  0.00    -0.372 A  
HETATM    5  C   UNL     1     -10.480  10.089  67.058  1.00  0.00    -0.302 A  
HETATM    6  C   UNL     1     -10.421  10.616  65.757  1.00  0.00    -0.235 A  
HETATM    7  C   UNL     1     -11.028  11.839  65.455  1.00  0.00    -0.344 A  
ENDROOT
BRANCH   5   8
HETATM    8  C   UNL     1      -9.858   8.740  67.378  1.00  0.00    -0.194 C  
BRANCH   8   9
HETATM    9  S   UNL     1      -8.398   8.993  68.428  1.00  0.00    -0.125 SA 
BRANCH   9  10
HETATM   10  C   UNL     1      -8.698   7.951  69.968  1.00  0.00    -0.140 C  
BRANCH  10  11
HETATM   11  C   UNL     1     -10.156   8.124  70.487  1.00  0.00    -0.201 A  
HETATM   12  C   UNL     1     -12.779   8.456  71.548  1.00  0.00    -0.308 A  
HETATM   13  C   UNL     1     -11.126   7.099  70.406  1.00  0.00    -0.280 A  
HETATM   14  C   UNL     1     -10.584   9.328  71.096  1.00  0.00    -0.402 A  
HETATM   15  C   UNL     1     -12.410   7.254  70.956  1.00  0.00    -0.335 A  
HETATM   16 CL   UNL     1     -14.358   8.656  72.199  1.00  0.00    -0.528 Cl 
HETATM   17 CL   UNL     1     -10.832   5.594  69.605  1.00  0.00    -0.407 Cl 
HETATM   18  C   UNL     1     -11.876   9.501  71.604  1.00  0.00    -0.468 A  
ENDBRANCH  10  11
BRANCH  10  19
HETATM   19  C   UNL     1      -7.618   8.183  71.058  1.00  0.00    -0.083 C  
BRANCH  19  20
HETATM   20  N   UNL     1      -7.787   7.393  72.259  1.00  0.00    -0.094 NA 
HETATM   21  C   UNL     1      -7.799   6.030  72.340  1.00  0.00    -0.102 A  
HETATM   22  N   UNL     1      -8.143   6.917  74.389  1.00  0.00    -0.124 NA 
HETATM   23  C   UNL     1      -8.083   5.759  73.653  1.00  0.00    -0.111 A  
HETATM   24  C   UNL     1      -7.931   7.883  73.524  1.00  0.00    -0.175 A  
ENDBRANCH  19  20
ENDBRANCH  10  19
ENDBRANCH   9  10
ENDBRANCH   8   9
ENDBRANCH   5   8
TORSDOF 6
ENDMDL
MODEL       84
REMARK 921   NORMALIZED FREE ENERGY PREDICTED BY IDOCK:   -5.00 KCAL/MOL
REMARK 922        TOTAL FREE ENERGY PREDICTED BY IDOCK:   -7.68 KCAL/MOL
REMARK 923 INTER-LIGAND FREE ENERGY PREDICTED BY IDOCK:   -6.67 KCAL/MOL
REMARK 924 INTRA-LIGAND FREE ENERGY PREDICTED BY IDOCK:   -1.01 KCAL/MOL
REMARK 927      BINDING AFFINITY PREDICTED BY RF-SCORE:    0.00 PKD
ROOT
HETATM    1 CL   UNL     1     -13.435  14.436  72.852  1.00  0.00    -0.575 Cl 
HETATM    2  C   UNL     1     -12.861  13.573  71.479  1.00  0.00    -0.352 A  
HETATM    3  C   UNL     1     -12.857  12.181  71.488  1.00  0.00    -0.394 A  
HETATM    4  C   UNL     1     -12.383  11.479  70.371  1.00  0.00    -0.390 A  
HETATM    5  C   UNL     1     -11.898  12.166  69.244  1.00  0.00    -0.370 A  
HETATM    6  C   UNL     1     -11.932  13.570  69.248  1.00  0.00    -0.378 A  
HETATM    7  C   UNL     1     -12.407  14.270  70.362  1.00  0.00    -0.419 A  
ENDROOT
BRANCH   5   8
HETATM    8  C   UNL     1     -11.423  11.404  68.019  1.00  0.00    -0.307 C  
BRANCH   8   9
HETATM    9  S   UNL     1      -9.670  10.975  68.230  1.00  0.00    -0.183 SA 
BRANCH   9  10
HETATM   10  C   UNL     1      -9.556   9.130  67.868  1.00  0.00    -0.146 C  
BRANCH  10  11
HETATM   11  C   UNL     1     -10.145   8.291  69.041  1.00  0.00    -0.208 A  
HETATM   12  C   UNL     1     -11.111   6.749  71.232  1.00  0.00    -0.262 A  
HETATM   13  C   UNL     1     -10.775   7.041  68.849  1.00  0.00    -0.200 A  
HETATM   14  C   UNL     1     -10.059   8.736  70.382  1.00  0.00    -0.223 A  
HETATM   15  C   UNL     1     -11.224   6.267  69.934  1.00  0.00    -0.498 A  
HETATM   16 CL   UNL     1     -11.683   5.815  72.559  1.00  0.00    -0.337 Cl 
HETATM   17 CL   UNL     1     -11.072   6.374  67.281  1.00  0.00    -0.456 Cl 
HETATM   18  C   UNL     1     -10.546   7.989  71.459  1.00  0.00    -0.273 A  
ENDBRANCH  10  11
BRANCH  10  19
HETATM   19  C   UNL     1      -8.125   8.697  67.451  1.00  0.00    -0.102 C  
BRANCH  19  20
HETATM   20  N   UNL     1      -7.967   8.405  66.042  1.00  0.00    -0.097 NA 
HETATM   21  C   UNL     1      -7.622   9.291  65.062  1.00  0.00    -0.107 A  
HETATM   22  N   UNL     1      -7.976   7.253  64.155  1.00  0.00    -0.115 NA 
HETATM   23  C   UNL     1      -7.695   8.572  63.897  1.00  0.00    -0.141 A  
HETATM   24  C   UNL     1      -8.105   7.179  65.460  1.00  0.00    -0.135 A  
ENDBRANCH  19  20
ENDBRANCH  10  19
ENDBRANCH   9  10
ENDBRANCH   8   9
ENDBRANCH   5   8
TORSDOF 6
ENDMDL
MODEL       85
REMARK 921   NORMALIZED FREE ENERGY PREDICTED BY IDOCK:   -4.98 KCAL/MOL
REMARK 922        TOTAL FREE ENERGY PREDICTED BY IDOCK:   -7.65 KCAL/MOL
REMARK 923 INTER-LIGAND FREE ENERGY PREDICTED BY IDOCK:   -7.13 KCAL/MOL
REMARK 924 INTRA-LIGAND FREE ENERGY PREDICTED BY IDOCK:   -0.53 KCAL/MOL
REMARK 927      BINDING AFFINITY PREDICTED BY RF-SCORE:    0.00 PKD
ROOT
HETATM    1 CL   UNL     1      -8.169   8.868  63.927  1.00  0.00    -0.167 Cl 
HETATM    2  C   UNL     1      -8.872  10.342  64.468  1.00  0.00    -0.203 A  
HETATM    3  C   UNL     1      -8.516  10.865  65.708  1.00  0.00    -0.155 A  
HETATM    4  C   UNL     1      -9.095  12.062  66.150  1.00  0.00    -0.129 A  
HETATM    5  C   UNL     1     -10.042  12.737  65.359  1.00  0.00    -0.274 A  
HETATM    6  C   UNL     1     -10.370  12.203  64.102  1.00  0.00    -0.382 A  
HETATM    7  C   UNL     1      -9.791  11.009  63.661  1.00  0.00    -0.397 A  
ENDROOT
BRANCH   5   8
HETATM    8  C   UNL     1     -10.638  14.056  65.822  1.00  0.00    -0.299 C  
BRANCH   8   9
HETATM    9  S   UNL     1     -11.992  13.720  66.986  1.00  0.00    -0.402 SA 
BRANCH   9  10
HETATM   10  C   UNL     1     -11.219  13.824  68.701  1.00  0.00    -0.278 C  
BRANCH  10  11
HETATM   11  C   UNL     1     -11.883  12.809  69.677  1.00  0.00    -0.384 A  
HETATM   12  C   UNL     1     -13.020  10.989  71.551  1.00  0.00    -0.448 A  
HETATM   13  C   UNL     1     -11.872  11.413  69.458  1.00  0.00    -0.357 A  
HETATM   14  C   UNL     1     -12.522  13.239  70.865  1.00  0.00    -0.424 A  
HETATM   15  C   UNL     1     -12.407  10.514  70.397  1.00  0.00    -0.409 A  
HETATM   16 CL   UNL     1     -13.698   9.893  72.689  1.00  0.00    -0.126 Cl 
HETATM   17 CL   UNL     1     -11.235  10.697  68.017  1.00  0.00    -0.359 Cl 
HETATM   18  C   UNL     1     -13.096  12.350  71.780  1.00  0.00    -0.446 A  
ENDBRANCH  10  11
BRANCH  10  19
HETATM   19  C   UNL     1     -11.180  15.277  69.244  1.00  0.00    -0.284 C  
BRANCH  19  20
HETATM   20  N   UNL     1      -9.894  15.931  69.136  1.00  0.00    -0.231 NA 
HETATM   21  C   UNL     1      -9.651  17.167  68.609  1.00  0.00    -0.281 A  
HETATM   22  N   UNL     1      -7.706  16.224  69.264  1.00  0.00    -0.225 NA 
HETATM   23  C   UNL     1      -8.288  17.301  68.641  1.00  0.00    -0.255 A  
HETATM   24  C   UNL     1      -8.704  15.429  69.576  1.00  0.00    -0.210 A  
ENDBRANCH  19  20
ENDBRANCH  10  19
ENDBRANCH   9  10
ENDBRANCH   8   9
ENDBRANCH   5   8
TORSDOF 6
ENDMDL
MODEL       86
REMARK 921   NORMALIZED FREE ENERGY PREDICTED BY IDOCK:   -4.98 KCAL/MOL
REMARK 922        TOTAL FREE ENERGY PREDICTED BY IDOCK:   -7.65 KCAL/MOL
REMARK 923 INTER-LIGAND FREE ENERGY PREDICTED BY IDOCK:   -6.75 KCAL/MOL
REMARK 924 INTRA-LIGAND FREE ENERGY PREDICTED BY IDOCK:   -0.91 KCAL/MOL
REMARK 927      BINDING AFFINITY PREDICTED BY RF-SCORE:    0.00 PKD
ROOT
HETATM    1 CL   UNL     1     -12.440  16.081  72.035  1.00  0.00    -0.516 Cl 
HETATM    2  C   UNL     1     -12.606  14.411  71.658  1.00  0.00    -0.353 A  
HETATM    3  C   UNL     1     -11.924  13.875  70.569  1.00  0.00    -0.384 A  
HETATM    4  C   UNL     1     -12.065  12.516  70.260  1.00  0.00    -0.373 A  
HETATM    5  C   UNL     1     -12.899  11.686  71.030  1.00  0.00    -0.339 A  
HETATM    6  C   UNL     1     -13.561  12.243  72.137  1.00  0.00    -0.348 A  
HETATM    7  C   UNL     1     -13.418  13.599  72.447  1.00  0.00    -0.685 A  
ENDROOT
BRANCH   5   8
HETATM    8  C   UNL     1     -13.018  10.204  70.718  1.00  0.00    -0.305 C  
BRANCH   8   9
HETATM    9  S   UNL     1     -12.583   9.249  72.200  1.00  0.00    -0.349 SA 
BRANCH   9  10
HETATM   10  C   UNL     1     -10.759   8.820  72.005  1.00  0.00    -0.347 C  
BRANCH  10  11
HETATM   11  C   UNL     1     -10.355   8.758  70.503  1.00  0.00    -0.241 A  
HETATM   12  C   UNL     1      -9.670   8.752  67.737  1.00  0.00    -0.158 A  
HETATM   13  C   UNL     1     -10.814   7.750  69.625  1.00  0.00    -0.184 A  
HETATM   14  C   UNL     1      -9.511   9.737  69.925  1.00  0.00    -0.264 A  
HETATM   15  C   UNL     1     -10.500   7.765  68.255  1.00  0.00    -0.215 A  
HETATM   16 CL   UNL     1      -9.263   8.758  66.066  1.00  0.00    -0.261 Cl 
HETATM   17 CL   UNL     1     -11.767   6.408  70.159  1.00  0.00    -0.464 Cl 
HETATM   18  C   UNL     1      -9.159   9.729  68.571  1.00  0.00    -0.128 A  
ENDBRANCH  10  11
BRANCH  10  19
HETATM   19  C   UNL     1     -10.361   7.554  72.810  1.00  0.00    -0.278 C  
BRANCH  19  20
HETATM   20  N   UNL     1      -8.955   7.216  72.752  1.00  0.00    -0.131 NA 
HETATM   21  C   UNL     1      -7.911   8.017  73.116  1.00  0.00    -0.156 A  
HETATM   22  N   UNL     1      -7.124   6.048  72.337  1.00  0.00    -0.083 NA 
HETATM   23  C   UNL     1      -6.788   7.300  72.792  1.00  0.00    -0.068 A  
HETATM   24  C   UNL     1      -8.437   6.019  72.352  1.00  0.00    -0.116 A  
ENDBRANCH  19  20
ENDBRANCH  10  19
ENDBRANCH   9  10
ENDBRANCH   8   9
ENDBRANCH   5   8
TORSDOF 6
ENDMDL
MODEL       87
REMARK 921   NORMALIZED FREE ENERGY PREDICTED BY IDOCK:   -4.97 KCAL/MOL
REMARK 922        TOTAL FREE ENERGY PREDICTED BY IDOCK:   -7.64 KCAL/MOL
REMARK 923 INTER-LIGAND FREE ENERGY PREDICTED BY IDOCK:   -6.98 KCAL/MOL
REMARK 924 INTRA-LIGAND FREE ENERGY PREDICTED BY IDOCK:   -0.65 KCAL/MOL
REMARK 927      BINDING AFFINITY PREDICTED BY RF-SCORE:    0.00 PKD
ROOT
HETATM    1 CL   UNL     1     -10.729   5.771  73.680  1.00  0.00    -0.295 Cl 
HETATM    2  C   UNL     1     -10.680   6.758  72.272  1.00  0.00    -0.220 A  
HETATM    3  C   UNL     1     -10.862   6.185  71.017  1.00  0.00    -0.338 A  
HETATM    4  C   UNL     1     -10.815   6.990  69.871  1.00  0.00    -0.280 A  
HETATM    5  C   UNL     1     -10.573   8.371  69.972  1.00  0.00    -0.235 A  
HETATM    6  C   UNL     1     -10.415   8.932  71.251  1.00  0.00    -0.357 A  
HETATM    7  C   UNL     1     -10.464   8.129  72.394  1.00  0.00    -0.389 A  
ENDROOT
BRANCH   5   8
HETATM    8  C   UNL     1     -10.564   9.248  68.732  1.00  0.00    -0.193 C  
BRANCH   8   9
HETATM    9  S   UNL     1     -10.034  10.923  69.194  1.00  0.00    -0.109 SA 
BRANCH   9  10
HETATM   10  C   UNL     1     -10.254  11.967  67.641  1.00  0.00    -0.201 C  
BRANCH  10  11
HETATM   11  C   UNL     1     -10.228  13.487  67.978  1.00  0.00    -0.243 A  
HETATM   12  C   UNL     1     -10.257  16.287  68.503  1.00  0.00    -0.247 A  
HETATM   13  C   UNL     1      -9.054  14.270  67.902  1.00  0.00    -0.190 A  
HETATM   14  C   UNL     1     -11.402  14.177  68.363  1.00  0.00    -0.315 A  
HETATM   15  C   UNL     1      -9.075  15.656  68.133  1.00  0.00    -0.181 A  
HETATM   16 CL   UNL     1     -10.280  17.979  68.811  1.00  0.00    -0.381 Cl 
HETATM   17 CL   UNL     1      -7.500  13.593  67.553  1.00  0.00    -0.185 Cl 
HETATM   18  C   UNL     1     -11.418  15.549  68.638  1.00  0.00    -0.367 A  
ENDBRANCH  10  11
BRANCH  10  19
HETATM   19  C   UNL     1     -11.492  11.535  66.810  1.00  0.00    -0.157 C  
BRANCH  19  20
HETATM   20  N   UNL     1     -11.497  12.003  65.441  1.00  0.00    -0.331 NA 
HETATM   21  C   UNL     1     -12.526  12.629  64.799  1.00  0.00    -0.484 A  
HETATM   22  N   UNL     1     -10.793  12.365  63.376  1.00  0.00    -0.433 NA 
HETATM   23  C   UNL     1     -12.093  12.787  63.509  1.00  0.00    -0.559 A  
HETATM   24  C   UNL     1     -10.452  11.925  64.566  1.00  0.00    -0.296 A  
ENDBRANCH  19  20
ENDBRANCH  10  19
ENDBRANCH   9  10
ENDBRANCH   8   9
ENDBRANCH   5   8
TORSDOF 6
ENDMDL
MODEL       88
REMARK 921   NORMALIZED FREE ENERGY PREDICTED BY IDOCK:   -4.96 KCAL/MOL
REMARK 922        TOTAL FREE ENERGY PREDICTED BY IDOCK:   -7.63 KCAL/MOL
REMARK 923 INTER-LIGAND FREE ENERGY PREDICTED BY IDOCK:   -6.98 KCAL/MOL
REMARK 924 INTRA-LIGAND FREE ENERGY PREDICTED BY IDOCK:   -0.64 KCAL/MOL
REMARK 927      BINDING AFFINITY PREDICTED BY RF-SCORE:    0.00 PKD
ROOT
HETATM    1 CL   UNL     1     -13.452  15.498  72.375  1.00  0.00    -0.552 Cl 
HETATM    2  C   UNL     1     -13.023  13.991  71.666  1.00  0.00    -0.352 A  
HETATM    3  C   UNL     1     -13.434  12.803  72.262  1.00  0.00    -0.591 A  
HETATM    4  C   UNL     1     -13.078  11.576  71.686  1.00  0.00    -0.478 A  
HETATM    5  C   UNL     1     -12.297  11.530  70.518  1.00  0.00    -0.432 A  
HETATM    6  C   UNL     1     -11.912  12.742  69.921  1.00  0.00    -0.368 A  
HETATM    7  C   UNL     1     -12.269  13.966  70.495  1.00  0.00    -0.443 A  
ENDROOT
BRANCH   5   8
HETATM    8  C   UNL     1     -11.947  10.200  69.872  1.00  0.00    -0.086 C  
BRANCH   8   9
HETATM    9  S   UNL     1     -10.196   9.830  70.189  1.00  0.00    -0.281 SA 
BRANCH   9  10
HETATM   10  C   UNL     1     -10.097   7.955  70.336  1.00  0.00    -0.194 C  
BRANCH  10  11
HETATM   11  C   UNL     1      -9.797   7.299  68.956  1.00  0.00    -0.165 A  
HETATM   12  C   UNL     1      -9.285   5.992  66.477  1.00  0.00    -0.148 A  
HETATM   13  C   UNL     1      -8.502   7.255  68.393  1.00  0.00    -0.125 A  
HETATM   14  C   UNL     1     -10.820   6.684  68.194  1.00  0.00    -0.334 A  
HETATM   15  C   UNL     1      -8.245   6.584  67.184  1.00  0.00    -0.113 A  
HETATM   16 CL   UNL     1      -8.978   5.193  64.986  1.00  0.00    -0.140 Cl 
HETATM   17 CL   UNL     1      -7.140   8.040  69.116  1.00  0.00    -0.067 Cl 
HETATM   18  C   UNL     1     -10.575   6.055  66.969  1.00  0.00    -0.385 A  
ENDBRANCH  10  11
BRANCH  10  19
HETATM   19  C   UNL     1     -11.333   7.353  71.057  1.00  0.00    -0.275 C  
BRANCH  19  20
HETATM   20  N   UNL     1     -11.037   6.657  72.290  1.00  0.00    -0.248 NA 
HETATM   21  C   UNL     1     -10.338   7.150  73.354  1.00  0.00    -0.349 A  
HETATM   22  N   UNL     1     -10.946   5.014  73.767  1.00  0.00    -0.306 NA 
HETATM   23  C   UNL     1     -10.240   6.098  74.228  1.00  0.00    -0.312 A  
HETATM   24  C   UNL     1     -11.439   5.393  72.610  1.00  0.00    -0.241 A  
ENDBRANCH  19  20
ENDBRANCH  10  19
ENDBRANCH   9  10
ENDBRANCH   8   9
ENDBRANCH   5   8
TORSDOF 6
ENDMDL
MODEL       89
REMARK 921   NORMALIZED FREE ENERGY PREDICTED BY IDOCK:   -4.95 KCAL/MOL
REMARK 922        TOTAL FREE ENERGY PREDICTED BY IDOCK:   -7.61 KCAL/MOL
REMARK 923 INTER-LIGAND FREE ENERGY PREDICTED BY IDOCK:   -7.21 KCAL/MOL
REMARK 924 INTRA-LIGAND FREE ENERGY PREDICTED BY IDOCK:   -0.41 KCAL/MOL
REMARK 927      BINDING AFFINITY PREDICTED BY RF-SCORE:    0.00 PKD
ROOT
HETATM    1 CL   UNL     1     -13.912  14.771  72.513  1.00  0.00    -0.545 Cl 
HETATM    2  C   UNL     1     -13.174  13.652  71.434  1.00  0.00    -0.283 A  
HETATM    3  C   UNL     1     -12.612  14.106  70.244  1.00  0.00    -0.367 A  
HETATM    4  C   UNL     1     -12.017  13.193  69.364  1.00  0.00    -0.347 A  
HETATM    5  C   UNL     1     -11.992  11.819  69.662  1.00  0.00    -0.378 A  
HETATM    6  C   UNL     1     -12.546  11.386  70.879  1.00  0.00    -0.453 A  
HETATM    7  C   UNL     1     -13.137  12.299  71.758  1.00  0.00    -0.449 A  
ENDROOT
BRANCH   5   8
HETATM    8  C   UNL     1     -11.310  10.836  68.726  1.00  0.00    -0.288 C  
BRANCH   8   9
HETATM    9  S   UNL     1      -9.561  11.296  68.553  1.00  0.00    -0.189 SA 
BRANCH   9  10
HETATM   10  C   UNL     1      -9.341  11.767  66.742  1.00  0.00    -0.194 C  
BRANCH  10  11
HETATM   11  C   UNL     1      -9.683  13.267  66.507  1.00  0.00    -0.273 A  
HETATM   12  C   UNL     1     -10.284  16.035  66.195  1.00  0.00    -0.324 A  
HETATM   13  C   UNL     1     -10.963  13.709  66.103  1.00  0.00    -0.284 A  
HETATM   14  C   UNL     1      -8.718  14.284  66.711  1.00  0.00    -0.161 A  
HETATM   15  C   UNL     1     -11.267  15.076  65.978  1.00  0.00    -0.310 A  
HETATM   16 CL   UNL     1     -10.646  17.706  66.017  1.00  0.00    -0.296 Cl 
HETATM   17 CL   UNL     1     -12.245  12.619  65.702  1.00  0.00    -0.504 Cl 
HETATM   18  C   UNL     1      -9.005  15.643  66.543  1.00  0.00    -0.343 A  
ENDBRANCH  10  11
BRANCH  10  19
HETATM   19  C   UNL     1     -10.090  10.800  65.786  1.00  0.00    -0.261 C  
BRANCH  19  20
HETATM   20  N   UNL     1      -9.507   9.480  65.678  1.00  0.00    -0.244 NA 
HETATM   21  C   UNL     1      -9.746   8.416  66.500  1.00  0.00    -0.260 A  
HETATM   22  N   UNL     1      -8.228   7.839  64.930  1.00  0.00    -0.133 NA 
HETATM   23  C   UNL     1      -8.899   7.434  66.057  1.00  0.00    -0.146 A  
HETATM   24  C   UNL     1      -8.638   9.068  64.710  1.00  0.00    -0.175 A  
ENDBRANCH  19  20
ENDBRANCH  10  19
ENDBRANCH   9  10
ENDBRANCH   8   9
ENDBRANCH   5   8
TORSDOF 6
ENDMDL
MODEL       90
REMARK 921   NORMALIZED FREE ENERGY PREDICTED BY IDOCK:   -4.90 KCAL/MOL
REMARK 922        TOTAL FREE ENERGY PREDICTED BY IDOCK:   -7.54 KCAL/MOL
REMARK 923 INTER-LIGAND FREE ENERGY PREDICTED BY IDOCK:   -6.54 KCAL/MOL
REMARK 924 INTRA-LIGAND FREE ENERGY PREDICTED BY IDOCK:   -1.00 KCAL/MOL
REMARK 927      BINDING AFFINITY PREDICTED BY RF-SCORE:    0.00 PKD
ROOT
HETATM    1 CL   UNL     1      -9.476   7.454  68.082  1.00  0.00    -0.138 Cl 
HETATM    2  C   UNL     1      -9.646   9.102  67.620  1.00  0.00    -0.149 A  
HETATM    3  C   UNL     1     -10.103   9.419  66.343  1.00  0.00    -0.332 A  
HETATM    4  C   UNL     1     -10.235  10.762  65.966  1.00  0.00    -0.310 A  
HETATM    5  C   UNL     1      -9.898  11.796  66.858  1.00  0.00    -0.221 A  
HETATM    6  C   UNL     1      -9.460  11.453  68.148  1.00  0.00    -0.181 A  
HETATM    7  C   UNL     1      -9.330  10.112  68.525  1.00  0.00    -0.151 A  
ENDROOT
BRANCH   5   8
HETATM    8  C   UNL     1     -10.080  13.251  66.461  1.00  0.00    -0.275 C  
BRANCH   8   9
HETATM    9  S   UNL     1     -11.742  13.797  66.953  1.00  0.00    -0.419 SA 
BRANCH   9  10
HETATM   10  C   UNL     1     -11.518  14.651  68.617  1.00  0.00    -0.300 C  
BRANCH  10  11
HETATM   11  C   UNL     1     -10.157  15.404  68.683  1.00  0.00    -0.212 A  
HETATM   12  C   UNL     1      -7.677  16.785  68.924  1.00  0.00    -0.242 A  
HETATM   13  C   UNL     1      -9.953  16.673  68.096  1.00  0.00    -0.259 A  
HETATM   14  C   UNL     1      -9.043  14.856  69.364  1.00  0.00    -0.045 A  
HETATM   15  C   UNL     1      -8.738  17.366  68.241  1.00  0.00    -0.261 A  
HETATM   16 CL   UNL     1      -6.182  17.620  69.081  1.00  0.00    -0.216 Cl 
HETATM   17 CL   UNL     1     -11.154  17.463  67.133  1.00  0.00     0.065 Cl 
HETATM   18  C   UNL     1      -7.819  15.523  69.471  1.00  0.00    -0.194 A  
ENDBRANCH  10  11
BRANCH  10  19
HETATM   19  C   UNL     1     -11.757  13.689  69.811  1.00  0.00    -0.297 C  
BRANCH  19  20
HETATM   20  N   UNL     1     -12.663  14.190  70.822  1.00  0.00    -0.343 NA 
HETATM   21  C   UNL     1     -13.075  15.482  70.977  1.00  0.00    -0.489 A  
HETATM   22  N   UNL     1     -13.983  14.196  72.596  1.00  0.00    -0.644 NA 
HETATM   23  C   UNL     1     -13.839  15.474  72.115  1.00  0.00    -0.523 A  
HETATM   24  C   UNL     1     -13.286  13.441  71.778  1.00  0.00    -0.407 A  
ENDBRANCH  19  20
ENDBRANCH  10  19
ENDBRANCH   9  10
ENDBRANCH   8   9
ENDBRANCH   5   8
TORSDOF 6
ENDMDL
MODEL       91
REMARK 921   NORMALIZED FREE ENERGY PREDICTED BY IDOCK:   -4.90 KCAL/MOL
REMARK 922        TOTAL FREE ENERGY PREDICTED BY IDOCK:   -7.53 KCAL/MOL
REMARK 923 INTER-LIGAND FREE ENERGY PREDICTED BY IDOCK:   -6.43 KCAL/MOL
REMARK 924 INTRA-LIGAND FREE ENERGY PREDICTED BY IDOCK:   -1.11 KCAL/MOL
REMARK 927      BINDING AFFINITY PREDICTED BY RF-SCORE:    0.00 PKD
ROOT
HETATM    1 CL   UNL     1     -10.456   4.885  67.139  1.00  0.00    -0.182 Cl 
HETATM    2  C   UNL     1     -10.339   6.486  67.756  1.00  0.00    -0.192 A  
HETATM    3  C   UNL     1     -10.632   7.569  66.932  1.00  0.00    -0.367 A  
HETATM    4  C   UNL     1     -10.529   8.873  67.434  1.00  0.00    -0.347 A  
HETATM    5  C   UNL     1     -10.121   9.102  68.760  1.00  0.00    -0.212 A  
HETATM    6  C   UNL     1      -9.852   7.994  69.581  1.00  0.00    -0.184 A  
HETATM    7  C   UNL     1      -9.956   6.693  69.079  1.00  0.00    -0.162 A  
ENDROOT
BRANCH   5   8
HETATM    8  C   UNL     1     -10.050  10.515  69.315  1.00  0.00    -0.224 C  
BRANCH   8   9
HETATM    9  S   UNL     1      -8.554  11.327  68.680  1.00  0.00    -0.106 SA 
BRANCH   9  10
HETATM   10  C   UNL     1      -9.150  12.922  67.875  1.00  0.00    -0.201 C  
BRANCH  10  11
HETATM   11  C   UNL     1     -10.135  12.626  66.706  1.00  0.00    -0.243 A  
HETATM   12  C   UNL     1     -11.859  12.136  64.492  1.00  0.00    -0.343 A  
HETATM   13  C   UNL     1     -11.432  13.184  66.636  1.00  0.00    -0.348 A  
HETATM   14  C   UNL     1      -9.768  11.787  65.626  1.00  0.00    -0.256 A  
HETATM   15  C   UNL     1     -12.271  12.965  65.529  1.00  0.00    -0.527 A  
HETATM   16 CL   UNL     1     -12.893  11.846  63.148  1.00  0.00    -0.446 Cl 
HETATM   17 CL   UNL     1     -12.106  14.147  67.905  1.00  0.00    -0.369 Cl 
HETATM   18  C   UNL     1     -10.618  11.531  64.545  1.00  0.00    -0.387 A  
ENDBRANCH  10  11
BRANCH  10  19
HETATM   19  C   UNL     1      -7.977  13.858  67.478  1.00  0.00    -0.179 C  
BRANCH  19  20
HETATM   20  N   UNL     1      -8.290  15.270  67.510  1.00  0.00    -0.163 NA 
HETATM   21  C   UNL     1      -8.233  16.139  66.458  1.00  0.00    -0.308 A  
HETATM   22  N   UNL     1      -8.849  17.247  68.328  1.00  0.00    -0.250 NA 
HETATM   23  C   UNL     1      -8.522  17.365  66.999  1.00  0.00    -0.225 A  
HETATM   24  C   UNL     1      -8.728  15.967  68.598  1.00  0.00    -0.206 A  
ENDBRANCH  19  20
ENDBRANCH  10  19
ENDBRANCH   9  10
ENDBRANCH   8   9
ENDBRANCH   5   8
TORSDOF 6
ENDMDL
MODEL       92
REMARK 921   NORMALIZED FREE ENERGY PREDICTED BY IDOCK:   -4.89 KCAL/MOL
REMARK 922        TOTAL FREE ENERGY PREDICTED BY IDOCK:   -7.53 KCAL/MOL
REMARK 923 INTER-LIGAND FREE ENERGY PREDICTED BY IDOCK:   -6.68 KCAL/MOL
REMARK 924 INTRA-LIGAND FREE ENERGY PREDICTED BY IDOCK:   -0.85 KCAL/MOL
REMARK 927      BINDING AFFINITY PREDICTED BY RF-SCORE:    0.00 PKD
ROOT
HETATM    1 CL   UNL     1     -10.328  18.191  65.732  1.00  0.00    -0.275 Cl 
HETATM    2  C   UNL     1     -10.143  16.483  65.823  1.00  0.00    -0.303 A  
HETATM    3  C   UNL     1     -10.933  15.657  65.028  1.00  0.00    -0.445 A  
HETATM    4  C   UNL     1     -10.785  14.266  65.108  1.00  0.00    -0.407 A  
HETATM    5  C   UNL     1      -9.856  13.692  65.993  1.00  0.00    -0.290 A  
HETATM    6  C   UNL     1      -9.054  14.545  66.770  1.00  0.00    -0.283 A  
HETATM    7  C   UNL     1      -9.201  15.933  66.688  1.00  0.00    -0.280 A  
ENDROOT
BRANCH   5   8
HETATM    8  C   UNL     1      -9.669  12.185  66.049  1.00  0.00    -0.244 C  
BRANCH   8   9
HETATM    9  S   UNL     1     -11.106  11.438  66.871  1.00  0.00    -0.261 SA 
BRANCH   9  10
HETATM   10  C   UNL     1     -11.068  12.088  68.639  1.00  0.00    -0.250 C  
BRANCH  10  11
HETATM   11  C   UNL     1     -10.952  10.921  69.663  1.00  0.00    -0.311 A  
HETATM   12  C   UNL     1     -10.772   8.863  71.625  1.00  0.00    -0.347 A  
HETATM   13  C   UNL     1      -9.736  10.253  69.930  1.00  0.00    -0.072 A  
HETATM   14  C   UNL     1     -12.073  10.477  70.406  1.00  0.00    -0.418 A  
HETATM   15  C   UNL     1      -9.642   9.259  70.920  1.00  0.00    -0.339 A  
HETATM   16 CL   UNL     1     -10.666   7.629  72.817  1.00  0.00    -0.365 Cl 
HETATM   17 CL   UNL     1      -8.279  10.576  69.054  1.00  0.00    -0.137 Cl 
HETATM   18  C   UNL     1     -11.992   9.456  71.359  1.00  0.00    -0.446 A  
ENDBRANCH  10  11
BRANCH  10  19
HETATM   19  C   UNL     1     -12.240  13.062  68.935  1.00  0.00    -0.035 C  
BRANCH  19  20
HETATM   20  N   UNL     1     -11.868  14.255  69.665  1.00  0.00    -0.298 NA 
HETATM   21  C   UNL     1     -12.699  15.053  70.396  1.00  0.00    -0.325 A  
HETATM   22  N   UNL     1     -10.605  15.900  70.433  1.00  0.00    -0.256 NA 
HETATM   23  C   UNL     1     -11.911  16.096  70.809  1.00  0.00    -0.184 A  
HETATM   24  C   UNL     1     -10.607  14.766  69.769  1.00  0.00    -0.112 A  
ENDBRANCH  19  20
ENDBRANCH  10  19
ENDBRANCH   9  10
ENDBRANCH   8   9
ENDBRANCH   5   8
TORSDOF 6
ENDMDL
MODEL       93
REMARK 921   NORMALIZED FREE ENERGY PREDICTED BY IDOCK:   -4.84 KCAL/MOL
REMARK 922        TOTAL FREE ENERGY PREDICTED BY IDOCK:   -7.47 KCAL/MOL
REMARK 923 INTER-LIGAND FREE ENERGY PREDICTED BY IDOCK:   -6.41 KCAL/MOL
REMARK 924 INTRA-LIGAND FREE ENERGY PREDICTED BY IDOCK:   -1.05 KCAL/MOL
REMARK 927      BINDING AFFINITY PREDICTED BY RF-SCORE:    0.00 PKD
ROOT
HETATM    1 CL   UNL     1     -11.583  14.363  68.772  1.00  0.00    -0.326 Cl 
HETATM    2  C   UNL     1     -12.105  13.091  69.805  1.00  0.00    -0.258 A  
HETATM    3  C   UNL     1     -12.716  13.392  71.020  1.00  0.00    -0.387 A  
HETATM    4  C   UNL     1     -13.135  12.355  71.864  1.00  0.00    -0.471 A  
HETATM    5  C   UNL     1     -12.934  11.010  71.503  1.00  0.00    -0.553 A  
HETATM    6  C   UNL     1     -12.336  10.730  70.264  1.00  0.00    -0.423 A  
HETATM    7  C   UNL     1     -11.920  11.766  69.421  1.00  0.00    -0.361 A  
ENDROOT
BRANCH   5   8
HETATM    8  C   UNL     1     -13.426   9.887  72.401  1.00  0.00    -0.206 C  
BRANCH   8   9
HETATM    9  S   UNL     1     -13.295   8.312  71.506  1.00  0.00    -0.240 SA 
BRANCH   9  10
HETATM   10  C   UNL     1     -11.686   7.530  72.096  1.00  0.00    -0.303 C  
BRANCH  10  11
HETATM   11  C   UNL     1     -10.503   7.904  71.156  1.00  0.00    -0.230 A  
HETATM   12  C   UNL     1      -8.377   8.702  69.435  1.00  0.00    -0.114 A  
HETATM   13  C   UNL     1     -10.353   7.364  69.858  1.00  0.00    -0.218 A  
HETATM   14  C   UNL     1      -9.512   8.835  71.551  1.00  0.00    -0.341 A  
HETATM   15  C   UNL     1      -9.321   7.781  68.999  1.00  0.00    -0.150 A  
HETATM   16 CL   UNL     1      -7.098   9.195  68.396  1.00  0.00    -0.072 Cl 
HETATM   17 CL   UNL     1     -11.397   6.135  69.231  1.00  0.00    -0.462 Cl 
HETATM   18  C   UNL     1      -8.457   9.218  70.715  1.00  0.00    -0.244 A  
ENDBRANCH  10  11
BRANCH  10  19
HETATM   19  C   UNL     1     -11.827   6.004  72.343  1.00  0.00    -0.231 C  
BRANCH  19  20
HETATM   20  N   UNL     1     -10.622   5.351  72.808  1.00  0.00    -0.215 NA 
HETATM   21  C   UNL     1      -9.917   4.383  72.152  1.00  0.00    -0.185 A  
HETATM   22  N   UNL     1      -8.951   4.806  74.149  1.00  0.00    -0.112 NA 
HETATM   23  C   UNL     1      -8.926   4.017  73.025  1.00  0.00    -0.101 A  
HETATM   24  C   UNL     1      -9.967   5.619  73.974  1.00  0.00    -0.212 A  
ENDBRANCH  19  20
ENDBRANCH  10  19
ENDBRANCH   9  10
ENDBRANCH   8   9
ENDBRANCH   5   8
TORSDOF 6
ENDMDL
MODEL       94
REMARK 921   NORMALIZED FREE ENERGY PREDICTED BY IDOCK:   -4.84 KCAL/MOL
REMARK 922        TOTAL FREE ENERGY PREDICTED BY IDOCK:   -7.46 KCAL/MOL
REMARK 923 INTER-LIGAND FREE ENERGY PREDICTED BY IDOCK:   -7.25 KCAL/MOL
REMARK 924 INTRA-LIGAND FREE ENERGY PREDICTED BY IDOCK:   -0.20 KCAL/MOL
REMARK 927      BINDING AFFINITY PREDICTED BY RF-SCORE:    0.00 PKD
ROOT
HETATM    1 CL   UNL     1     -10.186  18.932  68.445  1.00  0.00    -0.437 Cl 
HETATM    2  C   UNL     1     -10.377  17.338  67.827  1.00  0.00    -0.356 A  
HETATM    3  C   UNL     1     -11.154  16.414  68.521  1.00  0.00    -0.357 A  
HETATM    4  C   UNL     1     -11.303  15.114  68.020  1.00  0.00    -0.346 A  
HETATM    5  C   UNL     1     -10.667  14.727  66.827  1.00  0.00    -0.309 A  
HETATM    6  C   UNL     1      -9.907  15.681  66.132  1.00  0.00    -0.340 A  
HETATM    7  C   UNL     1      -9.759  16.979  66.632  1.00  0.00    -0.287 A  
ENDROOT
BRANCH   5   8
HETATM    8  C   UNL     1     -10.864  13.329  66.264  1.00  0.00    -0.284 C  
BRANCH   8   9
HETATM    9  S   UNL     1      -9.758  12.178  67.132  1.00  0.00    -0.202 SA 
BRANCH   9  10
HETATM   10  C   UNL     1     -10.660  10.525  67.141  1.00  0.00    -0.264 C  
BRANCH  10  11
HETATM   11  C   UNL     1     -10.745   9.940  68.582  1.00  0.00    -0.256 A  
HETATM   12  C   UNL     1     -10.966   8.778  71.174  1.00  0.00    -0.268 A  
HETATM   13  C   UNL     1     -11.386  10.614  69.647  1.00  0.00    -0.294 A  
HETATM   14  C   UNL     1     -10.195   8.675  68.899  1.00  0.00    -0.221 A  
HETATM   15  C   UNL     1     -11.520  10.027  70.917  1.00  0.00    -0.452 A  
HETATM   16 CL   UNL     1     -11.106   8.069  72.734  1.00  0.00    -0.455 Cl 
HETATM   17 CL   UNL     1     -12.027  12.213  69.491  1.00  0.00    -0.357 Cl 
HETATM   18  C   UNL     1     -10.287   8.108  70.174  1.00  0.00    -0.215 A  
ENDBRANCH  10  11
BRANCH  10  19
HETATM   19  C   UNL     1     -10.080   9.531  66.100  1.00  0.00    -0.256 C  
BRANCH  19  20
HETATM   20  N   UNL     1      -9.636  10.138  64.863  1.00  0.00    -0.284 NA 
HETATM   21  C   UNL     1     -10.402  10.849  63.986  1.00  0.00    -0.349 A  
HETATM   22  N   UNL     1      -8.290  10.695  63.200  1.00  0.00    -0.141 NA 
HETATM   23  C   UNL     1      -9.566  11.130  62.936  1.00  0.00    -0.348 A  
HETATM   24  C   UNL     1      -8.359  10.127  64.382  1.00  0.00    -0.171 A  
ENDBRANCH  19  20
ENDBRANCH  10  19
ENDBRANCH   9  10
ENDBRANCH   8   9
ENDBRANCH   5   8
TORSDOF 6
ENDMDL
MODEL       95
REMARK 921   NORMALIZED FREE ENERGY PREDICTED BY IDOCK:   -4.81 KCAL/MOL
REMARK 922        TOTAL FREE ENERGY PREDICTED BY IDOCK:   -7.42 KCAL/MOL
REMARK 923 INTER-LIGAND FREE ENERGY PREDICTED BY IDOCK:   -7.20 KCAL/MOL
REMARK 924 INTRA-LIGAND FREE ENERGY PREDICTED BY IDOCK:   -0.22 KCAL/MOL
REMARK 927      BINDING AFFINITY PREDICTED BY RF-SCORE:    0.00 PKD
ROOT
HETATM    1 CL   UNL     1     -10.630  13.669  64.752  1.00  0.00    -0.413 Cl 
HETATM    2  C   UNL     1     -10.118  12.398  65.792  1.00  0.00    -0.253 A  
HETATM    3  C   UNL     1      -9.321  12.685  66.897  1.00  0.00    -0.228 A  
HETATM    4  C   UNL     1      -8.899  11.648  67.739  1.00  0.00    -0.159 A  
HETATM    5  C   UNL     1      -9.262  10.315  67.475  1.00  0.00    -0.153 A  
HETATM    6  C   UNL     1     -10.085  10.051  66.368  1.00  0.00    -0.307 A  
HETATM    7  C   UNL     1     -10.507  11.087  65.528  1.00  0.00    -0.302 A  
ENDROOT
BRANCH   5   8
HETATM    8  C   UNL     1      -8.838   9.197  68.412  1.00  0.00    -0.129 C  
BRANCH   8   9
HETATM    9  S   UNL     1      -9.432   9.571  70.088  1.00  0.00    -0.256 SA 
BRANCH   9  10
HETATM   10  C   UNL     1     -11.312   9.546  69.973  1.00  0.00    -0.166 C  
BRANCH  10  11
HETATM   11  C   UNL     1     -11.916  10.926  70.365  1.00  0.00    -0.453 A  
HETATM   12  C   UNL     1     -12.909  13.492  71.103  1.00  0.00    -0.309 A  
HETATM   13  C   UNL     1     -12.780  11.099  71.471  1.00  0.00    -0.394 A  
HETATM   14  C   UNL     1     -11.609  12.100  69.636  1.00  0.00    -0.361 A  
HETATM   15  C   UNL     1     -13.245  12.370  71.852  1.00  0.00    -0.486 A  
HETATM   16 CL   UNL     1     -13.498  15.045  71.552  1.00  0.00    -0.473 Cl 
HETATM   17 CL   UNL     1     -13.357   9.775  72.423  1.00  0.00    -0.451 Cl 
HETATM   18  C   UNL     1     -12.108  13.360  69.985  1.00  0.00    -0.404 A  
ENDBRANCH  10  11
BRANCH  10  19
HETATM   19  C   UNL     1     -11.935   8.351  70.743  1.00  0.00    -0.110 C  
BRANCH  19  20
HETATM   20  N   UNL     1     -11.293   7.076  70.507  1.00  0.00    -0.296 NA 
HETATM   21  C   UNL     1     -10.662   6.299  71.435  1.00  0.00    -0.248 A  
HETATM   22  N   UNL     1     -10.520   5.322  69.403  1.00  0.00    -0.250 NA 
HETATM   23  C   UNL     1     -10.138   5.253  70.721  1.00  0.00    -0.224 A  
HETATM   24  C   UNL     1     -11.240   6.418  69.313  1.00  0.00    -0.375 A  
ENDBRANCH  19  20
ENDBRANCH  10  19
ENDBRANCH   9  10
ENDBRANCH   8   9
ENDBRANCH   5   8
TORSDOF 6
ENDMDL
MODEL       96
REMARK 921   NORMALIZED FREE ENERGY PREDICTED BY IDOCK:   -4.81 KCAL/MOL
REMARK 922        TOTAL FREE ENERGY PREDICTED BY IDOCK:   -7.42 KCAL/MOL
REMARK 923 INTER-LIGAND FREE ENERGY PREDICTED BY IDOCK:   -6.43 KCAL/MOL
REMARK 924 INTRA-LIGAND FREE ENERGY PREDICTED BY IDOCK:   -0.99 KCAL/MOL
REMARK 927      BINDING AFFINITY PREDICTED BY RF-SCORE:    0.00 PKD
ROOT
HETATM    1 CL   UNL     1     -11.052  15.597  64.786  1.00  0.00    -0.454 Cl 
HETATM    2  C   UNL     1     -11.313  14.733  66.250  1.00  0.00    -0.334 A  
HETATM    3  C   UNL     1     -11.686  13.392  66.206  1.00  0.00    -0.405 A  
HETATM    4  C   UNL     1     -11.904  12.691  67.399  1.00  0.00    -0.393 A  
HETATM    5  C   UNL     1     -11.763  13.329  68.644  1.00  0.00    -0.376 A  
HETATM    6  C   UNL     1     -11.363  14.676  68.666  1.00  0.00    -0.305 A  
HETATM    7  C   UNL     1     -11.144  15.375  67.474  1.00  0.00    -0.315 A  
ENDROOT
BRANCH   5   8
HETATM    8  C   UNL     1     -11.960  12.556  69.937  1.00  0.00    -0.301 C  
BRANCH   8   9
HETATM    9  S   UNL     1     -11.820  10.778  69.592  1.00  0.00    -0.317 SA 
BRANCH   9  10
HETATM   10  C   UNL     1      -9.974  10.403  69.624  1.00  0.00    -0.174 C  
BRANCH  10  11
HETATM   11  C   UNL     1      -9.439  10.096  68.195  1.00  0.00    -0.151 A  
HETATM   12  C   UNL     1      -8.488   9.417  65.596  1.00  0.00    -0.136 A  
HETATM   13  C   UNL     1      -8.093  10.304  67.818  1.00  0.00    -0.103 A  
HETATM   14  C   UNL     1     -10.283   9.564  67.190  1.00  0.00    -0.305 A  
HETATM   15  C   UNL     1      -7.618   9.941  66.545  1.00  0.00    -0.103 A  
HETATM   16 CL   UNL     1      -7.916   8.997  64.030  1.00  0.00    -0.137 Cl 
HETATM   17 CL   UNL     1      -6.931  11.042  68.867  1.00  0.00    -0.080 Cl 
HETATM   18  C   UNL     1      -9.824   9.245  65.908  1.00  0.00    -0.335 A  
ENDBRANCH  10  11
BRANCH  10  19
HETATM   19  C   UNL     1      -9.610   9.317  70.672  1.00  0.00    -0.273 C  
BRANCH  19  20
HETATM   20  N   UNL     1     -10.524   8.196  70.726  1.00  0.00    -0.200 NA 
HETATM   21  C   UNL     1     -10.548   7.125  69.880  1.00  0.00    -0.230 A  
HETATM   22  N   UNL     1     -12.214   6.935  71.393  1.00  0.00    -0.355 NA 
HETATM   23  C   UNL     1     -11.637   6.391  70.271  1.00  0.00    -0.383 A  
HETATM   24  C   UNL     1     -11.501   8.006  71.659  1.00  0.00    -0.266 A  
ENDBRANCH  19  20
ENDBRANCH  10  19
ENDBRANCH   9  10
ENDBRANCH   8   9
ENDBRANCH   5   8
TORSDOF 6
ENDMDL
MODEL       97
REMARK 921   NORMALIZED FREE ENERGY PREDICTED BY IDOCK:   -4.80 KCAL/MOL
REMARK 922        TOTAL FREE ENERGY PREDICTED BY IDOCK:   -7.41 KCAL/MOL
REMARK 923 INTER-LIGAND FREE ENERGY PREDICTED BY IDOCK:   -6.45 KCAL/MOL
REMARK 924 INTRA-LIGAND FREE ENERGY PREDICTED BY IDOCK:   -0.96 KCAL/MOL
REMARK 927      BINDING AFFINITY PREDICTED BY RF-SCORE:    0.00 PKD
ROOT
HETATM    1 CL   UNL     1      -8.409   8.375  62.591  1.00  0.00    -0.177 Cl 
HETATM    2  C   UNL     1      -9.090   9.746  63.374  1.00  0.00    -0.229 A  
HETATM    3  C   UNL     1      -9.633  10.779  62.615  1.00  0.00    -0.296 A  
HETATM    4  C   UNL     1     -10.182  11.898  63.254  1.00  0.00    -0.428 A  
HETATM    5  C   UNL     1     -10.181  11.997  64.657  1.00  0.00    -0.313 A  
HETATM    6  C   UNL     1      -9.648  10.933  65.404  1.00  0.00    -0.271 A  
HETATM    7  C   UNL     1      -9.102   9.816  64.765  1.00  0.00    -0.290 A  
ENDROOT
BRANCH   5   8
HETATM    8  C   UNL     1     -10.813  13.192  65.349  1.00  0.00    -0.282 C  
BRANCH   8   9
HETATM    9  S   UNL     1     -11.895  12.601  66.683  1.00  0.00    -0.322 SA 
BRANCH   9  10
HETATM   10  C   UNL     1     -10.936  12.895  68.277  1.00  0.00    -0.256 C  
BRANCH  10  11
HETATM   11  C   UNL     1      -9.775  13.908  68.054  1.00  0.00    -0.226 A  
HETATM   12  C   UNL     1      -7.593  15.713  67.743  1.00  0.00    -0.141 A  
HETATM   13  C   UNL     1      -9.950  15.308  68.142  1.00  0.00    -0.221 A  
HETATM   14  C   UNL     1      -8.458  13.470  67.770  1.00  0.00    -0.184 A  
HETATM   15  C   UNL     1      -8.867  16.196  68.017  1.00  0.00    -0.181 A  
HETATM   16 CL   UNL     1      -6.271  16.799  67.564  1.00  0.00    -0.171 Cl 
HETATM   17 CL   UNL     1     -11.498  16.044  68.376  1.00  0.00    -0.362 Cl 
HETATM   18  C   UNL     1      -7.388  14.354  67.600  1.00  0.00    -0.197 A  
ENDBRANCH  10  11
BRANCH  10  19
HETATM   19  C   UNL     1     -10.486  11.570  68.949  1.00  0.00    -0.187 C  
BRANCH  19  20
HETATM   20  N   UNL     1     -11.386  11.070  69.966  1.00  0.00    -0.290 NA 
HETATM   21  C   UNL     1     -12.401  11.759  70.565  1.00  0.00    -0.299 A  
HETATM   22  N   UNL     1     -12.274   9.681  71.440  1.00  0.00    -0.358 NA 
HETATM   23  C   UNL     1     -12.895  10.904  71.515  1.00  0.00    -0.454 A  
HETATM   24  C   UNL     1     -11.389   9.805  70.477  1.00  0.00    -0.314 A  
ENDBRANCH  19  20
ENDBRANCH  10  19
ENDBRANCH   9  10
ENDBRANCH   8   9
ENDBRANCH   5   8
TORSDOF 6
ENDMDL
MODEL       98
REMARK 921   NORMALIZED FREE ENERGY PREDICTED BY IDOCK:   -4.78 KCAL/MOL
REMARK 922        TOTAL FREE ENERGY PREDICTED BY IDOCK:   -7.37 KCAL/MOL
REMARK 923 INTER-LIGAND FREE ENERGY PREDICTED BY IDOCK:   -6.74 KCAL/MOL
REMARK 924 INTRA-LIGAND FREE ENERGY PREDICTED BY IDOCK:   -0.63 KCAL/MOL
REMARK 927      BINDING AFFINITY PREDICTED BY RF-SCORE:    0.00 PKD
ROOT
HETATM    1 CL   UNL     1     -10.533  19.863  65.777  1.00  0.00    -0.583 Cl 
HETATM    2  C   UNL     1     -10.011  18.497  66.682  1.00  0.00    -0.372 A  
HETATM    3  C   UNL     1      -8.931  17.741  66.234  1.00  0.00    -0.200 A  
HETATM    4  C   UNL     1      -8.511  16.624  66.969  1.00  0.00    -0.225 A  
HETATM    5  C   UNL     1      -9.177  16.249  68.149  1.00  0.00    -0.199 A  
HETATM    6  C   UNL     1     -10.250  17.039  68.594  1.00  0.00    -0.321 A  
HETATM    7  C   UNL     1     -10.667  18.155  67.862  1.00  0.00    -0.331 A  
ENDROOT
BRANCH   5   8
HETATM    8  C   UNL     1      -8.694  15.062  68.966  1.00  0.00    -0.203 C  
BRANCH   8   9
HETATM    9  S   UNL     1      -9.028  13.533  68.044  1.00  0.00    -0.195 SA 
BRANCH   9  10
HETATM   10  C   UNL     1     -10.554  12.781  68.853  1.00  0.00    -0.122 C  
BRANCH  10  11
HETATM   11  C   UNL     1     -10.394  11.242  69.030  1.00  0.00    -0.189 A  
HETATM   12  C   UNL     1     -10.133   8.413  69.239  1.00  0.00    -0.202 A  
HETATM   13  C   UNL     1     -11.183  10.487  69.927  1.00  0.00    -0.307 A  
HETATM   14  C   UNL     1      -9.449  10.506  68.274  1.00  0.00    -0.158 A  
HETATM   15  C   UNL     1     -11.074   9.087  70.008  1.00  0.00    -0.197 A  
HETATM   16 CL   UNL     1      -9.980   6.704  69.354  1.00  0.00    -0.162 Cl 
HETATM   17 CL   UNL     1     -12.317  11.212  71.014  1.00  0.00    -0.487 Cl 
HETATM   18  C   UNL     1      -9.307   9.120  68.385  1.00  0.00    -0.139 A  
ENDBRANCH  10  11
BRANCH  10  19
HETATM   19  C   UNL     1     -11.866  13.191  68.133  1.00  0.00    -0.348 C  
BRANCH  19  20
HETATM   20  N   UNL     1     -11.755  13.322  66.697  1.00  0.00    -0.358 NA 
HETATM   21  C   UNL     1     -11.897  14.470  65.971  1.00  0.00    -0.334 A  
HETATM   22  N   UNL     1     -11.505  12.735  64.579  1.00  0.00    -0.325 NA 
HETATM   23  C   UNL     1     -11.802  14.073  64.663  1.00  0.00    -0.417 A  
HETATM   24  C   UNL     1     -11.455  12.317  65.824  1.00  0.00    -0.367 A  
ENDBRANCH  19  20
ENDBRANCH  10  19
ENDBRANCH   9  10
ENDBRANCH   8   9
ENDBRANCH   5   8
TORSDOF 6
ENDMDL
MODEL       99
REMARK 921   NORMALIZED FREE ENERGY PREDICTED BY IDOCK:   -4.77 KCAL/MOL
REMARK 922        TOTAL FREE ENERGY PREDICTED BY IDOCK:   -7.36 KCAL/MOL
REMARK 923 INTER-LIGAND FREE ENERGY PREDICTED BY IDOCK:   -6.90 KCAL/MOL
REMARK 924 INTRA-LIGAND FREE ENERGY PREDICTED BY IDOCK:   -0.46 KCAL/MOL
REMARK 927      BINDING AFFINITY PREDICTED BY RF-SCORE:    0.00 PKD
ROOT
HETATM    1 CL   UNL     1      -9.620   4.605  70.716  1.00  0.00    -0.235 Cl 
HETATM    2  C   UNL     1     -10.026   6.226  70.310  1.00  0.00    -0.173 A  
HETATM    3  C   UNL     1      -9.490   6.808  69.164  1.00  0.00    -0.141 A  
HETATM    4  C   UNL     1      -9.816   8.132  68.839  1.00  0.00    -0.178 A  
HETATM    5  C   UNL     1     -10.671   8.885  69.664  1.00  0.00    -0.222 A  
HETATM    6  C   UNL     1     -11.217   8.270  70.802  1.00  0.00    -0.284 A  
HETATM    7  C   UNL     1     -10.892   6.949  71.126  1.00  0.00    -0.270 A  
ENDROOT
BRANCH   5   8
HETATM    8  C   UNL     1     -11.056  10.305  69.287  1.00  0.00    -0.245 C  
BRANCH   8   9
HETATM    9  S   UNL     1      -9.569  11.200  68.748  1.00  0.00    -0.134 SA 
BRANCH   9  10
HETATM   10  C   UNL     1     -10.128  12.288  67.315  1.00  0.00    -0.204 C  
BRANCH  10  11
HETATM   11  C   UNL     1      -9.927  13.796  67.644  1.00  0.00    -0.238 A  
HETATM   12  C   UNL     1      -9.443  16.531  68.278  1.00  0.00    -0.220 A  
HETATM   13  C   UNL     1     -10.652  14.464  68.657  1.00  0.00    -0.252 A  
HETATM   14  C   UNL     1      -8.976  14.582  66.950  1.00  0.00    -0.267 A  
HETATM   15  C   UNL     1     -10.392  15.805  68.988  1.00  0.00    -0.223 A  
HETATM   16 CL   UNL     1      -9.141  18.180  68.664  1.00  0.00    -0.312 Cl 
HETATM   17 CL   UNL     1     -11.929  13.709  69.546  1.00  0.00    -0.382 Cl 
HETATM   18  C   UNL     1      -8.747  15.930  67.246  1.00  0.00    -0.206 A  
ENDBRANCH  10  11
BRANCH  10  19
HETATM   19  C   UNL     1     -11.563  11.941  66.836  1.00  0.00    -0.285 C  
BRANCH  19  20
HETATM   20  N   UNL     1     -11.926  12.503  65.552  1.00  0.00    -0.452 NA 
HETATM   21  C   UNL     1     -11.653  11.971  64.325  1.00  0.00    -0.358 A  
HETATM   22  N   UNL     1     -12.736  13.938  64.078  1.00  0.00    -0.598 NA 
HETATM   23  C   UNL     1     -12.107  12.904  63.429  1.00  0.00    -0.530 A  
HETATM   24  C   UNL     1     -12.636  13.651  65.356  1.00  0.00    -0.491 A  
ENDBRANCH  19  20
ENDBRANCH  10  19
ENDBRANCH   9  10
ENDBRANCH   8   9
ENDBRANCH   5   8
TORSDOF 6
ENDMDL
MODEL      100
REMARK 921   NORMALIZED FREE ENERGY PREDICTED BY IDOCK:   -4.77 KCAL/MOL
REMARK 922        TOTAL FREE ENERGY PREDICTED BY IDOCK:   -7.36 KCAL/MOL
REMARK 923 INTER-LIGAND FREE ENERGY PREDICTED BY IDOCK:   -6.47 KCAL/MOL
REMARK 924 INTRA-LIGAND FREE ENERGY PREDICTED BY IDOCK:   -0.89 KCAL/MOL
REMARK 927      BINDING AFFINITY PREDICTED BY RF-SCORE:    0.00 PKD
ROOT
HETATM    1 CL   UNL     1     -13.310  15.916  72.995  1.00  0.00    -0.644 Cl 
HETATM    2  C   UNL     1     -12.856  14.862  71.714  1.00  0.00    -0.330 A  
HETATM    3  C   UNL     1     -12.365  15.390  70.523  1.00  0.00    -0.452 A  
HETATM    4  C   UNL     1     -12.002  14.530  69.478  1.00  0.00    -0.363 A  
HETATM    5  C   UNL     1     -12.139  13.137  69.613  1.00  0.00    -0.317 A  
HETATM    6  C   UNL     1     -12.616  12.625  70.832  1.00  0.00    -0.338 A  
HETATM    7  C   UNL     1     -12.977  13.484  71.875  1.00  0.00    -0.431 A  
ENDROOT
BRANCH   5   8
HETATM    8  C   UNL     1     -11.706  12.204  68.495  1.00  0.00    -0.330 C  
BRANCH   8   9
HETATM    9  S   UNL     1      -9.902  12.004  68.554  1.00  0.00    -0.127 SA 
BRANCH   9  10
HETATM   10  C   UNL     1      -9.579  10.207  68.089  1.00  0.00    -0.139 C  
BRANCH  10  11
HETATM   11  C   UNL     1     -10.262   9.235  69.095  1.00  0.00    -0.214 A  
HETATM   12  C   UNL     1     -11.411   7.461  71.006  1.00  0.00    -0.275 A  
HETATM   13  C   UNL     1     -10.655   7.923  68.749  1.00  0.00    -0.127 A  
HETATM   14  C   UNL     1     -10.508   9.616  70.437  1.00  0.00    -0.352 A  
HETATM   15  C   UNL     1     -11.194   7.038  69.700  1.00  0.00    -0.222 A  
HETATM   16 CL   UNL     1     -12.094   6.390  72.164  1.00  0.00    -0.354 Cl 
HETATM   17 CL   UNL     1     -10.536   7.306  67.137  1.00  0.00    -0.391 Cl 
HETATM   18  C   UNL     1     -11.087   8.754  71.374  1.00  0.00    -0.361 A  
ENDBRANCH  10  11
BRANCH  10  19
HETATM   19  C   UNL     1      -8.071   9.916  67.867  1.00  0.00    -0.109 C  
BRANCH  19  20
HETATM   20  N   UNL     1      -7.318   9.664  69.077  1.00  0.00    -0.071 NA 
HETATM   21  C   UNL     1      -6.868   8.453  69.518  1.00  0.00    -0.041 A  
HETATM   22  N   UNL     1      -6.308  10.059  71.005  1.00  0.00    -0.297 NA 
HETATM   23  C   UNL     1      -6.303   8.711  70.740  1.00  0.00    -0.041 A  
HETATM   24  C   UNL     1      -6.901  10.609  69.969  1.00  0.00    -0.148 A  
ENDBRANCH  19  20
ENDBRANCH  10  19
ENDBRANCH   9  10
ENDBRANCH   8   9
ENDBRANCH   5   8
TORSDOF 6
ENDMDL
MODEL      101
REMARK 921   NORMALIZED FREE ENERGY PREDICTED BY IDOCK:   -4.76 KCAL/MOL
REMARK 922        TOTAL FREE ENERGY PREDICTED BY IDOCK:   -7.36 KCAL/MOL
REMARK 923 INTER-LIGAND FREE ENERGY PREDICTED BY IDOCK:   -6.61 KCAL/MOL
REMARK 924 INTRA-LIGAND FREE ENERGY PREDICTED BY IDOCK:   -0.75 KCAL/MOL
REMARK 927      BINDING AFFINITY PREDICTED BY RF-SCORE:    0.00 PKD
ROOT
HETATM    1 CL   UNL     1     -11.152   4.711  73.535  1.00  0.00    -0.396 Cl 
HETATM    2  C   UNL     1     -10.367   5.706  72.371  1.00  0.00    -0.203 A  
HETATM    3  C   UNL     1     -10.460   5.393  71.018  1.00  0.00    -0.302 A  
HETATM    4  C   UNL     1      -9.815   6.201  70.071  1.00  0.00    -0.207 A  
HETATM    5  C   UNL     1      -9.063   7.318  70.474  1.00  0.00    -0.158 A  
HETATM    6  C   UNL     1      -9.001   7.628  71.843  1.00  0.00    -0.149 A  
HETATM    7  C   UNL     1      -9.646   6.822  72.787  1.00  0.00    -0.161 A  
ENDROOT
BRANCH   5   8
HETATM    8  C   UNL     1      -8.399   8.216  69.444  1.00  0.00    -0.123 C  
BRANCH   8   9
HETATM    9  S   UNL     1      -8.915   9.934  69.732  1.00  0.00    -0.199 SA 
BRANCH   9  10
HETATM   10  C   UNL     1     -10.689  10.038  69.108  1.00  0.00    -0.220 C  
BRANCH  10  11
HETATM   11  C   UNL     1     -10.744  10.645  67.675  1.00  0.00    -0.315 A  
HETATM   12  C   UNL     1     -10.966  11.767  65.066  1.00  0.00    -0.300 A  
HETATM   13  C   UNL     1     -10.353   9.928  66.522  1.00  0.00    -0.188 A  
HETATM   14  C   UNL     1     -11.218  11.960  67.449  1.00  0.00    -0.366 A  
HETATM   15  C   UNL     1     -10.490  10.472  65.233  1.00  0.00    -0.232 A  
HETATM   16 CL   UNL     1     -11.111  12.444  63.491  1.00  0.00    -0.514 Cl 
HETATM   17 CL   UNL     1      -9.649   8.349  66.596  1.00  0.00    -0.271 Cl 
HETATM   18  C   UNL     1     -11.313  12.521  66.171  1.00  0.00    -0.388 A  
ENDBRANCH  10  11
BRANCH  10  19
HETATM   19  C   UNL     1     -11.631  10.743  70.120  1.00  0.00    -0.337 C  
BRANCH  19  20
HETATM   20  N   UNL     1     -12.416   9.849  70.942  1.00  0.00    -0.314 NA 
HETATM   21  C   UNL     1     -12.423   8.485  70.883  1.00  0.00     0.008 A  
HETATM   22  N   UNL     1     -13.890   9.185  72.452  1.00  0.00    -0.482 NA 
HETATM   23  C   UNL     1     -13.386   8.098  71.779  1.00  0.00    -0.345 A  
HETATM   24  C   UNL     1     -13.264  10.222  71.944  1.00  0.00    -0.445 A  
ENDBRANCH  19  20
ENDBRANCH  10  19
ENDBRANCH   9  10
ENDBRANCH   8   9
ENDBRANCH   5   8
TORSDOF 6
ENDMDL
MODEL      102
REMARK 921   NORMALIZED FREE ENERGY PREDICTED BY IDOCK:   -4.76 KCAL/MOL
REMARK 922        TOTAL FREE ENERGY PREDICTED BY IDOCK:   -7.35 KCAL/MOL
REMARK 923 INTER-LIGAND FREE ENERGY PREDICTED BY IDOCK:   -6.33 KCAL/MOL
REMARK 924 INTRA-LIGAND FREE ENERGY PREDICTED BY IDOCK:   -1.02 KCAL/MOL
REMARK 927      BINDING AFFINITY PREDICTED BY RF-SCORE:    0.00 PKD
ROOT
HETATM    1 CL   UNL     1     -11.062  13.818  66.418  1.00  0.00    -0.305 Cl 
HETATM    2  C   UNL     1     -10.842  12.122  66.603  1.00  0.00    -0.268 A  
HETATM    3  C   UNL     1     -11.320  11.482  67.743  1.00  0.00    -0.364 A  
HETATM    4  C   UNL     1     -11.133  10.102  67.896  1.00  0.00    -0.303 A  
HETATM    5  C   UNL     1     -10.457   9.355  66.915  1.00  0.00    -0.281 A  
HETATM    6  C   UNL     1     -10.003  10.018  65.762  1.00  0.00    -0.346 A  
HETATM    7  C   UNL     1     -10.191  11.395  65.610  1.00  0.00    -0.298 A  
ENDROOT
BRANCH   5   8
HETATM    8  C   UNL     1     -10.293   7.852  67.063  1.00  0.00    -0.341 C  
BRANCH   8   9
HETATM    9  S   UNL     1      -8.850   7.514  68.114  1.00  0.00    -0.126 SA 
BRANCH   9  10
HETATM   10  C   UNL     1      -9.489   6.424  69.511  1.00  0.00    -0.145 C  
BRANCH  10  11
HETATM   11  C   UNL     1     -10.583   7.159  70.339  1.00  0.00    -0.242 A  
HETATM   12  C   UNL     1     -12.655   8.508  71.756  1.00  0.00    -0.346 A  
HETATM   13  C   UNL     1     -10.376   8.426  70.932  1.00  0.00    -0.194 A  
HETATM   14  C   UNL     1     -11.869   6.597  70.527  1.00  0.00    -0.430 A  
HETATM   15  C   UNL     1     -11.408   9.103  71.605  1.00  0.00    -0.446 A  
HETATM   16 CL   UNL     1     -13.911   9.323  72.602  1.00  0.00    -0.460 Cl 
HETATM   17 CL   UNL     1      -8.845   9.231  70.907  1.00  0.00    -0.278 Cl 
HETATM   18  C   UNL     1     -12.884   7.248  71.235  1.00  0.00    -0.391 A  
ENDBRANCH  10  11
BRANCH  10  19
HETATM   19  C   UNL     1      -8.341   5.839  70.376  1.00  0.00    -0.121 C  
BRANCH  19  20
HETATM   20  N   UNL     1      -8.768   4.921  71.410  1.00  0.00    -0.127 NA 
HETATM   21  C   UNL     1      -9.414   3.733  71.226  1.00  0.00    -0.159 A  
HETATM   22  N   UNL     1      -9.137   4.113  73.435  1.00  0.00    -0.103 NA 
HETATM   23  C   UNL     1      -9.688   3.282  72.491  1.00  0.00    -0.141 A  
HETATM   24  C   UNL     1      -8.564   5.077  72.750  1.00  0.00    -0.119 A  
ENDBRANCH  19  20
ENDBRANCH  10  19
ENDBRANCH   9  10
ENDBRANCH   8   9
ENDBRANCH   5   8
TORSDOF 6
ENDMDL
MODEL      103
REMARK 921   NORMALIZED FREE ENERGY PREDICTED BY IDOCK:   -4.76 KCAL/MOL
REMARK 922        TOTAL FREE ENERGY PREDICTED BY IDOCK:   -7.35 KCAL/MOL
REMARK 923 INTER-LIGAND FREE ENERGY PREDICTED BY IDOCK:   -6.85 KCAL/MOL
REMARK 924 INTRA-LIGAND FREE ENERGY PREDICTED BY IDOCK:   -0.50 KCAL/MOL
REMARK 927      BINDING AFFINITY PREDICTED BY RF-SCORE:    0.00 PKD
ROOT
HETATM    1 CL   UNL     1      -9.181   4.636  72.014  1.00  0.00    -0.158 Cl 
HETATM    2  C   UNL     1      -9.599   5.536  70.609  1.00  0.00    -0.170 A  
HETATM    3  C   UNL     1     -10.938   5.758  70.301  1.00  0.00    -0.347 A  
HETATM    4  C   UNL     1     -11.276   6.486  69.152  1.00  0.00    -0.367 A  
HETATM    5  C   UNL     1     -10.277   6.986  68.298  1.00  0.00    -0.206 A  
HETATM    6  C   UNL     1      -8.932   6.769  68.641  1.00  0.00    -0.125 A  
HETATM    7  C   UNL     1      -8.595   6.044  69.788  1.00  0.00    -0.130 A  
ENDROOT
BRANCH   5   8
HETATM    8  C   UNL     1     -10.645   7.809  67.076  1.00  0.00    -0.326 C  
BRANCH   8   9
HETATM    9  S   UNL     1      -9.664   9.339  67.074  1.00  0.00    -0.201 SA 
BRANCH   9  10
HETATM   10  C   UNL     1     -10.671  10.584  68.066  1.00  0.00    -0.245 C  
BRANCH  10  11
HETATM   11  C   UNL     1     -10.676  11.979  67.375  1.00  0.00    -0.266 A  
HETATM   12  C   UNL     1     -10.734  14.481  66.013  1.00  0.00    -0.305 A  
HETATM   13  C   UNL     1      -9.493  12.698  67.089  1.00  0.00    -0.214 A  
HETATM   14  C   UNL     1     -11.883  12.599  66.972  1.00  0.00    -0.415 A  
HETATM   15  C   UNL     1      -9.521  13.917  66.390  1.00  0.00    -0.268 A  
HETATM   16 CL   UNL     1     -10.773  15.986  65.182  1.00  0.00    -0.451 Cl 
HETATM   17 CL   UNL     1      -7.927  12.160  67.593  1.00  0.00    -0.146 Cl 
HETATM   18  C   UNL     1     -11.917  13.835  66.318  1.00  0.00    -0.462 A  
ENDBRANCH  10  11
BRANCH  10  19
HETATM   19  C   UNL     1     -10.250  10.629  69.559  1.00  0.00    -0.158 C  
BRANCH  19  20
HETATM   20  N   UNL     1     -11.311  10.339  70.498  1.00  0.00    -0.323 NA 
HETATM   21  C   UNL     1     -12.348  11.161  70.833  1.00  0.00    -0.399 A  
HETATM   22  N   UNL     1     -12.484   9.244  72.020  1.00  0.00    -0.378 NA 
HETATM   23  C   UNL     1     -13.024  10.491  71.820  1.00  0.00    -0.476 A  
HETATM   24  C   UNL     1     -11.470   9.172  71.188  1.00  0.00    -0.318 A  
ENDBRANCH  19  20
ENDBRANCH  10  19
ENDBRANCH   9  10
ENDBRANCH   8   9
ENDBRANCH   5   8
TORSDOF 6
ENDMDL
MODEL      104
REMARK 921   NORMALIZED FREE ENERGY PREDICTED BY IDOCK:   -4.75 KCAL/MOL
REMARK 922        TOTAL FREE ENERGY PREDICTED BY IDOCK:   -7.34 KCAL/MOL
REMARK 923 INTER-LIGAND FREE ENERGY PREDICTED BY IDOCK:   -6.32 KCAL/MOL
REMARK 924 INTRA-LIGAND FREE ENERGY PREDICTED BY IDOCK:   -1.02 KCAL/MOL
REMARK 927      BINDING AFFINITY PREDICTED BY RF-SCORE:    0.00 PKD
ROOT
HETATM    1 CL   UNL     1     -11.929  12.457  63.367  1.00  0.00    -0.592 Cl 
HETATM    2  C   UNL     1     -11.465  12.055  64.974  1.00  0.00    -0.286 A  
HETATM    3  C   UNL     1     -11.956  12.797  66.044  1.00  0.00    -0.491 A  
HETATM    4  C   UNL     1     -11.572  12.472  67.351  1.00  0.00    -0.434 A  
HETATM    5  C   UNL     1     -10.683  11.409  67.596  1.00  0.00    -0.261 A  
HETATM    6  C   UNL     1     -10.217  10.660  66.503  1.00  0.00    -0.288 A  
HETATM    7  C   UNL     1     -10.603  10.984  65.198  1.00  0.00    -0.295 A  
ENDROOT
BRANCH   5   8
HETATM    8  C   UNL     1     -10.300  11.033  69.017  1.00  0.00    -0.209 C  
BRANCH   8   9
HETATM    9  S   UNL     1      -8.840   9.952  68.971  1.00  0.00    -0.166 SA 
BRANCH   9  10
HETATM   10  C   UNL     1      -9.429   8.283  69.614  1.00  0.00    -0.163 C  
BRANCH  10  11
HETATM   11  C   UNL     1      -9.561   7.250  68.456  1.00  0.00    -0.140 A  
HETATM   12  C   UNL     1      -9.880   5.299  66.405  1.00  0.00    -0.186 A  
HETATM   13  C   UNL     1      -8.475   6.470  67.996  1.00  0.00    -0.119 A  
HETATM   14  C   UNL     1     -10.799   7.021  67.809  1.00  0.00    -0.276 A  
HETATM   15  C   UNL     1      -8.641   5.487  67.005  1.00  0.00    -0.109 A  
HETATM   16 CL   UNL     1     -10.080   4.114  65.174  1.00  0.00    -0.222 Cl 
HETATM   17 CL   UNL     1      -6.861   6.676  68.583  1.00  0.00    -0.068 Cl 
HETATM   18  C   UNL     1     -10.957   6.075  66.791  1.00  0.00    -0.305 A  
ENDBRANCH  10  11
BRANCH  10  19
HETATM   19  C   UNL     1     -10.706   8.404  70.488  1.00  0.00    -0.227 C  
BRANCH  19  20
HETATM   20  N   UNL     1     -10.744   7.518  71.633  1.00  0.00    -0.213 NA 
HETATM   21  C   UNL     1     -11.059   6.190  71.623  1.00  0.00    -0.276 A  
HETATM   22  N   UNL     1     -10.643   6.857  73.740  1.00  0.00    -0.359 NA 
HETATM   23  C   UNL     1     -11.052   5.817  72.942  1.00  0.00    -0.281 A  
HETATM   24  C   UNL     1     -10.437   7.860  72.917  1.00  0.00    -0.355 A  
ENDBRANCH  19  20
ENDBRANCH  10  19
ENDBRANCH   9  10
ENDBRANCH   8   9
ENDBRANCH   5   8
TORSDOF 6
ENDMDL
MODEL      105
REMARK 921   NORMALIZED FREE ENERGY PREDICTED BY IDOCK:   -4.75 KCAL/MOL
REMARK 922        TOTAL FREE ENERGY PREDICTED BY IDOCK:   -7.34 KCAL/MOL
REMARK 923 INTER-LIGAND FREE ENERGY PREDICTED BY IDOCK:   -6.16 KCAL/MOL
REMARK 924 INTRA-LIGAND FREE ENERGY PREDICTED BY IDOCK:   -1.18 KCAL/MOL
REMARK 927      BINDING AFFINITY PREDICTED BY RF-SCORE:    0.00 PKD
ROOT
HETATM    1 CL   UNL     1     -10.990   4.511  74.039  1.00  0.00    -0.321 Cl 
HETATM    2  C   UNL     1     -10.972   5.088  72.418  1.00  0.00    -0.132 A  
HETATM    3  C   UNL     1     -11.920   6.019  72.004  1.00  0.00    -0.237 A  
HETATM    4  C   UNL     1     -11.908   6.483  70.682  1.00  0.00    -0.398 A  
HETATM    5  C   UNL     1     -10.956   6.009  69.762  1.00  0.00    -0.471 A  
HETATM    6  C   UNL     1      -9.995   5.086  70.208  1.00  0.00    -0.325 A  
HETATM    7  C   UNL     1     -10.006   4.625  71.528  1.00  0.00    -0.265 A  
ENDROOT
BRANCH   5   8
HETATM    8  C   UNL     1     -10.919   6.544  68.341  1.00  0.00    -0.281 C  
BRANCH   8   9
HETATM    9  S   UNL     1      -9.399   7.511  68.110  1.00  0.00    -0.136 SA 
BRANCH   9  10
HETATM   10  C   UNL     1      -9.416   8.809  69.474  1.00  0.00    -0.165 C  
BRANCH  10  11
HETATM   11  C   UNL     1     -10.147  10.102  69.009  1.00  0.00    -0.216 A  
HETATM   12  C   UNL     1     -11.379  12.525  68.155  1.00  0.00    -0.295 A  
HETATM   13  C   UNL     1     -11.116  10.763  69.798  1.00  0.00    -0.281 A  
HETATM   14  C   UNL     1      -9.859  10.704  67.760  1.00  0.00    -0.187 A  
HETATM   15  C   UNL     1     -11.701  11.974  69.389  1.00  0.00    -0.402 A  
HETATM   16 CL   UNL     1     -12.112  13.993  67.640  1.00  0.00    -0.398 Cl 
HETATM   17 CL   UNL     1     -11.682  10.131  71.306  1.00  0.00    -0.447 Cl 
HETATM   18  C   UNL     1     -10.473  11.885  67.330  1.00  0.00    -0.248 A  
ENDBRANCH  10  11
BRANCH  10  19
HETATM   19  C   UNL     1      -8.002   9.070  70.059  1.00  0.00    -0.113 C  
BRANCH  19  20
HETATM   20  N   UNL     1      -7.873   8.804  71.475  1.00  0.00    -0.229 NA 
HETATM   21  C   UNL     1      -8.867   8.406  72.322  1.00  0.00    -0.220 A  
HETATM   22  N   UNL     1      -6.940   8.654  73.475  1.00  0.00    -0.328 NA 
HETATM   23  C   UNL     1      -8.283   8.381  73.562  1.00  0.00    -0.107 A  
HETATM   24  C   UNL     1      -6.718   8.877  72.200  1.00  0.00     0.044 A  
ENDBRANCH  19  20
ENDBRANCH  10  19
ENDBRANCH   9  10
ENDBRANCH   8   9
ENDBRANCH   5   8
TORSDOF 6
ENDMDL
MODEL      106
REMARK 921   NORMALIZED FREE ENERGY PREDICTED BY IDOCK:   -4.73 KCAL/MOL
REMARK 922        TOTAL FREE ENERGY PREDICTED BY IDOCK:   -7.31 KCAL/MOL
REMARK 923 INTER-LIGAND FREE ENERGY PREDICTED BY IDOCK:   -6.35 KCAL/MOL
REMARK 924 INTRA-LIGAND FREE ENERGY PREDICTED BY IDOCK:   -0.96 KCAL/MOL
REMARK 927      BINDING AFFINITY PREDICTED BY RF-SCORE:    0.00 PKD
ROOT
HETATM    1 CL   UNL     1      -7.787   7.107  63.313  1.00  0.00    -0.127 Cl 
HETATM    2  C   UNL     1      -8.577   8.625  63.489  1.00  0.00     0.006 A  
HETATM    3  C   UNL     1      -8.830   9.409  62.367  1.00  0.00    -0.257 A  
HETATM    4  C   UNL     1      -9.468  10.648  62.513  1.00  0.00    -0.289 A  
HETATM    5  C   UNL     1      -9.846  11.116  63.784  1.00  0.00    -0.374 A  
HETATM    6  C   UNL     1      -9.601  10.299  64.900  1.00  0.00    -0.365 A  
HETATM    7  C   UNL     1      -8.966   9.061  64.753  1.00  0.00    -0.146 A  
ENDROOT
BRANCH   5   8
HETATM    8  C   UNL     1     -10.574  12.440  63.935  1.00  0.00    -0.437 C  
BRANCH   8   9
HETATM    9  S   UNL     1     -11.770  12.308  65.297  1.00  0.00    -0.333 SA 
BRANCH   9  10
HETATM   10  C   UNL     1     -10.929  13.099  66.785  1.00  0.00    -0.279 C  
BRANCH  10  11
HETATM   11  C   UNL     1     -10.580  12.033  67.865  1.00  0.00    -0.227 A  
HETATM   12  C   UNL     1      -9.987  10.158  69.926  1.00  0.00    -0.203 A  
HETATM   13  C   UNL     1      -9.258  11.607  68.124  1.00  0.00    -0.184 A  
HETATM   14  C   UNL     1     -11.584  11.444  68.670  1.00  0.00    -0.384 A  
HETATM   15  C   UNL     1      -8.963  10.705  69.160  1.00  0.00    -0.139 A  
HETATM   16 CL   UNL     1      -9.631   9.034  71.178  1.00  0.00    -0.338 Cl 
HETATM   17 CL   UNL     1      -7.905  12.129  67.179  1.00  0.00    -0.169 Cl 
HETATM   18  C   UNL     1     -11.299  10.511  69.672  1.00  0.00    -0.345 A  
ENDBRANCH  10  11
BRANCH  10  19
HETATM   19  C   UNL     1     -11.727  14.310  67.339  1.00  0.00    -0.394 C  
BRANCH  19  20
HETATM   20  N   UNL     1     -11.090  15.595  67.148  1.00  0.00    -0.270 NA 
HETATM   21  C   UNL     1     -10.228  15.935  66.145  1.00  0.00    -0.324 A  
HETATM   22  N   UNL     1     -10.494  17.688  67.544  1.00  0.00    -0.364 NA 
HETATM   23  C   UNL     1      -9.825  17.210  66.444  1.00  0.00    -0.300 A  
HETATM   24  C   UNL     1     -11.270  16.700  67.928  1.00  0.00    -0.114 A  
ENDBRANCH  19  20
ENDBRANCH  10  19
ENDBRANCH   9  10
ENDBRANCH   8   9
ENDBRANCH   5   8
TORSDOF 6
ENDMDL
MODEL      107
REMARK 921   NORMALIZED FREE ENERGY PREDICTED BY IDOCK:   -4.72 KCAL/MOL
REMARK 922        TOTAL FREE ENERGY PREDICTED BY IDOCK:   -7.30 KCAL/MOL
REMARK 923 INTER-LIGAND FREE ENERGY PREDICTED BY IDOCK:   -6.69 KCAL/MOL
REMARK 924 INTRA-LIGAND FREE ENERGY PREDICTED BY IDOCK:   -0.61 KCAL/MOL
REMARK 927      BINDING AFFINITY PREDICTED BY RF-SCORE:    0.00 PKD
ROOT
HETATM    1 CL   UNL     1     -11.043   6.184  71.552  1.00  0.00    -0.329 Cl 
HETATM    2  C   UNL     1     -10.761   7.459  70.433  1.00  0.00    -0.237 A  
HETATM    3  C   UNL     1     -11.240   8.738  70.704  1.00  0.00    -0.294 A  
HETATM    4  C   UNL     1     -11.014   9.774  69.788  1.00  0.00    -0.287 A  
HETATM    5  C   UNL     1     -10.318   9.534  68.589  1.00  0.00    -0.229 A  
HETATM    6  C   UNL     1      -9.825   8.242  68.347  1.00  0.00    -0.187 A  
HETATM    7  C   UNL     1     -10.049   7.209  69.262  1.00  0.00    -0.178 A  
ENDROOT
BRANCH   5   8
HETATM    8  C   UNL     1     -10.039  10.668  67.617  1.00  0.00    -0.177 C  
BRANCH   8   9
HETATM    9  S   UNL     1     -11.494  11.753  67.537  1.00  0.00    -0.283 SA 
BRANCH   9  10
HETATM   10  C   UNL     1     -10.884  13.454  68.067  1.00  0.00    -0.247 C  
BRANCH  10  11
HETATM   11  C   UNL     1     -11.442  13.838  69.469  1.00  0.00    -0.327 A  
HETATM   12  C   UNL     1     -12.571  14.558  71.983  1.00  0.00    -0.325 A  
HETATM   13  C   UNL     1     -10.985  14.962  70.195  1.00  0.00    -0.180 A  
HETATM   14  C   UNL     1     -12.466  13.082  70.088  1.00  0.00    -0.166 A  
HETATM   15  C   UNL     1     -11.564  15.333  71.421  1.00  0.00    -0.446 A  
HETATM   16 CL   UNL     1     -13.263  14.995  73.496  1.00  0.00    -0.438 Cl 
HETATM   17 CL   UNL     1      -9.670  15.950  69.659  1.00  0.00    -0.253 Cl 
HETATM   18  C   UNL     1     -13.012  13.423  71.330  1.00  0.00    -0.368 A  
ENDBRANCH  10  11
BRANCH  10  19
HETATM   19  C   UNL     1     -11.131  14.535  66.981  1.00  0.00    -0.322 C  
BRANCH  19  20
HETATM   20  N   UNL     1      -9.955  15.284  66.592  1.00  0.00    -0.246 NA 
HETATM   21  C   UNL     1      -8.655  14.911  66.777  1.00  0.00    -0.222 A  
HETATM   22  N   UNL     1      -8.731  16.946  65.799  1.00  0.00    -0.476 NA 
HETATM   23  C   UNL     1      -7.917  15.979  66.338  1.00  0.00    -0.162 A  
HETATM   24  C   UNL     1      -9.952  16.483  65.941  1.00  0.00    -0.317 A  
ENDBRANCH  19  20
ENDBRANCH  10  19
ENDBRANCH   9  10
ENDBRANCH   8   9
ENDBRANCH   5   8
TORSDOF 6
ENDMDL
MODEL      108
REMARK 921   NORMALIZED FREE ENERGY PREDICTED BY IDOCK:   -4.72 KCAL/MOL
REMARK 922        TOTAL FREE ENERGY PREDICTED BY IDOCK:   -7.29 KCAL/MOL
REMARK 923 INTER-LIGAND FREE ENERGY PREDICTED BY IDOCK:   -6.74 KCAL/MOL
REMARK 924 INTRA-LIGAND FREE ENERGY PREDICTED BY IDOCK:   -0.55 KCAL/MOL
REMARK 927      BINDING AFFINITY PREDICTED BY RF-SCORE:    0.00 PKD
ROOT
HETATM    1 CL   UNL     1     -10.806   5.670  68.645  1.00  0.00    -0.260 Cl 
HETATM    2  C   UNL     1     -10.553   7.317  68.216  1.00  0.00    -0.172 A  
HETATM    3  C   UNL     1     -10.292   7.656  66.891  1.00  0.00    -0.388 A  
HETATM    4  C   UNL     1     -10.080   8.997  66.545  1.00  0.00    -0.354 A  
HETATM    5  C   UNL     1     -10.116  10.006  67.523  1.00  0.00    -0.243 A  
HETATM    6  C   UNL     1     -10.404   9.644  68.850  1.00  0.00    -0.220 A  
HETATM    7  C   UNL     1     -10.617   8.306  69.195  1.00  0.00    -0.179 A  
ENDROOT
BRANCH   5   8
HETATM    8  C   UNL     1      -9.927  11.464  67.139  1.00  0.00    -0.192 C  
BRANCH   8   9
HETATM    9  S   UNL     1     -11.556  12.253  66.985  1.00  0.00    -0.326 SA 
BRANCH   9  10
HETATM   10  C   UNL     1     -11.464  13.808  68.044  1.00  0.00    -0.310 C  
BRANCH  10  11
HETATM   11  C   UNL     1     -10.370  14.782  67.517  1.00  0.00    -0.238 A  
HETATM   12  C   UNL     1      -8.394  16.639  66.644  1.00  0.00    -0.261 A  
HETATM   13  C   UNL     1     -10.441  15.403  66.249  1.00  0.00    -0.303 A  
HETATM   14  C   UNL     1      -9.240  15.118  68.302  1.00  0.00    -0.188 A  
HETATM   15  C   UNL     1      -9.481  16.341  65.832  1.00  0.00    -0.318 A  
HETATM   16 CL   UNL     1      -7.204  17.768  66.125  1.00  0.00    -0.330 Cl 
HETATM   17 CL   UNL     1     -11.685  15.044  65.101  1.00  0.00    -0.290 Cl 
HETATM   18  C   UNL     1      -8.260  16.017  67.871  1.00  0.00    -0.154 A  
ENDBRANCH  10  11
BRANCH  10  19
HETATM   19  C   UNL     1     -11.333  13.485  69.557  1.00  0.00    -0.202 C  
BRANCH  19  20
HETATM   20  N   UNL     1     -11.866  14.498  70.442  1.00  0.00    -0.295 NA 
HETATM   21  C   UNL     1     -11.165  15.227  71.358  1.00  0.00    -0.308 A  
HETATM   22  N   UNL     1     -13.350  15.794  71.447  1.00  0.00    -0.495 NA 
HETATM   23  C   UNL     1     -12.111  15.975  72.011  1.00  0.00    -0.525 A  
HETATM   24  C   UNL     1     -13.163  14.919  70.485  1.00  0.00    -0.190 A  
ENDBRANCH  19  20
ENDBRANCH  10  19
ENDBRANCH   9  10
ENDBRANCH   8   9
ENDBRANCH   5   8
TORSDOF 6
ENDMDL
MODEL      109
REMARK 921   NORMALIZED FREE ENERGY PREDICTED BY IDOCK:   -4.71 KCAL/MOL
REMARK 922        TOTAL FREE ENERGY PREDICTED BY IDOCK:   -7.28 KCAL/MOL
REMARK 923 INTER-LIGAND FREE ENERGY PREDICTED BY IDOCK:   -5.85 KCAL/MOL
REMARK 924 INTRA-LIGAND FREE ENERGY PREDICTED BY IDOCK:   -1.43 KCAL/MOL
REMARK 927      BINDING AFFINITY PREDICTED BY RF-SCORE:    0.00 PKD
ROOT
HETATM    1 CL   UNL     1     -14.120   8.559  72.321  1.00  0.00    -0.453 Cl 
HETATM    2  C   UNL     1     -12.589   8.577  71.538  1.00  0.00    -0.316 A  
HETATM    3  C   UNL     1     -12.127   7.433  70.892  1.00  0.00    -0.290 A  
HETATM    4  C   UNL     1     -10.877   7.448  70.260  1.00  0.00    -0.260 A  
HETATM    5  C   UNL     1     -10.074   8.603  70.282  1.00  0.00    -0.206 A  
HETATM    6  C   UNL     1     -10.569   9.752  70.920  1.00  0.00    -0.344 A  
HETATM    7  C   UNL     1     -11.818   9.737  71.549  1.00  0.00    -0.476 A  
ENDROOT
BRANCH   5   8
HETATM    8  C   UNL     1      -8.737   8.629  69.561  1.00  0.00    -0.139 C  
BRANCH   8   9
HETATM    9  S   UNL     1      -8.930   7.866  67.924  1.00  0.00    -0.128 SA 
BRANCH   9  10
HETATM   10  C   UNL     1      -9.061   9.302  66.712  1.00  0.00    -0.140 C  
BRANCH  10  11
HETATM   11  C   UNL     1      -9.800  10.513  67.354  1.00  0.00    -0.204 A  
HETATM   12  C   UNL     1     -11.205  12.749  68.423  1.00  0.00    -0.278 A  
HETATM   13  C   UNL     1      -9.121  11.641  67.868  1.00  0.00    -0.171 A  
HETATM   14  C   UNL     1     -11.212  10.556  67.437  1.00  0.00    -0.249 A  
HETATM   15  C   UNL     1      -9.816  12.756  68.368  1.00  0.00    -0.196 A  
HETATM   16 CL   UNL     1     -12.057  14.101  69.057  1.00  0.00    -0.374 Cl 
HETATM   17 CL   UNL     1      -7.395  11.735  67.955  1.00  0.00    -0.091 Cl 
HETATM   18  C   UNL     1     -11.905  11.644  67.976  1.00  0.00    -0.295 A  
ENDBRANCH  10  11
BRANCH  10  19
HETATM   19  C   UNL     1      -9.651   8.868  65.343  1.00  0.00     0.080 C  
BRANCH  19  20
HETATM   20  N   UNL     1      -9.374   9.773  64.248  1.00  0.00    -0.244 NA 
HETATM   21  C   UNL     1      -8.304   9.722  63.402  1.00  0.00    -0.167 A  
HETATM   22  N   UNL     1      -9.600  11.497  62.883  1.00  0.00    -0.365 NA 
HETATM   23  C   UNL     1      -8.431  10.832  62.608  1.00  0.00    -0.213 A  
HETATM   24  C   UNL     1     -10.160  10.817  63.857  1.00  0.00    -0.333 A  
ENDBRANCH  19  20
ENDBRANCH  10  19
ENDBRANCH   9  10
ENDBRANCH   8   9
ENDBRANCH   5   8
TORSDOF 6
ENDMDL
MODEL      110
REMARK 921   NORMALIZED FREE ENERGY PREDICTED BY IDOCK:   -4.70 KCAL/MOL
REMARK 922        TOTAL FREE ENERGY PREDICTED BY IDOCK:   -7.27 KCAL/MOL
REMARK 923 INTER-LIGAND FREE ENERGY PREDICTED BY IDOCK:   -7.07 KCAL/MOL
REMARK 924 INTRA-LIGAND FREE ENERGY PREDICTED BY IDOCK:   -0.20 KCAL/MOL
REMARK 927      BINDING AFFINITY PREDICTED BY RF-SCORE:    0.00 PKD
ROOT
HETATM    1 CL   UNL     1     -13.232  16.073  73.801  1.00  0.00    -0.522 Cl 
HETATM    2  C   UNL     1     -12.836  15.157  72.400  1.00  0.00    -0.356 A  
HETATM    3  C   UNL     1     -12.377  15.805  71.256  1.00  0.00    -0.493 A  
HETATM    4  C   UNL     1     -12.061  15.058  70.113  1.00  0.00    -0.378 A  
HETATM    5  C   UNL     1     -12.213  13.660  70.103  1.00  0.00    -0.413 A  
HETATM    6  C   UNL     1     -12.657  13.026  71.276  1.00  0.00    -0.373 A  
HETATM    7  C   UNL     1     -12.970  13.771  72.416  1.00  0.00    -0.440 A  
ENDROOT
BRANCH   5   8
HETATM    8  C   UNL     1     -11.831  12.848  68.877  1.00  0.00    -0.309 C  
BRANCH   8   9
HETATM    9  S   UNL     1     -12.063  13.870  67.393  1.00  0.00    -0.270 SA 
BRANCH   9  10
HETATM   10  C   UNL     1     -10.352  14.030  66.620  1.00  0.00    -0.278 C  
BRANCH  10  11
HETATM   11  C   UNL     1      -9.935  12.711  65.905  1.00  0.00    -0.274 A  
HETATM   12  C   UNL     1      -9.289  10.272  64.583  1.00  0.00    -0.266 A  
HETATM   13  C   UNL     1      -9.199  11.689  66.547  1.00  0.00    -0.198 A  
HETATM   14  C   UNL     1     -10.296  12.455  64.560  1.00  0.00    -0.351 A  
HETATM   15  C   UNL     1      -8.907  10.474  65.904  1.00  0.00    -0.180 A  
HETATM   16 CL   UNL     1      -8.910   8.796  63.785  1.00  0.00     0.021 Cl 
HETATM   17 CL   UNL     1      -8.575  11.854  68.153  1.00  0.00    -0.159 Cl 
HETATM   18  C   UNL     1      -9.967  11.265  63.902  1.00  0.00    -0.368 A  
ENDBRANCH  10  11
BRANCH  10  19
HETATM   19  C   UNL     1      -9.295  14.553  67.628  1.00  0.00    -0.202 C  
BRANCH  19  20
HETATM   20  N   UNL     1      -8.956  15.952  67.481  1.00  0.00    -0.192 NA 
HETATM   21  C   UNL     1      -8.892  16.654  66.312  1.00  0.00    -0.312 A  
HETATM   22  N   UNL     1      -8.329  17.998  68.038  1.00  0.00    -0.253 NA 
HETATM   23  C   UNL     1      -8.442  17.898  66.673  1.00  0.00    -0.258 A  
HETATM   24  C   UNL     1      -8.674  16.817  68.498  1.00  0.00    -0.245 A  
ENDBRANCH  19  20
ENDBRANCH  10  19
ENDBRANCH   9  10
ENDBRANCH   8   9
ENDBRANCH   5   8
TORSDOF 6
ENDMDL
MODEL      111
REMARK 921   NORMALIZED FREE ENERGY PREDICTED BY IDOCK:   -4.70 KCAL/MOL
REMARK 922        TOTAL FREE ENERGY PREDICTED BY IDOCK:   -7.27 KCAL/MOL
REMARK 923 INTER-LIGAND FREE ENERGY PREDICTED BY IDOCK:   -6.32 KCAL/MOL
REMARK 924 INTRA-LIGAND FREE ENERGY PREDICTED BY IDOCK:   -0.94 KCAL/MOL
REMARK 927      BINDING AFFINITY PREDICTED BY RF-SCORE:    0.00 PKD
ROOT
HETATM    1 CL   UNL     1      -9.352   3.754  67.154  1.00  0.00    -0.207 Cl 
HETATM    2  C   UNL     1      -9.348   5.473  67.201  1.00  0.00    -0.115 A  
HETATM    3  C   UNL     1     -10.553   6.170  67.192  1.00  0.00    -0.374 A  
HETATM    4  C   UNL     1     -10.547   7.571  67.224  1.00  0.00    -0.394 A  
HETATM    5  C   UNL     1      -9.336   8.284  67.252  1.00  0.00    -0.181 A  
HETATM    6  C   UNL     1      -8.132   7.560  67.284  1.00  0.00    -0.115 A  
HETATM    7  C   UNL     1      -8.138   6.162  67.254  1.00  0.00    -0.106 A  
ENDROOT
BRANCH   5   8
HETATM    8  C   UNL     1      -9.333   9.801  67.328  1.00  0.00    -0.138 C  
BRANCH   8   9
HETATM    9  S   UNL     1     -10.995  10.376  67.782  1.00  0.00    -0.294 SA 
BRANCH   9  10
HETATM   10  C   UNL     1     -10.814  11.142  69.493  1.00  0.00    -0.188 C  
BRANCH  10  11
HETATM   11  C   UNL     1     -10.708  10.043  70.591  1.00  0.00    -0.325 A  
HETATM   12  C   UNL     1     -10.569   8.109  72.678  1.00  0.00    -0.344 A  
HETATM   13  C   UNL     1      -9.472   9.544  71.061  1.00  0.00    -0.047 A  
HETATM   14  C   UNL     1     -11.863   9.495  71.200  1.00  0.00    -0.436 A  
HETATM   15  C   UNL     1      -9.404   8.611  72.111  1.00  0.00    -0.343 A  
HETATM   16 CL   UNL     1     -10.489   6.949  73.945  1.00  0.00    -0.401 Cl 
HETATM   17 CL   UNL     1      -7.954  10.007  70.372  1.00  0.00    -0.060 Cl 
HETATM   18  C   UNL     1     -11.799   8.534  72.214  1.00  0.00    -0.453 A  
ENDBRANCH  10  11
BRANCH  10  19
HETATM   19  C   UNL     1     -11.904  12.208  69.781  1.00  0.00    -0.327 C  
BRANCH  19  20
HETATM   20  N   UNL     1     -11.559  13.554  69.378  1.00  0.00    -0.297 NA 
HETATM   21  C   UNL     1     -10.626  13.910  68.446  1.00  0.00    -0.255 A  
HETATM   22  N   UNL     1     -11.552  15.765  69.342  1.00  0.00    -0.350 NA 
HETATM   23  C   UNL     1     -10.594  15.279  68.486  1.00  0.00    -0.237 A  
HETATM   24  C   UNL     1     -12.136  14.700  69.842  1.00  0.00    -0.335 A  
ENDBRANCH  19  20
ENDBRANCH  10  19
ENDBRANCH   9  10
ENDBRANCH   8   9
ENDBRANCH   5   8
TORSDOF 6
ENDMDL
MODEL      112
REMARK 921   NORMALIZED FREE ENERGY PREDICTED BY IDOCK:   -4.69 KCAL/MOL
REMARK 922        TOTAL FREE ENERGY PREDICTED BY IDOCK:   -7.26 KCAL/MOL
REMARK 923 INTER-LIGAND FREE ENERGY PREDICTED BY IDOCK:   -6.73 KCAL/MOL
REMARK 924 INTRA-LIGAND FREE ENERGY PREDICTED BY IDOCK:   -0.53 KCAL/MOL
REMARK 927      BINDING AFFINITY PREDICTED BY RF-SCORE:    0.00 PKD
ROOT
HETATM    1 CL   UNL     1     -13.166  15.797  72.117  1.00  0.00    -0.527 Cl 
HETATM    2  C   UNL     1     -12.904  14.182  71.587  1.00  0.00    -0.349 A  
HETATM    3  C   UNL     1     -12.179  13.945  70.422  1.00  0.00    -0.438 A  
HETATM    4  C   UNL     1     -11.971  12.628  69.988  1.00  0.00    -0.377 A  
HETATM    5  C   UNL     1     -12.498  11.542  70.709  1.00  0.00    -0.444 A  
HETATM    6  C   UNL     1     -13.207  11.804  71.894  1.00  0.00    -0.468 A  
HETATM    7  C   UNL     1     -13.412  13.118  72.327  1.00  0.00    -0.665 A  
ENDROOT
BRANCH   5   8
HETATM    8  C   UNL     1     -12.237  10.115  70.259  1.00  0.00    -0.173 C  
BRANCH   8   9
HETATM    9  S   UNL     1     -10.446   9.865  70.087  1.00  0.00    -0.290 SA 
BRANCH   9  10
HETATM   10  C   UNL     1     -10.165   9.468  68.267  1.00  0.00    -0.193 C  
BRANCH  10  11
HETATM   11  C   UNL     1      -9.949   7.941  68.054  1.00  0.00    -0.213 A  
HETATM   12  C   UNL     1      -9.659   5.127  67.717  1.00  0.00    -0.138 A  
HETATM   13  C   UNL     1      -8.879   7.228  68.641  1.00  0.00    -0.129 A  
HETATM   14  C   UNL     1     -10.839   7.172  67.265  1.00  0.00    -0.382 A  
HETATM   15  C   UNL     1      -8.754   5.835  68.498  1.00  0.00    -0.111 A  
HETATM   16 CL   UNL     1      -9.493   3.426  67.520  1.00  0.00    -0.253 Cl 
HETATM   17 CL   UNL     1      -7.627   8.002  69.550  1.00  0.00    -0.098 Cl 
HETATM   18  C   UNL     1     -10.691   5.794  67.084  1.00  0.00    -0.358 A  
ENDBRANCH  10  11
BRANCH  10  19
HETATM   19  C   UNL     1      -9.055  10.349  67.635  1.00  0.00    -0.138 C  
BRANCH  19  20
HETATM   20  N   UNL     1      -8.863  10.155  66.213  1.00  0.00    -0.146 NA 
HETATM   21  C   UNL     1      -7.707   9.780  65.593  1.00  0.00    -0.115 A  
HETATM   22  N   UNL     1      -9.320  10.122  64.050  1.00  0.00    -0.272 NA 
HETATM   23  C   UNL     1      -7.995   9.827  64.254  1.00  0.00    -0.143 A  
HETATM   24  C   UNL     1      -9.823  10.286  65.253  1.00  0.00    -0.306 A  
ENDBRANCH  19  20
ENDBRANCH  10  19
ENDBRANCH   9  10
ENDBRANCH   8   9
ENDBRANCH   5   8
TORSDOF 6
ENDMDL
MODEL      113
REMARK 921   NORMALIZED FREE ENERGY PREDICTED BY IDOCK:   -4.69 KCAL/MOL
REMARK 922        TOTAL FREE ENERGY PREDICTED BY IDOCK:   -7.25 KCAL/MOL
REMARK 923 INTER-LIGAND FREE ENERGY PREDICTED BY IDOCK:   -7.35 KCAL/MOL
REMARK 924 INTRA-LIGAND FREE ENERGY PREDICTED BY IDOCK:    0.09 KCAL/MOL
REMARK 927      BINDING AFFINITY PREDICTED BY RF-SCORE:    0.00 PKD
ROOT
HETATM    1 CL   UNL     1      -7.794   7.873  63.516  1.00  0.00    -0.139 Cl 
HETATM    2  C   UNL     1      -8.762   9.284  63.691  1.00  0.00    -0.167 A  
HETATM    3  C   UNL     1      -9.308   9.599  64.932  1.00  0.00    -0.306 A  
HETATM    4  C   UNL     1     -10.102  10.746  65.072  1.00  0.00    -0.377 A  
HETATM    5  C   UNL     1     -10.365  11.576  63.968  1.00  0.00    -0.406 A  
HETATM    6  C   UNL     1      -9.786  11.251  62.730  1.00  0.00    -0.289 A  
HETATM    7  C   UNL     1      -8.992  10.108  62.592  1.00  0.00    -0.275 A  
ENDROOT
BRANCH   5   8
HETATM    8  C   UNL     1     -11.192  12.840  64.131  1.00  0.00    -0.387 C  
BRANCH   8   9
HETATM    9  S   UNL     1     -12.079  12.770  65.715  1.00  0.00    -0.408 SA 
BRANCH   9  10
HETATM   10  C   UNL     1     -10.826  13.301  67.017  1.00  0.00    -0.269 C  
BRANCH  10  11
HETATM   11  C   UNL     1     -11.457  13.289  68.440  1.00  0.00    -0.349 A  
HETATM   12  C   UNL     1     -12.700  13.197  71.002  1.00  0.00    -0.277 A  
HETATM   13  C   UNL     1     -11.917  14.459  69.086  1.00  0.00    -0.322 A  
HETATM   14  C   UNL     1     -11.624  12.083  69.163  1.00  0.00    -0.370 A  
HETATM   15  C   UNL     1     -12.557  14.409  70.336  1.00  0.00    -0.405 A  
HETATM   16 CL   UNL     1     -13.460  13.136  72.543  1.00  0.00    -0.646 Cl 
HETATM   17 CL   UNL     1     -11.708  16.041  68.416  1.00  0.00    -0.294 Cl 
HETATM   18  C   UNL     1     -12.219  12.035  70.427  1.00  0.00    -0.379 A  
ENDBRANCH  10  11
BRANCH  10  19
HETATM   19  C   UNL     1     -10.130  14.641  66.655  1.00  0.00    -0.273 C  
BRANCH  19  20
HETATM   20  N   UNL     1      -8.726  14.707  66.997  1.00  0.00    -0.227 NA 
HETATM   21  C   UNL     1      -7.926  13.661  67.357  1.00  0.00    -0.166 A  
HETATM   22  N   UNL     1      -6.739  15.581  67.419  1.00  0.00    -0.207 NA 
HETATM   23  C   UNL     1      -6.721  14.232  67.674  1.00  0.00    -0.169 A  
HETATM   24  C   UNL     1      -7.953  15.831  66.984  1.00  0.00    -0.237 A  
ENDBRANCH  19  20
ENDBRANCH  10  19
ENDBRANCH   9  10
ENDBRANCH   8   9
ENDBRANCH   5   8
TORSDOF 6
ENDMDL
MODEL      114
REMARK 921   NORMALIZED FREE ENERGY PREDICTED BY IDOCK:   -4.67 KCAL/MOL
REMARK 922        TOTAL FREE ENERGY PREDICTED BY IDOCK:   -7.24 KCAL/MOL
REMARK 923 INTER-LIGAND FREE ENERGY PREDICTED BY IDOCK:   -6.44 KCAL/MOL
REMARK 924 INTRA-LIGAND FREE ENERGY PREDICTED BY IDOCK:   -0.80 KCAL/MOL
REMARK 927      BINDING AFFINITY PREDICTED BY RF-SCORE:    0.00 PKD
ROOT
HETATM    1 CL   UNL     1     -12.737  16.027  74.508  1.00  0.00    -0.530 Cl 
HETATM    2  C   UNL     1     -12.405  15.459  72.918  1.00  0.00    -0.411 A  
HETATM    3  C   UNL     1     -11.349  16.006  72.193  1.00  0.00    -0.153 A  
HETATM    4  C   UNL     1     -11.085  15.547  70.896  1.00  0.00    -0.387 A  
HETATM    5  C   UNL     1     -11.882  14.547  70.311  1.00  0.00    -0.373 A  
HETATM    6  C   UNL     1     -12.927  13.994  71.069  1.00  0.00    -0.378 A  
HETATM    7  C   UNL     1     -13.190  14.451  72.364  1.00  0.00    -0.528 A  
ENDROOT
BRANCH   5   8
HETATM    8  C   UNL     1     -11.568  14.023  68.920  1.00  0.00    -0.315 C  
BRANCH   8   9
HETATM    9  S   UNL     1     -11.156  15.422  67.837  1.00  0.00    -0.328 SA 
BRANCH   9  10
HETATM   10  C   UNL     1      -9.326  15.227  67.436  1.00  0.00    -0.199 C  
BRANCH  10  11
HETATM   11  C   UNL     1      -8.878  13.742  67.568  1.00  0.00    -0.197 A  
HETATM   12  C   UNL     1      -7.943  11.060  67.791  1.00  0.00    -0.115 A  
HETATM   13  C   UNL     1      -9.294  12.732  66.670  1.00  0.00    -0.242 A  
HETATM   14  C   UNL     1      -8.000  13.324  68.597  1.00  0.00    -0.042 A  
HETATM   15  C   UNL     1      -8.809  11.416  66.763  1.00  0.00    -0.179 A  
HETATM   16 CL   UNL     1      -7.369   9.444  67.922  1.00  0.00    -0.083 Cl 
HETATM   17 CL   UNL     1     -10.446  13.017  65.411  1.00  0.00    -0.299 Cl 
HETATM   18  C   UNL     1      -7.552  12.005  68.720  1.00  0.00    -0.070 A  
ENDBRANCH  10  11
BRANCH  10  19
HETATM   19  C   UNL     1      -8.438  16.218  68.235  1.00  0.00    -0.187 C  
BRANCH  19  20
HETATM   20  N   UNL     1      -8.347  17.546  67.666  1.00  0.00    -0.211 NA 
HETATM   21  C   UNL     1      -8.127  17.855  66.355  1.00  0.00    -0.261 A  
HETATM   22  N   UNL     1      -8.283  19.754  67.568  1.00  0.00    -0.302 NA 
HETATM   23  C   UNL     1      -8.029  19.222  66.327  1.00  0.00    -0.308 A  
HETATM   24  C   UNL     1      -8.501  18.718  68.346  1.00  0.00    -0.342 A  
ENDBRANCH  19  20
ENDBRANCH  10  19
ENDBRANCH   9  10
ENDBRANCH   8   9
ENDBRANCH   5   8
TORSDOF 6
ENDMDL
MODEL      115
REMARK 921   NORMALIZED FREE ENERGY PREDICTED BY IDOCK:   -4.67 KCAL/MOL
REMARK 922        TOTAL FREE ENERGY PREDICTED BY IDOCK:   -7.23 KCAL/MOL
REMARK 923 INTER-LIGAND FREE ENERGY PREDICTED BY IDOCK:   -6.66 KCAL/MOL
REMARK 924 INTRA-LIGAND FREE ENERGY PREDICTED BY IDOCK:   -0.58 KCAL/MOL
REMARK 927      BINDING AFFINITY PREDICTED BY RF-SCORE:    0.00 PKD
ROOT
HETATM    1 CL   UNL     1     -12.991  11.508  63.248  1.00  0.00    -0.102 Cl 
HETATM    2  C   UNL     1     -12.315  12.756  64.220  1.00  0.00    -0.416 A  
HETATM    3  C   UNL     1     -10.979  13.113  64.058  1.00  0.00    -0.377 A  
HETATM    4  C   UNL     1     -10.428  14.126  64.854  1.00  0.00    -0.461 A  
HETATM    5  C   UNL     1     -11.207  14.779  65.826  1.00  0.00    -0.337 A  
HETATM    6  C   UNL     1     -12.558  14.418  65.957  1.00  0.00    -0.235 A  
HETATM    7  C   UNL     1     -13.107  13.408  65.161  1.00  0.00    -0.085 A  
ENDROOT
BRANCH   5   8
HETATM    8  C   UNL     1     -10.619  15.904  66.660  1.00  0.00    -0.305 C  
BRANCH   8   9
HETATM    9  S   UNL     1     -11.596  16.090  68.180  1.00  0.00    -0.067 SA 
BRANCH   9  10
HETATM   10  C   UNL     1     -10.815  14.914  69.428  1.00  0.00    -0.264 C  
BRANCH  10  11
HETATM   11  C   UNL     1      -9.827  13.933  68.731  1.00  0.00    -0.117 A  
HETATM   12  C   UNL     1      -7.999  12.222  67.372  1.00  0.00    -0.171 A  
HETATM   13  C   UNL     1     -10.231  12.688  68.197  1.00  0.00    -0.240 A  
HETATM   14  C   UNL     1      -8.456  14.252  68.576  1.00  0.00    -0.164 A  
HETATM   15  C   UNL     1      -9.334  11.858  67.500  1.00  0.00    -0.177 A  
HETATM   16 CL   UNL     1      -6.895  11.196  66.543  1.00  0.00    -0.139 Cl 
HETATM   17 CL   UNL     1     -11.836  12.070  68.377  1.00  0.00    -0.386 Cl 
HETATM   18  C   UNL     1      -7.552  13.408  67.924  1.00  0.00    -0.151 A  
ENDBRANCH  10  11
BRANCH  10  19
HETATM   19  C   UNL     1     -11.873  14.207  70.316  1.00  0.00    -0.303 C  
BRANCH  19  20
HETATM   20  N   UNL     1     -12.221  14.917  71.528  1.00  0.00    -0.323 NA 
HETATM   21  C   UNL     1     -13.124  14.521  72.472  1.00  0.00    -0.431 A  
HETATM   22  N   UNL     1     -12.254  16.524  73.046  1.00  0.00    -0.434 NA 
HETATM   23  C   UNL     1     -13.174  15.557  73.367  1.00  0.00    -0.481 A  
HETATM   24  C   UNL     1     -11.675  16.094  71.948  1.00  0.00    -0.491 A  
ENDBRANCH  19  20
ENDBRANCH  10  19
ENDBRANCH   9  10
ENDBRANCH   8   9
ENDBRANCH   5   8
TORSDOF 6
ENDMDL
MODEL      116
REMARK 921   NORMALIZED FREE ENERGY PREDICTED BY IDOCK:   -4.67 KCAL/MOL
REMARK 922        TOTAL FREE ENERGY PREDICTED BY IDOCK:   -7.23 KCAL/MOL
REMARK 923 INTER-LIGAND FREE ENERGY PREDICTED BY IDOCK:   -6.68 KCAL/MOL
REMARK 924 INTRA-LIGAND FREE ENERGY PREDICTED BY IDOCK:   -0.54 KCAL/MOL
REMARK 927      BINDING AFFINITY PREDICTED BY RF-SCORE:    0.00 PKD
ROOT
HETATM    1 CL   UNL     1     -12.401  14.495  64.045  1.00  0.00    -0.370 Cl 
HETATM    2  C   UNL     1     -11.595  13.056  64.533  1.00  0.00    -0.360 A  
HETATM    3  C   UNL     1     -11.114  12.172  63.572  1.00  0.00    -0.525 A  
HETATM    4  C   UNL     1     -10.462  10.997  63.971  1.00  0.00    -0.433 A  
HETATM    5  C   UNL     1     -10.299  10.694  65.334  1.00  0.00    -0.303 A  
HETATM    6  C   UNL     1     -10.773  11.611  66.287  1.00  0.00    -0.317 A  
HETATM    7  C   UNL     1     -11.421  12.784  65.888  1.00  0.00    -0.399 A  
ENDROOT
BRANCH   5   8
HETATM    8  C   UNL     1      -9.557   9.440  65.764  1.00  0.00    -0.271 C  
BRANCH   8   9
HETATM    9  S   UNL     1     -10.446   8.669  67.148  1.00  0.00    -0.244 SA 
BRANCH   9  10
HETATM   10  C   UNL     1      -9.225   8.649  68.582  1.00  0.00    -0.138 C  
BRANCH  10  11
HETATM   11  C   UNL     1      -9.259   7.284  69.329  1.00  0.00    -0.144 A  
HETATM   12  C   UNL     1      -9.428   4.816  70.743  1.00  0.00    -0.162 A  
HETATM   13  C   UNL     1      -8.299   6.915  70.299  1.00  0.00    -0.134 A  
HETATM   14  C   UNL     1     -10.282   6.335  69.087  1.00  0.00    -0.229 A  
HETATM   15  C   UNL     1      -8.400   5.711  71.017  1.00  0.00    -0.122 A  
HETATM   16 CL   UNL     1      -9.539   3.330  71.602  1.00  0.00    -0.221 Cl 
HETATM   17 CL   UNL     1      -6.914   7.887  70.661  1.00  0.00    -0.041 Cl 
HETATM   18  C   UNL     1     -10.360   5.116  69.767  1.00  0.00    -0.332 A  
ENDBRANCH  10  11
BRANCH  10  19
HETATM   19  C   UNL     1      -9.395   9.875  69.519  1.00  0.00    -0.220 C  
BRANCH  19  20
HETATM   20  N   UNL     1     -10.645   9.916  70.246  1.00  0.00    -0.284 NA 
HETATM   21  C   UNL     1     -10.923   9.280  71.421  1.00  0.00    -0.359 A  
HETATM   22  N   UNL     1     -12.753  10.396  70.710  1.00  0.00    -0.360 NA 
HETATM   23  C   UNL     1     -12.248   9.539  71.657  1.00  0.00    -0.398 A  
HETATM   24  C   UNL     1     -11.753  10.627  69.890  1.00  0.00    -0.317 A  
ENDBRANCH  19  20
ENDBRANCH  10  19
ENDBRANCH   9  10
ENDBRANCH   8   9
ENDBRANCH   5   8
TORSDOF 6
ENDMDL
MODEL      117
REMARK 921   NORMALIZED FREE ENERGY PREDICTED BY IDOCK:   -4.66 KCAL/MOL
REMARK 922        TOTAL FREE ENERGY PREDICTED BY IDOCK:   -7.22 KCAL/MOL
REMARK 923 INTER-LIGAND FREE ENERGY PREDICTED BY IDOCK:   -6.72 KCAL/MOL
REMARK 924 INTRA-LIGAND FREE ENERGY PREDICTED BY IDOCK:   -0.50 KCAL/MOL
REMARK 927      BINDING AFFINITY PREDICTED BY RF-SCORE:    0.00 PKD
ROOT
HETATM    1 CL   UNL     1     -10.619  20.044  66.556  1.00  0.00    -0.531 Cl 
HETATM    2  C   UNL     1     -10.381  18.426  67.088  1.00  0.00    -0.394 A  
HETATM    3  C   UNL     1     -10.190  18.164  68.442  1.00  0.00    -0.401 A  
HETATM    4  C   UNL     1      -9.990  16.846  68.874  1.00  0.00    -0.279 A  
HETATM    5  C   UNL     1      -9.967  15.784  67.952  1.00  0.00    -0.227 A  
HETATM    6  C   UNL     1     -10.184  16.069  66.594  1.00  0.00    -0.295 A  
HETATM    7  C   UNL     1     -10.386  17.384  66.164  1.00  0.00    -0.329 A  
ENDROOT
BRANCH   5   8
HETATM    8  C   UNL     1      -9.792  14.351  68.427  1.00  0.00    -0.234 C  
BRANCH   8   9
HETATM    9  S   UNL     1     -11.163  13.343  67.791  1.00  0.00    -0.294 SA 
BRANCH   9  10
HETATM   10  C   UNL     1     -10.578  11.557  67.924  1.00  0.00    -0.191 C  
BRANCH  10  11
HETATM   11  C   UNL     1     -11.246  10.836  69.130  1.00  0.00    -0.323 A  
HETATM   12  C   UNL     1     -12.413   9.593  71.413  1.00  0.00    -0.373 A  
HETATM   13  C   UNL     1     -11.009   9.477  69.440  1.00  0.00    -0.170 A  
HETATM   14  C   UNL     1     -12.123  11.521  70.006  1.00  0.00    -0.408 A  
HETATM   15  C   UNL     1     -11.562   8.873  70.583  1.00  0.00    -0.251 A  
HETATM   16 CL   UNL     1     -13.111   8.849  72.798  1.00  0.00    -0.353 Cl 
HETATM   17 CL   UNL     1     -10.055   8.442  68.434  1.00  0.00    -0.212 Cl 
HETATM   18  C   UNL     1     -12.710  10.910  71.118  1.00  0.00    -0.530 A  
ENDBRANCH  10  11
BRANCH  10  19
HETATM   19  C   UNL     1      -9.030  11.440  67.908  1.00  0.00    -0.153 C  
BRANCH  19  20
HETATM   20  N   UNL     1      -8.472  10.946  66.667  1.00  0.00    -0.145 NA 
HETATM   21  C   UNL     1      -9.149  10.720  65.504  1.00  0.00    -0.199 A  
HETATM   22  N   UNL     1      -6.979  10.151  65.243  1.00  0.00    -0.133 NA 
HETATM   23  C   UNL     1      -8.221  10.171  64.658  1.00  0.00    -0.165 A  
HETATM   24  C   UNL     1      -7.158  10.652  66.444  1.00  0.00    -0.134 A  
ENDBRANCH  19  20
ENDBRANCH  10  19
ENDBRANCH   9  10
ENDBRANCH   8   9
ENDBRANCH   5   8
TORSDOF 6
ENDMDL
MODEL      118
REMARK 921   NORMALIZED FREE ENERGY PREDICTED BY IDOCK:   -4.66 KCAL/MOL
REMARK 922        TOTAL FREE ENERGY PREDICTED BY IDOCK:   -7.22 KCAL/MOL
REMARK 923 INTER-LIGAND FREE ENERGY PREDICTED BY IDOCK:   -7.69 KCAL/MOL
REMARK 924 INTRA-LIGAND FREE ENERGY PREDICTED BY IDOCK:    0.47 KCAL/MOL
REMARK 927      BINDING AFFINITY PREDICTED BY RF-SCORE:    0.00 PKD
ROOT
HETATM    1 CL   UNL     1     -13.006  11.731  63.110  1.00  0.00    -0.307 Cl 
HETATM    2  C   UNL     1     -11.888  12.696  63.991  1.00  0.00    -0.431 A  
HETATM    3  C   UNL     1     -10.693  12.139  64.438  1.00  0.00    -0.366 A  
HETATM    4  C   UNL     1      -9.786  12.925  65.161  1.00  0.00    -0.087 A  
HETATM    5  C   UNL     1     -10.074  14.270  65.453  1.00  0.00    -0.379 A  
HETATM    6  C   UNL     1     -11.276  14.818  64.973  1.00  0.00    -0.399 A  
HETATM    7  C   UNL     1     -12.180  14.033  64.250  1.00  0.00    -0.453 A  
ENDROOT
BRANCH   5   8
HETATM    8  C   UNL     1      -9.072  15.131  66.201  1.00  0.00    -0.241 C  
BRANCH   8   9
HETATM    9  S   UNL     1      -8.862  14.474  67.882  1.00  0.00    -0.185 SA 
BRANCH   9  10
HETATM   10  C   UNL     1      -9.573  15.788  69.029  1.00  0.00    -0.243 C  
BRANCH  10  11
HETATM   11  C   UNL     1     -10.819  15.251  69.794  1.00  0.00    -0.300 A  
HETATM   12  C   UNL     1     -13.041  14.295  71.298  1.00  0.00    -0.355 A  
HETATM   13  C   UNL     1     -11.251  13.908  69.709  1.00  0.00    -0.089 A  
HETATM   14  C   UNL     1     -11.581  16.089  70.643  1.00  0.00    -0.409 A  
HETATM   15  C   UNL     1     -12.329  13.431  70.475  1.00  0.00    -0.401 A  
HETATM   16 CL   UNL     1     -14.377  13.719  72.215  1.00  0.00    -0.575 Cl 
HETATM   17 CL   UNL     1     -10.519  12.755  68.647  1.00  0.00    -0.249 Cl 
HETATM   18  C   UNL     1     -12.682  15.628  71.371  1.00  0.00    -0.535 A  
ENDBRANCH  10  11
BRANCH  10  19
HETATM   19  C   UNL     1      -9.823  17.135  68.300  1.00  0.00    -0.288 C  
BRANCH  19  20
HETATM   20  N   UNL     1      -8.717  18.067  68.349  1.00  0.00    -0.289 NA 
HETATM   21  C   UNL     1      -8.801  19.427  68.431  1.00  0.00    -0.352 A  
HETATM   22  N   UNL     1      -6.632  18.805  68.325  1.00  0.00    -0.221 NA 
HETATM   23  C   UNL     1      -7.505  19.865  68.351  1.00  0.00    -0.277 A  
HETATM   24  C   UNL     1      -7.393  17.735  68.354  1.00  0.00    -0.257 A  
ENDBRANCH  19  20
ENDBRANCH  10  19
ENDBRANCH   9  10
ENDBRANCH   8   9
ENDBRANCH   5   8
TORSDOF 6
ENDMDL
MODEL      119
REMARK 921   NORMALIZED FREE ENERGY PREDICTED BY IDOCK:   -4.65 KCAL/MOL
REMARK 922        TOTAL FREE ENERGY PREDICTED BY IDOCK:   -7.20 KCAL/MOL
REMARK 923 INTER-LIGAND FREE ENERGY PREDICTED BY IDOCK:   -6.44 KCAL/MOL
REMARK 924 INTRA-LIGAND FREE ENERGY PREDICTED BY IDOCK:   -0.76 KCAL/MOL
REMARK 927      BINDING AFFINITY PREDICTED BY RF-SCORE:    0.00 PKD
ROOT
HETATM    1 CL   UNL     1      -7.666   6.978  63.023  1.00  0.00    -0.110 Cl 
HETATM    2  C   UNL     1      -8.248   8.168  64.120  1.00  0.00    -0.080 A  
HETATM    3  C   UNL     1      -8.677   9.402  63.640  1.00  0.00    -0.222 A  
HETATM    4  C   UNL     1      -9.145  10.373  64.536  1.00  0.00    -0.263 A  
HETATM    5  C   UNL     1      -9.174  10.120  65.919  1.00  0.00    -0.203 A  
HETATM    6  C   UNL     1      -8.757   8.860  66.379  1.00  0.00    -0.148 A  
HETATM    7  C   UNL     1      -8.292   7.891  65.484  1.00  0.00    -0.152 A  
ENDROOT
BRANCH   5   8
HETATM    8  C   UNL     1      -9.719  11.158  66.884  1.00  0.00    -0.191 C  
BRANCH   8   9
HETATM    9  S   UNL     1     -11.155  10.464  67.755  1.00  0.00    -0.236 SA 
BRANCH   9  10
HETATM   10  C   UNL     1     -11.062  11.149  69.507  1.00  0.00    -0.252 C  
BRANCH  10  11
HETATM   11  C   UNL     1     -10.930  10.002  70.551  1.00  0.00    -0.392 A  
HETATM   12  C   UNL     1     -10.724   7.982  72.549  1.00  0.00    -0.341 A  
HETATM   13  C   UNL     1      -9.702   9.363  70.838  1.00  0.00    -0.250 A  
HETATM   14  C   UNL     1     -12.047   9.550  71.295  1.00  0.00    -0.443 A  
HETATM   15  C   UNL     1      -9.596   8.387  71.845  1.00  0.00    -0.324 A  
HETATM   16 CL   UNL     1     -10.602   6.770  73.764  1.00  0.00    -0.362 Cl 
HETATM   17 CL   UNL     1      -8.247   9.698  69.965  1.00  0.00    -0.179 Cl 
HETATM   18  C   UNL     1     -11.953   8.547  72.265  1.00  0.00    -0.454 A  
ENDBRANCH  10  11
BRANCH  10  19
HETATM   19  C   UNL     1     -12.214  12.142  69.814  1.00  0.00    -0.144 C  
BRANCH  19  20
HETATM   20  N   UNL     1     -11.940  13.518  69.459  1.00  0.00    -0.330 NA 
HETATM   21  C   UNL     1     -11.796  14.567  70.321  1.00  0.00    -0.308 A  
HETATM   22  N   UNL     1     -11.597  15.299  68.194  1.00  0.00    -0.345 NA 
HETATM   23  C   UNL     1     -11.647  15.666  69.517  1.00  0.00    -0.357 A  
HETATM   24  C   UNL     1     -11.747  13.994  68.195  1.00  0.00    -0.352 A  
ENDBRANCH  19  20
ENDBRANCH  10  19
ENDBRANCH   9  10
ENDBRANCH   8   9
ENDBRANCH   5   8
TORSDOF 6
ENDMDL
MODEL      120
REMARK 921   NORMALIZED FREE ENERGY PREDICTED BY IDOCK:   -4.61 KCAL/MOL
REMARK 922        TOTAL FREE ENERGY PREDICTED BY IDOCK:   -7.14 KCAL/MOL
REMARK 923 INTER-LIGAND FREE ENERGY PREDICTED BY IDOCK:   -6.48 KCAL/MOL
REMARK 924 INTRA-LIGAND FREE ENERGY PREDICTED BY IDOCK:   -0.67 KCAL/MOL
REMARK 927      BINDING AFFINITY PREDICTED BY RF-SCORE:    0.00 PKD
ROOT
HETATM    1 CL   UNL     1     -13.877  15.942  72.944  1.00  0.00    -0.640 Cl 
HETATM    2  C   UNL     1     -13.274  14.607  72.041  1.00  0.00    -0.351 A  
HETATM    3  C   UNL     1     -12.504  14.833  70.903  1.00  0.00    -0.396 A  
HETATM    4  C   UNL     1     -12.019  13.745  70.165  1.00  0.00    -0.404 A  
HETATM    5  C   UNL     1     -12.312  12.425  70.553  1.00  0.00    -0.346 A  
HETATM    6  C   UNL     1     -13.073  12.221  71.716  1.00  0.00    -0.449 A  
HETATM    7  C   UNL     1     -13.555  13.307  72.454  1.00  0.00    -0.694 A  
ENDROOT
BRANCH   5   8
HETATM    8  C   UNL     1     -11.751  11.247  69.775  1.00  0.00    -0.349 C  
BRANCH   8   9
HETATM    9  S   UNL     1     -11.524   9.843  70.905  1.00  0.00    -0.397 SA 
BRANCH   9  10
HETATM   10  C   UNL     1     -10.145   8.807  70.150  1.00  0.00    -0.187 C  
BRANCH  10  11
HETATM   11  C   UNL     1     -10.146   7.362  70.731  1.00  0.00    -0.190 A  
HETATM   12  C   UNL     1     -10.030   4.734  71.824  1.00  0.00    -0.190 A  
HETATM   13  C   UNL     1     -10.393   6.217  69.941  1.00  0.00    -0.196 A  
HETATM   14  C   UNL     1      -9.872   7.117  72.099  1.00  0.00    -0.171 A  
HETATM   15  C   UNL     1     -10.307   4.919  70.474  1.00  0.00    -0.242 A  
HETATM   16 CL   UNL     1      -9.949   3.148  72.485  1.00  0.00    -0.217 Cl 
HETATM   17 CL   UNL     1     -10.849   6.312  68.274  1.00  0.00    -0.358 Cl 
HETATM   18  C   UNL     1      -9.831   5.830  72.643  1.00  0.00    -0.183 A  
ENDBRANCH  10  11
BRANCH  10  19
HETATM   19  C   UNL     1      -8.764   9.511  70.234  1.00  0.00    -0.235 C  
BRANCH  19  20
HETATM   20  N   UNL     1      -7.664   8.759  69.668  1.00  0.00    -0.085 NA 
HETATM   21  C   UNL     1      -7.439   8.520  68.343  1.00  0.00    -0.095 A  
HETATM   22  N   UNL     1      -5.843   7.507  69.580  1.00  0.00    -0.023 NA 
HETATM   23  C   UNL     1      -6.346   7.694  68.316  1.00  0.00    -0.041 A  
HETATM   24  C   UNL     1      -6.644   8.187  70.370  1.00  0.00    -0.036 A  
ENDBRANCH  19  20
ENDBRANCH  10  19
ENDBRANCH   9  10
ENDBRANCH   8   9
ENDBRANCH   5   8
TORSDOF 6
ENDMDL
MODEL      121
REMARK 921   NORMALIZED FREE ENERGY PREDICTED BY IDOCK:   -4.60 KCAL/MOL
REMARK 922        TOTAL FREE ENERGY PREDICTED BY IDOCK:   -7.13 KCAL/MOL
REMARK 923 INTER-LIGAND FREE ENERGY PREDICTED BY IDOCK:   -6.57 KCAL/MOL
REMARK 924 INTRA-LIGAND FREE ENERGY PREDICTED BY IDOCK:   -0.56 KCAL/MOL
REMARK 927      BINDING AFFINITY PREDICTED BY RF-SCORE:    0.00 PKD
ROOT
HETATM    1 CL   UNL     1      -8.528   4.542  66.884  1.00  0.00    -0.105 Cl 
HETATM    2  C   UNL     1      -8.373   6.250  66.751  1.00  0.00    -0.110 A  
HETATM    3  C   UNL     1      -9.507   7.036  66.564  1.00  0.00    -0.199 A  
HETATM    4  C   UNL     1      -9.379   8.427  66.450  1.00  0.00    -0.274 A  
HETATM    5  C   UNL     1      -8.114   9.038  66.508  1.00  0.00    -0.111 A  
HETATM    6  C   UNL     1      -6.986   8.228  66.719  1.00  0.00    -0.070 A  
HETATM    7  C   UNL     1      -7.115   6.841  66.835  1.00  0.00    -0.075 A  
ENDROOT
BRANCH   5   8
HETATM    8  C   UNL     1      -7.981  10.550  66.424  1.00  0.00    -0.137 C  
BRANCH   8   9
HETATM    9  S   UNL     1      -8.512  11.280  68.001  1.00  0.00    -0.145 SA 
BRANCH   9  10
HETATM   10  C   UNL     1      -9.942  12.426  67.568  1.00  0.00    -0.196 C  
BRANCH  10  11
HETATM   11  C   UNL     1     -10.942  12.549  68.756  1.00  0.00    -0.294 A  
HETATM   12  C   UNL     1     -12.684  12.829  70.992  1.00  0.00    -0.243 A  
HETATM   13  C   UNL     1     -11.488  11.426  69.418  1.00  0.00    -0.310 A  
HETATM   14  C   UNL     1     -11.344  13.812  69.254  1.00  0.00    -0.325 A  
HETATM   15  C   UNL     1     -12.324  11.565  70.540  1.00  0.00    -0.432 A  
HETATM   16 CL   UNL     1     -13.728  13.002  72.348  1.00  0.00    -0.658 Cl 
HETATM   17 CL   UNL     1     -11.203   9.802  68.895  1.00  0.00    -0.136 Cl 
HETATM   18  C   UNL     1     -12.212  13.954  70.342  1.00  0.00    -0.438 A  
ENDBRANCH  10  11
BRANCH  10  19
HETATM   19  C   UNL     1     -10.617  12.047  66.223  1.00  0.00    -0.252 C  
BRANCH  19  20
HETATM   20  N   UNL     1     -11.217  13.155  65.512  1.00  0.00    -0.280 NA 
HETATM   21  C   UNL     1     -10.685  14.402  65.351  1.00  0.00    -0.348 A  
HETATM   22  N   UNL     1     -12.719  14.311  64.372  1.00  0.00    -0.636 NA 
HETATM   23  C   UNL     1     -11.656  15.117  64.699  1.00  0.00    -0.357 A  
HETATM   24  C   UNL     1     -12.410  13.127  64.851  1.00  0.00    -0.441 A  
ENDBRANCH  19  20
ENDBRANCH  10  19
ENDBRANCH   9  10
ENDBRANCH   8   9
ENDBRANCH   5   8
TORSDOF 6
ENDMDL
MODEL      122
REMARK 921   NORMALIZED FREE ENERGY PREDICTED BY IDOCK:   -4.60 KCAL/MOL
REMARK 922        TOTAL FREE ENERGY PREDICTED BY IDOCK:   -7.13 KCAL/MOL
REMARK 923 INTER-LIGAND FREE ENERGY PREDICTED BY IDOCK:   -6.33 KCAL/MOL
REMARK 924 INTRA-LIGAND FREE ENERGY PREDICTED BY IDOCK:   -0.80 KCAL/MOL
REMARK 927      BINDING AFFINITY PREDICTED BY RF-SCORE:    0.00 PKD
ROOT
HETATM    1 CL   UNL     1     -11.293  12.086  63.438  1.00  0.00    -0.495 Cl 
HETATM    2  C   UNL     1     -10.716  11.590  64.981  1.00  0.00    -0.290 A  
HETATM    3  C   UNL     1      -9.925  10.449  65.091  1.00  0.00    -0.390 A  
HETATM    4  C   UNL     1      -9.461  10.044  66.350  1.00  0.00    -0.235 A  
HETATM    5  C   UNL     1      -9.795  10.769  67.507  1.00  0.00    -0.197 A  
HETATM    6  C   UNL     1     -10.575  11.930  67.369  1.00  0.00    -0.257 A  
HETATM    7  C   UNL     1     -11.036  12.335  66.113  1.00  0.00    -0.349 A  
ENDROOT
BRANCH   5   8
HETATM    8  C   UNL     1      -9.257  10.351  68.865  1.00  0.00    -0.177 C  
BRANCH   8   9
HETATM    9  S   UNL     1     -10.613   9.652  69.851  1.00  0.00    -0.268 SA 
BRANCH   9  10
HETATM   10  C   UNL     1     -10.043   7.923  70.336  1.00  0.00    -0.194 C  
BRANCH  10  11
HETATM   11  C   UNL     1     -10.035   6.969  69.106  1.00  0.00    -0.165 A  
HETATM   12  C   UNL     1     -10.135   5.194  66.880  1.00  0.00    -0.226 A  
HETATM   13  C   UNL     1      -9.185   5.844  69.014  1.00  0.00    -0.124 A  
HETATM   14  C   UNL     1     -10.908   7.171  68.010  1.00  0.00    -0.193 A  
HETATM   15  C   UNL     1      -9.256   4.952  67.929  1.00  0.00    -0.142 A  
HETATM   16 CL   UNL     1     -10.206   4.119  65.539  1.00  0.00    -0.202 Cl 
HETATM   17 CL   UNL     1      -7.975   5.485  70.198  1.00  0.00    -0.088 Cl 
HETATM   18  C   UNL     1     -10.949   6.311  66.908  1.00  0.00    -0.404 A  
ENDBRANCH  10  11
BRANCH  10  19
HETATM   19  C   UNL     1     -10.827   7.364  71.554  1.00  0.00    -0.224 C  
BRANCH  19  20
HETATM   20  N   UNL     1     -12.174   7.874  71.695  1.00  0.00    -0.297 NA 
HETATM   21  C   UNL     1     -12.547   9.014  72.346  1.00  0.00    -0.333 A  
HETATM   22  N   UNL     1     -14.378   7.966  71.537  1.00  0.00    -0.446 NA 
HETATM   23  C   UNL     1     -13.917   9.019  72.290  1.00  0.00    -0.455 A  
HETATM   24  C   UNL     1     -13.300   7.312  71.169  1.00  0.00    -0.181 A  
ENDBRANCH  19  20
ENDBRANCH  10  19
ENDBRANCH   9  10
ENDBRANCH   8   9
ENDBRANCH   5   8
TORSDOF 6
ENDMDL
MODEL      123
REMARK 921   NORMALIZED FREE ENERGY PREDICTED BY IDOCK:   -4.58 KCAL/MOL
REMARK 922        TOTAL FREE ENERGY PREDICTED BY IDOCK:   -7.11 KCAL/MOL
REMARK 923 INTER-LIGAND FREE ENERGY PREDICTED BY IDOCK:   -5.23 KCAL/MOL
REMARK 924 INTRA-LIGAND FREE ENERGY PREDICTED BY IDOCK:   -1.88 KCAL/MOL
REMARK 927      BINDING AFFINITY PREDICTED BY RF-SCORE:    0.00 PKD
ROOT
HETATM    1 CL   UNL     1      -9.615   4.885  73.269  1.00  0.00    -0.141 Cl 
HETATM    2  C   UNL     1     -10.527   6.188  72.614  1.00  0.00    -0.208 A  
HETATM    3  C   UNL     1     -10.434   7.455  73.185  1.00  0.00    -0.406 A  
HETATM    4  C   UNL     1     -11.182   8.513  72.654  1.00  0.00    -0.229 A  
HETATM    5  C   UNL     1     -12.039   8.309  71.557  1.00  0.00    -0.335 A  
HETATM    6  C   UNL     1     -12.100   7.028  70.984  1.00  0.00    -0.413 A  
HETATM    7  C   UNL     1     -11.351   5.972  71.513  1.00  0.00    -0.309 A  
ENDROOT
BRANCH   5   8
HETATM    8  C   UNL     1     -12.818   9.467  70.958  1.00  0.00    -0.221 C  
BRANCH   8   9
HETATM    9  S   UNL     1     -11.658  10.786  70.493  1.00  0.00    -0.281 SA 
BRANCH   9  10
HETATM   10  C   UNL     1     -10.794  10.171  68.936  1.00  0.00    -0.223 C  
BRANCH  10  11
HETATM   11  C   UNL     1      -9.734   9.082  69.275  1.00  0.00    -0.168 A  
HETATM   12  C   UNL     1      -7.708   7.169  69.865  1.00  0.00    -0.108 A  
HETATM   13  C   UNL     1      -9.647   7.854  68.581  1.00  0.00    -0.155 A  
HETATM   14  C   UNL     1      -8.775   9.279  70.297  1.00  0.00    -0.246 A  
HETATM   15  C   UNL     1      -8.629   6.923  68.853  1.00  0.00    -0.131 A  
HETATM   16 CL   UNL     1      -6.477   6.020  70.217  1.00  0.00    -0.038 Cl 
HETATM   17 CL   UNL     1     -10.791   7.379  67.372  1.00  0.00    -0.331 Cl 
HETATM   18  C   UNL     1      -7.788   8.336  70.601  1.00  0.00    -0.092 A  
ENDBRANCH  10  11
BRANCH  10  19
HETATM   19  C   UNL     1     -10.238  11.334  68.071  1.00  0.00    -0.183 C  
BRANCH  19  20
HETATM   20  N   UNL     1      -9.689  10.931  66.794  1.00  0.00    -0.186 NA 
HETATM   21  C   UNL     1     -10.388  10.467  65.718  1.00  0.00    -0.200 A  
HETATM   22  N   UNL     1      -8.180  10.473  65.244  1.00  0.00    -0.162 NA 
HETATM   23  C   UNL     1      -9.432  10.131  64.795  1.00  0.00    -0.295 A  
HETATM   24  C   UNL     1      -8.372  10.980  66.441  1.00  0.00    -0.165 A  
ENDBRANCH  19  20
ENDBRANCH  10  19
ENDBRANCH   9  10
ENDBRANCH   8   9
ENDBRANCH   5   8
TORSDOF 6
ENDMDL
MODEL      124
REMARK 921   NORMALIZED FREE ENERGY PREDICTED BY IDOCK:   -4.57 KCAL/MOL
REMARK 922        TOTAL FREE ENERGY PREDICTED BY IDOCK:   -7.10 KCAL/MOL
REMARK 923 INTER-LIGAND FREE ENERGY PREDICTED BY IDOCK:   -6.49 KCAL/MOL
REMARK 924 INTRA-LIGAND FREE ENERGY PREDICTED BY IDOCK:   -0.61 KCAL/MOL
REMARK 927      BINDING AFFINITY PREDICTED BY RF-SCORE:    0.00 PKD
ROOT
HETATM    1 CL   UNL     1      -7.768   9.273  62.357  1.00  0.00    -0.114 Cl 
HETATM    2  C   UNL     1      -8.242   9.495  63.996  1.00  0.00    -0.160 A  
HETATM    3  C   UNL     1      -7.834   8.582  64.965  1.00  0.00    -0.112 A  
HETATM    4  C   UNL     1      -8.226   8.761  66.298  1.00  0.00    -0.115 A  
HETATM    5  C   UNL     1      -9.038   9.847  66.669  1.00  0.00    -0.171 A  
HETATM    6  C   UNL     1      -9.419  10.768  65.679  1.00  0.00    -0.250 A  
HETATM    7  C   UNL     1      -9.026  10.590  64.349  1.00  0.00    -0.232 A  
ENDROOT
BRANCH   5   8
HETATM    8  C   UNL     1      -9.428  10.062  68.122  1.00  0.00    -0.138 C  
BRANCH   8   9
HETATM    9  S   UNL     1     -11.239  10.112  68.249  1.00  0.00    -0.112 SA 
BRANCH   9  10
HETATM   10  C   UNL     1     -11.616  10.060  70.094  1.00  0.00    -0.252 C  
BRANCH  10  11
HETATM   11  C   UNL     1     -12.162  11.430  70.594  1.00  0.00    -0.484 A  
HETATM   12  C   UNL     1     -13.046  13.971  71.529  1.00  0.00    -0.363 A  
HETATM   13  C   UNL     1     -13.007  11.555  71.719  1.00  0.00    -0.394 A  
HETATM   14  C   UNL     1     -11.815  12.642  69.948  1.00  0.00    -0.364 A  
HETATM   15  C   UNL     1     -13.419  12.811  72.198  1.00  0.00    -0.591 A  
HETATM   16 CL   UNL     1     -13.569  15.508  72.097  1.00  0.00    -0.558 Cl 
HETATM   17 CL   UNL     1     -13.628  10.187  72.579  1.00  0.00    -0.157 Cl 
HETATM   18  C   UNL     1     -12.261  13.890  70.395  1.00  0.00    -0.438 A  
ENDBRANCH  10  11
BRANCH  10  19
HETATM   19  C   UNL     1     -10.419   9.525  70.926  1.00  0.00    -0.312 C  
BRANCH  19  20
HETATM   20  N   UNL     1     -10.559   8.159  71.380  1.00  0.00    -0.215 NA 
HETATM   21  C   UNL     1     -11.433   7.700  72.323  1.00  0.00    -0.317 A  
HETATM   22  N   UNL     1     -10.154   5.994  71.579  1.00  0.00    -0.188 NA 
HETATM   23  C   UNL     1     -11.123   6.374  72.476  1.00  0.00    -0.263 A  
HETATM   24  C   UNL     1      -9.856   7.086  70.914  1.00  0.00    -0.185 A  
ENDBRANCH  19  20
ENDBRANCH  10  19
ENDBRANCH   9  10
ENDBRANCH   8   9
ENDBRANCH   5   8
TORSDOF 6
ENDMDL
MODEL      125
REMARK 921   NORMALIZED FREE ENERGY PREDICTED BY IDOCK:   -4.56 KCAL/MOL
REMARK 922        TOTAL FREE ENERGY PREDICTED BY IDOCK:   -7.08 KCAL/MOL
REMARK 923 INTER-LIGAND FREE ENERGY PREDICTED BY IDOCK:   -7.07 KCAL/MOL
REMARK 924 INTRA-LIGAND FREE ENERGY PREDICTED BY IDOCK:   -0.01 KCAL/MOL
REMARK 927      BINDING AFFINITY PREDICTED BY RF-SCORE:    0.00 PKD
ROOT
HETATM    1 CL   UNL     1      -8.302   7.869  63.868  1.00  0.00    -0.005 Cl 
HETATM    2  C   UNL     1      -8.939   9.427  64.224  1.00  0.00    -0.160 A  
HETATM    3  C   UNL     1      -9.085   9.829  65.549  1.00  0.00    -0.242 A  
HETATM    4  C   UNL     1      -9.609  11.096  65.838  1.00  0.00    -0.250 A  
HETATM    5  C   UNL     1     -10.003  11.964  64.804  1.00  0.00    -0.262 A  
HETATM    6  C   UNL     1      -9.826  11.546  63.474  1.00  0.00    -0.407 A  
HETATM    7  C   UNL     1      -9.300  10.282  63.187  1.00  0.00    -0.343 A  
ENDROOT
BRANCH   5   8
HETATM    8  C   UNL     1     -10.533  13.352  65.118  1.00  0.00    -0.347 C  
BRANCH   8   9
HETATM    9  S   UNL     1     -11.593  13.263  66.591  1.00  0.00    -0.385 SA 
BRANCH   9  10
HETATM   10  C   UNL     1     -10.413  13.143  68.054  1.00  0.00    -0.239 C  
BRANCH  10  11
HETATM   11  C   UNL     1     -10.964  12.175  69.141  1.00  0.00    -0.215 A  
HETATM   12  C   UNL     1     -12.017  10.332  71.042  1.00  0.00    -0.385 A  
HETATM   13  C   UNL     1     -11.932  12.562  70.095  1.00  0.00    -0.301 A  
HETATM   14  C   UNL     1     -10.532  10.828  69.217  1.00  0.00    -0.243 A  
HETATM   15  C   UNL     1     -12.473  11.645  71.013  1.00  0.00    -0.436 A  
HETATM   16 CL   UNL     1     -12.658   9.214  72.181  1.00  0.00    -0.451 Cl 
HETATM   17 CL   UNL     1     -12.509  14.188  70.235  1.00  0.00    -0.415 Cl 
HETATM   18  C   UNL     1     -11.035   9.925  70.159  1.00  0.00    -0.356 A  
ENDBRANCH  10  11
BRANCH  10  19
HETATM   19  C   UNL     1     -10.014  14.538  68.607  1.00  0.00    -0.237 C  
BRANCH  19  20
HETATM   20  N   UNL     1      -9.611  15.497  67.600  1.00  0.00    -0.210 NA 
HETATM   21  C   UNL     1      -8.414  15.533  66.945  1.00  0.00    -0.254 A  
HETATM   22  N   UNL     1      -9.705  17.258  66.266  1.00  0.00    -0.361 NA 
HETATM   23  C   UNL     1      -8.470  16.664  66.173  1.00  0.00    -0.273 A  
HETATM   24  C   UNL     1     -10.380  16.513  67.113  1.00  0.00    -0.298 A  
ENDBRANCH  19  20
ENDBRANCH  10  19
ENDBRANCH   9  10
ENDBRANCH   8   9
ENDBRANCH   5   8
TORSDOF 6
ENDMDL
MODEL      126
REMARK 921   NORMALIZED FREE ENERGY PREDICTED BY IDOCK:   -4.54 KCAL/MOL
REMARK 922        TOTAL FREE ENERGY PREDICTED BY IDOCK:   -7.05 KCAL/MOL
REMARK 923 INTER-LIGAND FREE ENERGY PREDICTED BY IDOCK:   -5.74 KCAL/MOL
REMARK 924 INTRA-LIGAND FREE ENERGY PREDICTED BY IDOCK:   -1.31 KCAL/MOL
REMARK 927      BINDING AFFINITY PREDICTED BY RF-SCORE:    0.00 PKD
ROOT
HETATM    1 CL   UNL     1      -6.124  14.147  70.339  1.00  0.00    -0.170 Cl 
HETATM    2  C   UNL     1      -6.300  12.831  69.245  1.00  0.00    -0.108 A  
HETATM    3  C   UNL     1      -6.500  11.544  69.736  1.00  0.00    -0.125 A  
HETATM    4  C   UNL     1      -6.637  10.473  68.843  1.00  0.00    -0.054 A  
HETATM    5  C   UNL     1      -6.563  10.681  67.454  1.00  0.00    -0.071 A  
HETATM    6  C   UNL     1      -6.383  11.991  66.981  1.00  0.00    -0.124 A  
HETATM    7  C   UNL     1      -6.248  13.060  67.872  1.00  0.00    -0.134 A  
ENDROOT
BRANCH   5   8
HETATM    8  C   UNL     1      -6.753   9.524  66.487  1.00  0.00    -0.075 C  
BRANCH   8   9
HETATM    9  S   UNL     1      -7.552  10.140  64.976  1.00  0.00    -0.128 SA 
BRANCH   9  10
HETATM   10  C   UNL     1      -9.281  10.670  65.500  1.00  0.00    -0.196 C  
BRANCH  10  11
HETATM   11  C   UNL     1      -9.771   9.850  66.730  1.00  0.00    -0.244 A  
HETATM   12  C   UNL     1     -10.765   8.319  68.917  1.00  0.00    -0.062 A  
HETATM   13  C   UNL     1     -10.070  10.443  67.978  1.00  0.00    -0.163 A  
HETATM   14  C   UNL     1      -9.965   8.450  66.653  1.00  0.00    -0.354 A  
HETATM   15  C   UNL     1     -10.588   9.691  69.046  1.00  0.00    -0.237 A  
HETATM   16 CL   UNL     1     -11.375   7.392  70.231  1.00  0.00    -0.275 Cl 
HETATM   17 CL   UNL     1      -9.799  12.120  68.305  1.00  0.00    -0.210 Cl 
HETATM   18  C   UNL     1     -10.437   7.692  67.729  1.00  0.00    -0.282 A  
ENDBRANCH  10  11
BRANCH  10  19
HETATM   19  C   UNL     1     -10.283  10.672  64.315  1.00  0.00    -0.320 C  
BRANCH  19  20
HETATM   20  N   UNL     1     -11.057  11.887  64.177  1.00  0.00    -0.348 NA 
HETATM   21  C   UNL     1     -10.707  13.130  64.621  1.00  0.00    -0.380 A  
HETATM   22  N   UNL     1     -12.748  13.215  63.658  1.00  0.00    -0.701 NA 
HETATM   23  C   UNL     1     -11.792  13.921  64.346  1.00  0.00    -0.429 A  
HETATM   24  C   UNL     1     -12.262  11.999  63.546  1.00  0.00    -0.547 A  
ENDBRANCH  19  20
ENDBRANCH  10  19
ENDBRANCH   9  10
ENDBRANCH   8   9
ENDBRANCH   5   8
TORSDOF 6
ENDMDL
MODEL      127
REMARK 921   NORMALIZED FREE ENERGY PREDICTED BY IDOCK:   -4.53 KCAL/MOL
REMARK 922        TOTAL FREE ENERGY PREDICTED BY IDOCK:   -7.05 KCAL/MOL
REMARK 923 INTER-LIGAND FREE ENERGY PREDICTED BY IDOCK:   -6.12 KCAL/MOL
REMARK 924 INTRA-LIGAND FREE ENERGY PREDICTED BY IDOCK:   -0.93 KCAL/MOL
REMARK 927      BINDING AFFINITY PREDICTED BY RF-SCORE:    0.00 PKD
ROOT
HETATM    1 CL   UNL     1     -11.892  14.304  64.310  1.00  0.00    -0.425 Cl 
HETATM    2  C   UNL     1     -11.082  12.850  64.745  1.00  0.00    -0.309 A  
HETATM    3  C   UNL     1     -10.935  11.832  63.807  1.00  0.00    -0.500 A  
HETATM    4  C   UNL     1     -10.280  10.646  64.165  1.00  0.00    -0.365 A  
HETATM    5  C   UNL     1      -9.779  10.466  65.466  1.00  0.00    -0.307 A  
HETATM    6  C   UNL     1      -9.918  11.515  66.390  1.00  0.00    -0.241 A  
HETATM    7  C   UNL     1     -10.571  12.700  66.031  1.00  0.00    -0.294 A  
ENDROOT
BRANCH   5   8
HETATM    8  C   UNL     1      -9.033   9.196  65.840  1.00  0.00    -0.189 C  
BRANCH   8   9
HETATM    9  S   UNL     1     -10.133   8.126  66.812  1.00  0.00    -0.283 SA 
BRANCH   9  10
HETATM   10  C   UNL     1      -9.480   8.203  68.577  1.00  0.00    -0.143 C  
BRANCH  10  11
HETATM   11  C   UNL     1     -10.634   8.451  69.592  1.00  0.00    -0.219 A  
HETATM   12  C   UNL     1     -12.670   8.971  71.516  1.00  0.00    -0.339 A  
HETATM   13  C   UNL     1     -11.254   7.409  70.319  1.00  0.00    -0.247 A  
HETATM   14  C   UNL     1     -11.115   9.756  69.859  1.00  0.00    -0.293 A  
HETATM   15  C   UNL     1     -12.237   7.670  71.289  1.00  0.00    -0.339 A  
HETATM   16 CL   UNL     1     -13.891   9.290  72.685  1.00  0.00    -0.460 Cl 
HETATM   17 CL   UNL     1     -10.883   5.739  70.060  1.00  0.00    -0.406 Cl 
HETATM   18  C   UNL     1     -12.125  10.014  70.791  1.00  0.00    -0.418 A  
ENDBRANCH  10  11
BRANCH  10  19
HETATM   19  C   UNL     1      -8.296   9.196  68.725  1.00  0.00    -0.121 C  
BRANCH  19  20
HETATM   20  N   UNL     1      -7.222   8.737  69.580  1.00  0.00    -0.058 NA 
HETATM   21  C   UNL     1      -7.099   7.496  70.135  1.00  0.00    -0.060 A  
HETATM   22  N   UNL     1      -5.374   8.797  70.793  1.00  0.00    -0.027 NA 
HETATM   23  C   UNL     1      -5.985   7.574  70.929  1.00  0.00    -0.035 A  
HETATM   24  C   UNL     1      -6.129   9.464  69.949  1.00  0.00    -0.039 A  
ENDBRANCH  19  20
ENDBRANCH  10  19
ENDBRANCH   9  10
ENDBRANCH   8   9
ENDBRANCH   5   8
TORSDOF 6
ENDMDL
MODEL      128
REMARK 921   NORMALIZED FREE ENERGY PREDICTED BY IDOCK:   -4.53 KCAL/MOL
REMARK 922        TOTAL FREE ENERGY PREDICTED BY IDOCK:   -7.04 KCAL/MOL
REMARK 923 INTER-LIGAND FREE ENERGY PREDICTED BY IDOCK:   -5.87 KCAL/MOL
REMARK 924 INTRA-LIGAND FREE ENERGY PREDICTED BY IDOCK:   -1.17 KCAL/MOL
REMARK 927      BINDING AFFINITY PREDICTED BY RF-SCORE:    0.00 PKD
ROOT
HETATM    1 CL   UNL     1      -7.263   6.095  68.983  1.00  0.00    -0.081 Cl 
HETATM    2  C   UNL     1      -8.318   7.411  69.321  1.00  0.00    -0.132 A  
HETATM    3  C   UNL     1      -9.697   7.216  69.300  1.00  0.00    -0.159 A  
HETATM    4  C   UNL     1     -10.555   8.291  69.569  1.00  0.00    -0.216 A  
HETATM    5  C   UNL     1     -10.040   9.569  69.849  1.00  0.00    -0.262 A  
HETATM    6  C   UNL     1      -8.646   9.737  69.887  1.00  0.00    -0.236 A  
HETATM    7  C   UNL     1      -7.790   8.664  69.620  1.00  0.00    -0.094 A  
ENDROOT
BRANCH   5   8
HETATM    8  C   UNL     1     -10.971  10.722  70.180  1.00  0.00    -0.159 C  
BRANCH   8   9
HETATM    9  S   UNL     1     -12.127  10.968  68.800  1.00  0.00     0.063 SA 
BRANCH   9  10
HETATM   10  C   UNL     1     -11.333  12.278  67.705  1.00  0.00    -0.301 C  
BRANCH  10  11
HETATM   11  C   UNL     1     -10.895  11.676  66.338  1.00  0.00    -0.333 A  
HETATM   12  C   UNL     1      -9.980  10.606  63.861  1.00  0.00    -0.326 A  
HETATM   13  C   UNL     1     -11.347  12.182  65.097  1.00  0.00    -0.327 A  
HETATM   14  C   UNL     1      -9.992  10.588  66.265  1.00  0.00    -0.276 A  
HETATM   15  C   UNL     1     -10.872  11.672  63.876  1.00  0.00    -0.471 A  
HETATM   16 CL   UNL     1      -9.418   9.963  62.368  1.00  0.00    -0.262 Cl 
HETATM   17 CL   UNL     1     -12.532  13.436  64.974  1.00  0.00    -0.470 Cl 
HETATM   18  C   UNL     1      -9.553  10.049  65.052  1.00  0.00    -0.362 A  
ENDBRANCH  10  11
BRANCH  10  19
HETATM   19  C   UNL     1     -10.203  13.052  68.435  1.00  0.00    -0.245 C  
BRANCH  19  20
HETATM   20  N   UNL     1      -9.668  14.180  67.703  1.00  0.00    -0.224 NA 
HETATM   21  C   UNL     1     -10.384  15.106  67.001  1.00  0.00    -0.271 A  
HETATM   22  N   UNL     1      -8.177  15.552  66.817  1.00  0.00    -0.248 NA 
HETATM   23  C   UNL     1      -9.441  15.907  66.411  1.00  0.00    -0.295 A  
HETATM   24  C   UNL     1      -8.351  14.526  67.619  1.00  0.00    -0.180 A  
ENDBRANCH  19  20
ENDBRANCH  10  19
ENDBRANCH   9  10
ENDBRANCH   8   9
ENDBRANCH   5   8
TORSDOF 6
ENDMDL
MODEL      129
REMARK 921   NORMALIZED FREE ENERGY PREDICTED BY IDOCK:   -4.52 KCAL/MOL
REMARK 922        TOTAL FREE ENERGY PREDICTED BY IDOCK:   -7.02 KCAL/MOL
REMARK 923 INTER-LIGAND FREE ENERGY PREDICTED BY IDOCK:   -6.37 KCAL/MOL
REMARK 924 INTRA-LIGAND FREE ENERGY PREDICTED BY IDOCK:   -0.65 KCAL/MOL
REMARK 927      BINDING AFFINITY PREDICTED BY RF-SCORE:    0.00 PKD
ROOT
HETATM    1 CL   UNL     1     -10.353  17.823  67.280  1.00  0.00    -0.353 Cl 
HETATM    2  C   UNL     1     -10.657  16.134  67.159  1.00  0.00    -0.294 A  
HETATM    3  C   UNL     1     -11.359  15.483  68.171  1.00  0.00    -0.348 A  
HETATM    4  C   UNL     1     -11.601  14.106  68.074  1.00  0.00    -0.368 A  
HETATM    5  C   UNL     1     -11.132  13.370  66.971  1.00  0.00    -0.310 A  
HETATM    6  C   UNL     1     -10.446  14.052  65.952  1.00  0.00    -0.314 A  
HETATM    7  C   UNL     1     -10.207  15.426  66.048  1.00  0.00    -0.343 A  
ENDROOT
BRANCH   5   8
HETATM    8  C   UNL     1     -11.431  11.886  66.848  1.00  0.00    -0.322 C  
BRANCH   8   9
HETATM    9  S   UNL     1      -9.864  10.968  66.785  1.00  0.00    -0.202 SA 
BRANCH   9  10
HETATM   10  C   UNL     1      -9.860   9.874  68.318  1.00  0.00    -0.147 C  
BRANCH  10  11
HETATM   11  C   UNL     1      -9.789   8.367  67.932  1.00  0.00    -0.208 A  
HETATM   12  C   UNL     1      -9.752   5.589  67.300  1.00  0.00    -0.139 A  
HETATM   13  C   UNL     1      -8.657   7.561  68.191  1.00  0.00    -0.123 A  
HETATM   14  C   UNL     1     -10.880   7.712  67.311  1.00  0.00    -0.263 A  
HETATM   15  C   UNL     1      -8.651   6.184  67.906  1.00  0.00    -0.114 A  
HETATM   16 CL   UNL     1      -9.737   3.911  66.927  1.00  0.00    -0.232 Cl 
HETATM   17 CL   UNL     1      -7.187   8.196  68.845  1.00  0.00    -0.076 Cl 
HETATM   18  C   UNL     1     -10.860   6.353  66.985  1.00  0.00    -0.464 A  
ENDBRANCH  10  11
BRANCH  10  19
HETATM   19  C   UNL     1     -11.022  10.214  69.289  1.00  0.00    -0.240 C  
BRANCH  19  20
HETATM   20  N   UNL     1     -10.957   9.546  70.571  1.00  0.00    -0.264 NA 
HETATM   21  C   UNL     1      -9.826   9.238  71.271  1.00  0.00    -0.248 A  
HETATM   22  N   UNL     1     -11.640   8.493  72.392  1.00  0.00    -0.373 NA 
HETATM   23  C   UNL     1     -10.267   8.533  72.361  1.00  0.00    -0.299 A  
HETATM   24  C   UNL     1     -12.026   9.138  71.314  1.00  0.00    -0.325 A  
ENDBRANCH  19  20
ENDBRANCH  10  19
ENDBRANCH   9  10
ENDBRANCH   8   9
ENDBRANCH   5   8
TORSDOF 6
ENDMDL
MODEL      130
REMARK 921   NORMALIZED FREE ENERGY PREDICTED BY IDOCK:   -4.51 KCAL/MOL
REMARK 922        TOTAL FREE ENERGY PREDICTED BY IDOCK:   -7.02 KCAL/MOL
REMARK 923 INTER-LIGAND FREE ENERGY PREDICTED BY IDOCK:   -6.23 KCAL/MOL
REMARK 924 INTRA-LIGAND FREE ENERGY PREDICTED BY IDOCK:   -0.78 KCAL/MOL
REMARK 927      BINDING AFFINITY PREDICTED BY RF-SCORE:    0.00 PKD
ROOT
HETATM    1 CL   UNL     1     -10.153   4.326  71.995  1.00  0.00    -0.250 Cl 
HETATM    2  C   UNL     1     -10.610   5.973  71.806  1.00  0.00    -0.229 A  
HETATM    3  C   UNL     1     -10.559   6.836  72.897  1.00  0.00    -0.278 A  
HETATM    4  C   UNL     1     -10.938   8.176  72.743  1.00  0.00    -0.401 A  
HETATM    5  C   UNL     1     -11.382   8.659  71.499  1.00  0.00    -0.358 A  
HETATM    6  C   UNL     1     -11.404   7.776  70.406  1.00  0.00    -0.219 A  
HETATM    7  C   UNL     1     -11.024   6.439  70.561  1.00  0.00    -0.364 A  
ENDROOT
BRANCH   5   8
HETATM    8  C   UNL     1     -11.754  10.121  71.324  1.00  0.00    -0.341 C  
BRANCH   8   9
HETATM    9  S   UNL     1     -12.225  10.411  69.594  1.00  0.00     0.055 SA 
BRANCH   9  10
HETATM   10  C   UNL     1     -10.749  11.278  68.808  1.00  0.00    -0.203 C  
BRANCH  10  11
HETATM   11  C   UNL     1     -11.178  12.087  67.549  1.00  0.00    -0.357 A  
HETATM   12  C   UNL     1     -11.848  13.569  65.210  1.00  0.00    -0.352 A  
HETATM   13  C   UNL     1     -11.760  13.373  67.625  1.00  0.00    -0.359 A  
HETATM   14  C   UNL     1     -10.986  11.577  66.243  1.00  0.00    -0.328 A  
HETATM   15  C   UNL     1     -12.062  14.116  66.470  1.00  0.00    -0.481 A  
HETATM   16 CL   UNL     1     -12.242  14.465  63.795  1.00  0.00    -0.222 Cl 
HETATM   17 CL   UNL     1     -12.173  14.126  69.127  1.00  0.00    -0.347 Cl 
HETATM   18  C   UNL     1     -11.328  12.294  65.092  1.00  0.00    -0.376 A  
ENDBRANCH  10  11
BRANCH  10  19
HETATM   19  C   UNL     1      -9.563  10.310  68.551  1.00  0.00    -0.161 C  
BRANCH  19  20
HETATM   20  N   UNL     1      -8.283  10.776  69.038  1.00  0.00    -0.148 NA 
HETATM   21  C   UNL     1      -7.504  10.174  69.983  1.00  0.00    -0.162 A  
HETATM   22  N   UNL     1      -6.521  12.087  69.295  1.00  0.00    -0.103 NA 
HETATM   23  C   UNL     1      -6.452  11.032  70.172  1.00  0.00    -0.128 A  
HETATM   24  C   UNL     1      -7.621  11.888  68.606  1.00  0.00    -0.119 A  
ENDBRANCH  19  20
ENDBRANCH  10  19
ENDBRANCH   9  10
ENDBRANCH   8   9
ENDBRANCH   5   8
TORSDOF 6
ENDMDL
MODEL      131
REMARK 921   NORMALIZED FREE ENERGY PREDICTED BY IDOCK:   -4.48 KCAL/MOL
REMARK 922        TOTAL FREE ENERGY PREDICTED BY IDOCK:   -6.98 KCAL/MOL
REMARK 923 INTER-LIGAND FREE ENERGY PREDICTED BY IDOCK:   -6.23 KCAL/MOL
REMARK 924 INTRA-LIGAND FREE ENERGY PREDICTED BY IDOCK:   -0.75 KCAL/MOL
REMARK 927      BINDING AFFINITY PREDICTED BY RF-SCORE:    0.00 PKD
ROOT
HETATM    1 CL   UNL     1     -10.681   5.084  73.996  1.00  0.00    -0.345 Cl 
HETATM    2  C   UNL     1     -10.819   5.451  72.321  1.00  0.00    -0.227 A  
HETATM    3  C   UNL     1     -11.682   6.460  71.902  1.00  0.00    -0.378 A  
HETATM    4  C   UNL     1     -11.798   6.753  70.537  1.00  0.00    -0.418 A  
HETATM    5  C   UNL     1     -11.061   6.031  69.582  1.00  0.00    -0.474 A  
HETATM    6  C   UNL     1     -10.180   5.032  70.029  1.00  0.00    -0.339 A  
HETATM    7  C   UNL     1     -10.063   4.742  71.392  1.00  0.00    -0.259 A  
ENDROOT
BRANCH   5   8
HETATM    8  C   UNL     1     -11.157   6.378  68.106  1.00  0.00    -0.263 C  
BRANCH   8   9
HETATM    9  S   UNL     1      -9.732   7.406  67.644  1.00  0.00    -0.152 SA 
BRANCH   9  10
HETATM   10  C   UNL     1      -9.921   9.000  68.628  1.00  0.00    -0.172 C  
BRANCH  10  11
HETATM   11  C   UNL     1     -10.555  10.125  67.759  1.00  0.00    -0.304 A  
HETATM   12  C   UNL     1     -11.604  12.218  66.135  1.00  0.00    -0.390 A  
HETATM   13  C   UNL     1     -11.332  11.172  68.305  1.00  0.00    -0.297 A  
HETATM   14  C   UNL     1     -10.365  10.169  66.356  1.00  0.00    -0.258 A  
HETATM   15  C   UNL     1     -11.823  12.220  67.507  1.00  0.00    -0.331 A  
HETATM   16 CL   UNL     1     -12.227  13.485  65.152  1.00  0.00    -0.426 Cl 
HETATM   17 CL   UNL     1     -11.765  11.240  69.978  1.00  0.00    -0.401 Cl 
HETATM   18  C   UNL     1     -10.892  11.185  65.553  1.00  0.00    -0.205 A  
ENDBRANCH  10  11
BRANCH  10  19
HETATM   19  C   UNL     1      -8.601   9.422  69.327  1.00  0.00    -0.143 C  
BRANCH  19  20
HETATM   20  N   UNL     1      -7.692  10.183  68.497  1.00  0.00    -0.087 NA 
HETATM   21  C   UNL     1      -7.483  11.531  68.542  1.00  0.00    -0.115 A  
HETATM   22  N   UNL     1      -6.218  10.621  66.907  1.00  0.00    -0.064 NA 
HETATM   23  C   UNL     1      -6.617  11.788  67.512  1.00  0.00    -0.097 A  
HETATM   24  C   UNL     1      -6.861   9.669  67.544  1.00  0.00    -0.082 A  
ENDBRANCH  19  20
ENDBRANCH  10  19
ENDBRANCH   9  10
ENDBRANCH   8   9
ENDBRANCH   5   8
TORSDOF 6
ENDMDL
MODEL      132
REMARK 921   NORMALIZED FREE ENERGY PREDICTED BY IDOCK:   -4.48 KCAL/MOL
REMARK 922        TOTAL FREE ENERGY PREDICTED BY IDOCK:   -6.97 KCAL/MOL
REMARK 923 INTER-LIGAND FREE ENERGY PREDICTED BY IDOCK:   -6.59 KCAL/MOL
REMARK 924 INTRA-LIGAND FREE ENERGY PREDICTED BY IDOCK:   -0.38 KCAL/MOL
REMARK 927      BINDING AFFINITY PREDICTED BY RF-SCORE:    0.00 PKD
ROOT
HETATM    1 CL   UNL     1      -7.053   6.113  64.978  1.00  0.00    -0.059 Cl 
HETATM    2  C   UNL     1      -8.147   7.009  65.957  1.00  0.00    -0.122 A  
HETATM    3  C   UNL     1      -8.152   8.400  65.895  1.00  0.00    -0.110 A  
HETATM    4  C   UNL     1      -9.039   9.129  66.698  1.00  0.00    -0.182 A  
HETATM    5  C   UNL     1      -9.919   8.471  67.577  1.00  0.00    -0.258 A  
HETATM    6  C   UNL     1      -9.912   7.067  67.606  1.00  0.00    -0.194 A  
HETATM    7  C   UNL     1      -9.027   6.340  66.803  1.00  0.00    -0.128 A  
ENDROOT
BRANCH   5   8
HETATM    8  C   UNL     1     -10.908   9.261  68.416  1.00  0.00    -0.076 C  
BRANCH   8   9
HETATM    9  S   UNL     1     -10.069  10.715  69.111  1.00  0.00    -0.199 SA 
BRANCH   9  10
HETATM   10  C   UNL     1     -11.035  12.204  68.480  1.00  0.00    -0.238 C  
BRANCH  10  11
HETATM   11  C   UNL     1     -11.709  12.974  69.654  1.00  0.00    -0.364 A  
HETATM   12  C   UNL     1     -12.830  14.412  71.843  1.00  0.00    -0.349 A  
HETATM   13  C   UNL     1     -12.520  12.340  70.623  1.00  0.00    -0.236 A  
HETATM   14  C   UNL     1     -11.522  14.367  69.826  1.00  0.00    -0.328 A  
HETATM   15  C   UNL     1     -13.048  13.045  71.718  1.00  0.00    -0.469 A  
HETATM   16 CL   UNL     1     -13.497  15.281  73.168  1.00  0.00    -0.553 Cl 
HETATM   17 CL   UNL     1     -12.954  10.668  70.530  1.00  0.00    -0.347 Cl 
HETATM   18  C   UNL     1     -12.084  15.079  70.890  1.00  0.00    -0.380 A  
ENDBRANCH  10  11
BRANCH  10  19
HETATM   19  C   UNL     1     -12.016  11.829  67.337  1.00  0.00     0.026 C  
BRANCH  19  20
HETATM   20  N   UNL     1     -11.671  12.370  66.040  1.00  0.00    -0.437 NA 
HETATM   21  C   UNL     1     -10.427  12.402  65.477  1.00  0.00    -0.275 A  
HETATM   22  N   UNL     1     -11.915  13.386  64.091  1.00  0.00    -0.430 NA 
HETATM   23  C   UNL     1     -10.590  13.090  64.303  1.00  0.00    -0.412 A  
HETATM   24  C   UNL     1     -12.544  12.913  65.143  1.00  0.00    -0.471 A  
ENDBRANCH  19  20
ENDBRANCH  10  19
ENDBRANCH   9  10
ENDBRANCH   8   9
ENDBRANCH   5   8
TORSDOF 6
ENDMDL
MODEL      133
REMARK 921   NORMALIZED FREE ENERGY PREDICTED BY IDOCK:   -4.47 KCAL/MOL
REMARK 922        TOTAL FREE ENERGY PREDICTED BY IDOCK:   -6.96 KCAL/MOL
REMARK 923 INTER-LIGAND FREE ENERGY PREDICTED BY IDOCK:   -6.05 KCAL/MOL
REMARK 924 INTRA-LIGAND FREE ENERGY PREDICTED BY IDOCK:   -0.91 KCAL/MOL
REMARK 927      BINDING AFFINITY PREDICTED BY RF-SCORE:    0.00 PKD
ROOT
HETATM    1 CL   UNL     1     -11.634  15.832  64.178  1.00  0.00    -0.236 Cl 
HETATM    2  C   UNL     1     -11.432  14.928  65.627  1.00  0.00    -0.290 A  
HETATM    3  C   UNL     1     -12.317  13.897  65.930  1.00  0.00    -0.517 A  
HETATM    4  C   UNL     1     -12.154  13.166  67.114  1.00  0.00    -0.343 A  
HETATM    5  C   UNL     1     -11.113  13.470  68.009  1.00  0.00    -0.283 A  
HETATM    6  C   UNL     1     -10.219  14.500  67.673  1.00  0.00    -0.225 A  
HETATM    7  C   UNL     1     -10.381  15.228  66.490  1.00  0.00    -0.289 A  
ENDROOT
BRANCH   5   8
HETATM    8  C   UNL     1     -10.915  12.650  69.273  1.00  0.00    -0.066 C  
BRANCH   8   9
HETATM    9  S   UNL     1     -12.002  11.195  69.213  1.00  0.00    -0.315 SA 
BRANCH   9  10
HETATM   10  C   UNL     1     -10.869   9.735  68.849  1.00  0.00    -0.192 C  
BRANCH  10  11
HETATM   11  C   UNL     1     -11.029   8.620  69.924  1.00  0.00    -0.169 A  
HETATM   12  C   UNL     1     -11.238   6.634  71.956  1.00  0.00    -0.266 A  
HETATM   13  C   UNL     1     -10.745   7.259  69.666  1.00  0.00    -0.236 A  
HETATM   14  C   UNL     1     -11.454   8.919  71.241  1.00  0.00    -0.368 A  
HETATM   15  C   UNL     1     -10.819   6.286  70.677  1.00  0.00    -0.339 A  
HETATM   16 CL   UNL     1     -11.355   5.440  73.188  1.00  0.00    -0.350 Cl 
HETATM   17 CL   UNL     1     -10.315   6.675  68.095  1.00  0.00    -0.194 Cl 
HETATM   18  C   UNL     1     -11.574   7.945  72.237  1.00  0.00    -0.406 A  
ENDBRANCH  10  11
BRANCH  10  19
HETATM   19  C   UNL     1      -9.398  10.172  68.620  1.00  0.00    -0.161 C  
BRANCH  19  20
HETATM   20  N   UNL     1      -8.994  10.239  67.232  1.00  0.00    -0.132 NA 
HETATM   21  C   UNL     1      -9.819  10.249  66.144  1.00  0.00    -0.225 A  
HETATM   22  N   UNL     1      -7.666  10.299  65.465  1.00  0.00    -0.145 NA 
HETATM   23  C   UNL     1      -8.977  10.223  65.063  1.00  0.00    -0.196 A  
HETATM   24  C   UNL     1      -7.711  10.337  66.777  1.00  0.00    -0.111 A  
ENDBRANCH  19  20
ENDBRANCH  10  19
ENDBRANCH   9  10
ENDBRANCH   8   9
ENDBRANCH   5   8
TORSDOF 6
ENDMDL
MODEL      134
REMARK 921   NORMALIZED FREE ENERGY PREDICTED BY IDOCK:   -4.47 KCAL/MOL
REMARK 922        TOTAL FREE ENERGY PREDICTED BY IDOCK:   -6.96 KCAL/MOL
REMARK 923 INTER-LIGAND FREE ENERGY PREDICTED BY IDOCK:   -6.33 KCAL/MOL
REMARK 924 INTRA-LIGAND FREE ENERGY PREDICTED BY IDOCK:   -0.63 KCAL/MOL
REMARK 927      BINDING AFFINITY PREDICTED BY RF-SCORE:    0.00 PKD
ROOT
HETATM    1 CL   UNL     1     -12.107  15.744  64.018  1.00  0.00    -0.069 Cl 
HETATM    2  C   UNL     1     -11.449  14.661  65.181  1.00  0.00    -0.375 A  
HETATM    3  C   UNL     1     -10.158  14.863  65.662  1.00  0.00    -0.387 A  
HETATM    4  C   UNL     1      -9.621  13.976  66.605  1.00  0.00    -0.299 A  
HETATM    5  C   UNL     1     -10.367  12.875  67.063  1.00  0.00    -0.245 A  
HETATM    6  C   UNL     1     -11.675  12.704  66.580  1.00  0.00    -0.464 A  
HETATM    7  C   UNL     1     -12.211  13.591  65.641  1.00  0.00    -0.500 A  
ENDROOT
BRANCH   5   8
HETATM    8  C   UNL     1      -9.798  11.939  68.115  1.00  0.00    -0.192 C  
BRANCH   8   9
HETATM    9  S   UNL     1     -11.162  11.257  69.102  1.00  0.00    -0.300 SA 
BRANCH   9  10
HETATM   10  C   UNL     1     -11.033   9.387  68.915  1.00  0.00    -0.050 C  
BRANCH  10  11
HETATM   11  C   UNL     1     -10.798   8.700  70.292  1.00  0.00    -0.250 A  
HETATM   12  C   UNL     1     -10.458   7.510  72.858  1.00  0.00    -0.318 A  
HETATM   13  C   UNL     1      -9.587   8.817  71.011  1.00  0.00    -0.229 A  
HETATM   14  C   UNL     1     -11.810   7.929  70.914  1.00  0.00    -0.242 A  
HETATM   15  C   UNL     1      -9.431   8.254  72.290  1.00  0.00    -0.341 A  
HETATM   16 CL   UNL     1     -10.260   6.799  74.411  1.00  0.00    -0.332 Cl 
HETATM   17 CL   UNL     1      -8.197   9.627  70.376  1.00  0.00    -0.215 Cl 
HETATM   18  C   UNL     1     -11.641   7.329  72.166  1.00  0.00    -0.324 A  
ENDBRANCH  10  11
BRANCH  10  19
HETATM   19  C   UNL     1     -10.006   8.972  67.828  1.00  0.00    -0.187 C  
BRANCH  19  20
HETATM   20  N   UNL     1      -9.930   7.549  67.576  1.00  0.00    -0.160 NA 
HETATM   21  C   UNL     1     -10.922   6.759  67.070  1.00  0.00    -0.368 A  
HETATM   22  N   UNL     1      -9.105   5.498  67.526  1.00  0.00    -0.108 NA 
HETATM   23  C   UNL     1     -10.413   5.488  67.107  1.00  0.00    -0.257 A  
HETATM   24  C   UNL     1      -8.835   6.760  67.773  1.00  0.00    -0.118 A  
ENDBRANCH  19  20
ENDBRANCH  10  19
ENDBRANCH   9  10
ENDBRANCH   8   9
ENDBRANCH   5   8
TORSDOF 6
ENDMDL
MODEL      135
REMARK 921   NORMALIZED FREE ENERGY PREDICTED BY IDOCK:   -4.47 KCAL/MOL
REMARK 922        TOTAL FREE ENERGY PREDICTED BY IDOCK:   -6.96 KCAL/MOL
REMARK 923 INTER-LIGAND FREE ENERGY PREDICTED BY IDOCK:   -5.77 KCAL/MOL
REMARK 924 INTRA-LIGAND FREE ENERGY PREDICTED BY IDOCK:   -1.19 KCAL/MOL
REMARK 927      BINDING AFFINITY PREDICTED BY RF-SCORE:    0.00 PKD
ROOT
HETATM    1 CL   UNL     1     -13.382  12.577  72.128  1.00  0.00    -0.612 Cl 
HETATM    2  C   UNL     1     -12.533  11.535  71.054  1.00  0.00    -0.356 A  
HETATM    3  C   UNL     1     -12.146  11.999  69.800  1.00  0.00    -0.317 A  
HETATM    4  C   UNL     1     -11.460  11.147  68.924  1.00  0.00    -0.363 A  
HETATM    5  C   UNL     1     -11.168   9.822  69.292  1.00  0.00    -0.128 A  
HETATM    6  C   UNL     1     -11.548   9.381  70.571  1.00  0.00    -0.291 A  
HETATM    7  C   UNL     1     -12.231  10.233  71.445  1.00  0.00    -0.481 A  
ENDROOT
BRANCH   5   8
HETATM    8  C   UNL     1     -10.388   8.913  68.358  1.00  0.00    -0.200 C  
BRANCH   8   9
HETATM    9  S   UNL     1      -8.691   9.540  68.199  1.00  0.00    -0.119 SA 
BRANCH   9  10
HETATM   10  C   UNL     1      -8.520  10.081  66.402  1.00  0.00    -0.129 C  
BRANCH  10  11
HETATM   11  C   UNL     1      -9.423  11.312  66.099  1.00  0.00    -0.232 A  
HETATM   12  C   UNL     1     -11.050  13.551  65.425  1.00  0.00    -0.293 A  
HETATM   13  C   UNL     1      -9.141  12.609  66.585  1.00  0.00    -0.193 A  
HETATM   14  C   UNL     1     -10.579  11.198  65.289  1.00  0.00    -0.303 A  
HETATM   15  C   UNL     1      -9.928  13.718  66.227  1.00  0.00    -0.312 A  
HETATM   16 CL   UNL     1     -12.029  14.902  65.007  1.00  0.00    -0.303 Cl 
HETATM   17 CL   UNL     1      -7.837  12.937  67.674  1.00  0.00    -0.154 Cl 
HETATM   18  C   UNL     1     -11.389  12.291  64.969  1.00  0.00    -0.376 A  
ENDBRANCH  10  11
BRANCH  10  19
HETATM   19  C   UNL     1      -8.718   8.903  65.410  1.00  0.00    -0.191 C  
BRANCH  19  20
HETATM   20  N   UNL     1      -7.957   7.713  65.723  1.00  0.00    -0.108 NA 
HETATM   21  C   UNL     1      -6.598   7.611  65.792  1.00  0.00    -0.045 A  
HETATM   22  N   UNL     1      -7.532   5.593  66.190  1.00  0.00    -0.081 NA 
HETATM   23  C   UNL     1      -6.355   6.281  66.020  1.00  0.00    -0.039 A  
HETATM   24  C   UNL     1      -8.479   6.491  66.033  1.00  0.00    -0.145 A  
ENDBRANCH  19  20
ENDBRANCH  10  19
ENDBRANCH   9  10
ENDBRANCH   8   9
ENDBRANCH   5   8
TORSDOF 6
ENDMDL
MODEL      136
REMARK 921   NORMALIZED FREE ENERGY PREDICTED BY IDOCK:   -4.46 KCAL/MOL
REMARK 922        TOTAL FREE ENERGY PREDICTED BY IDOCK:   -6.95 KCAL/MOL
REMARK 923 INTER-LIGAND FREE ENERGY PREDICTED BY IDOCK:   -6.00 KCAL/MOL
REMARK 924 INTRA-LIGAND FREE ENERGY PREDICTED BY IDOCK:   -0.95 KCAL/MOL
REMARK 927      BINDING AFFINITY PREDICTED BY RF-SCORE:    0.00 PKD
ROOT
HETATM    1 CL   UNL     1     -11.959  10.614  69.264  1.00  0.00    -0.311 Cl 
HETATM    2  C   UNL     1     -11.467  11.814  68.134  1.00  0.00    -0.316 A  
HETATM    3  C   UNL     1     -10.568  11.485  67.123  1.00  0.00    -0.273 A  
HETATM    4  C   UNL     1     -10.163  12.465  66.207  1.00  0.00    -0.258 A  
HETATM    5  C   UNL     1     -10.644  13.783  66.304  1.00  0.00    -0.289 A  
HETATM    6  C   UNL     1     -11.567  14.086  67.319  1.00  0.00    -0.396 A  
HETATM    7  C   UNL     1     -11.973  13.107  68.231  1.00  0.00    -0.328 A  
ENDROOT
BRANCH   5   8
HETATM    8  C   UNL     1     -10.235  14.833  65.286  1.00  0.00    -0.384 C  
BRANCH   8   9
HETATM    9  S   UNL     1     -10.235  16.465  66.084  1.00  0.00    -0.360 SA 
BRANCH   9  10
HETATM   10  C   UNL     1      -8.420  16.935  66.269  1.00  0.00    -0.287 C  
BRANCH  10  11
HETATM   11  C   UNL     1      -7.774  16.209  67.485  1.00  0.00    -0.170 A  
HETATM   12  C   UNL     1      -6.653  14.956  69.785  1.00  0.00    -0.170 A  
HETATM   13  C   UNL     1      -6.381  16.202  67.723  1.00  0.00    -0.150 A  
HETATM   14  C   UNL     1      -8.564  15.527  68.442  1.00  0.00    -0.168 A  
HETATM   15  C   UNL     1      -5.832  15.609  68.874  1.00  0.00    -0.103 A  
HETATM   16 CL   UNL     1      -5.981  14.208  71.180  1.00  0.00    -0.212 Cl 
HETATM   17 CL   UNL     1      -5.240  16.888  66.618  1.00  0.00    -0.137 Cl 
HETATM   18  C   UNL     1      -8.016  14.897  69.564  1.00  0.00    -0.084 A  
ENDBRANCH  10  11
BRANCH  10  19
HETATM   19  C   UNL     1      -8.206  18.472  66.274  1.00  0.00    -0.225 C  
BRANCH  19  20
HETATM   20  N   UNL     1      -9.067  19.201  67.181  1.00  0.00    -0.282 NA 
HETATM   21  C   UNL     1      -8.956  19.256  68.540  1.00  0.00    -0.369 A  
HETATM   22  N   UNL     1     -10.753  20.451  67.875  1.00  0.00     0.020 NA 
HETATM   23  C   UNL     1     -10.044  19.981  68.953  1.00  0.00    -0.270 A  
HETATM   24  C   UNL     1     -10.122  19.988  66.821  1.00  0.00    -0.476 A  
ENDBRANCH  19  20
ENDBRANCH  10  19
ENDBRANCH   9  10
ENDBRANCH   8   9
ENDBRANCH   5   8
TORSDOF 6
ENDMDL
MODEL      137
REMARK 921   NORMALIZED FREE ENERGY PREDICTED BY IDOCK:   -4.46 KCAL/MOL
REMARK 922        TOTAL FREE ENERGY PREDICTED BY IDOCK:   -6.95 KCAL/MOL
REMARK 923 INTER-LIGAND FREE ENERGY PREDICTED BY IDOCK:   -5.64 KCAL/MOL
REMARK 924 INTRA-LIGAND FREE ENERGY PREDICTED BY IDOCK:   -1.31 KCAL/MOL
REMARK 927      BINDING AFFINITY PREDICTED BY RF-SCORE:    0.00 PKD
ROOT
HETATM    1 CL   UNL     1      -6.051  13.395  68.529  1.00  0.00    -0.078 Cl 
HETATM    2  C   UNL     1      -6.779  11.844  68.684  1.00  0.00    -0.074 A  
HETATM    3  C   UNL     1      -7.491  11.303  67.617  1.00  0.00    -0.101 A  
HETATM    4  C   UNL     1      -8.089  10.042  67.747  1.00  0.00    -0.109 A  
HETATM    5  C   UNL     1      -7.988   9.320  68.950  1.00  0.00    -0.098 A  
HETATM    6  C   UNL     1      -7.246   9.875  70.005  1.00  0.00    -0.146 A  
HETATM    7  C   UNL     1      -6.649  11.133  69.874  1.00  0.00    -0.129 A  
ENDROOT
BRANCH   5   8
HETATM    8  C   UNL     1      -8.602   7.936  69.075  1.00  0.00    -0.135 C  
BRANCH   8   9
HETATM    9  S   UNL     1     -10.398   8.059  68.832  1.00  0.00    -0.190 SA 
BRANCH   9  10
HETATM   10  C   UNL     1     -11.109   8.466  70.528  1.00  0.00    -0.252 C  
BRANCH  10  11
HETATM   11  C   UNL     1     -11.655   9.923  70.574  1.00  0.00    -0.386 A  
HETATM   12  C   UNL     1     -12.544  12.627  70.692  1.00  0.00    -0.160 A  
HETATM   13  C   UNL     1     -12.698  10.325  71.438  1.00  0.00    -0.442 A  
HETATM   14  C   UNL     1     -11.110  10.940  69.753  1.00  0.00    -0.328 A  
HETATM   15  C   UNL     1     -13.115  11.665  71.517  1.00  0.00    -0.405 A  
HETATM   16 CL   UNL     1     -13.070  14.262  70.769  1.00  0.00    -0.374 Cl 
HETATM   17 CL   UNL     1     -13.563   9.212  72.441  1.00  0.00    -0.523 Cl 
HETATM   18  C   UNL     1     -11.555  12.266  69.797  1.00  0.00    -0.314 A  
ENDBRANCH  10  11
BRANCH  10  19
HETATM   19  C   UNL     1     -10.119   8.135  71.677  1.00  0.00    -0.199 C  
BRANCH  19  20
HETATM   20  N   UNL     1     -10.334   6.853  72.313  1.00  0.00    -0.194 NA 
HETATM   21  C   UNL     1     -10.646   6.638  73.625  1.00  0.00    -0.300 A  
HETATM   22  N   UNL     1     -10.449   4.658  72.555  1.00  0.00    -0.198 NA 
HETATM   23  C   UNL     1     -10.651   5.274  73.766  1.00  0.00    -0.287 A  
HETATM   24  C   UNL     1     -10.290   5.638  71.695  1.00  0.00    -0.215 A  
ENDBRANCH  19  20
ENDBRANCH  10  19
ENDBRANCH   9  10
ENDBRANCH   8   9
ENDBRANCH   5   8
TORSDOF 6
ENDMDL
MODEL      138
REMARK 921   NORMALIZED FREE ENERGY PREDICTED BY IDOCK:   -4.46 KCAL/MOL
REMARK 922        TOTAL FREE ENERGY PREDICTED BY IDOCK:   -6.95 KCAL/MOL
REMARK 923 INTER-LIGAND FREE ENERGY PREDICTED BY IDOCK:   -7.43 KCAL/MOL
REMARK 924 INTRA-LIGAND FREE ENERGY PREDICTED BY IDOCK:    0.48 KCAL/MOL
REMARK 927      BINDING AFFINITY PREDICTED BY RF-SCORE:    0.00 PKD
ROOT
HETATM    1 CL   UNL     1     -10.594  20.233  68.638  1.00  0.00    -0.207 Cl 
HETATM    2  C   UNL     1     -10.488  18.773  67.734  1.00  0.00    -0.420 A  
HETATM    3  C   UNL     1     -10.521  18.816  66.342  1.00  0.00    -0.485 A  
HETATM    4  C   UNL     1     -10.441  17.626  65.608  1.00  0.00    -0.150 A  
HETATM    5  C   UNL     1     -10.340  16.384  66.260  1.00  0.00    -0.337 A  
HETATM    6  C   UNL     1     -10.286  16.366  67.663  1.00  0.00    -0.272 A  
HETATM    7  C   UNL     1     -10.364  17.555  68.396  1.00  0.00    -0.378 A  
ENDROOT
BRANCH   5   8
HETATM    8  C   UNL     1     -10.212  15.099  65.461  1.00  0.00    -0.376 C  
BRANCH   8   9
HETATM    9  S   UNL     1      -9.674  13.763  66.568  1.00  0.00    -0.294 SA 
BRANCH   9  10
HETATM   10  C   UNL     1     -11.230  12.775  66.959  1.00  0.00    -0.292 C  
BRANCH  10  11
HETATM   11  C   UNL     1     -10.974  11.757  68.108  1.00  0.00    -0.275 A  
HETATM   12  C   UNL     1     -10.546   9.975  70.290  1.00  0.00    -0.295 A  
HETATM   13  C   UNL     1      -9.689  11.257  68.419  1.00  0.00    -0.194 A  
HETATM   14  C   UNL     1     -12.029  11.287  68.927  1.00  0.00    -0.378 A  
HETATM   15  C   UNL     1      -9.474  10.402  69.514  1.00  0.00    -0.164 A  
HETATM   16 CL   UNL     1     -10.290   8.908  71.614  1.00  0.00    -0.390 Cl 
HETATM   17 CL   UNL     1      -8.288  11.626  67.473  1.00  0.00    -0.144 Cl 
HETATM   18  C   UNL     1     -11.826  10.400  69.988  1.00  0.00    -0.351 A  
ENDBRANCH  10  11
BRANCH  10  19
HETATM   19  C   UNL     1     -11.859  12.139  65.691  1.00  0.00    -0.276 C  
BRANCH  19  20
HETATM   20  N   UNL     1     -10.905  11.602  64.744  1.00  0.00    -0.307 NA 
HETATM   21  C   UNL     1     -10.594  12.121  63.520  1.00  0.00    -0.458 A  
HETATM   22  N   UNL     1      -9.423  10.220  63.860  1.00  0.00    -0.289 NA 
HETATM   23  C   UNL     1      -9.724  11.218  62.966  1.00  0.00    -0.366 A  
HETATM   24  C   UNL     1     -10.129  10.496  64.933  1.00  0.00    -0.333 A  
ENDBRANCH  19  20
ENDBRANCH  10  19
ENDBRANCH   9  10
ENDBRANCH   8   9
ENDBRANCH   5   8
TORSDOF 6
ENDMDL
MODEL      139
REMARK 921   NORMALIZED FREE ENERGY PREDICTED BY IDOCK:   -4.46 KCAL/MOL
REMARK 922        TOTAL FREE ENERGY PREDICTED BY IDOCK:   -6.95 KCAL/MOL
REMARK 923 INTER-LIGAND FREE ENERGY PREDICTED BY IDOCK:   -6.12 KCAL/MOL
REMARK 924 INTRA-LIGAND FREE ENERGY PREDICTED BY IDOCK:   -0.83 KCAL/MOL
REMARK 927      BINDING AFFINITY PREDICTED BY RF-SCORE:    0.00 PKD
ROOT
HETATM    1 CL   UNL     1     -10.419  12.016  63.229  1.00  0.00    -0.447 Cl 
HETATM    2  C   UNL     1     -10.430  11.199  64.743  1.00  0.00    -0.323 A  
HETATM    3  C   UNL     1     -11.093  11.763  65.829  1.00  0.00    -0.351 A  
HETATM    4  C   UNL     1     -11.096  11.100  67.063  1.00  0.00    -0.339 A  
HETATM    5  C   UNL     1     -10.424   9.875  67.222  1.00  0.00    -0.319 A  
HETATM    6  C   UNL     1      -9.781   9.313  66.107  1.00  0.00    -0.349 A  
HETATM    7  C   UNL     1      -9.780   9.975  64.875  1.00  0.00    -0.377 A  
ENDROOT
BRANCH   5   8
HETATM    8  C   UNL     1     -10.463   9.138  68.550  1.00  0.00    -0.204 C  
BRANCH   8   9
HETATM    9  S   UNL     1      -8.991   8.081  68.685  1.00  0.00    -0.132 SA 
BRANCH   9  10
HETATM   10  C   UNL     1      -9.638   6.374  69.147  1.00  0.00    -0.136 C  
BRANCH  10  11
HETATM   11  C   UNL     1      -9.564   5.399  67.935  1.00  0.00    -0.152 A  
HETATM   12  C   UNL     1      -9.543   3.581  65.742  1.00  0.00    -0.104 A  
HETATM   13  C   UNL     1      -8.639   4.333  67.862  1.00  0.00    -0.099 A  
HETATM   14  C   UNL     1     -10.449   5.521  66.836  1.00  0.00    -0.348 A  
HETATM   15  C   UNL     1      -8.649   3.419  66.794  1.00  0.00    -0.116 A  
HETATM   16 CL   UNL     1      -9.540   2.479  64.421  1.00  0.00    -0.144 Cl 
HETATM   17 CL   UNL     1      -7.408   4.080  69.051  1.00  0.00    -0.054 Cl 
HETATM   18  C   UNL     1     -10.431   4.640  65.750  1.00  0.00    -0.290 A  
ENDBRANCH  10  11
BRANCH  10  19
HETATM   19  C   UNL     1     -11.038   6.433  69.814  1.00  0.00    -0.396 C  
BRANCH  19  20
HETATM   20  N   UNL     1     -11.062   7.059  71.119  1.00  0.00    -0.250 NA 
HETATM   21  C   UNL     1     -10.125   6.924  72.103  1.00  0.00    -0.181 A  
HETATM   22  N   UNL     1     -11.801   8.254  72.826  1.00  0.00    -0.325 NA 
HETATM   23  C   UNL     1     -10.633   7.620  73.169  1.00  0.00    -0.379 A  
HETATM   24  C   UNL     1     -12.018   7.919  71.574  1.00  0.00    -0.301 A  
ENDBRANCH  19  20
ENDBRANCH  10  19
ENDBRANCH   9  10
ENDBRANCH   8   9
ENDBRANCH   5   8
TORSDOF 6
ENDMDL
MODEL      140
REMARK 921   NORMALIZED FREE ENERGY PREDICTED BY IDOCK:   -4.45 KCAL/MOL
REMARK 922        TOTAL FREE ENERGY PREDICTED BY IDOCK:   -6.93 KCAL/MOL
REMARK 923 INTER-LIGAND FREE ENERGY PREDICTED BY IDOCK:   -6.56 KCAL/MOL
REMARK 924 INTRA-LIGAND FREE ENERGY PREDICTED BY IDOCK:   -0.37 KCAL/MOL
REMARK 927      BINDING AFFINITY PREDICTED BY RF-SCORE:    0.00 PKD
ROOT
HETATM    1 CL   UNL     1     -13.051  15.993  72.277  1.00  0.00    -0.440 Cl 
HETATM    2  C   UNL     1     -12.927  14.365  71.735  1.00  0.00    -0.345 A  
HETATM    3  C   UNL     1     -12.202  14.072  70.583  1.00  0.00    -0.442 A  
HETATM    4  C   UNL     1     -12.107  12.746  70.140  1.00  0.00    -0.370 A  
HETATM    5  C   UNL     1     -12.747  11.707  70.838  1.00  0.00    -0.351 A  
HETATM    6  C   UNL     1     -13.454  12.023  72.010  1.00  0.00    -0.364 A  
HETATM    7  C   UNL     1     -13.547  13.346  72.453  1.00  0.00    -0.708 A  
ENDROOT
BRANCH   5   8
HETATM    8  C   UNL     1     -12.609  10.265  70.378  1.00  0.00    -0.204 C  
BRANCH   8   9
HETATM    9  S   UNL     1     -11.530   9.374  71.536  1.00  0.00    -0.398 SA 
BRANCH   9  10
HETATM   10  C   UNL     1     -10.228   8.533  70.466  1.00  0.00    -0.194 C  
BRANCH  10  11
HETATM   11  C   UNL     1     -10.114   7.018  70.808  1.00  0.00    -0.205 A  
HETATM   12  C   UNL     1     -10.016   4.231  71.392  1.00  0.00    -0.168 A  
HETATM   13  C   UNL     1      -9.945   6.540  72.128  1.00  0.00    -0.161 A  
HETATM   14  C   UNL     1     -10.195   6.026  69.802  1.00  0.00    -0.265 A  
HETATM   15  C   UNL     1      -9.927   5.165  72.418  1.00  0.00    -0.225 A  
HETATM   16 CL   UNL     1      -9.968   2.548  71.741  1.00  0.00    -0.227 Cl 
HETATM   17 CL   UNL     1      -9.718   7.593  73.482  1.00  0.00    -0.356 Cl 
HETATM   18  C   UNL     1     -10.132   4.657  70.082  1.00  0.00    -0.283 A  
ENDBRANCH  10  11
BRANCH  10  19
HETATM   19  C   UNL     1      -8.869   9.282  70.491  1.00  0.00    -0.241 C  
BRANCH  19  20
HETATM   20  N   UNL     1      -8.524   9.955  69.257  1.00  0.00    -0.144 NA 
HETATM   21  C   UNL     1      -7.267  10.164  68.769  1.00  0.00    -0.081 A  
HETATM   22  N   UNL     1      -8.786  11.086  67.375  1.00  0.00    -0.137 NA 
HETATM   23  C   UNL     1      -7.449  10.919  67.640  1.00  0.00    -0.095 A  
HETATM   24  C   UNL     1      -9.408  10.468  68.354  1.00  0.00    -0.158 A  
ENDBRANCH  19  20
ENDBRANCH  10  19
ENDBRANCH   9  10
ENDBRANCH   8   9
ENDBRANCH   5   8
TORSDOF 6
ENDMDL
MODEL      141
REMARK 921   NORMALIZED FREE ENERGY PREDICTED BY IDOCK:   -4.43 KCAL/MOL
REMARK 922        TOTAL FREE ENERGY PREDICTED BY IDOCK:   -6.90 KCAL/MOL
REMARK 923 INTER-LIGAND FREE ENERGY PREDICTED BY IDOCK:   -6.16 KCAL/MOL
REMARK 924 INTRA-LIGAND FREE ENERGY PREDICTED BY IDOCK:   -0.75 KCAL/MOL
REMARK 927      BINDING AFFINITY PREDICTED BY RF-SCORE:    0.00 PKD
ROOT
HETATM    1 CL   UNL     1     -14.129  15.100  72.454  1.00  0.00    -0.589 Cl 
HETATM    2  C   UNL     1     -13.068  14.663  71.173  1.00  0.00    -0.366 A  
HETATM    3  C   UNL     1     -12.440  15.655  70.425  1.00  0.00    -0.409 A  
HETATM    4  C   UNL     1     -11.580  15.297  69.378  1.00  0.00    -0.347 A  
HETATM    5  C   UNL     1     -11.354  13.945  69.064  1.00  0.00    -0.324 A  
HETATM    6  C   UNL     1     -11.981  12.960  69.846  1.00  0.00    -0.377 A  
HETATM    7  C   UNL     1     -12.837  13.318  70.893  1.00  0.00    -0.257 A  
ENDROOT
BRANCH   5   8
HETATM    8  C   UNL     1     -10.390  13.558  67.955  1.00  0.00    -0.241 C  
BRANCH   8   9
HETATM    9  S   UNL     1     -11.065  12.133  67.053  1.00  0.00    -0.313 SA 
BRANCH   9  10
HETATM   10  C   UNL     1      -9.857  10.722  67.366  1.00  0.00    -0.177 C  
BRANCH  10  11
HETATM   11  C   UNL     1      -9.033  10.394  66.087  1.00  0.00    -0.175 A  
HETATM   12  C   UNL     1      -7.572   9.682  63.747  1.00  0.00    -0.126 A  
HETATM   13  C   UNL     1      -7.620  10.411  66.059  1.00  0.00    -0.137 A  
HETATM   14  C   UNL     1      -9.667  10.035  64.873  1.00  0.00    -0.377 A  
HETATM   15  C   UNL     1      -6.900  10.031  64.913  1.00  0.00    -0.133 A  
HETATM   16 CL   UNL     1      -6.693   9.242  62.336  1.00  0.00    -0.093 Cl 
HETATM   17 CL   UNL     1      -6.664  10.925  67.406  1.00  0.00    -0.074 Cl 
HETATM   18  C   UNL     1      -8.953   9.700  63.717  1.00  0.00    -0.251 A  
ENDBRANCH  10  11
BRANCH  10  19
HETATM   19  C   UNL     1     -10.548   9.483  67.997  1.00  0.00    -0.230 C  
BRANCH  19  20
HETATM   20  N   UNL     1     -10.191   9.225  69.375  1.00  0.00    -0.202 NA 
HETATM   21  C   UNL     1     -11.011   9.333  70.461  1.00  0.00    -0.265 A  
HETATM   22  N   UNL     1      -8.939   8.731  71.130  1.00  0.00    -0.202 NA 
HETATM   23  C   UNL     1     -10.202   9.084  71.539  1.00  0.00    -0.344 A  
HETATM   24  C   UNL     1      -8.974   8.798  69.819  1.00  0.00    -0.146 A  
ENDBRANCH  19  20
ENDBRANCH  10  19
ENDBRANCH   9  10
ENDBRANCH   8   9
ENDBRANCH   5   8
TORSDOF 6
ENDMDL
MODEL      142
REMARK 921   NORMALIZED FREE ENERGY PREDICTED BY IDOCK:   -4.42 KCAL/MOL
REMARK 922        TOTAL FREE ENERGY PREDICTED BY IDOCK:   -6.90 KCAL/MOL
REMARK 923 INTER-LIGAND FREE ENERGY PREDICTED BY IDOCK:   -6.34 KCAL/MOL
REMARK 924 INTRA-LIGAND FREE ENERGY PREDICTED BY IDOCK:   -0.56 KCAL/MOL
REMARK 927      BINDING AFFINITY PREDICTED BY RF-SCORE:    0.00 PKD
ROOT
HETATM    1 CL   UNL     1      -8.691  19.798  66.532  1.00  0.00    -0.383 Cl 
HETATM    2  C   UNL     1      -9.294  18.244  66.958  1.00  0.00    -0.274 A  
HETATM    3  C   UNL     1      -8.759  17.106  66.361  1.00  0.00    -0.291 A  
HETATM    4  C   UNL     1      -9.255  15.841  66.704  1.00  0.00    -0.283 A  
HETATM    5  C   UNL     1     -10.299  15.708  67.636  1.00  0.00    -0.275 A  
HETATM    6  C   UNL     1     -10.809  16.868  68.243  1.00  0.00    -0.357 A  
HETATM    7  C   UNL     1     -10.312  18.130  67.901  1.00  0.00    -0.410 A  
ENDROOT
BRANCH   5   8
HETATM    8  C   UNL     1     -10.808  14.334  68.037  1.00  0.00    -0.239 C  
BRANCH   8   9
HETATM    9  S   UNL     1      -9.576  13.084  67.566  1.00  0.00    -0.211 SA 
BRANCH   9  10
HETATM   10  C   UNL     1     -10.073  11.516  68.483  1.00  0.00    -0.207 C  
BRANCH  10  11
HETATM   11  C   UNL     1      -9.480  10.252  67.796  1.00  0.00    -0.163 A  
HETATM   12  C   UNL     1      -8.506   7.895  66.526  1.00  0.00    -0.134 A  
HETATM   13  C   UNL     1      -8.594   9.366  68.451  1.00  0.00    -0.124 A  
HETATM   14  C   UNL     1      -9.819   9.908  66.465  1.00  0.00    -0.274 A  
HETATM   15  C   UNL     1      -8.138   8.188  67.834  1.00  0.00    -0.128 A  
HETATM   16 CL   UNL     1      -7.928   6.467  65.760  1.00  0.00    -0.108 Cl 
HETATM   17 CL   UNL     1      -7.978   9.665  70.040  1.00  0.00    -0.161 Cl 
HETATM   18  C   UNL     1      -9.330   8.760  65.832  1.00  0.00    -0.284 A  
ENDBRANCH  10  11
BRANCH  10  19
HETATM   19  C   UNL     1     -11.604  11.433  68.724  1.00  0.00    -0.313 C  
BRANCH  19  20
HETATM   20  N   UNL     1     -11.988  10.877  70.003  1.00  0.00    -0.320 NA 
HETATM   21  C   UNL     1     -11.664   9.641  70.483  1.00  0.00    -0.242 A  
HETATM   22  N   UNL     1     -12.968  10.718  71.980  1.00  0.00    -0.428 NA 
HETATM   23  C   UNL     1     -12.331   9.540  71.676  1.00  0.00    -0.398 A  
HETATM   24  C   UNL     1     -12.718  11.514  70.965  1.00  0.00    -0.328 A  
ENDBRANCH  19  20
ENDBRANCH  10  19
ENDBRANCH   9  10
ENDBRANCH   8   9
ENDBRANCH   5   8
TORSDOF 6
ENDMDL
MODEL      143
REMARK 921   NORMALIZED FREE ENERGY PREDICTED BY IDOCK:   -4.42 KCAL/MOL
REMARK 922        TOTAL FREE ENERGY PREDICTED BY IDOCK:   -6.89 KCAL/MOL
REMARK 923 INTER-LIGAND FREE ENERGY PREDICTED BY IDOCK:   -6.40 KCAL/MOL
REMARK 924 INTRA-LIGAND FREE ENERGY PREDICTED BY IDOCK:   -0.50 KCAL/MOL
REMARK 927      BINDING AFFINITY PREDICTED BY RF-SCORE:    0.00 PKD
ROOT
HETATM    1 CL   UNL     1     -10.691  17.436  67.479  1.00  0.00    -0.322 Cl 
HETATM    2  C   UNL     1     -10.468  15.742  67.280  1.00  0.00    -0.308 A  
HETATM    3  C   UNL     1      -9.447  15.092  67.968  1.00  0.00    -0.193 A  
HETATM    4  C   UNL     1      -9.263  13.713  67.799  1.00  0.00    -0.214 A  
HETATM    5  C   UNL     1     -10.091  12.978  66.932  1.00  0.00    -0.243 A  
HETATM    6  C   UNL     1     -11.128  13.651  66.265  1.00  0.00    -0.304 A  
HETATM    7  C   UNL     1     -11.313  15.026  66.435  1.00  0.00    -0.275 A  
ENDROOT
BRANCH   5   8
HETATM    8  C   UNL     1      -9.915  11.477  66.782  1.00  0.00    -0.208 C  
BRANCH   8   9
HETATM    9  S   UNL     1      -8.932  10.852  68.176  1.00  0.00    -0.150 SA 
BRANCH   9  10
HETATM   10  C   UNL     1     -10.168  10.541  69.564  1.00  0.00    -0.200 C  
BRANCH  10  11
HETATM   11  C   UNL     1     -10.106   9.063  70.049  1.00  0.00    -0.215 A  
HETATM   12  C   UNL     1      -9.880   6.378  70.976  1.00  0.00    -0.180 A  
HETATM   13  C   UNL     1     -10.211   7.961  69.170  1.00  0.00    -0.216 A  
HETATM   14  C   UNL     1      -9.917   8.742  71.415  1.00  0.00    -0.354 A  
HETATM   15  C   UNL     1     -10.070   6.638  69.624  1.00  0.00    -0.202 A  
HETATM   16 CL   UNL     1      -9.733   4.760  71.538  1.00  0.00    -0.223 Cl 
HETATM   17 CL   UNL     1     -10.550   8.141  67.482  1.00  0.00    -0.316 Cl 
HETATM   18  C   UNL     1      -9.822   7.425  71.876  1.00  0.00    -0.187 A  
ENDBRANCH  10  11
BRANCH  10  19
HETATM   19  C   UNL     1     -11.599  11.017  69.197  1.00  0.00    -0.319 C  
BRANCH  19  20
HETATM   20  N   UNL     1     -12.254  11.811  70.215  1.00  0.00    -0.320 NA 
HETATM   21  C   UNL     1     -12.386  13.169  70.226  1.00  0.00    -0.249 A  
HETATM   22  N   UNL     1     -13.308  12.300  72.097  1.00  0.00    -0.484 NA 
HETATM   23  C   UNL     1     -12.984  13.455  71.426  1.00  0.00    -0.328 A  
HETATM   24  C   UNL     1     -12.880  11.326  71.326  1.00  0.00    -0.389 A  
ENDBRANCH  19  20
ENDBRANCH  10  19
ENDBRANCH   9  10
ENDBRANCH   8   9
ENDBRANCH   5   8
TORSDOF 6
ENDMDL
MODEL      144
REMARK 921   NORMALIZED FREE ENERGY PREDICTED BY IDOCK:   -4.42 KCAL/MOL
REMARK 922        TOTAL FREE ENERGY PREDICTED BY IDOCK:   -6.89 KCAL/MOL
REMARK 923 INTER-LIGAND FREE ENERGY PREDICTED BY IDOCK:   -5.73 KCAL/MOL
REMARK 924 INTRA-LIGAND FREE ENERGY PREDICTED BY IDOCK:   -1.17 KCAL/MOL
REMARK 927      BINDING AFFINITY PREDICTED BY RF-SCORE:    0.00 PKD
ROOT
HETATM    1 CL   UNL     1     -13.145  14.002  65.294  1.00  0.00    -0.340 Cl 
HETATM    2  C   UNL     1     -11.983  12.787  64.927  1.00  0.00    -0.402 A  
HETATM    3  C   UNL     1     -11.364  12.086  65.959  1.00  0.00    -0.398 A  
HETATM    4  C   UNL     1     -10.414  11.101  65.658  1.00  0.00    -0.308 A  
HETATM    5  C   UNL     1     -10.068  10.820  64.324  1.00  0.00    -0.427 A  
HETATM    6  C   UNL     1     -10.721  11.524  63.299  1.00  0.00    -0.374 A  
HETATM    7  C   UNL     1     -11.671  12.505  63.600  1.00  0.00    -0.594 A  
ENDROOT
BRANCH   5   8
HETATM    8  C   UNL     1      -9.067   9.724  64.000  1.00  0.00    -0.237 C  
BRANCH   8   9
HETATM    9  S   UNL     1      -7.849   9.615  65.343  1.00  0.00    -0.122 SA 
BRANCH   9  10
HETATM   10  C   UNL     1      -8.257   8.024  66.265  1.00  0.00    -0.116 C  
BRANCH  10  11
HETATM   11  C   UNL     1      -9.010   8.324  67.594  1.00  0.00    -0.140 A  
HETATM   12  C   UNL     1     -10.288   8.841  70.087  1.00  0.00    -0.208 A  
HETATM   13  C   UNL     1     -10.154   7.604  68.007  1.00  0.00    -0.187 A  
HETATM   14  C   UNL     1      -8.567   9.334  68.482  1.00  0.00    -0.128 A  
HETATM   15  C   UNL     1     -10.766   7.840  69.250  1.00  0.00    -0.156 A  
HETATM   16 CL   UNL     1     -11.050   9.150  71.598  1.00  0.00    -0.426 Cl 
HETATM   17 CL   UNL     1     -10.912   6.404  67.017  1.00  0.00    -0.465 Cl 
HETATM   18  C   UNL     1      -9.201   9.602  69.699  1.00  0.00    -0.225 A  
ENDBRANCH  10  11
BRANCH  10  19
HETATM   19  C   UNL     1      -7.015   7.111  66.445  1.00  0.00    -0.069 C  
BRANCH  19  20
HETATM   20  N   UNL     1      -7.303   5.693  66.472  1.00  0.00    -0.078 NA 
HETATM   21  C   UNL     1      -7.912   4.968  65.489  1.00  0.00    -0.104 A  
HETATM   22  N   UNL     1      -7.446   3.627  67.246  1.00  0.00    -0.070 NA 
HETATM   23  C   UNL     1      -8.047   3.709  66.013  1.00  0.00    -0.093 A  
HETATM   24  C   UNL     1      -6.982   4.833  67.481  1.00  0.00    -0.061 A  
ENDBRANCH  19  20
ENDBRANCH  10  19
ENDBRANCH   9  10
ENDBRANCH   8   9
ENDBRANCH   5   8
TORSDOF 6
ENDMDL
MODEL      145
REMARK 921   NORMALIZED FREE ENERGY PREDICTED BY IDOCK:   -4.41 KCAL/MOL
REMARK 922        TOTAL FREE ENERGY PREDICTED BY IDOCK:   -6.88 KCAL/MOL
REMARK 923 INTER-LIGAND FREE ENERGY PREDICTED BY IDOCK:   -5.70 KCAL/MOL
REMARK 924 INTRA-LIGAND FREE ENERGY PREDICTED BY IDOCK:   -1.18 KCAL/MOL
REMARK 927      BINDING AFFINITY PREDICTED BY RF-SCORE:    0.00 PKD
ROOT
HETATM    1 CL   UNL     1     -14.279   8.955  72.476  1.00  0.00    -0.485 Cl 
HETATM    2  C   UNL     1     -12.822   8.343  71.796  1.00  0.00    -0.345 A  
HETATM    3  C   UNL     1     -11.703   9.166  71.699  1.00  0.00    -0.448 A  
HETATM    4  C   UNL     1     -10.519   8.668  71.139  1.00  0.00    -0.291 A  
HETATM    5  C   UNL     1     -10.451   7.348  70.661  1.00  0.00    -0.224 A  
HETATM    6  C   UNL     1     -11.585   6.528  70.789  1.00  0.00    -0.437 A  
HETATM    7  C   UNL     1     -12.765   7.025  71.349  1.00  0.00    -0.421 A  
ENDROOT
BRANCH   5   8
HETATM    8  C   UNL     1      -9.154   6.797  70.092  1.00  0.00    -0.155 C  
BRANCH   8   9
HETATM    9  S   UNL     1      -9.081   7.168  68.315  1.00  0.00    -0.133 SA 
BRANCH   9  10
HETATM   10  C   UNL     1      -8.141   8.794  68.178  1.00  0.00    -0.107 C  
BRANCH  10  11
HETATM   11  C   UNL     1      -9.118   9.998  68.044  1.00  0.00    -0.132 A  
HETATM   12  C   UNL     1     -10.918  12.176  67.680  1.00  0.00    -0.243 A  
HETATM   13  C   UNL     1      -8.731  11.333  68.300  1.00  0.00    -0.158 A  
HETATM   14  C   UNL     1     -10.460   9.816  67.630  1.00  0.00    -0.305 A  
HETATM   15  C   UNL     1      -9.611  12.409  68.092  1.00  0.00    -0.218 A  
HETATM   16 CL   UNL     1     -12.005  13.489  67.449  1.00  0.00    -0.408 Cl 
HETATM   17 CL   UNL     1      -7.169  11.753  68.915  1.00  0.00    -0.113 Cl 
HETATM   18  C   UNL     1     -11.352  10.881  67.466  1.00  0.00    -0.309 A  
ENDBRANCH  10  11
BRANCH  10  19
HETATM   19  C   UNL     1      -7.048   8.753  67.076  1.00  0.00    -0.078 C  
BRANCH  19  20
HETATM   20  N   UNL     1      -7.520   9.059  65.742  1.00  0.00    -0.089 NA 
HETATM   21  C   UNL     1      -8.311   8.269  64.959  1.00  0.00    -0.148 A  
HETATM   22  N   UNL     1      -7.773  10.156  63.839  1.00  0.00    -0.152 NA 
HETATM   23  C   UNL     1      -8.403   8.937  63.766  1.00  0.00    -0.161 A  
HETATM   24  C   UNL     1      -7.276  10.211  65.054  1.00  0.00    -0.139 A  
ENDBRANCH  19  20
ENDBRANCH  10  19
ENDBRANCH   9  10
ENDBRANCH   8   9
ENDBRANCH   5   8
TORSDOF 6
ENDMDL
MODEL      146
REMARK 921   NORMALIZED FREE ENERGY PREDICTED BY IDOCK:   -4.41 KCAL/MOL
REMARK 922        TOTAL FREE ENERGY PREDICTED BY IDOCK:   -6.88 KCAL/MOL
REMARK 923 INTER-LIGAND FREE ENERGY PREDICTED BY IDOCK:   -6.12 KCAL/MOL
REMARK 924 INTRA-LIGAND FREE ENERGY PREDICTED BY IDOCK:   -0.76 KCAL/MOL
REMARK 927      BINDING AFFINITY PREDICTED BY RF-SCORE:    0.00 PKD
ROOT
HETATM    1 CL   UNL     1     -10.634  18.864  65.853  1.00  0.00    -0.513 Cl 
HETATM    2  C   UNL     1     -10.516  17.161  65.645  1.00  0.00    -0.197 A  
HETATM    3  C   UNL     1     -11.398  16.504  64.792  1.00  0.00    -0.078 A  
HETATM    4  C   UNL     1     -11.305  15.116  64.629  1.00  0.00    -0.362 A  
HETATM    5  C   UNL     1     -10.336  14.374  65.327  1.00  0.00    -0.427 A  
HETATM    6  C   UNL     1      -9.441  15.060  66.166  1.00  0.00    -0.347 A  
HETATM    7  C   UNL     1      -9.534  16.446  66.327  1.00  0.00    -0.347 A  
ENDROOT
BRANCH   5   8
HETATM    8  C   UNL     1     -10.210  12.875  65.117  1.00  0.00    -0.271 C  
BRANCH   8   9
HETATM    9  S   UNL     1     -11.320  12.018  66.272  1.00  0.00    -0.338 SA 
BRANCH   9  10
HETATM   10  C   UNL     1     -10.634  12.375  67.989  1.00  0.00    -0.221 C  
BRANCH  10  11
HETATM   11  C   UNL     1      -9.303  11.604  68.232  1.00  0.00    -0.191 A  
HETATM   12  C   UNL     1      -6.826  10.237  68.572  1.00  0.00    -0.061 A  
HETATM   13  C   UNL     1      -9.238  10.195  68.323  1.00  0.00    -0.130 A  
HETATM   14  C   UNL     1      -8.068  12.285  68.355  1.00  0.00    -0.151 A  
HETATM   15  C   UNL     1      -8.012   9.520  68.461  1.00  0.00    -0.093 A  
HETATM   16 CL   UNL     1      -5.328   9.415  68.766  1.00  0.00    -0.037 Cl 
HETATM   17 CL   UNL     1     -10.646   9.190  68.304  1.00  0.00    -0.247 Cl 
HETATM   18  C   UNL     1      -6.852  11.619  68.538  1.00  0.00    -0.073 A  
ENDBRANCH  10  11
BRANCH  10  19
HETATM   19  C   UNL     1     -11.691  12.159  69.104  1.00  0.00    -0.328 C  
BRANCH  19  20
HETATM   20  N   UNL     1     -12.005  13.340  69.880  1.00  0.00    -0.334 NA 
HETATM   21  C   UNL     1     -12.513  13.369  71.147  1.00  0.00    -0.327 A  
HETATM   22  N   UNL     1     -12.269  15.478  70.376  1.00  0.00    -0.388 NA 
HETATM   23  C   UNL     1     -12.727  14.697  71.409  1.00  0.00    -0.333 A  
HETATM   24  C   UNL     1     -11.813  14.630  69.482  1.00  0.00    -0.330 A  
ENDBRANCH  19  20
ENDBRANCH  10  19
ENDBRANCH   9  10
ENDBRANCH   8   9
ENDBRANCH   5   8
TORSDOF 6
ENDMDL
MODEL      147
REMARK 921   NORMALIZED FREE ENERGY PREDICTED BY IDOCK:   -4.40 KCAL/MOL
REMARK 922        TOTAL FREE ENERGY PREDICTED BY IDOCK:   -6.87 KCAL/MOL
REMARK 923 INTER-LIGAND FREE ENERGY PREDICTED BY IDOCK:   -6.07 KCAL/MOL
REMARK 924 INTRA-LIGAND FREE ENERGY PREDICTED BY IDOCK:   -0.80 KCAL/MOL
REMARK 927      BINDING AFFINITY PREDICTED BY RF-SCORE:    0.00 PKD
ROOT
HETATM    1 CL   UNL     1     -12.238  13.425  63.586  1.00  0.00    -0.528 Cl 
HETATM    2  C   UNL     1     -11.268  12.327  64.487  1.00  0.00    -0.326 A  
HETATM    3  C   UNL     1     -11.170  12.462  65.869  1.00  0.00    -0.373 A  
HETATM    4  C   UNL     1     -10.374  11.571  66.601  1.00  0.00    -0.262 A  
HETATM    5  C   UNL     1      -9.661  10.546  65.953  1.00  0.00    -0.254 A  
HETATM    6  C   UNL     1      -9.792  10.414  64.561  1.00  0.00    -0.405 A  
HETATM    7  C   UNL     1     -10.589  11.303  63.831  1.00  0.00    -0.455 A  
ENDROOT
BRANCH   5   8
HETATM    8  C   UNL     1      -8.831   9.556  66.753  1.00  0.00    -0.131 C  
BRANCH   8   9
HETATM    9  S   UNL     1      -8.841  10.049  68.501  1.00  0.00    -0.124 SA 
BRANCH   9  10
HETATM   10  C   UNL     1      -9.243   8.481  69.464  1.00  0.00    -0.150 C  
BRANCH  10  11
HETATM   11  C   UNL     1     -10.544   8.656  70.301  1.00  0.00    -0.240 A  
HETATM   12  C   UNL     1     -12.856   9.006  71.928  1.00  0.00    -0.387 A  
HETATM   13  C   UNL     1     -11.431   7.589  70.573  1.00  0.00    -0.237 A  
HETATM   14  C   UNL     1     -10.900   9.907  70.861  1.00  0.00    -0.357 A  
HETATM   15  C   UNL     1     -12.555   7.756  71.400  1.00  0.00    -0.339 A  
HETATM   16 CL   UNL     1     -14.245   9.219  72.920  1.00  0.00    -0.069 Cl 
HETATM   17 CL   UNL     1     -11.230   6.010  69.895  1.00  0.00    -0.469 Cl 
HETATM   18  C   UNL     1     -12.042  10.087  71.646  1.00  0.00    -0.420 A  
ENDBRANCH  10  11
BRANCH  10  19
HETATM   19  C   UNL     1      -8.033   7.970  70.292  1.00  0.00    -0.104 C  
BRANCH  19  20
HETATM   20  N   UNL     1      -7.919   6.530  70.373  1.00  0.00    -0.113 NA 
HETATM   21  C   UNL     1      -8.115   5.760  71.483  1.00  0.00    -0.118 A  
HETATM   22  N   UNL     1      -7.514   4.449  69.744  1.00  0.00    -0.050 NA 
HETATM   23  C   UNL     1      -7.799   4.486  71.087  1.00  0.00    -0.077 A  
HETATM   24  C   UNL     1      -7.624   5.693  69.337  1.00  0.00    -0.083 A  
ENDBRANCH  19  20
ENDBRANCH  10  19
ENDBRANCH   9  10
ENDBRANCH   8   9
ENDBRANCH   5   8
TORSDOF 6
ENDMDL
MODEL      148
REMARK 921   NORMALIZED FREE ENERGY PREDICTED BY IDOCK:   -4.40 KCAL/MOL
REMARK 922        TOTAL FREE ENERGY PREDICTED BY IDOCK:   -6.87 KCAL/MOL
REMARK 923 INTER-LIGAND FREE ENERGY PREDICTED BY IDOCK:   -6.36 KCAL/MOL
REMARK 924 INTRA-LIGAND FREE ENERGY PREDICTED BY IDOCK:   -0.51 KCAL/MOL
REMARK 927      BINDING AFFINITY PREDICTED BY RF-SCORE:    0.00 PKD
ROOT
HETATM    1 CL   UNL     1     -10.411  17.759  68.457  1.00  0.00    -0.372 Cl 
HETATM    2  C   UNL     1     -10.813  16.088  68.520  1.00  0.00    -0.304 A  
HETATM    3  C   UNL     1     -11.751  15.636  69.444  1.00  0.00    -0.395 A  
HETATM    4  C   UNL     1     -12.073  14.273  69.498  1.00  0.00    -0.376 A  
HETATM    5  C   UNL     1     -11.450  13.353  68.637  1.00  0.00    -0.345 A  
HETATM    6  C   UNL     1     -10.524  13.834  67.697  1.00  0.00    -0.242 A  
HETATM    7  C   UNL     1     -10.204  15.195  67.642  1.00  0.00    -0.241 A  
ENDROOT
BRANCH   5   8
HETATM    8  C   UNL     1     -11.831  11.882  68.669  1.00  0.00    -0.308 C  
BRANCH   8   9
HETATM    9  S   UNL     1     -10.330  10.885  68.899  1.00  0.00    -0.209 SA 
BRANCH   9  10
HETATM   10  C   UNL     1     -10.144   9.882  67.316  1.00  0.00    -0.211 C  
BRANCH  10  11
HETATM   11  C   UNL     1      -9.964   8.368  67.630  1.00  0.00    -0.246 A  
HETATM   12  C   UNL     1      -9.742   5.598  68.259  1.00  0.00    -0.130 A  
HETATM   13  C   UNL     1      -8.923   7.872  68.448  1.00  0.00    -0.133 A  
HETATM   14  C   UNL     1     -10.860   7.397  67.121  1.00  0.00    -0.340 A  
HETATM   15  C   UNL     1      -8.832   6.509  68.781  1.00  0.00    -0.125 A  
HETATM   16 CL   UNL     1      -9.617   3.926  68.644  1.00  0.00    -0.210 Cl 
HETATM   17 CL   UNL     1      -7.667   8.881  69.077  1.00  0.00    -0.089 Cl 
HETATM   18  C   UNL     1     -10.745   6.034  67.414  1.00  0.00    -0.393 A  
ENDBRANCH  10  11
BRANCH  10  19
HETATM   19  C   UNL     1      -9.051  10.458  66.377  1.00  0.00    -0.157 C  
BRANCH  19  20
HETATM   20  N   UNL     1      -9.505  10.772  65.039  1.00  0.00    -0.224 NA 
HETATM   21  C   UNL     1      -9.169  10.115  63.891  1.00  0.00    -0.280 A  
HETATM   22  N   UNL     1     -10.530  11.850  63.403  1.00  0.00    -0.437 NA 
HETATM   23  C   UNL     1      -9.762  10.835  62.887  1.00  0.00    -0.304 A  
HETATM   24  C   UNL     1     -10.376  11.767  64.705  1.00  0.00    -0.290 A  
ENDBRANCH  19  20
ENDBRANCH  10  19
ENDBRANCH   9  10
ENDBRANCH   8   9
ENDBRANCH   5   8
TORSDOF 6
ENDMDL
MODEL      149
REMARK 921   NORMALIZED FREE ENERGY PREDICTED BY IDOCK:   -4.40 KCAL/MOL
REMARK 922        TOTAL FREE ENERGY PREDICTED BY IDOCK:   -6.86 KCAL/MOL
REMARK 923 INTER-LIGAND FREE ENERGY PREDICTED BY IDOCK:   -6.79 KCAL/MOL
REMARK 924 INTRA-LIGAND FREE ENERGY PREDICTED BY IDOCK:   -0.07 KCAL/MOL
REMARK 927      BINDING AFFINITY PREDICTED BY RF-SCORE:    0.00 PKD
ROOT
HETATM    1 CL   UNL     1     -12.888  15.902  74.565  1.00  0.00    -0.374 Cl 
HETATM    2  C   UNL     1     -12.661  15.108  73.056  1.00  0.00    -0.438 A  
HETATM    3  C   UNL     1     -13.570  14.139  72.640  1.00  0.00    -0.618 A  
HETATM    4  C   UNL     1     -13.380  13.488  71.413  1.00  0.00    -0.296 A  
HETATM    5  C   UNL     1     -12.273  13.794  70.602  1.00  0.00    -0.434 A  
HETATM    6  C   UNL     1     -11.381  14.790  71.031  1.00  0.00    -0.188 A  
HETATM    7  C   UNL     1     -11.572  15.441  72.254  1.00  0.00    -0.554 A  
ENDROOT
BRANCH   5   8
HETATM    8  C   UNL     1     -12.091  13.117  69.254  1.00  0.00    -0.220 C  
BRANCH   8   9
HETATM    9  S   UNL     1     -10.637  12.029  69.327  1.00  0.00     0.158 SA 
BRANCH   9  10
HETATM   10  C   UNL     1     -11.279  10.304  68.926  1.00  0.00    -0.207 C  
BRANCH  10  11
HETATM   11  C   UNL     1     -11.113   9.347  70.143  1.00  0.00    -0.277 A  
HETATM   12  C   UNL     1     -10.836   7.503  72.297  1.00  0.00    -0.258 A  
HETATM   13  C   UNL     1     -11.937   9.414  71.290  1.00  0.00    -0.353 A  
HETATM   14  C   UNL     1     -10.128   8.331  70.154  1.00  0.00    -0.191 A  
HETATM   15  C   UNL     1     -11.819   8.485  72.338  1.00  0.00    -0.437 A  
HETATM   16 CL   UNL     1     -10.673   6.381  73.590  1.00  0.00    -0.272 Cl 
HETATM   17 CL   UNL     1     -13.127  10.649  71.515  1.00  0.00    -0.523 Cl 
HETATM   18  C   UNL     1      -9.978   7.433  71.216  1.00  0.00    -0.194 A  
ENDBRANCH  10  11
BRANCH  10  19
HETATM   19  C   UNL     1     -10.682   9.744  67.608  1.00  0.00    -0.274 C  
BRANCH  19  20
HETATM   20  N   UNL     1     -10.595  10.701  66.526  1.00  0.00    -0.222 NA 
HETATM   21  C   UNL     1     -11.612  11.469  66.036  1.00  0.00     0.102 A  
HETATM   22  N   UNL     1      -9.725  11.866  64.860  1.00  0.00    -0.188 NA 
HETATM   23  C   UNL     1     -11.068  12.133  64.967  1.00  0.00    -0.320 A  
HETATM   24  C   UNL     1      -9.465  11.022  65.832  1.00  0.00    -0.214 A  
ENDBRANCH  19  20
ENDBRANCH  10  19
ENDBRANCH   9  10
ENDBRANCH   8   9
ENDBRANCH   5   8
TORSDOF 6
ENDMDL
MODEL      150
REMARK 921   NORMALIZED FREE ENERGY PREDICTED BY IDOCK:   -4.39 KCAL/MOL
REMARK 922        TOTAL FREE ENERGY PREDICTED BY IDOCK:   -6.86 KCAL/MOL
REMARK 923 INTER-LIGAND FREE ENERGY PREDICTED BY IDOCK:   -6.13 KCAL/MOL
REMARK 924 INTRA-LIGAND FREE ENERGY PREDICTED BY IDOCK:   -0.73 KCAL/MOL
REMARK 927      BINDING AFFINITY PREDICTED BY RF-SCORE:    0.00 PKD
ROOT
HETATM    1 CL   UNL     1     -12.392  15.196  63.957  1.00  0.00    -0.232 Cl 
HETATM    2  C   UNL     1     -11.697  14.358  65.289  1.00  0.00    -0.364 A  
HETATM    3  C   UNL     1     -12.390  13.307  65.883  1.00  0.00    -0.479 A  
HETATM    4  C   UNL     1     -11.826  12.630  66.973  1.00  0.00    -0.415 A  
HETATM    5  C   UNL     1     -10.570  13.008  67.482  1.00  0.00    -0.237 A  
HETATM    6  C   UNL     1      -9.879  14.056  66.852  1.00  0.00    -0.267 A  
HETATM    7  C   UNL     1     -10.442  14.731  65.764  1.00  0.00    -0.348 A  
ENDROOT
BRANCH   5   8
HETATM    8  C   UNL     1      -9.942  12.246  68.636  1.00  0.00    -0.118 C  
BRANCH   8   9
HETATM    9  S   UNL     1     -11.147  11.048  69.282  1.00  0.00    -0.274 SA 
BRANCH   9  10
HETATM   10  C   UNL     1     -10.529   9.360  68.719  1.00  0.00    -0.212 C  
BRANCH  10  11
HETATM   11  C   UNL     1     -10.838   8.267  69.784  1.00  0.00    -0.186 A  
HETATM   12  C   UNL     1     -11.300   6.294  71.787  1.00  0.00    -0.294 A  
HETATM   13  C   UNL     1     -10.948   6.894  69.464  1.00  0.00    -0.250 A  
HETATM   14  C   UNL     1     -11.006   8.594  71.151  1.00  0.00    -0.320 A  
HETATM   15  C   UNL     1     -11.147   5.919  70.457  1.00  0.00    -0.347 A  
HETATM   16 CL   UNL     1     -11.569   5.106  73.000  1.00  0.00    -0.362 Cl 
HETATM   17 CL   UNL     1     -10.880   6.304  67.840  1.00  0.00    -0.377 Cl 
HETATM   18  C   UNL     1     -11.249   7.631  72.135  1.00  0.00    -0.331 A  
ENDBRANCH  10  11
BRANCH  10  19
HETATM   19  C   UNL     1      -9.042   9.394  68.275  1.00  0.00    -0.128 C  
BRANCH  19  20
HETATM   20  N   UNL     1      -8.089   9.099  69.323  1.00  0.00    -0.099 NA 
HETATM   21  C   UNL     1      -7.435   7.917  69.519  1.00  0.00    -0.093 A  
HETATM   22  N   UNL     1      -6.851   9.384  71.133  1.00  0.00    -0.254 NA 
HETATM   23  C   UNL     1      -6.725   8.095  70.677  1.00  0.00    -0.037 A  
HETATM   24  C   UNL     1      -7.657   9.972  70.278  1.00  0.00    -0.106 A  
ENDBRANCH  19  20
ENDBRANCH  10  19
ENDBRANCH   9  10
ENDBRANCH   8   9
ENDBRANCH   5   8
TORSDOF 6
ENDMDL
MODEL      151
REMARK 921   NORMALIZED FREE ENERGY PREDICTED BY IDOCK:   -4.39 KCAL/MOL
REMARK 922        TOTAL FREE ENERGY PREDICTED BY IDOCK:   -6.85 KCAL/MOL
REMARK 923 INTER-LIGAND FREE ENERGY PREDICTED BY IDOCK:   -5.98 KCAL/MOL
REMARK 924 INTRA-LIGAND FREE ENERGY PREDICTED BY IDOCK:   -0.86 KCAL/MOL
REMARK 927      BINDING AFFINITY PREDICTED BY RF-SCORE:    0.00 PKD
ROOT
HETATM    1 CL   UNL     1     -11.422  12.373  63.525  1.00  0.00    -0.543 Cl 
HETATM    2  C   UNL     1     -11.317  12.148  65.227  1.00  0.00    -0.336 A  
HETATM    3  C   UNL     1     -10.626  11.053  65.739  1.00  0.00    -0.260 A  
HETATM    4  C   UNL     1     -10.547  10.868  67.126  1.00  0.00    -0.302 A  
HETATM    5  C   UNL     1     -11.169  11.770  68.008  1.00  0.00    -0.324 A  
HETATM    6  C   UNL     1     -11.841  12.879  67.470  1.00  0.00    -0.407 A  
HETATM    7  C   UNL     1     -11.918  13.065  66.086  1.00  0.00    -0.488 A  
ENDROOT
BRANCH   5   8
HETATM    8  C   UNL     1     -11.047  11.590  69.512  1.00  0.00    -0.191 C  
BRANCH   8   9
HETATM    9  S   UNL     1     -12.185  10.279  70.047  1.00  0.00    -0.051 SA 
BRANCH   9  10
HETATM   10  C   UNL     1     -11.121   9.038  70.982  1.00  0.00    -0.289 C  
BRANCH  10  11
HETATM   11  C   UNL     1      -9.749   8.830  70.275  1.00  0.00    -0.198 A  
HETATM   12  C   UNL     1      -7.230   8.571  68.970  1.00  0.00    -0.073 A  
HETATM   13  C   UNL     1      -9.613   8.130  69.055  1.00  0.00    -0.156 A  
HETATM   14  C   UNL     1      -8.553   9.360  70.817  1.00  0.00    -0.201 A  
HETATM   15  C   UNL     1      -8.375   8.028  68.397  1.00  0.00    -0.127 A  
HETATM   16 CL   UNL     1      -5.710   8.425  68.180  1.00  0.00    -0.034 Cl 
HETATM   17 CL   UNL     1     -10.936   7.320  68.289  1.00  0.00    -0.101 Cl 
HETATM   18  C   UNL     1      -7.312   9.221  70.187  1.00  0.00    -0.096 A  
ENDBRANCH  10  11
BRANCH  10  19
HETATM   19  C   UNL     1     -11.877   7.715  71.276  1.00  0.00    -0.292 C  
BRANCH  19  20
HETATM   20  N   UNL     1     -11.355   6.953  72.390  1.00  0.00    -0.266 NA 
HETATM   21  C   UNL     1     -10.586   7.429  73.412  1.00  0.00    -0.377 A  
HETATM   22  N   UNL     1     -10.903   5.207  73.671  1.00  0.00    -0.293 NA 
HETATM   23  C   UNL     1     -10.266   6.323  74.157  1.00  0.00    -0.324 A  
HETATM   24  C   UNL     1     -11.575   5.626  72.622  1.00  0.00    -0.251 A  
ENDBRANCH  19  20
ENDBRANCH  10  19
ENDBRANCH   9  10
ENDBRANCH   8   9
ENDBRANCH   5   8
TORSDOF 6
ENDMDL
MODEL      152
REMARK 921   NORMALIZED FREE ENERGY PREDICTED BY IDOCK:   -4.38 KCAL/MOL
REMARK 922        TOTAL FREE ENERGY PREDICTED BY IDOCK:   -6.83 KCAL/MOL
REMARK 923 INTER-LIGAND FREE ENERGY PREDICTED BY IDOCK:   -5.42 KCAL/MOL
REMARK 924 INTRA-LIGAND FREE ENERGY PREDICTED BY IDOCK:   -1.42 KCAL/MOL
REMARK 927      BINDING AFFINITY PREDICTED BY RF-SCORE:    0.00 PKD
ROOT
HETATM    1 CL   UNL     1     -14.390   8.672  71.839  1.00  0.00    -0.500 Cl 
HETATM    2  C   UNL     1     -12.716   8.351  71.606  1.00  0.00    -0.331 A  
HETATM    3  C   UNL     1     -12.288   7.050  71.356  1.00  0.00    -0.419 A  
HETATM    4  C   UNL     1     -10.924   6.790  71.173  1.00  0.00    -0.298 A  
HETATM    5  C   UNL     1      -9.977   7.827  71.252  1.00  0.00    -0.199 A  
HETATM    6  C   UNL     1     -10.433   9.135  71.484  1.00  0.00    -0.422 A  
HETATM    7  C   UNL     1     -11.796   9.395  71.664  1.00  0.00    -0.464 A  
ENDROOT
BRANCH   5   8
HETATM    8  C   UNL     1      -8.503   7.548  71.013  1.00  0.00    -0.117 C  
BRANCH   8   9
HETATM    9  S   UNL     1      -8.319   6.615  69.466  1.00  0.00    -0.132 SA 
BRANCH   9  10
HETATM   10  C   UNL     1      -7.899   7.897  68.151  1.00  0.00    -0.127 C  
BRANCH  10  11
HETATM   11  C   UNL     1      -8.916   9.076  68.173  1.00  0.00    -0.133 A  
HETATM   12  C   UNL     1     -10.782  11.228  68.092  1.00  0.00    -0.204 A  
HETATM   13  C   UNL     1      -8.593  10.359  68.670  1.00  0.00    -0.133 A  
HETATM   14  C   UNL     1     -10.231   8.926  67.668  1.00  0.00    -0.296 A  
HETATM   15  C   UNL     1      -9.504  11.427  68.602  1.00  0.00    -0.168 A  
HETATM   16 CL   UNL     1     -11.907  12.527  68.032  1.00  0.00    -0.404 Cl 
HETATM   17 CL   UNL     1      -7.078  10.715  69.425  1.00  0.00    -0.106 Cl 
HETATM   18  C   UNL     1     -11.155   9.975  67.641  1.00  0.00    -0.222 A  
ENDBRANCH  10  11
BRANCH  10  19
HETATM   19  C   UNL     1      -7.711   7.263  66.747  1.00  0.00    -0.109 C  
BRANCH  19  20
HETATM   20  N   UNL     1      -8.212   5.911  66.619  1.00  0.00    -0.105 NA 
HETATM   21  C   UNL     1      -9.507   5.542  66.395  1.00  0.00    -0.155 A  
HETATM   22  N   UNL     1      -8.217   3.700  66.601  1.00  0.00    -0.099 NA 
HETATM   23  C   UNL     1      -9.498   4.173  66.450  1.00  0.00    -0.189 A  
HETATM   24  C   UNL     1      -7.462   4.773  66.671  1.00  0.00    -0.086 A  
ENDBRANCH  19  20
ENDBRANCH  10  19
ENDBRANCH   9  10
ENDBRANCH   8   9
ENDBRANCH   5   8
TORSDOF 6
ENDMDL
MODEL      153
REMARK 921   NORMALIZED FREE ENERGY PREDICTED BY IDOCK:   -4.37 KCAL/MOL
REMARK 922        TOTAL FREE ENERGY PREDICTED BY IDOCK:   -6.83 KCAL/MOL
REMARK 923 INTER-LIGAND FREE ENERGY PREDICTED BY IDOCK:   -7.66 KCAL/MOL
REMARK 924 INTRA-LIGAND FREE ENERGY PREDICTED BY IDOCK:    0.83 KCAL/MOL
REMARK 927      BINDING AFFINITY PREDICTED BY RF-SCORE:    0.00 PKD
ROOT
HETATM    1 CL   UNL     1      -8.850   8.743  62.828  1.00  0.00    -0.068 Cl 
HETATM    2  C   UNL     1      -9.304  10.190  63.640  1.00  0.00    -0.290 A  
HETATM    3  C   UNL     1      -8.836  10.439  64.927  1.00  0.00    -0.209 A  
HETATM    4  C   UNL     1      -9.211  11.615  65.589  1.00  0.00    -0.150 A  
HETATM    5  C   UNL     1     -10.068  12.544  64.973  1.00  0.00    -0.258 A  
HETATM    6  C   UNL     1     -10.511  12.284  63.665  1.00  0.00    -0.483 A  
HETATM    7  C   UNL     1     -10.134  11.110  63.004  1.00  0.00    -0.311 A  
ENDROOT
BRANCH   5   8
HETATM    8  C   UNL     1     -10.441  13.838  65.676  1.00  0.00    -0.305 C  
BRANCH   8   9
HETATM    9  S   UNL     1      -9.402  14.031  67.154  1.00  0.00    -0.251 SA 
BRANCH   9  10
HETATM   10  C   UNL     1     -10.024  15.591  68.007  1.00  0.00    -0.214 C  
BRANCH  10  11
HETATM   11  C   UNL     1     -10.943  15.242  69.214  1.00  0.00    -0.261 A  
HETATM   12  C   UNL     1     -12.527  14.606  71.495  1.00  0.00    -0.346 A  
HETATM   13  C   UNL     1     -11.667  14.031  69.302  1.00  0.00    -0.326 A  
HETATM   14  C   UNL     1     -11.086  16.124  70.312  1.00  0.00    -0.375 A  
HETATM   15  C   UNL     1     -12.425  13.706  70.441  1.00  0.00    -0.364 A  
HETATM   16 CL   UNL     1     -13.474  14.221  72.878  1.00  0.00    -0.572 Cl 
HETATM   17 CL   UNL     1     -11.709  12.871  68.019  1.00  0.00    -0.384 Cl 
HETATM   18  C   UNL     1     -11.875  15.823  71.427  1.00  0.00    -0.503 A  
ENDBRANCH  10  11
BRANCH  10  19
HETATM   19  C   UNL     1     -10.661  16.595  67.009  1.00  0.00    -0.247 C  
BRANCH  19  20
HETATM   20  N   UNL     1     -10.064  17.914  67.011  1.00  0.00    -0.324 NA 
HETATM   21  C   UNL     1     -10.727  19.106  67.034  1.00  0.00    -0.448 A  
HETATM   22  N   UNL     1      -8.500  19.476  66.943  1.00  0.00    -0.284 NA 
HETATM   23  C   UNL     1      -9.745  20.057  66.927  1.00  0.00    -0.425 A  
HETATM   24  C   UNL     1      -8.727  18.184  67.023  1.00  0.00    -0.258 A  
ENDBRANCH  19  20
ENDBRANCH  10  19
ENDBRANCH   9  10
ENDBRANCH   8   9
ENDBRANCH   5   8
TORSDOF 6
ENDMDL
MODEL      154
REMARK 921   NORMALIZED FREE ENERGY PREDICTED BY IDOCK:   -4.36 KCAL/MOL
REMARK 922        TOTAL FREE ENERGY PREDICTED BY IDOCK:   -6.81 KCAL/MOL
REMARK 923 INTER-LIGAND FREE ENERGY PREDICTED BY IDOCK:   -5.99 KCAL/MOL
REMARK 924 INTRA-LIGAND FREE ENERGY PREDICTED BY IDOCK:   -0.82 KCAL/MOL
REMARK 927      BINDING AFFINITY PREDICTED BY RF-SCORE:    0.00 PKD
ROOT
HETATM    1 CL   UNL     1      -8.628  17.135  68.922  1.00  0.00    -0.236 Cl 
HETATM    2  C   UNL     1      -8.271  15.546  68.367  1.00  0.00    -0.145 A  
HETATM    3  C   UNL     1      -9.013  14.993  67.327  1.00  0.00    -0.212 A  
HETATM    4  C   UNL     1      -8.726  13.697  66.880  1.00  0.00    -0.162 A  
HETATM    5  C   UNL     1      -7.703  12.940  67.479  1.00  0.00    -0.174 A  
HETATM    6  C   UNL     1      -6.952  13.526  68.512  1.00  0.00    -0.102 A  
HETATM    7  C   UNL     1      -7.239  14.821  68.956  1.00  0.00    -0.135 A  
ENDROOT
BRANCH   5   8
HETATM    8  C   UNL     1      -7.366  11.551  66.966  1.00  0.00    -0.145 C  
BRANCH   8   9
HETATM    9  S   UNL     1      -8.335  10.325  67.891  1.00  0.00    -0.114 SA 
BRANCH   9  10
HETATM   10  C   UNL     1      -9.614   9.669  66.673  1.00  0.00    -0.187 C  
BRANCH  10  11
HETATM   11  C   UNL     1     -10.398  10.835  66.001  1.00  0.00    -0.300 A  
HETATM   12  C   UNL     1     -11.726  13.022  64.749  1.00  0.00    -0.345 A  
HETATM   13  C   UNL     1     -11.308  11.654  66.706  1.00  0.00    -0.286 A  
HETATM   14  C   UNL     1     -10.219  11.152  64.633  1.00  0.00    -0.376 A  
HETATM   15  C   UNL     1     -11.940  12.751  66.095  1.00  0.00    -0.476 A  
HETATM   16 CL   UNL     1     -12.518  14.347  63.992  1.00  0.00    -0.316 Cl 
HETATM   17 CL   UNL     1     -11.743  11.365  68.356  1.00  0.00    -0.380 Cl 
HETATM   18  C   UNL     1     -10.882  12.215  64.010  1.00  0.00    -0.436 A  
ENDBRANCH  10  11
BRANCH  10  19
HETATM   19  C   UNL     1     -10.528   8.585  67.303  1.00  0.00    -0.296 C  
BRANCH  19  20
HETATM   20  N   UNL     1     -10.227   7.228  66.900  1.00  0.00    -0.261 NA 
HETATM   21  C   UNL     1      -9.098   6.801  66.262  1.00  0.00    -0.139 A  
HETATM   22  N   UNL     1     -10.504   5.060  66.567  1.00  0.00    -0.287 NA 
HETATM   23  C   UNL     1      -9.318   5.472  66.010  1.00  0.00    -0.148 A  
HETATM   24  C   UNL     1     -11.014   6.136  67.121  1.00  0.00    -0.331 A  
ENDBRANCH  19  20
ENDBRANCH  10  19
ENDBRANCH   9  10
ENDBRANCH   8   9
ENDBRANCH   5   8
TORSDOF 6
ENDMDL
MODEL      155
REMARK 921   NORMALIZED FREE ENERGY PREDICTED BY IDOCK:   -4.36 KCAL/MOL
REMARK 922        TOTAL FREE ENERGY PREDICTED BY IDOCK:   -6.81 KCAL/MOL
REMARK 923 INTER-LIGAND FREE ENERGY PREDICTED BY IDOCK:   -5.92 KCAL/MOL
REMARK 924 INTRA-LIGAND FREE ENERGY PREDICTED BY IDOCK:   -0.89 KCAL/MOL
REMARK 927      BINDING AFFINITY PREDICTED BY RF-SCORE:    0.00 PKD
ROOT
HETATM    1 CL   UNL     1     -12.313  14.497  64.184  1.00  0.00    -0.441 Cl 
HETATM    2  C   UNL     1     -11.566  13.022  64.659  1.00  0.00    -0.346 A  
HETATM    3  C   UNL     1     -10.862  12.270  63.723  1.00  0.00    -0.495 A  
HETATM    4  C   UNL     1     -10.259  11.065  64.110  1.00  0.00    -0.419 A  
HETATM    5  C   UNL     1     -10.367  10.600  65.432  1.00  0.00    -0.303 A  
HETATM    6  C   UNL     1     -11.063  11.387  66.365  1.00  0.00    -0.301 A  
HETATM    7  C   UNL     1     -11.663  12.590  65.979  1.00  0.00    -0.472 A  
ENDROOT
BRANCH   5   8
HETATM    8  C   UNL     1      -9.679   9.315  65.859  1.00  0.00    -0.285 C  
BRANCH   8   9
HETATM    9  S   UNL     1     -10.591   8.587  67.251  1.00  0.00    -0.165 SA 
BRANCH   9  10
HETATM   10  C   UNL     1      -9.424   8.686  68.726  1.00  0.00    -0.143 C  
BRANCH  10  11
HETATM   11  C   UNL     1      -9.849   7.691  69.846  1.00  0.00    -0.184 A  
HETATM   12  C   UNL     1     -10.701   5.956  71.939  1.00  0.00    -0.239 A  
HETATM   13  C   UNL     1      -8.944   7.184  70.806  1.00  0.00    -0.152 A  
HETATM   14  C   UNL     1     -11.189   7.254  69.974  1.00  0.00    -0.234 A  
HETATM   15  C   UNL     1      -9.371   6.352  71.855  1.00  0.00    -0.154 A  
HETATM   16 CL   UNL     1     -11.222   4.918  73.207  1.00  0.00    -0.401 Cl 
HETATM   17 CL   UNL     1      -7.246   7.513  70.756  1.00  0.00    -0.066 Cl 
HETATM   18  C   UNL     1     -11.609   6.390  70.991  1.00  0.00    -0.386 A  
ENDBRANCH  10  11
BRANCH  10  19
HETATM   19  C   UNL     1      -9.228  10.141  69.227  1.00  0.00    -0.208 C  
BRANCH  19  20
HETATM   20  N   UNL     1      -8.110  10.843  68.633  1.00  0.00    -0.135 NA 
HETATM   21  C   UNL     1      -6.896  10.310  68.307  1.00  0.00    -0.065 A  
HETATM   22  N   UNL     1      -6.911  12.517  67.828  1.00  0.00    -0.107 NA 
HETATM   23  C   UNL     1      -6.151  11.374  67.871  1.00  0.00    -0.050 A  
HETATM   24  C   UNL     1      -8.096  12.157  68.266  1.00  0.00    -0.166 A  
ENDBRANCH  19  20
ENDBRANCH  10  19
ENDBRANCH   9  10
ENDBRANCH   8   9
ENDBRANCH   5   8
TORSDOF 6
ENDMDL
MODEL      156
REMARK 921   NORMALIZED FREE ENERGY PREDICTED BY IDOCK:   -4.36 KCAL/MOL
REMARK 922        TOTAL FREE ENERGY PREDICTED BY IDOCK:   -6.81 KCAL/MOL
REMARK 923 INTER-LIGAND FREE ENERGY PREDICTED BY IDOCK:   -6.03 KCAL/MOL
REMARK 924 INTRA-LIGAND FREE ENERGY PREDICTED BY IDOCK:   -0.77 KCAL/MOL
REMARK 927      BINDING AFFINITY PREDICTED BY RF-SCORE:    0.00 PKD
ROOT
HETATM    1 CL   UNL     1     -12.838  15.571  71.119  1.00  0.00    -0.518 Cl 
HETATM    2  C   UNL     1     -12.374  14.136  70.291  1.00  0.00    -0.356 A  
HETATM    3  C   UNL     1     -12.474  12.904  70.931  1.00  0.00    -0.383 A  
HETATM    4  C   UNL     1     -12.090  11.737  70.257  1.00  0.00    -0.426 A  
HETATM    5  C   UNL     1     -11.591  11.797  68.943  1.00  0.00    -0.370 A  
HETATM    6  C   UNL     1     -11.520  13.049  68.309  1.00  0.00    -0.347 A  
HETATM    7  C   UNL     1     -11.906  14.213  68.982  1.00  0.00    -0.384 A  
ENDROOT
BRANCH   5   8
HETATM    8  C   UNL     1     -11.214  10.527  68.200  1.00  0.00    -0.293 C  
BRANCH   8   9
HETATM    9  S   UNL     1      -9.495  10.096  68.597  1.00  0.00    -0.171 SA 
BRANCH   9  10
HETATM   10  C   UNL     1      -9.562   8.348  69.295  1.00  0.00    -0.164 C  
BRANCH  10  11
HETATM   11  C   UNL     1      -9.173   7.296  68.215  1.00  0.00    -0.133 A  
HETATM   12  C   UNL     1      -8.578   5.369  66.203  1.00  0.00    -0.126 A  
HETATM   13  C   UNL     1      -8.645   6.026  68.536  1.00  0.00    -0.111 A  
HETATM   14  C   UNL     1      -9.353   7.556  66.835  1.00  0.00    -0.197 A  
HETATM   15  C   UNL     1      -8.380   5.065  67.544  1.00  0.00    -0.105 A  
HETATM   16 CL   UNL     1      -8.231   4.205  64.986  1.00  0.00    -0.101 Cl 
HETATM   17 CL   UNL     1      -8.253   5.557  70.154  1.00  0.00    -0.100 Cl 
HETATM   18  C   UNL     1      -9.047   6.619  65.843  1.00  0.00    -0.059 A  
ENDBRANCH  10  11
BRANCH  10  19
HETATM   19  C   UNL     1     -10.911   8.046  70.001  1.00  0.00    -0.235 C  
BRANCH  19  20
HETATM   20  N   UNL     1     -10.790   7.569  71.362  1.00  0.00    -0.228 NA 
HETATM   21  C   UNL     1     -10.305   8.269  72.429  1.00  0.00    -0.332 A  
HETATM   22  N   UNL     1     -10.862   6.180  73.081  1.00  0.00    -0.256 NA 
HETATM   23  C   UNL     1     -10.300   7.372  73.466  1.00  0.00    -0.353 A  
HETATM   24  C   UNL     1     -11.174   6.341  71.815  1.00  0.00    -0.284 A  
ENDBRANCH  19  20
ENDBRANCH  10  19
ENDBRANCH   9  10
ENDBRANCH   8   9
ENDBRANCH   5   8
TORSDOF 6
ENDMDL
MODEL      157
REMARK 921   NORMALIZED FREE ENERGY PREDICTED BY IDOCK:   -4.35 KCAL/MOL
REMARK 922        TOTAL FREE ENERGY PREDICTED BY IDOCK:   -6.80 KCAL/MOL
REMARK 923 INTER-LIGAND FREE ENERGY PREDICTED BY IDOCK:   -6.11 KCAL/MOL
REMARK 924 INTRA-LIGAND FREE ENERGY PREDICTED BY IDOCK:   -0.68 KCAL/MOL
REMARK 927      BINDING AFFINITY PREDICTED BY RF-SCORE:    0.00 PKD
ROOT
HETATM    1 CL   UNL     1      -6.227   4.791  67.929  1.00  0.00    -0.034 Cl 
HETATM    2  C   UNL     1      -6.889   6.352  68.222  1.00  0.00    -0.071 A  
HETATM    3  C   UNL     1      -7.546   7.029  67.199  1.00  0.00    -0.107 A  
HETATM    4  C   UNL     1      -8.079   8.303  67.438  1.00  0.00    -0.121 A  
HETATM    5  C   UNL     1      -7.946   8.913  68.698  1.00  0.00    -0.103 A  
HETATM    6  C   UNL     1      -7.299   8.202  69.722  1.00  0.00    -0.065 A  
HETATM    7  C   UNL     1      -6.769   6.930  69.484  1.00  0.00    -0.050 A  
ENDROOT
BRANCH   5   8
HETATM    8  C   UNL     1      -8.560  10.276  68.966  1.00  0.00    -0.162 C  
BRANCH   8   9
HETATM    9  S   UNL     1     -10.294  10.263  68.425  1.00  0.00    -0.189 SA 
BRANCH   9  10
HETATM   10  C   UNL     1     -11.307   9.988  69.990  1.00  0.00    -0.275 C  
BRANCH  10  11
HETATM   11  C   UNL     1     -11.952  11.317  70.481  1.00  0.00    -0.467 A  
HETATM   12  C   UNL     1     -13.020  13.791  71.405  1.00  0.00    -0.355 A  
HETATM   13  C   UNL     1     -12.825  11.382  71.591  1.00  0.00    -0.391 A  
HETATM   14  C   UNL     1     -11.675  12.551  69.845  1.00  0.00    -0.327 A  
HETATM   15  C   UNL     1     -13.328  12.606  72.064  1.00  0.00    -0.555 A  
HETATM   16 CL   UNL     1     -13.655  15.288  71.966  1.00  0.00    -0.512 Cl 
HETATM   17 CL   UNL     1     -13.369   9.973  72.436  1.00  0.00    -0.381 Cl 
HETATM   18  C   UNL     1     -12.210  13.766  70.286  1.00  0.00    -0.429 A  
ENDBRANCH  10  11
BRANCH  10  19
HETATM   19  C   UNL     1     -10.505   9.241  71.088  1.00  0.00    -0.331 C  
BRANCH  19  20
HETATM   20  N   UNL     1     -10.631   7.799  71.057  1.00  0.00    -0.212 NA 
HETATM   21  C   UNL     1     -10.927   7.032  69.968  1.00  0.00    -0.270 A  
HETATM   22  N   UNL     1     -10.707   5.714  71.789  1.00  0.00    -0.241 NA 
HETATM   23  C   UNL     1     -11.030   5.755  70.454  1.00  0.00    -0.262 A  
HETATM   24  C   UNL     1     -10.443   6.958  72.115  1.00  0.00    -0.206 A  
ENDBRANCH  19  20
ENDBRANCH  10  19
ENDBRANCH   9  10
ENDBRANCH   8   9
ENDBRANCH   5   8
TORSDOF 6
ENDMDL
MODEL      158
REMARK 921   NORMALIZED FREE ENERGY PREDICTED BY IDOCK:   -4.34 KCAL/MOL
REMARK 922        TOTAL FREE ENERGY PREDICTED BY IDOCK:   -6.79 KCAL/MOL
REMARK 923 INTER-LIGAND FREE ENERGY PREDICTED BY IDOCK:   -6.16 KCAL/MOL
REMARK 924 INTRA-LIGAND FREE ENERGY PREDICTED BY IDOCK:   -0.63 KCAL/MOL
REMARK 927      BINDING AFFINITY PREDICTED BY RF-SCORE:    0.00 PKD
ROOT
HETATM    1 CL   UNL     1      -8.680   7.151  68.092  1.00  0.00    -0.128 Cl 
HETATM    2  C   UNL     1      -8.263   8.799  67.828  1.00  0.00    -0.111 A  
HETATM    3  C   UNL     1      -7.221   9.120  66.962  1.00  0.00    -0.090 A  
HETATM    4  C   UNL     1      -6.879  10.462  66.754  1.00  0.00    -0.091 A  
HETATM    5  C   UNL     1      -7.568  11.491  67.420  1.00  0.00    -0.135 A  
HETATM    6  C   UNL     1      -8.630  11.146  68.272  1.00  0.00    -0.146 A  
HETATM    7  C   UNL     1      -8.972   9.805  68.478  1.00  0.00    -0.124 A  
ENDROOT
BRANCH   5   8
HETATM    8  C   UNL     1      -7.222  12.948  67.160  1.00  0.00     0.029 C  
BRANCH   8   9
HETATM    9  S   UNL     1      -8.356  14.005  68.108  1.00  0.00    -0.173 SA 
BRANCH   9  10
HETATM   10  C   UNL     1      -9.457  14.838  66.826  1.00  0.00    -0.254 C  
BRANCH  10  11
HETATM   11  C   UNL     1      -9.462  16.384  67.011  1.00  0.00    -0.240 A  
HETATM   12  C   UNL     1      -9.548  19.221  67.255  1.00  0.00    -0.320 A  
HETATM   13  C   UNL     1      -8.301  17.177  66.873  1.00  0.00    -0.224 A  
HETATM   14  C   UNL     1     -10.654  17.087  67.311  1.00  0.00    -0.267 A  
HETATM   15  C   UNL     1      -8.350  18.579  66.964  1.00  0.00    -0.259 A  
HETATM   16 CL   UNL     1      -9.606  20.934  67.393  1.00  0.00    -0.511 Cl 
HETATM   17 CL   UNL     1      -6.730  16.500  66.612  1.00  0.00    -0.201 Cl 
HETATM   18  C   UNL     1     -10.698  18.478  67.447  1.00  0.00    -0.424 A  
ENDBRANCH  10  11
BRANCH  10  19
HETATM   19  C   UNL     1     -10.876  14.212  66.770  1.00  0.00    -0.296 C  
BRANCH  19  20
HETATM   20  N   UNL     1     -11.259  13.691  65.476  1.00  0.00    -0.292 NA 
HETATM   21  C   UNL     1     -10.597  12.740  64.754  1.00  0.00    -0.327 A  
HETATM   22  N   UNL     1     -12.401  13.453  63.597  1.00  0.00    -0.735 NA 
HETATM   23  C   UNL     1     -11.284  12.654  63.571  1.00  0.00    -0.429 A  
HETATM   24  C   UNL     1     -12.373  14.042  64.771  1.00  0.00    -0.413 A  
ENDBRANCH  19  20
ENDBRANCH  10  19
ENDBRANCH   9  10
ENDBRANCH   8   9
ENDBRANCH   5   8
TORSDOF 6
ENDMDL
MODEL      159
REMARK 921   NORMALIZED FREE ENERGY PREDICTED BY IDOCK:   -4.32 KCAL/MOL
REMARK 922        TOTAL FREE ENERGY PREDICTED BY IDOCK:   -6.76 KCAL/MOL
REMARK 923 INTER-LIGAND FREE ENERGY PREDICTED BY IDOCK:   -5.95 KCAL/MOL
REMARK 924 INTRA-LIGAND FREE ENERGY PREDICTED BY IDOCK:   -0.81 KCAL/MOL
REMARK 927      BINDING AFFINITY PREDICTED BY RF-SCORE:    0.00 PKD
ROOT
HETATM    1 CL   UNL     1      -9.615   3.588  66.923  1.00  0.00    -0.199 Cl 
HETATM    2  C   UNL     1      -9.621   5.295  66.711  1.00  0.00    -0.148 A  
HETATM    3  C   UNL     1     -10.671   6.052  67.222  1.00  0.00    -0.400 A  
HETATM    4  C   UNL     1     -10.677   7.442  67.043  1.00  0.00    -0.389 A  
HETATM    5  C   UNL     1      -9.640   8.081  66.341  1.00  0.00    -0.267 A  
HETATM    6  C   UNL     1      -8.580   7.299  65.853  1.00  0.00    -0.159 A  
HETATM    7  C   UNL     1      -8.573   5.913  66.033  1.00  0.00    -0.142 A  
ENDROOT
BRANCH   5   8
HETATM    8  C   UNL     1      -9.629   9.592  66.183  1.00  0.00    -0.233 C  
BRANCH   8   9
HETATM    9  S   UNL     1     -11.032  10.295  67.098  1.00  0.00    -0.081 SA 
BRANCH   9  10
HETATM   10  C   UNL     1     -10.272  11.236  68.542  1.00  0.00    -0.205 C  
BRANCH  10  11
HETATM   11  C   UNL     1      -9.536  12.517  68.051  1.00  0.00    -0.212 A  
HETATM   12  C   UNL     1      -8.139  14.871  67.263  1.00  0.00    -0.208 A  
HETATM   13  C   UNL     1     -10.219  13.689  67.653  1.00  0.00    -0.239 A  
HETATM   14  C   UNL     1      -8.123  12.583  67.999  1.00  0.00    -0.164 A  
HETATM   15  C   UNL     1      -9.529  14.859  67.293  1.00  0.00    -0.216 A  
HETATM   16 CL   UNL     1      -7.292  16.294  66.797  1.00  0.00    -0.258 Cl 
HETATM   17 CL   UNL     1     -11.944  13.776  67.546  1.00  0.00    -0.418 Cl 
HETATM   18  C   UNL     1      -7.433  13.731  67.597  1.00  0.00    -0.187 A  
ENDBRANCH  10  11
BRANCH  10  19
HETATM   19  C   UNL     1      -9.399  10.325  69.446  1.00  0.00    -0.199 C  
BRANCH  19  20
HETATM   20  N   UNL     1     -10.105   9.712  70.551  1.00  0.00    -0.279 NA 
HETATM   21  C   UNL     1      -9.592   8.822  71.450  1.00  0.00    -0.267 A  
HETATM   22  N   UNL     1     -11.777   9.181  71.898  1.00  0.00    -0.371 NA 
HETATM   23  C   UNL     1     -10.657   8.460  72.234  1.00  0.00    -0.342 A  
HETATM   24  C   UNL     1     -11.403   9.947  70.898  1.00  0.00    -0.370 A  
ENDBRANCH  19  20
ENDBRANCH  10  19
ENDBRANCH   9  10
ENDBRANCH   8   9
ENDBRANCH   5   8
TORSDOF 6
ENDMDL
MODEL      160
REMARK 921   NORMALIZED FREE ENERGY PREDICTED BY IDOCK:   -4.31 KCAL/MOL
REMARK 922        TOTAL FREE ENERGY PREDICTED BY IDOCK:   -6.75 KCAL/MOL
REMARK 923 INTER-LIGAND FREE ENERGY PREDICTED BY IDOCK:   -6.35 KCAL/MOL
REMARK 924 INTRA-LIGAND FREE ENERGY PREDICTED BY IDOCK:   -0.40 KCAL/MOL
REMARK 927      BINDING AFFINITY PREDICTED BY RF-SCORE:    0.00 PKD
ROOT
HETATM    1 CL   UNL     1     -10.612  19.613  65.761  1.00  0.00    -0.602 Cl 
HETATM    2  C   UNL     1     -10.415  18.123  66.598  1.00  0.00    -0.339 A  
HETATM    3  C   UNL     1     -10.630  18.066  67.972  1.00  0.00    -0.361 A  
HETATM    4  C   UNL     1     -10.463  16.853  68.653  1.00  0.00    -0.352 A  
HETATM    5  C   UNL     1     -10.066  15.692  67.965  1.00  0.00    -0.224 A  
HETATM    6  C   UNL     1      -9.876  15.768  66.575  1.00  0.00    -0.286 A  
HETATM    7  C   UNL     1     -10.046  16.978  65.896  1.00  0.00    -0.281 A  
ENDROOT
BRANCH   5   8
HETATM    8  C   UNL     1      -9.925  14.369  68.698  1.00  0.00    -0.241 C  
BRANCH   8   9
HETATM    9  S   UNL     1     -11.172  13.206  68.070  1.00  0.00    -0.296 SA 
BRANCH   9  10
HETATM   10  C   UNL     1     -10.231  11.623  67.675  1.00  0.00    -0.188 C  
BRANCH  10  11
HETATM   11  C   UNL     1      -9.954  10.798  68.967  1.00  0.00    -0.214 A  
HETATM   12  C   UNL     1      -9.408   9.198  71.260  1.00  0.00    -0.215 A  
HETATM   13  C   UNL     1     -10.978  10.402  69.857  1.00  0.00    -0.305 A  
HETATM   14  C   UNL     1      -8.646  10.378  69.308  1.00  0.00    -0.159 A  
HETATM   15  C   UNL     1     -10.711   9.588  70.972  1.00  0.00    -0.411 A  
HETATM   16 CL   UNL     1      -9.075   8.224  72.637  1.00  0.00    -0.308 Cl 
HETATM   17 CL   UNL     1     -12.623  10.903  69.674  1.00  0.00    -0.214 Cl 
HETATM   18  C   UNL     1      -8.371   9.606  70.441  1.00  0.00    -0.188 A  
ENDBRANCH  10  11
BRANCH  10  19
HETATM   19  C   UNL     1      -8.961  11.888  66.822  1.00  0.00    -0.196 C  
BRANCH  19  20
HETATM   20  N   UNL     1      -8.815  11.027  65.668  1.00  0.00    -0.190 NA 
HETATM   21  C   UNL     1      -9.652  10.962  64.591  1.00  0.00    -0.257 A  
HETATM   22  N   UNL     1      -7.983   9.459  64.350  1.00  0.00    -0.124 NA 
HETATM   23  C   UNL     1      -9.153   9.944  63.821  1.00  0.00    -0.256 A  
HETATM   24  C   UNL     1      -7.791  10.153  65.449  1.00  0.00    -0.142 A  
ENDBRANCH  19  20
ENDBRANCH  10  19
ENDBRANCH   9  10
ENDBRANCH   8   9
ENDBRANCH   5   8
TORSDOF 6
ENDMDL
MODEL      161
REMARK 921   NORMALIZED FREE ENERGY PREDICTED BY IDOCK:   -4.31 KCAL/MOL
REMARK 922        TOTAL FREE ENERGY PREDICTED BY IDOCK:   -6.74 KCAL/MOL
REMARK 923 INTER-LIGAND FREE ENERGY PREDICTED BY IDOCK:   -5.11 KCAL/MOL
REMARK 924 INTRA-LIGAND FREE ENERGY PREDICTED BY IDOCK:   -1.64 KCAL/MOL
REMARK 927      BINDING AFFINITY PREDICTED BY RF-SCORE:    0.00 PKD
ROOT
HETATM    1 CL   UNL     1     -13.190  10.064  71.554  1.00  0.00    -0.485 Cl 
HETATM    2  C   UNL     1     -12.038   8.787  71.512  1.00  0.00    -0.329 A  
HETATM    3  C   UNL     1     -10.677   9.080  71.555  1.00  0.00    -0.421 A  
HETATM    4  C   UNL     1      -9.740   8.040  71.514  1.00  0.00    -0.213 A  
HETATM    5  C   UNL     1     -10.157   6.700  71.416  1.00  0.00    -0.209 A  
HETATM    6  C   UNL     1     -11.535   6.427  71.397  1.00  0.00    -0.363 A  
HETATM    7  C   UNL     1     -12.470   7.465  71.440  1.00  0.00    -0.402 A  
ENDROOT
BRANCH   5   8
HETATM    8  C   UNL     1      -9.140   5.571  71.413  1.00  0.00    -0.143 C  
BRANCH   8   9
HETATM    9  S   UNL     1      -9.740   4.235  70.338  1.00  0.00    -0.200 SA 
BRANCH   9  10
HETATM   10  C   UNL     1      -8.991   4.577  68.644  1.00  0.00    -0.112 C  
BRANCH  10  11
HETATM   11  C   UNL     1      -9.246   6.049  68.205  1.00  0.00    -0.116 A  
HETATM   12  C   UNL     1      -9.738   8.701  67.289  1.00  0.00    -0.185 A  
HETATM   13  C   UNL     1      -8.238   7.040  68.219  1.00  0.00    -0.124 A  
HETATM   14  C   UNL     1     -10.515   6.471  67.740  1.00  0.00    -0.279 A  
HETATM   15  C   UNL     1      -8.474   8.340  67.739  1.00  0.00    -0.131 A  
HETATM   16 CL   UNL     1     -10.037  10.299  66.726  1.00  0.00    -0.260 Cl 
HETATM   17 CL   UNL     1      -6.652   6.752  68.849  1.00  0.00    -0.049 Cl 
HETATM   18  C   UNL     1     -10.765   7.777  67.305  1.00  0.00    -0.326 A  
ENDBRANCH  10  11
BRANCH  10  19
HETATM   19  C   UNL     1      -9.422   3.528  67.585  1.00  0.00    -0.183 C  
BRANCH  19  20
HETATM   20  N   UNL     1      -8.896   3.755  66.256  1.00  0.00    -0.122 NA 
HETATM   21  C   UNL     1      -9.621   3.994  65.125  1.00  0.00    -0.181 A  
HETATM   22  N   UNL     1      -7.419   3.945  64.621  1.00  0.00    -0.075 NA 
HETATM   23  C   UNL     1      -8.693   4.046  64.117  1.00  0.00    -0.116 A  
HETATM   24  C   UNL     1      -7.575   3.800  65.917  1.00  0.00    -0.085 A  
ENDBRANCH  19  20
ENDBRANCH  10  19
ENDBRANCH   9  10
ENDBRANCH   8   9
ENDBRANCH   5   8
TORSDOF 6
ENDMDL
MODEL      162
REMARK 921   NORMALIZED FREE ENERGY PREDICTED BY IDOCK:   -4.30 KCAL/MOL
REMARK 922        TOTAL FREE ENERGY PREDICTED BY IDOCK:   -6.72 KCAL/MOL
REMARK 923 INTER-LIGAND FREE ENERGY PREDICTED BY IDOCK:   -5.45 KCAL/MOL
REMARK 924 INTRA-LIGAND FREE ENERGY PREDICTED BY IDOCK:   -1.27 KCAL/MOL
REMARK 927      BINDING AFFINITY PREDICTED BY RF-SCORE:    0.00 PKD
ROOT
HETATM    1 CL   UNL     1     -11.284   4.328  73.802  1.00  0.00    -0.309 Cl 
HETATM    2  C   UNL     1     -10.079   5.263  73.005  1.00  0.00    -0.176 A  
HETATM    3  C   UNL     1      -9.256   4.665  72.054  1.00  0.00    -0.167 A  
HETATM    4  C   UNL     1      -8.271   5.427  71.410  1.00  0.00    -0.117 A  
HETATM    5  C   UNL     1      -8.095   6.786  71.723  1.00  0.00    -0.102 A  
HETATM    6  C   UNL     1      -8.951   7.373  72.669  1.00  0.00    -0.173 A  
HETATM    7  C   UNL     1      -9.935   6.614  73.310  1.00  0.00    -0.211 A  
ENDROOT
BRANCH   5   8
HETATM    8  C   UNL     1      -7.054   7.619  70.994  1.00  0.00    -0.054 C  
BRANCH   8   9
HETATM    9  S   UNL     1      -7.792   9.211  70.522  1.00  0.00    -0.156 SA 
BRANCH   9  10
HETATM   10  C   UNL     1      -9.542   8.805  69.955  1.00  0.00    -0.169 C  
BRANCH  10  11
HETATM   11  C   UNL     1      -9.530   7.765  68.797  1.00  0.00    -0.149 A  
HETATM   12  C   UNL     1      -9.528   5.951  66.600  1.00  0.00    -0.151 A  
HETATM   13  C   UNL     1     -10.470   6.714  68.700  1.00  0.00    -0.211 A  
HETATM   14  C   UNL     1      -8.574   7.832  67.755  1.00  0.00    -0.121 A  
HETATM   15  C   UNL     1     -10.487   5.838  67.601  1.00  0.00    -0.299 A  
HETATM   16 CL   UNL     1      -9.530   4.864  65.267  1.00  0.00    -0.142 Cl 
HETATM   17 CL   UNL     1     -11.650   6.398  69.926  1.00  0.00    -0.490 Cl 
HETATM   18  C   UNL     1      -8.560   6.934  66.683  1.00  0.00    -0.124 A  
ENDBRANCH  10  11
BRANCH  10  19
HETATM   19  C   UNL     1     -10.370  10.080  69.639  1.00  0.00    -0.247 C  
BRANCH  19  20
HETATM   20  N   UNL     1     -11.446  10.350  70.567  1.00  0.00    -0.327 NA 
HETATM   21  C   UNL     1     -11.952   9.490  71.499  1.00  0.00    -0.399 A  
HETATM   22  N   UNL     1     -13.092  11.438  71.565  1.00  0.00    -0.398 NA 
HETATM   23  C   UNL     1     -13.008  10.160  72.060  1.00  0.00    -0.409 A  
HETATM   24  C   UNL     1     -12.119  11.531  70.688  1.00  0.00    -0.353 A  
ENDBRANCH  19  20
ENDBRANCH  10  19
ENDBRANCH   9  10
ENDBRANCH   8   9
ENDBRANCH   5   8
TORSDOF 6
ENDMDL
MODEL      163
REMARK 921   NORMALIZED FREE ENERGY PREDICTED BY IDOCK:   -4.29 KCAL/MOL
REMARK 922        TOTAL FREE ENERGY PREDICTED BY IDOCK:   -6.72 KCAL/MOL
REMARK 923 INTER-LIGAND FREE ENERGY PREDICTED BY IDOCK:   -5.62 KCAL/MOL
REMARK 924 INTRA-LIGAND FREE ENERGY PREDICTED BY IDOCK:   -1.10 KCAL/MOL
REMARK 927      BINDING AFFINITY PREDICTED BY RF-SCORE:    0.00 PKD
ROOT
HETATM    1 CL   UNL     1      -8.083   5.026  66.218  1.00  0.00    -0.107 Cl 
HETATM    2  C   UNL     1      -8.865   6.306  67.060  1.00  0.00    -0.108 A  
HETATM    3  C   UNL     1      -8.254   6.878  68.173  1.00  0.00    -0.119 A  
HETATM    4  C   UNL     1      -8.895   7.916  68.861  1.00  0.00    -0.142 A  
HETATM    5  C   UNL     1     -10.157   8.380  68.450  1.00  0.00    -0.224 A  
HETATM    6  C   UNL     1     -10.745   7.803  67.312  1.00  0.00    -0.326 A  
HETATM    7  C   UNL     1     -10.104   6.768  66.623  1.00  0.00    -0.205 A  
ENDROOT
BRANCH   5   8
HETATM    8  C   UNL     1     -10.832   9.533  69.173  1.00  0.00    -0.173 C  
BRANCH   8   9
HETATM    9  S   UNL     1      -9.676  10.931  69.269  1.00  0.00     0.016 SA 
BRANCH   9  10
HETATM   10  C   UNL     1     -10.234  12.137  67.934  1.00  0.00    -0.198 C  
BRANCH  10  11
HETATM   11  C   UNL     1     -10.045  11.529  66.513  1.00  0.00    -0.246 A  
HETATM   12  C   UNL     1      -9.586  10.461  63.912  1.00  0.00    -0.312 A  
HETATM   13  C   UNL     1     -10.830  11.913  65.403  1.00  0.00    -0.294 A  
HETATM   14  C   UNL     1      -9.045  10.560  66.253  1.00  0.00    -0.184 A  
HETATM   15  C   UNL     1     -10.583  11.407  64.114  1.00  0.00    -0.430 A  
HETATM   16 CL   UNL     1      -9.298   9.822  62.341  1.00  0.00    -0.284 Cl 
HETATM   17 CL   UNL     1     -12.168  13.002  65.535  1.00  0.00    -0.495 Cl 
HETATM   18  C   UNL     1      -8.827  10.022  64.981  1.00  0.00    -0.213 A  
ENDBRANCH  10  11
BRANCH  10  19
HETATM   19  C   UNL     1      -9.593  13.541  68.101  1.00  0.00    -0.215 C  
BRANCH  19  20
HETATM   20  N   UNL     1     -10.388  14.485  68.856  1.00  0.00    -0.237 NA 
HETATM   21  C   UNL     1     -11.730  14.701  68.731  1.00  0.00    -0.324 A  
HETATM   22  N   UNL     1     -10.876  16.099  70.287  1.00  0.00    -0.324 NA 
HETATM   23  C   UNL     1     -11.998  15.744  69.579  1.00  0.00    -0.310 A  
HETATM   24  C   UNL     1      -9.929  15.301  69.849  1.00  0.00    -0.160 A  
ENDBRANCH  19  20
ENDBRANCH  10  19
ENDBRANCH   9  10
ENDBRANCH   8   9
ENDBRANCH   5   8
TORSDOF 6
ENDMDL
MODEL      164
REMARK 921   NORMALIZED FREE ENERGY PREDICTED BY IDOCK:   -4.28 KCAL/MOL
REMARK 922        TOTAL FREE ENERGY PREDICTED BY IDOCK:   -6.70 KCAL/MOL
REMARK 923 INTER-LIGAND FREE ENERGY PREDICTED BY IDOCK:   -6.42 KCAL/MOL
REMARK 924 INTRA-LIGAND FREE ENERGY PREDICTED BY IDOCK:   -0.28 KCAL/MOL
REMARK 927      BINDING AFFINITY PREDICTED BY RF-SCORE:    0.00 PKD
ROOT
HETATM    1 CL   UNL     1      -8.764  18.852  66.936  1.00  0.00    -0.295 Cl 
HETATM    2  C   UNL     1      -9.680  17.398  66.996  1.00  0.00    -0.276 A  
HETATM    3  C   UNL     1     -10.548  17.169  68.061  1.00  0.00    -0.374 A  
HETATM    4  C   UNL     1     -11.289  15.981  68.111  1.00  0.00    -0.289 A  
HETATM    5  C   UNL     1     -11.157  15.008  67.104  1.00  0.00    -0.332 A  
HETATM    6  C   UNL     1     -10.292  15.269  66.029  1.00  0.00    -0.327 A  
HETATM    7  C   UNL     1      -9.554  16.456  65.978  1.00  0.00    -0.352 A  
ENDROOT
BRANCH   5   8
HETATM    8  C   UNL     1     -11.991  13.739  67.140  1.00  0.00    -0.405 C  
BRANCH   8   9
HETATM    9  S   UNL     1     -11.580  12.800  68.640  1.00  0.00    -0.334 SA 
BRANCH   9  10
HETATM   10  C   UNL     1     -11.143  11.067  68.046  1.00  0.00    -0.286 C  
BRANCH  10  11
HETATM   11  C   UNL     1     -11.110  10.059  69.232  1.00  0.00    -0.248 A  
HETATM   12  C   UNL     1     -10.969   8.286  71.458  1.00  0.00    -0.254 A  
HETATM   13  C   UNL     1     -10.677   8.721  69.091  1.00  0.00    -0.131 A  
HETATM   14  C   UNL     1     -11.498  10.444  70.539  1.00  0.00    -0.431 A  
HETATM   15  C   UNL     1     -10.580   7.856  70.195  1.00  0.00    -0.237 A  
HETATM   16 CL   UNL     1     -10.876   7.222  72.806  1.00  0.00    -0.318 Cl 
HETATM   17 CL   UNL     1     -10.263   8.029  67.560  1.00  0.00    -0.286 Cl 
HETATM   18  C   UNL     1     -11.446   9.572  71.631  1.00  0.00    -0.433 A  
ENDBRANCH  10  11
BRANCH  10  19
HETATM   19  C   UNL     1      -9.857  11.048  67.177  1.00  0.00    -0.184 C  
BRANCH  19  20
HETATM   20  N   UNL     1      -8.710  11.695  67.776  1.00  0.00    -0.146 NA 
HETATM   21  C   UNL     1      -8.135  12.866  67.375  1.00  0.00    -0.181 A  
HETATM   22  N   UNL     1      -6.986  12.015  69.123  1.00  0.00    -0.093 NA 
HETATM   23  C   UNL     1      -7.036  13.012  68.180  1.00  0.00    -0.105 A  
HETATM   24  C   UNL     1      -8.025  11.253  68.871  1.00  0.00    -0.104 A  
ENDBRANCH  19  20
ENDBRANCH  10  19
ENDBRANCH   9  10
ENDBRANCH   8   9
ENDBRANCH   5   8
TORSDOF 6
ENDMDL
MODEL      165
REMARK 921   NORMALIZED FREE ENERGY PREDICTED BY IDOCK:   -4.26 KCAL/MOL
REMARK 922        TOTAL FREE ENERGY PREDICTED BY IDOCK:   -6.68 KCAL/MOL
REMARK 923 INTER-LIGAND FREE ENERGY PREDICTED BY IDOCK:   -5.85 KCAL/MOL
REMARK 924 INTRA-LIGAND FREE ENERGY PREDICTED BY IDOCK:   -0.83 KCAL/MOL
REMARK 927      BINDING AFFINITY PREDICTED BY RF-SCORE:    0.00 PKD
ROOT
HETATM    1 CL   UNL     1     -10.515  18.719  65.897  1.00  0.00    -0.490 Cl 
HETATM    2  C   UNL     1     -10.534  17.029  65.578  1.00  0.00    -0.166 A  
HETATM    3  C   UNL     1     -11.372  16.520  64.590  1.00  0.00    -0.073 A  
HETATM    4  C   UNL     1     -11.391  15.142  64.335  1.00  0.00    -0.211 A  
HETATM    5  C   UNL     1     -10.580  14.264  65.076  1.00  0.00    -0.444 A  
HETATM    6  C   UNL     1      -9.726  14.802  66.053  1.00  0.00    -0.350 A  
HETATM    7  C   UNL     1      -9.707  16.177  66.305  1.00  0.00    -0.332 A  
ENDROOT
BRANCH   5   8
HETATM    8  C   UNL     1     -10.572  12.776  64.771  1.00  0.00    -0.327 C  
BRANCH   8   9
HETATM    9  S   UNL     1     -11.531  11.903  66.044  1.00  0.00    -0.200 SA 
BRANCH   9  10
HETATM   10  C   UNL     1     -10.258  11.214  67.249  1.00  0.00    -0.193 C  
BRANCH  10  11
HETATM   11  C   UNL     1      -9.045  10.597  66.492  1.00  0.00    -0.179 A  
HETATM   12  C   UNL     1      -6.840   9.366  65.173  1.00  0.00    -0.084 A  
HETATM   13  C   UNL     1      -7.743  11.143  66.553  1.00  0.00    -0.146 A  
HETATM   14  C   UNL     1      -9.183   9.425  65.708  1.00  0.00    -0.276 A  
HETATM   15  C   UNL     1      -6.651  10.518  65.926  1.00  0.00    -0.129 A  
HETATM   16 CL   UNL     1      -5.510   8.614  64.384  1.00  0.00    -0.057 Cl 
HETATM   17 CL   UNL     1      -7.389  12.627  67.369  1.00  0.00    -0.148 Cl 
HETATM   18  C   UNL     1      -8.106   8.827  65.046  1.00  0.00    -0.144 A  
ENDBRANCH  10  11
BRANCH  10  19
HETATM   19  C   UNL     1     -10.892  10.258  68.294  1.00  0.00    -0.255 C  
BRANCH  19  20
HETATM   20  N   UNL     1     -11.504  10.918  69.427  1.00  0.00    -0.275 NA 
HETATM   21  C   UNL     1     -11.979  10.318  70.558  1.00  0.00    -0.323 A  
HETATM   22  N   UNL     1     -12.337  12.546  70.670  1.00  0.00    -0.337 NA 
HETATM   23  C   UNL     1     -12.545  11.334  71.283  1.00  0.00    -0.382 A  
HETATM   24  C   UNL     1     -11.681  12.263  69.568  1.00  0.00    -0.332 A  
ENDBRANCH  19  20
ENDBRANCH  10  19
ENDBRANCH   9  10
ENDBRANCH   8   9
ENDBRANCH   5   8
TORSDOF 6
ENDMDL
MODEL      166
REMARK 921   NORMALIZED FREE ENERGY PREDICTED BY IDOCK:   -4.26 KCAL/MOL
REMARK 922        TOTAL FREE ENERGY PREDICTED BY IDOCK:   -6.67 KCAL/MOL
REMARK 923 INTER-LIGAND FREE ENERGY PREDICTED BY IDOCK:   -4.95 KCAL/MOL
REMARK 924 INTRA-LIGAND FREE ENERGY PREDICTED BY IDOCK:   -1.72 KCAL/MOL
REMARK 927      BINDING AFFINITY PREDICTED BY RF-SCORE:    0.00 PKD
ROOT
HETATM    1 CL   UNL     1      -7.665   4.503  67.897  1.00  0.00    -0.081 Cl 
HETATM    2  C   UNL     1      -8.975   5.197  68.771  1.00  0.00    -0.101 A  
HETATM    3  C   UNL     1      -8.809   5.544  70.108  1.00  0.00    -0.147 A  
HETATM    4  C   UNL     1      -9.878   6.104  70.820  1.00  0.00    -0.220 A  
HETATM    5  C   UNL     1     -11.124   6.308  70.201  1.00  0.00    -0.443 A  
HETATM    6  C   UNL     1     -11.263   5.971  68.845  1.00  0.00    -0.246 A  
HETATM    7  C   UNL     1     -10.195   5.414  68.134  1.00  0.00    -0.226 A  
ENDROOT
BRANCH   5   8
HETATM    8  C   UNL     1     -12.270   6.952  70.963  1.00  0.00    -0.377 C  
BRANCH   8   9
HETATM    9  S   UNL     1     -11.720   8.555  71.619  1.00  0.00    -0.330 SA 
BRANCH   9  10
HETATM   10  C   UNL     1     -11.194   9.560  70.115  1.00  0.00    -0.234 C  
BRANCH  10  11
HETATM   11  C   UNL     1      -9.716   9.257  69.727  1.00  0.00    -0.202 A  
HETATM   12  C   UNL     1      -6.984   8.816  69.052  1.00  0.00    -0.064 A  
HETATM   13  C   UNL     1      -9.317   8.953  68.406  1.00  0.00    -0.136 A  
HETATM   14  C   UNL     1      -8.678   9.294  70.689  1.00  0.00    -0.282 A  
HETATM   15  C   UNL     1      -7.965   8.765  68.069  1.00  0.00    -0.106 A  
HETATM   16 CL   UNL     1      -5.332   8.561  68.646  1.00  0.00    -0.036 Cl 
HETATM   17 CL   UNL     1     -10.445   8.757  67.109  1.00  0.00    -0.363 Cl 
HETATM   18  C   UNL     1      -7.338   9.062  70.365  1.00  0.00    -0.084 A  
ENDBRANCH  10  11
BRANCH  10  19
HETATM   19  C   UNL     1     -11.497  11.073  70.281  1.00  0.00    -0.273 C  
BRANCH  19  20
HETATM   20  N   UNL     1     -11.309  11.864  69.084  1.00  0.00    -0.259 NA 
HETATM   21  C   UNL     1     -11.991  11.733  67.908  1.00  0.00    -0.098 A  
HETATM   22  N   UNL     1     -10.444  13.367  67.712  1.00  0.00    -0.239 NA 
HETATM   23  C   UNL     1     -11.397  12.628  67.056  1.00  0.00    -0.323 A  
HETATM   24  C   UNL     1     -10.435  12.902  68.941  1.00  0.00    -0.082 A  
ENDBRANCH  19  20
ENDBRANCH  10  19
ENDBRANCH   9  10
ENDBRANCH   8   9
ENDBRANCH   5   8
TORSDOF 6
ENDMDL
MODEL      167
REMARK 921   NORMALIZED FREE ENERGY PREDICTED BY IDOCK:   -4.25 KCAL/MOL
REMARK 922        TOTAL FREE ENERGY PREDICTED BY IDOCK:   -6.66 KCAL/MOL
REMARK 923 INTER-LIGAND FREE ENERGY PREDICTED BY IDOCK:   -5.82 KCAL/MOL
REMARK 924 INTRA-LIGAND FREE ENERGY PREDICTED BY IDOCK:   -0.84 KCAL/MOL
REMARK 927      BINDING AFFINITY PREDICTED BY RF-SCORE:    0.00 PKD
ROOT
HETATM    1 CL   UNL     1      -8.229   9.670  63.633  1.00  0.00    -0.149 Cl 
HETATM    2  C   UNL     1      -8.563   8.655  64.981  1.00  0.00    -0.158 A  
HETATM    3  C   UNL     1      -7.996   7.385  65.050  1.00  0.00    -0.129 A  
HETATM    4  C   UNL     1      -8.274   6.558  66.146  1.00  0.00    -0.123 A  
HETATM    5  C   UNL     1      -9.131   6.990  67.173  1.00  0.00    -0.137 A  
HETATM    6  C   UNL     1      -9.674   8.283  67.094  1.00  0.00    -0.255 A  
HETATM    7  C   UNL     1      -9.395   9.109  66.001  1.00  0.00    -0.300 A  
ENDROOT
BRANCH   5   8
HETATM    8  C   UNL     1      -9.398   6.107  68.381  1.00  0.00    -0.116 C  
BRANCH   8   9
HETATM    9  S   UNL     1     -11.157   6.224  68.824  1.00  0.00    -0.260 SA 
BRANCH   9  10
HETATM   10  C   UNL     1     -11.187   6.573  70.674  1.00  0.00    -0.329 C  
BRANCH  10  11
HETATM   11  C   UNL     1     -11.810   7.968  70.972  1.00  0.00    -0.280 A  
HETATM   12  C   UNL     1     -12.860  10.542  71.598  1.00  0.00    -0.475 A  
HETATM   13  C   UNL     1     -13.103   8.131  71.518  1.00  0.00    -0.287 A  
HETATM   14  C   UNL     1     -11.092   9.164  70.728  1.00  0.00    -0.336 A  
HETATM   15  C   UNL     1     -13.609   9.399  71.854  1.00  0.00    -0.482 A  
HETATM   16 CL   UNL     1     -13.486  12.096  71.983  1.00  0.00    -0.505 Cl 
HETATM   17 CL   UNL     1     -14.178   6.802  71.790  1.00  0.00    -0.346 Cl 
HETATM   18  C   UNL     1     -11.610  10.430  71.018  1.00  0.00    -0.384 A  
ENDBRANCH  10  11
BRANCH  10  19
HETATM   19  C   UNL     1      -9.802   6.354  71.339  1.00  0.00    -0.176 C  
BRANCH  19  20
HETATM   20  N   UNL     1      -9.726   5.209  72.221  1.00  0.00    -0.159 NA 
HETATM   21  C   UNL     1     -10.740   4.345  72.521  1.00  0.00    -0.090 A  
HETATM   22  N   UNL     1      -8.880   3.761  73.663  1.00  0.00    -0.089 NA 
HETATM   23  C   UNL     1     -10.213   3.498  73.461  1.00  0.00    -0.144 A  
HETATM   24  C   UNL     1      -8.610   4.780  72.878  1.00  0.00    -0.111 A  
ENDBRANCH  19  20
ENDBRANCH  10  19
ENDBRANCH   9  10
ENDBRANCH   8   9
ENDBRANCH   5   8
TORSDOF 6
ENDMDL
MODEL      168
REMARK 921   NORMALIZED FREE ENERGY PREDICTED BY IDOCK:   -4.23 KCAL/MOL
REMARK 922        TOTAL FREE ENERGY PREDICTED BY IDOCK:   -6.64 KCAL/MOL
REMARK 923 INTER-LIGAND FREE ENERGY PREDICTED BY IDOCK:   -5.27 KCAL/MOL
REMARK 924 INTRA-LIGAND FREE ENERGY PREDICTED BY IDOCK:   -1.37 KCAL/MOL
REMARK 927      BINDING AFFINITY PREDICTED BY RF-SCORE:    0.00 PKD
ROOT
HETATM    1 CL   UNL     1     -11.462   5.233  72.964  1.00  0.00    -0.372 Cl 
HETATM    2  C   UNL     1     -10.607   6.507  72.187  1.00  0.00    -0.214 A  
HETATM    3  C   UNL     1      -9.441   6.228  71.479  1.00  0.00    -0.162 A  
HETATM    4  C   UNL     1      -8.742   7.268  70.852  1.00  0.00    -0.148 A  
HETATM    5  C   UNL     1      -9.198   8.595  70.940  1.00  0.00    -0.234 A  
HETATM    6  C   UNL     1     -10.388   8.851  71.641  1.00  0.00    -0.416 A  
HETATM    7  C   UNL     1     -11.086   7.812  72.265  1.00  0.00    -0.355 A  
ENDROOT
BRANCH   5   8
HETATM    8  C   UNL     1      -8.461   9.715  70.225  1.00  0.00    -0.188 C  
BRANCH   8   9
HETATM    9  S   UNL     1      -7.966   9.141  68.574  1.00  0.00    -0.103 SA 
BRANCH   9  10
HETATM   10  C   UNL     1      -9.575   8.865  67.634  1.00  0.00    -0.148 C  
BRANCH  10  11
HETATM   11  C   UNL     1      -9.580   7.479  66.925  1.00  0.00    -0.242 A  
HETATM   12  C   UNL     1      -9.620   4.999  65.525  1.00  0.00    -0.089 A  
HETATM   13  C   UNL     1     -10.458   6.433  67.290  1.00  0.00    -0.263 A  
HETATM   14  C   UNL     1      -8.706   7.199  65.847  1.00  0.00    -0.146 A  
HETATM   15  C   UNL     1     -10.498   5.221  66.579  1.00  0.00    -0.354 A  
HETATM   16 CL   UNL     1      -9.649   3.507  64.670  1.00  0.00    -0.160 Cl 
HETATM   17 CL   UNL     1     -11.527   6.540  68.646  1.00  0.00    -0.196 Cl 
HETATM   18  C   UNL     1      -8.711   5.977  65.167  1.00  0.00    -0.017 A  
ENDBRANCH  10  11
BRANCH  10  19
HETATM   19  C   UNL     1      -9.918  10.049  66.690  1.00  0.00    -0.216 C  
BRANCH  19  20
HETATM   20  N   UNL     1     -10.399  11.238  67.359  1.00  0.00    -0.194 NA 
HETATM   21  C   UNL     1      -9.852  12.487  67.292  1.00  0.00    -0.204 A  
HETATM   22  N   UNL     1     -11.638  12.514  68.675  1.00  0.00    -0.292 NA 
HETATM   23  C   UNL     1     -10.594  13.244  68.161  1.00  0.00    -0.249 A  
HETATM   24  C   UNL     1     -11.509  11.316  68.149  1.00  0.00    -0.306 A  
ENDBRANCH  19  20
ENDBRANCH  10  19
ENDBRANCH   9  10
ENDBRANCH   8   9
ENDBRANCH   5   8
TORSDOF 6
ENDMDL
MODEL      169
REMARK 921   NORMALIZED FREE ENERGY PREDICTED BY IDOCK:   -4.22 KCAL/MOL
REMARK 922        TOTAL FREE ENERGY PREDICTED BY IDOCK:   -6.63 KCAL/MOL
REMARK 923 INTER-LIGAND FREE ENERGY PREDICTED BY IDOCK:   -5.95 KCAL/MOL
REMARK 924 INTRA-LIGAND FREE ENERGY PREDICTED BY IDOCK:   -0.68 KCAL/MOL
REMARK 927      BINDING AFFINITY PREDICTED BY RF-SCORE:    0.00 PKD
ROOT
HETATM    1 CL   UNL     1      -5.968   4.544  67.251  1.00  0.00    -0.023 Cl 
HETATM    2  C   UNL     1      -6.789   5.762  68.148  1.00  0.00    -0.067 A  
HETATM    3  C   UNL     1      -6.717   5.765  69.538  1.00  0.00    -0.059 A  
HETATM    4  C   UNL     1      -7.392   6.753  70.267  1.00  0.00    -0.085 A  
HETATM    5  C   UNL     1      -8.153   7.737  69.610  1.00  0.00    -0.122 A  
HETATM    6  C   UNL     1      -8.192   7.728  68.206  1.00  0.00    -0.124 A  
HETATM    7  C   UNL     1      -7.517   6.742  67.479  1.00  0.00    -0.097 A  
ENDROOT
BRANCH   5   8
HETATM    8  C   UNL     1      -8.849   8.831  70.401  1.00  0.00    -0.168 C  
BRANCH   8   9
HETATM    9  S   UNL     1      -9.017  10.305  69.352  1.00  0.00    -0.142 SA 
BRANCH   9  10
HETATM   10  C   UNL     1     -10.871  10.580  69.161  1.00  0.00    -0.237 C  
BRANCH  10  11
HETATM   11  C   UNL     1     -11.175  11.566  67.996  1.00  0.00    -0.335 A  
HETATM   12  C   UNL     1     -11.849  13.369  65.896  1.00  0.00    -0.376 A  
HETATM   13  C   UNL     1     -10.970  11.235  66.637  1.00  0.00    -0.268 A  
HETATM   14  C   UNL     1     -11.702  12.857  68.240  1.00  0.00    -0.390 A  
HETATM   15  C   UNL     1     -11.330  12.114  65.601  1.00  0.00    -0.395 A  
HETATM   16 CL   UNL     1     -12.267  14.457  64.630  1.00  0.00    -0.475 Cl 
HETATM   17 CL   UNL     1     -10.237   9.749  66.137  1.00  0.00    -0.312 Cl 
HETATM   18  C   UNL     1     -12.019  13.752  67.213  1.00  0.00    -0.436 A  
ENDBRANCH  10  11
BRANCH  10  19
HETATM   19  C   UNL     1     -11.550  10.970  70.501  1.00  0.00    -0.245 C  
BRANCH  19  20
HETATM   20  N   UNL     1     -12.357   9.928  71.099  1.00  0.00    -0.344 NA 
HETATM   21  C   UNL     1     -12.285   8.591  70.833  1.00  0.00    -0.094 A  
HETATM   22  N   UNL     1     -13.922   8.979  72.340  1.00  0.00    -0.479 NA 
HETATM   23  C   UNL     1     -13.301   8.031  71.563  1.00  0.00    -0.290 A  
HETATM   24  C   UNL     1     -13.310  10.107  72.059  1.00  0.00    -0.387 A  
ENDBRANCH  19  20
ENDBRANCH  10  19
ENDBRANCH   9  10
ENDBRANCH   8   9
ENDBRANCH   5   8
TORSDOF 6
ENDMDL
MODEL      170
REMARK 921   NORMALIZED FREE ENERGY PREDICTED BY IDOCK:   -4.21 KCAL/MOL
REMARK 922        TOTAL FREE ENERGY PREDICTED BY IDOCK:   -6.61 KCAL/MOL
REMARK 923 INTER-LIGAND FREE ENERGY PREDICTED BY IDOCK:   -5.92 KCAL/MOL
REMARK 924 INTRA-LIGAND FREE ENERGY PREDICTED BY IDOCK:   -0.69 KCAL/MOL
REMARK 927      BINDING AFFINITY PREDICTED BY RF-SCORE:    0.00 PKD
ROOT
HETATM    1 CL   UNL     1     -10.732  19.861  68.051  1.00  0.00    -0.397 Cl 
HETATM    2  C   UNL     1     -10.065  18.323  67.668  1.00  0.00    -0.356 A  
HETATM    3  C   UNL     1      -9.260  18.178  66.542  1.00  0.00    -0.290 A  
HETATM    4  C   UNL     1      -8.722  16.923  66.228  1.00  0.00    -0.321 A  
HETATM    5  C   UNL     1      -8.996  15.802  67.031  1.00  0.00    -0.247 A  
HETATM    6  C   UNL     1      -9.792  15.976  68.175  1.00  0.00    -0.222 A  
HETATM    7  C   UNL     1     -10.327  17.229  68.489  1.00  0.00    -0.371 A  
ENDROOT
BRANCH   5   8
HETATM    8  C   UNL     1      -8.378  14.451  66.712  1.00  0.00     0.029 C  
BRANCH   8   9
HETATM    9  S   UNL     1      -8.238  13.485  68.244  1.00  0.00    -0.151 SA 
BRANCH   9  10
HETATM   10  C   UNL     1      -9.095  11.846  67.886  1.00  0.00    -0.183 C  
BRANCH  10  11
HETATM   11  C   UNL     1     -10.101  11.985  66.706  1.00  0.00    -0.223 A  
HETATM   12  C   UNL     1     -11.858  12.302  64.486  1.00  0.00    -0.369 A  
HETATM   13  C   UNL     1     -11.337  12.660  66.827  1.00  0.00    -0.320 A  
HETATM   14  C   UNL     1      -9.814  11.453  65.426  1.00  0.00    -0.277 A  
HETATM   15  C   UNL     1     -12.189  12.842  65.723  1.00  0.00    -0.469 A  
HETATM   16 CL   UNL     1     -12.911  12.501  63.141  1.00  0.00    -0.146 Cl 
HETATM   17 CL   UNL     1     -11.917  13.288  68.331  1.00  0.00    -0.373 Cl 
HETATM   18  C   UNL     1     -10.682  11.592  64.337  1.00  0.00    -0.387 A  
ENDBRANCH  10  11
BRANCH  10  19
HETATM   19  C   UNL     1      -9.714  11.213  69.161  1.00  0.00    -0.028 C  
BRANCH  19  20
HETATM   20  N   UNL     1      -9.442   9.801  69.329  1.00  0.00    -0.182 NA 
HETATM   21  C   UNL     1      -8.221   9.227  69.535  1.00  0.00    -0.121 A  
HETATM   22  N   UNL     1      -9.808   7.623  69.436  1.00  0.00    -0.169 NA 
HETATM   23  C   UNL     1      -8.462   7.878  69.535  1.00  0.00    -0.133 A  
HETATM   24  C   UNL     1     -10.374   8.805  69.343  1.00  0.00    -0.214 A  
ENDBRANCH  19  20
ENDBRANCH  10  19
ENDBRANCH   9  10
ENDBRANCH   8   9
ENDBRANCH   5   8
TORSDOF 6
ENDMDL
MODEL      171
REMARK 921   NORMALIZED FREE ENERGY PREDICTED BY IDOCK:   -4.21 KCAL/MOL
REMARK 922        TOTAL FREE ENERGY PREDICTED BY IDOCK:   -6.60 KCAL/MOL
REMARK 923 INTER-LIGAND FREE ENERGY PREDICTED BY IDOCK:   -5.43 KCAL/MOL
REMARK 924 INTRA-LIGAND FREE ENERGY PREDICTED BY IDOCK:   -1.17 KCAL/MOL
REMARK 927      BINDING AFFINITY PREDICTED BY RF-SCORE:    0.00 PKD
ROOT
HETATM    1 CL   UNL     1     -11.182   5.169  73.481  1.00  0.00    -0.360 Cl 
HETATM    2  C   UNL     1     -10.750   5.482  71.846  1.00  0.00    -0.231 A  
HETATM    3  C   UNL     1      -9.527   5.032  71.354  1.00  0.00    -0.206 A  
HETATM    4  C   UNL     1      -9.174   5.294  70.024  1.00  0.00    -0.180 A  
HETATM    5  C   UNL     1     -10.035   6.018  69.181  1.00  0.00    -0.205 A  
HETATM    6  C   UNL     1     -11.273   6.443  69.691  1.00  0.00    -0.483 A  
HETATM    7  C   UNL     1     -11.626   6.180  71.019  1.00  0.00    -0.260 A  
ENDROOT
BRANCH   5   8
HETATM    8  C   UNL     1      -9.668   6.266  67.727  1.00  0.00    -0.118 C  
BRANCH   8   9
HETATM    9  S   UNL     1     -10.636   7.670  67.101  1.00  0.00    -0.294 SA 
BRANCH   9  10
HETATM   10  C   UNL     1      -9.430   9.113  67.012  1.00  0.00    -0.154 C  
BRANCH  10  11
HETATM   11  C   UNL     1      -8.526   9.168  68.278  1.00  0.00    -0.125 A  
HETATM   12  C   UNL     1      -6.849   9.150  70.582  1.00  0.00    -0.084 A  
HETATM   13  C   UNL     1      -9.022   9.494  69.561  1.00  0.00    -0.181 A  
HETATM   14  C   UNL     1      -7.144   8.868  68.212  1.00  0.00    -0.078 A  
HETATM   15  C   UNL     1      -8.200   9.456  70.701  1.00  0.00    -0.207 A  
HETATM   16 CL   UNL     1      -5.836   9.128  71.971  1.00  0.00    -0.075 Cl 
HETATM   17 CL   UNL     1     -10.656   9.992  69.834  1.00  0.00    -0.298 Cl 
HETATM   18  C   UNL     1      -6.314   8.874  69.338  1.00  0.00    -0.044 A  
ENDBRANCH  10  11
BRANCH  10  19
HETATM   19  C   UNL     1     -10.139  10.457  66.694  1.00  0.00    -0.224 C  
BRANCH  19  20
HETATM   20  N   UNL     1     -10.045  10.882  65.314  1.00  0.00    -0.264 NA 
HETATM   21  C   UNL     1      -9.618  10.128  64.259  1.00  0.00    -0.290 A  
HETATM   22  N   UNL     1     -10.123  12.212  63.550  1.00  0.00    -0.423 NA 
HETATM   23  C   UNL     1      -9.615  10.988  63.191  1.00  0.00    -0.361 A  
HETATM   24  C   UNL     1     -10.400  12.107  64.830  1.00  0.00    -0.288 A  
ENDBRANCH  19  20
ENDBRANCH  10  19
ENDBRANCH   9  10
ENDBRANCH   8   9
ENDBRANCH   5   8
TORSDOF 6
ENDMDL
MODEL      172
REMARK 921   NORMALIZED FREE ENERGY PREDICTED BY IDOCK:   -4.21 KCAL/MOL
REMARK 922        TOTAL FREE ENERGY PREDICTED BY IDOCK:   -6.60 KCAL/MOL
REMARK 923 INTER-LIGAND FREE ENERGY PREDICTED BY IDOCK:   -5.82 KCAL/MOL
REMARK 924 INTRA-LIGAND FREE ENERGY PREDICTED BY IDOCK:   -0.78 KCAL/MOL
REMARK 927      BINDING AFFINITY PREDICTED BY RF-SCORE:    0.00 PKD
ROOT
HETATM    1 CL   UNL     1      -5.921   3.982  66.336  1.00  0.00    -0.026 Cl 
HETATM    2  C   UNL     1      -7.297   4.981  66.597  1.00  0.00    -0.086 A  
HETATM    3  C   UNL     1      -7.177   6.142  67.355  1.00  0.00    -0.076 A  
HETATM    4  C   UNL     1      -8.300   6.952  67.572  1.00  0.00    -0.123 A  
HETATM    5  C   UNL     1      -9.553   6.598  67.042  1.00  0.00    -0.183 A  
HETATM    6  C   UNL     1      -9.647   5.433  66.261  1.00  0.00    -0.175 A  
HETATM    7  C   UNL     1      -8.526   4.627  66.044  1.00  0.00    -0.115 A  
ENDROOT
BRANCH   5   8
HETATM    8  C   UNL     1     -10.761   7.498  67.244  1.00  0.00    -0.295 C  
BRANCH   8   9
HETATM    9  S   UNL     1     -10.191   9.165  67.685  1.00  0.00    -0.251 SA 
BRANCH   9  10
HETATM   10  C   UNL     1     -10.851   9.479  69.421  1.00  0.00    -0.206 C  
BRANCH  10  11
HETATM   11  C   UNL     1     -11.311  10.957  69.587  1.00  0.00    -0.362 A  
HETATM   12  C   UNL     1     -12.037  13.693  69.910  1.00  0.00    -0.341 A  
HETATM   13  C   UNL     1     -12.187  11.378  70.614  1.00  0.00    -0.389 A  
HETATM   14  C   UNL     1     -10.851  11.976  68.717  1.00  0.00    -0.267 A  
HETATM   15  C   UNL     1     -12.521  12.732  70.790  1.00  0.00    -0.357 A  
HETATM   16 CL   UNL     1     -12.465  15.347  70.109  1.00  0.00    -0.394 Cl 
HETATM   17 CL   UNL     1     -12.940  10.273  71.712  1.00  0.00    -0.548 Cl 
HETATM   18  C   UNL     1     -11.218  13.317  68.863  1.00  0.00    -0.322 A  
ENDBRANCH  10  11
BRANCH  10  19
HETATM   19  C   UNL     1      -9.864   9.007  70.522  1.00  0.00    -0.216 C  
BRANCH  19  20
HETATM   20  N   UNL     1     -10.251   7.789  71.201  1.00  0.00    -0.195 NA 
HETATM   21  C   UNL     1      -9.487   7.064  72.070  1.00  0.00    -0.138 A  
HETATM   22  N   UNL     1     -11.483   6.047  71.783  1.00  0.00    -0.280 NA 
HETATM   23  C   UNL     1     -10.243   5.960  72.367  1.00  0.00    -0.188 A  
HETATM   24  C   UNL     1     -11.466   7.175  71.110  1.00  0.00    -0.290 A  
ENDBRANCH  19  20
ENDBRANCH  10  19
ENDBRANCH   9  10
ENDBRANCH   8   9
ENDBRANCH   5   8
TORSDOF 6
ENDMDL
MODEL      173
REMARK 921   NORMALIZED FREE ENERGY PREDICTED BY IDOCK:   -4.20 KCAL/MOL
REMARK 922        TOTAL FREE ENERGY PREDICTED BY IDOCK:   -6.60 KCAL/MOL
REMARK 923 INTER-LIGAND FREE ENERGY PREDICTED BY IDOCK:   -5.30 KCAL/MOL
REMARK 924 INTRA-LIGAND FREE ENERGY PREDICTED BY IDOCK:   -1.30 KCAL/MOL
REMARK 927      BINDING AFFINITY PREDICTED BY RF-SCORE:    0.00 PKD
ROOT
HETATM    1 CL   UNL     1     -10.823   4.959  73.310  1.00  0.00    -0.319 Cl 
HETATM    2  C   UNL     1     -10.803   5.468  71.667  1.00  0.00    -0.204 A  
HETATM    3  C   UNL     1      -9.850   4.952  70.793  1.00  0.00    -0.285 A  
HETATM    4  C   UNL     1      -9.832   5.373  69.457  1.00  0.00    -0.264 A  
HETATM    5  C   UNL     1     -10.759   6.321  68.989  1.00  0.00    -0.362 A  
HETATM    6  C   UNL     1     -11.726   6.811  69.883  1.00  0.00    -0.279 A  
HETATM    7  C   UNL     1     -11.745   6.390  71.216  1.00  0.00    -0.359 A  
ENDROOT
BRANCH   5   8
HETATM    8  C   UNL     1     -10.763   6.745  67.530  1.00  0.00    -0.311 C  
BRANCH   8   9
HETATM    9  S   UNL     1     -10.780   8.559  67.439  1.00  0.00    -0.033 SA 
BRANCH   9  10
HETATM   10  C   UNL     1      -9.037   9.103  67.902  1.00  0.00    -0.127 C  
BRANCH  10  11
HETATM   11  C   UNL     1      -8.731   8.791  69.397  1.00  0.00    -0.142 A  
HETATM   12  C   UNL     1      -8.162   8.342  72.152  1.00  0.00    -0.157 A  
HETATM   13  C   UNL     1      -7.598   8.056  69.811  1.00  0.00    -0.092 A  
HETATM   14  C   UNL     1      -9.575   9.256  70.435  1.00  0.00    -0.292 A  
HETATM   15  C   UNL     1      -7.302   7.860  71.172  1.00  0.00    -0.063 A  
HETATM   16 CL   UNL     1      -7.816   8.081  73.816  1.00  0.00    -0.221 Cl 
HETATM   17 CL   UNL     1      -6.504   7.315  68.694  1.00  0.00    -0.039 Cl 
HETATM   18  C   UNL     1      -9.308   9.023  71.788  1.00  0.00    -0.208 A  
ENDBRANCH  10  11
BRANCH  10  19
HETATM   19  C   UNL     1      -8.752  10.574  67.501  1.00  0.00    -0.125 C  
BRANCH  19  20
HETATM   20  N   UNL     1      -9.931  11.378  67.261  1.00  0.00    -0.192 NA 
HETATM   21  C   UNL     1     -10.724  11.961  68.207  1.00  0.00    -0.223 A  
HETATM   22  N   UNL     1     -11.556  12.385  66.151  1.00  0.00    -0.380 NA 
HETATM   23  C   UNL     1     -11.755  12.525  67.503  1.00  0.00    -0.374 A  
HETATM   24  C   UNL     1     -10.433  11.714  66.038  1.00  0.00    -0.251 A  
ENDBRANCH  19  20
ENDBRANCH  10  19
ENDBRANCH   9  10
ENDBRANCH   8   9
ENDBRANCH   5   8
TORSDOF 6
ENDMDL
MODEL      174
REMARK 921   NORMALIZED FREE ENERGY PREDICTED BY IDOCK:   -4.20 KCAL/MOL
REMARK 922        TOTAL FREE ENERGY PREDICTED BY IDOCK:   -6.59 KCAL/MOL
REMARK 923 INTER-LIGAND FREE ENERGY PREDICTED BY IDOCK:   -5.89 KCAL/MOL
REMARK 924 INTRA-LIGAND FREE ENERGY PREDICTED BY IDOCK:   -0.70 KCAL/MOL
REMARK 927      BINDING AFFINITY PREDICTED BY RF-SCORE:    0.00 PKD
ROOT
HETATM    1 CL   UNL     1      -5.488  14.797  69.675  1.00  0.00    -0.093 Cl 
HETATM    2  C   UNL     1      -6.222  13.399  68.992  1.00  0.00    -0.092 A  
HETATM    3  C   UNL     1      -6.536  13.374  67.636  1.00  0.00    -0.169 A  
HETATM    4  C   UNL     1      -7.140  12.237  67.083  1.00  0.00    -0.102 A  
HETATM    5  C   UNL     1      -7.445  11.123  67.886  1.00  0.00    -0.094 A  
HETATM    6  C   UNL     1      -7.099  11.162  69.247  1.00  0.00    -0.123 A  
HETATM    7  C   UNL     1      -6.495  12.296  69.798  1.00  0.00    -0.038 A  
ENDROOT
BRANCH   5   8
HETATM    8  C   UNL     1      -8.062   9.876  67.276  1.00  0.00    -0.113 C  
BRANCH   8   9
HETATM    9  S   UNL     1      -9.562  10.341  66.363  1.00  0.00    -0.194 SA 
BRANCH   9  10
HETATM   10  C   UNL     1     -10.532  11.461  67.527  1.00  0.00    -0.201 C  
BRANCH  10  11
HETATM   11  C   UNL     1     -10.938  10.703  68.825  1.00  0.00    -0.292 A  
HETATM   12  C   UNL     1     -11.757   9.249  71.134  1.00  0.00    -0.325 A  
HETATM   13  C   UNL     1     -11.567  11.339  69.920  1.00  0.00    -0.334 A  
HETATM   14  C   UNL     1     -10.715   9.312  68.968  1.00  0.00    -0.189 A  
HETATM   15  C   UNL     1     -11.997  10.615  71.046  1.00  0.00    -0.442 A  
HETATM   16 CL   UNL     1     -12.260   8.366  72.522  1.00  0.00    -0.431 Cl 
HETATM   17 CL   UNL     1     -11.830  13.048  69.984  1.00  0.00    -0.384 Cl 
HETATM   18  C   UNL     1     -11.101   8.598  70.107  1.00  0.00    -0.199 A  
ENDBRANCH  10  11
BRANCH  10  19
HETATM   19  C   UNL     1     -11.721  12.162  66.817  1.00  0.00    -0.305 C  
BRANCH  19  20
HETATM   20  N   UNL     1     -11.367  13.352  66.074  1.00  0.00    -0.304 NA 
HETATM   21  C   UNL     1     -10.301  14.172  66.311  1.00  0.00    -0.292 A  
HETATM   22  N   UNL     1     -11.511  14.979  64.583  1.00  0.00    -0.401 NA 
HETATM   23  C   UNL     1     -10.445  15.202  65.419  1.00  0.00    -0.393 A  
HETATM   24  C   UNL     1     -12.029  13.840  64.986  1.00  0.00    -0.383 A  
ENDBRANCH  19  20
ENDBRANCH  10  19
ENDBRANCH   9  10
ENDBRANCH   8   9
ENDBRANCH   5   8
TORSDOF 6
ENDMDL
MODEL      175
REMARK 921   NORMALIZED FREE ENERGY PREDICTED BY IDOCK:   -4.20 KCAL/MOL
REMARK 922        TOTAL FREE ENERGY PREDICTED BY IDOCK:   -6.59 KCAL/MOL
REMARK 923 INTER-LIGAND FREE ENERGY PREDICTED BY IDOCK:   -5.22 KCAL/MOL
REMARK 924 INTRA-LIGAND FREE ENERGY PREDICTED BY IDOCK:   -1.37 KCAL/MOL
REMARK 927      BINDING AFFINITY PREDICTED BY RF-SCORE:    0.00 PKD
ROOT
HETATM    1 CL   UNL     1      -5.953   7.492  64.193  1.00  0.00    -0.047 Cl 
HETATM    2  C   UNL     1      -6.420   8.487  65.516  1.00  0.00    -0.059 A  
HETATM    3  C   UNL     1      -6.881   9.779  65.282  1.00  0.00    -0.103 A  
HETATM    4  C   UNL     1      -7.255  10.591  66.361  1.00  0.00    -0.129 A  
HETATM    5  C   UNL     1      -7.158  10.119  67.682  1.00  0.00    -0.086 A  
HETATM    6  C   UNL     1      -6.711   8.804  67.894  1.00  0.00    -0.066 A  
HETATM    7  C   UNL     1      -6.340   7.994  66.816  1.00  0.00    -0.055 A  
ENDROOT
BRANCH   5   8
HETATM    8  C   UNL     1      -7.602  10.986  68.848  1.00  0.00    -0.134 C  
BRANCH   8   9
HETATM    9  S   UNL     1      -9.065  11.942  68.353  1.00  0.00    -0.131 SA 
BRANCH   9  10
HETATM   10  C   UNL     1     -10.545  10.962  68.983  1.00  0.00    -0.216 C  
BRANCH  10  11
HETATM   11  C   UNL     1     -10.391   9.446  68.663  1.00  0.00    -0.227 A  
HETATM   12  C   UNL     1     -10.222   6.674  68.030  1.00  0.00    -0.167 A  
HETATM   13  C   UNL     1     -10.205   8.466  69.663  1.00  0.00    -0.209 A  
HETATM   14  C   UNL     1     -10.453   8.963  67.333  1.00  0.00    -0.347 A  
HETATM   15  C   UNL     1     -10.152   7.096  69.353  1.00  0.00    -0.178 A  
HETATM   16 CL   UNL     1     -10.132   5.000  67.645  1.00  0.00    -0.206 Cl 
HETATM   17 CL   UNL     1      -9.999   8.862  71.335  1.00  0.00    -0.350 Cl 
HETATM   18  C   UNL     1     -10.354   7.605  67.017  1.00  0.00    -0.400 A  
ENDBRANCH  10  11
BRANCH  10  19
HETATM   19  C   UNL     1     -11.896  11.565  68.512  1.00  0.00    -0.297 C  
BRANCH  19  20
HETATM   20  N   UNL     1     -11.779  12.619  67.527  1.00  0.00    -0.363 NA 
HETATM   21  C   UNL     1     -11.622  12.460  66.180  1.00  0.00    -0.396 A  
HETATM   22  N   UNL     1     -11.623  14.660  66.691  1.00  0.00    -0.365 NA 
HETATM   23  C   UNL     1     -11.465  13.731  65.692  1.00  0.00    -0.310 A  
HETATM   24  C   UNL     1     -11.840  13.958  67.780  1.00  0.00    -0.380 A  
ENDBRANCH  19  20
ENDBRANCH  10  19
ENDBRANCH   9  10
ENDBRANCH   8   9
ENDBRANCH   5   8
TORSDOF 6
ENDMDL
MODEL      176
REMARK 921   NORMALIZED FREE ENERGY PREDICTED BY IDOCK:   -4.17 KCAL/MOL
REMARK 922        TOTAL FREE ENERGY PREDICTED BY IDOCK:   -6.56 KCAL/MOL
REMARK 923 INTER-LIGAND FREE ENERGY PREDICTED BY IDOCK:   -5.87 KCAL/MOL
REMARK 924 INTRA-LIGAND FREE ENERGY PREDICTED BY IDOCK:   -0.68 KCAL/MOL
REMARK 927      BINDING AFFINITY PREDICTED BY RF-SCORE:    0.00 PKD
ROOT
HETATM    1 CL   UNL     1      -9.747   4.711  67.544  1.00  0.00    -0.206 Cl 
HETATM    2  C   UNL     1      -9.352   6.384  67.472  1.00  0.00    -0.118 A  
HETATM    3  C   UNL     1      -8.710   6.991  68.548  1.00  0.00    -0.122 A  
HETATM    4  C   UNL     1      -8.395   8.355  68.490  1.00  0.00    -0.131 A  
HETATM    5  C   UNL     1      -8.731   9.123  67.360  1.00  0.00    -0.118 A  
HETATM    6  C   UNL     1      -9.358   8.484  66.278  1.00  0.00    -0.287 A  
HETATM    7  C   UNL     1      -9.671   7.123  66.335  1.00  0.00    -0.139 A  
ENDROOT
BRANCH   5   8
HETATM    8  C   UNL     1      -8.351  10.592  67.283  1.00  0.00    -0.122 C  
BRANCH   8   9
HETATM    9  S   UNL     1      -8.981  11.446  68.757  1.00  0.00    -0.015 SA 
BRANCH   9  10
HETATM   10  C   UNL     1     -10.849  11.526  68.534  1.00  0.00    -0.215 C  
BRANCH  10  11
HETATM   11  C   UNL     1     -11.237  12.538  67.416  1.00  0.00    -0.344 A  
HETATM   12  C   UNL     1     -11.887  14.320  65.291  1.00  0.00    -0.374 A  
HETATM   13  C   UNL     1     -10.830  13.891  67.430  1.00  0.00    -0.285 A  
HETATM   14  C   UNL     1     -12.013  12.142  66.300  1.00  0.00    -0.213 A  
HETATM   15  C   UNL     1     -11.125  14.762  66.366  1.00  0.00    -0.340 A  
HETATM   16 CL   UNL     1     -12.272  15.391  64.001  1.00  0.00    -0.171 Cl 
HETATM   17 CL   UNL     1      -9.967  14.594  68.755  1.00  0.00    -0.232 Cl 
HETATM   18  C   UNL     1     -12.348  13.018  65.262  1.00  0.00    -0.537 A  
ENDBRANCH  10  11
BRANCH  10  19
HETATM   19  C   UNL     1     -11.594  11.763  69.875  1.00  0.00    -0.274 C  
BRANCH  19  20
HETATM   20  N   UNL     1     -12.035  10.559  70.545  1.00  0.00    -0.313 NA 
HETATM   21  C   UNL     1     -11.417   9.342  70.520  1.00  0.00    -0.248 A  
HETATM   22  N   UNL     1     -13.310   9.207  71.744  1.00  0.00    -0.382 NA 
HETATM   23  C   UNL     1     -12.254   8.508  71.214  1.00  0.00    -0.277 A  
HETATM   24  C   UNL     1     -13.133  10.447  71.346  1.00  0.00    -0.413 A  
ENDBRANCH  19  20
ENDBRANCH  10  19
ENDBRANCH   9  10
ENDBRANCH   8   9
ENDBRANCH   5   8
TORSDOF 6
ENDMDL
MODEL      177
REMARK 921   NORMALIZED FREE ENERGY PREDICTED BY IDOCK:   -4.17 KCAL/MOL
REMARK 922        TOTAL FREE ENERGY PREDICTED BY IDOCK:   -6.55 KCAL/MOL
REMARK 923 INTER-LIGAND FREE ENERGY PREDICTED BY IDOCK:   -6.13 KCAL/MOL
REMARK 924 INTRA-LIGAND FREE ENERGY PREDICTED BY IDOCK:   -0.43 KCAL/MOL
REMARK 927      BINDING AFFINITY PREDICTED BY RF-SCORE:    0.00 PKD
ROOT
HETATM    1 CL   UNL     1      -7.641   6.135  68.049  1.00  0.00    -0.099 Cl 
HETATM    2  C   UNL     1      -8.659   7.234  68.894  1.00  0.00    -0.129 A  
HETATM    3  C   UNL     1     -10.040   7.062  68.864  1.00  0.00    -0.174 A  
HETATM    4  C   UNL     1     -10.868   7.962  69.547  1.00  0.00    -0.141 A  
HETATM    5  C   UNL     1     -10.321   9.047  70.254  1.00  0.00    -0.243 A  
HETATM    6  C   UNL     1      -8.924   9.189  70.289  1.00  0.00    -0.245 A  
HETATM    7  C   UNL     1      -8.098   8.289  69.608  1.00  0.00    -0.116 A  
ENDROOT
BRANCH   5   8
HETATM    8  C   UNL     1     -11.219   9.998  71.028  1.00  0.00    -0.314 C  
BRANCH   8   9
HETATM    9  S   UNL     1     -12.196  10.980  69.853  1.00  0.00    -0.310 SA 
BRANCH   9  10
HETATM   10  C   UNL     1     -10.974  11.556  68.540  1.00  0.00    -0.223 C  
BRANCH  10  11
HETATM   11  C   UNL     1     -10.740  13.093  68.627  1.00  0.00    -0.274 A  
HETATM   12  C   UNL     1     -10.381  15.918  68.687  1.00  0.00    -0.229 A  
HETATM   13  C   UNL     1      -9.462  13.683  68.496  1.00  0.00    -0.143 A  
HETATM   14  C   UNL     1     -11.815  13.993  68.823  1.00  0.00    -0.396 A  
HETATM   15  C   UNL     1      -9.290  15.078  68.496  1.00  0.00    -0.196 A  
HETATM   16 CL   UNL     1     -10.169  17.625  68.714  1.00  0.00    -0.370 Cl 
HETATM   17 CL   UNL     1      -8.011  12.750  68.356  1.00  0.00    -0.149 Cl 
HETATM   18  C   UNL     1     -11.641  15.380  68.870  1.00  0.00    -0.369 A  
ENDBRANCH  10  11
BRANCH  10  19
HETATM   19  C   UNL     1     -11.359  11.064  67.119  1.00  0.00    -0.136 C  
BRANCH  19  20
HETATM   20  N   UNL     1     -11.300  12.078  66.089  1.00  0.00    -0.345 NA 
HETATM   21  C   UNL     1     -12.318  12.899  65.697  1.00  0.00    -0.423 A  
HETATM   22  N   UNL     1     -10.484  13.312  64.445  1.00  0.00    -0.426 NA 
HETATM   23  C   UNL     1     -11.811  13.608  64.640  1.00  0.00    -0.397 A  
HETATM   24  C   UNL     1     -10.199  12.407  65.354  1.00  0.00    -0.278 A  
ENDBRANCH  19  20
ENDBRANCH  10  19
ENDBRANCH   9  10
ENDBRANCH   8   9
ENDBRANCH   5   8
TORSDOF 6
ENDMDL
MODEL      178
REMARK 921   NORMALIZED FREE ENERGY PREDICTED BY IDOCK:   -4.17 KCAL/MOL
REMARK 922        TOTAL FREE ENERGY PREDICTED BY IDOCK:   -6.55 KCAL/MOL
REMARK 923 INTER-LIGAND FREE ENERGY PREDICTED BY IDOCK:   -5.29 KCAL/MOL
REMARK 924 INTRA-LIGAND FREE ENERGY PREDICTED BY IDOCK:   -1.26 KCAL/MOL
REMARK 927      BINDING AFFINITY PREDICTED BY RF-SCORE:    0.00 PKD
ROOT
HETATM    1 CL   UNL     1     -14.164   8.956  72.561  1.00  0.00    -0.485 Cl 
HETATM    2  C   UNL     1     -12.537   8.999  72.005  1.00  0.00    -0.394 A  
HETATM    3  C   UNL     1     -11.580   8.182  72.599  1.00  0.00    -0.441 A  
HETATM    4  C   UNL     1     -10.254   8.223  72.149  1.00  0.00    -0.355 A  
HETATM    5  C   UNL     1      -9.874   9.091  71.110  1.00  0.00    -0.371 A  
HETATM    6  C   UNL     1     -10.861   9.891  70.509  1.00  0.00    -0.391 A  
HETATM    7  C   UNL     1     -12.185   9.848  70.958  1.00  0.00    -0.446 A  
ENDROOT
BRANCH   5   8
HETATM    8  C   UNL     1      -8.445   9.105  70.596  1.00  0.00    -0.209 C  
BRANCH   8   9
HETATM    9  S   UNL     1      -8.467   9.214  68.782  1.00  0.00    -0.131 SA 
BRANCH   9  10
HETATM   10  C   UNL     1      -8.305   7.440  68.169  1.00  0.00    -0.124 C  
BRANCH  10  11
HETATM   11  C   UNL     1      -8.597   6.423  69.311  1.00  0.00    -0.125 A  
HETATM   12  C   UNL     1      -9.050   4.486  71.350  1.00  0.00    -0.131 A  
HETATM   13  C   UNL     1      -9.870   5.845  69.518  1.00  0.00    -0.169 A  
HETATM   14  C   UNL     1      -7.580   6.003  70.202  1.00  0.00    -0.095 A  
HETATM   15  C   UNL     1     -10.085   4.867  70.505  1.00  0.00    -0.312 A  
HETATM   16 CL   UNL     1      -9.317   3.309  72.576  1.00  0.00    -0.144 Cl 
HETATM   17 CL   UNL     1     -11.265   6.306  68.605  1.00  0.00    -0.413 Cl 
HETATM   18  C   UNL     1      -7.802   5.064  71.215  1.00  0.00    -0.101 A  
ENDBRANCH  10  11
BRANCH  10  19
HETATM   19  C   UNL     1      -6.958   7.189  67.440  1.00  0.00    -0.079 C  
BRANCH  19  20
HETATM   20  N   UNL     1      -7.061   6.399  66.231  1.00  0.00    -0.066 NA 
HETATM   21  C   UNL     1      -8.182   6.214  65.474  1.00  0.00    -0.144 A  
HETATM   22  N   UNL     1      -6.465   5.041  64.591  1.00  0.00    -0.034 NA 
HETATM   23  C   UNL     1      -7.806   5.323  64.503  1.00  0.00    -0.099 A  
HETATM   24  C   UNL     1      -6.039   5.728  65.627  1.00  0.00    -0.032 A  
ENDBRANCH  19  20
ENDBRANCH  10  19
ENDBRANCH   9  10
ENDBRANCH   8   9
ENDBRANCH   5   8
TORSDOF 6
ENDMDL
MODEL      179
REMARK 921   NORMALIZED FREE ENERGY PREDICTED BY IDOCK:   -4.17 KCAL/MOL
REMARK 922        TOTAL FREE ENERGY PREDICTED BY IDOCK:   -6.55 KCAL/MOL
REMARK 923 INTER-LIGAND FREE ENERGY PREDICTED BY IDOCK:   -5.50 KCAL/MOL
REMARK 924 INTRA-LIGAND FREE ENERGY PREDICTED BY IDOCK:   -1.05 KCAL/MOL
REMARK 927      BINDING AFFINITY PREDICTED BY RF-SCORE:    0.00 PKD
ROOT
HETATM    1 CL   UNL     1     -10.150   4.233  71.212  1.00  0.00    -0.222 Cl 
HETATM    2  C   UNL     1     -10.442   5.928  71.156  1.00  0.00    -0.233 A  
HETATM    3  C   UNL     1      -9.703   6.785  71.967  1.00  0.00    -0.159 A  
HETATM    4  C   UNL     1      -9.946   8.164  71.925  1.00  0.00    -0.277 A  
HETATM    5  C   UNL     1     -10.939   8.693  71.082  1.00  0.00    -0.320 A  
HETATM    6  C   UNL     1     -11.658   7.813  70.257  1.00  0.00    -0.049 A  
HETATM    7  C   UNL     1     -11.413   6.436  70.298  1.00  0.00    -0.468 A  
ENDROOT
BRANCH   5   8
HETATM    8  C   UNL     1     -11.173  10.193  71.009  1.00  0.00    -0.247 C  
BRANCH   8   9
HETATM    9  S   UNL     1     -12.018  10.586  69.449  1.00  0.00    -0.082 SA 
BRANCH   9  10
HETATM   10  C   UNL     1     -10.667  10.609  68.137  1.00  0.00    -0.225 C  
BRANCH  10  11
HETATM   11  C   UNL     1     -10.738  11.908  67.281  1.00  0.00    -0.276 A  
HETATM   12  C   UNL     1     -10.859  14.216  65.616  1.00  0.00    -0.305 A  
HETATM   13  C   UNL     1      -9.758  12.925  67.347  1.00  0.00    -0.201 A  
HETATM   14  C   UNL     1     -11.792  12.129  66.363  1.00  0.00    -0.321 A  
HETATM   15  C   UNL     1      -9.804  14.049  66.504  1.00  0.00    -0.298 A  
HETATM   16 CL   UNL     1     -10.931  15.603  64.601  1.00  0.00    -0.415 Cl 
HETATM   17 CL   UNL     1      -8.450  12.891  68.479  1.00  0.00    -0.099 Cl 
HETATM   18  C   UNL     1     -11.864  13.269  65.555  1.00  0.00    -0.405 A  
ENDBRANCH  10  11
BRANCH  10  19
HETATM   19  C   UNL     1     -10.642   9.307  67.292  1.00  0.00    -0.233 C  
BRANCH  19  20
HETATM   20  N   UNL     1      -9.610   8.363  67.662  1.00  0.00    -0.148 NA 
HETATM   21  C   UNL     1      -9.508   7.066  67.248  1.00  0.00    -0.138 A  
HETATM   22  N   UNL     1      -7.826   7.542  68.678  1.00  0.00    -0.119 NA 
HETATM   23  C   UNL     1      -8.436   6.560  67.936  1.00  0.00    -0.118 A  
HETATM   24  C   UNL     1      -8.541   8.624  68.469  1.00  0.00    -0.135 A  
ENDBRANCH  19  20
ENDBRANCH  10  19
ENDBRANCH   9  10
ENDBRANCH   8   9
ENDBRANCH   5   8
TORSDOF 6
ENDMDL
MODEL      180
REMARK 921   NORMALIZED FREE ENERGY PREDICTED BY IDOCK:   -4.16 KCAL/MOL
REMARK 922        TOTAL FREE ENERGY PREDICTED BY IDOCK:   -6.54 KCAL/MOL
REMARK 923 INTER-LIGAND FREE ENERGY PREDICTED BY IDOCK:   -5.27 KCAL/MOL
REMARK 924 INTRA-LIGAND FREE ENERGY PREDICTED BY IDOCK:   -1.27 KCAL/MOL
REMARK 927      BINDING AFFINITY PREDICTED BY RF-SCORE:    0.00 PKD
ROOT
HETATM    1 CL   UNL     1     -10.477  16.925  67.280  1.00  0.00    -0.315 Cl 
HETATM    2  C   UNL     1      -9.756  15.398  67.607  1.00  0.00    -0.211 A  
HETATM    3  C   UNL     1      -8.728  14.929  66.795  1.00  0.00    -0.278 A  
HETATM    4  C   UNL     1      -8.146  13.682  67.059  1.00  0.00    -0.004 A  
HETATM    5  C   UNL     1      -8.599  12.890  68.130  1.00  0.00    -0.188 A  
HETATM    6  C   UNL     1      -9.623  13.393  68.949  1.00  0.00     0.155 A  
HETATM    7  C   UNL     1     -10.201  14.638  68.687  1.00  0.00    -0.244 A  
ENDROOT
BRANCH   5   8
HETATM    8  C   UNL     1      -7.939  11.557  68.439  1.00  0.00    -0.143 C  
BRANCH   8   9
HETATM    9  S   UNL     1      -9.199  10.400  69.053  1.00  0.00    -0.187 SA 
BRANCH   9  10
HETATM   10  C   UNL     1      -9.783   9.443  67.539  1.00  0.00    -0.157 C  
BRANCH  10  11
HETATM   11  C   UNL     1     -10.356  10.403  66.455  1.00  0.00    -0.287 A  
HETATM   12  C   UNL     1     -11.513  12.111  64.491  1.00  0.00    -0.334 A  
HETATM   13  C   UNL     1      -9.951  10.360  65.101  1.00  0.00    -0.322 A  
HETATM   14  C   UNL     1     -11.342  11.368  66.771  1.00  0.00    -0.252 A  
HETATM   15  C   UNL     1     -10.544  11.182  64.128  1.00  0.00    -0.436 A  
HETATM   16 CL   UNL     1     -12.221  13.136  63.306  1.00  0.00    -0.575 Cl 
HETATM   17 CL   UNL     1      -8.685   9.325  64.536  1.00  0.00    -0.220 Cl 
HETATM   18  C   UNL     1     -11.901  12.220  65.813  1.00  0.00    -0.417 A  
ENDBRANCH  10  11
BRANCH  10  19
HETATM   19  C   UNL     1     -10.742   8.280  67.910  1.00  0.00    -0.070 C  
BRANCH  19  20
HETATM   20  N   UNL     1     -10.098   6.996  68.088  1.00  0.00    -0.162 NA 
HETATM   21  C   UNL     1     -10.677   5.855  68.563  1.00  0.00    -0.255 A  
HETATM   22  N   UNL     1      -8.493   5.475  68.129  1.00  0.00    -0.099 NA 
HETATM   23  C   UNL     1      -9.654   4.946  68.638  1.00  0.00    -0.154 A  
HETATM   24  C   UNL     1      -8.802   6.703  67.779  1.00  0.00    -0.114 A  
ENDBRANCH  19  20
ENDBRANCH  10  19
ENDBRANCH   9  10
ENDBRANCH   8   9
ENDBRANCH   5   8
TORSDOF 6
ENDMDL
MODEL      181
REMARK 921   NORMALIZED FREE ENERGY PREDICTED BY IDOCK:   -4.15 KCAL/MOL
REMARK 922        TOTAL FREE ENERGY PREDICTED BY IDOCK:   -6.53 KCAL/MOL
REMARK 923 INTER-LIGAND FREE ENERGY PREDICTED BY IDOCK:   -5.87 KCAL/MOL
REMARK 924 INTRA-LIGAND FREE ENERGY PREDICTED BY IDOCK:   -0.66 KCAL/MOL
REMARK 927      BINDING AFFINITY PREDICTED BY RF-SCORE:    0.00 PKD
ROOT
HETATM    1 CL   UNL     1     -13.450  13.671  72.685  1.00  0.00    -0.652 Cl 
HETATM    2  C   UNL     1     -12.820  12.802  71.341  1.00  0.00    -0.275 A  
HETATM    3  C   UNL     1     -12.851  11.410  71.340  1.00  0.00    -0.502 A  
HETATM    4  C   UNL     1     -12.332  10.704  70.247  1.00  0.00    -0.406 A  
HETATM    5  C   UNL     1     -11.766  11.384  69.154  1.00  0.00    -0.410 A  
HETATM    6  C   UNL     1     -11.765  12.789  69.167  1.00  0.00    -0.375 A  
HETATM    7  C   UNL     1     -12.285  13.494  70.257  1.00  0.00    -0.417 A  
ENDROOT
BRANCH   5   8
HETATM    8  C   UNL     1     -11.241  10.617  67.952  1.00  0.00    -0.308 C  
BRANCH   8   9
HETATM    9  S   UNL     1      -9.551  10.051  68.303  1.00  0.00    -0.142 SA 
BRANCH   9  10
HETATM   10  C   UNL     1      -9.057   8.994  66.823  1.00  0.00    -0.145 C  
BRANCH  10  11
HETATM   11  C   UNL     1      -8.380   7.669  67.281  1.00  0.00    -0.115 A  
HETATM   12  C   UNL     1      -7.096   5.232  68.006  1.00  0.00    -0.066 A  
HETATM   13  C   UNL     1      -9.113   6.547  67.729  1.00  0.00    -0.112 A  
HETATM   14  C   UNL     1      -6.973   7.511  67.251  1.00  0.00    -0.083 A  
HETATM   15  C   UNL     1      -8.481   5.336  68.058  1.00  0.00    -0.097 A  
HETATM   16 CL   UNL     1      -6.318   3.759  68.433  1.00  0.00    -0.035 Cl 
HETATM   17 CL   UNL     1     -10.831   6.575  67.938  1.00  0.00    -0.352 Cl 
HETATM   18  C   UNL     1      -6.338   6.322  67.621  1.00  0.00    -0.033 A  
ENDBRANCH  10  11
BRANCH  10  19
HETATM   19  C   UNL     1      -8.228   9.790  65.780  1.00  0.00    -0.122 C  
BRANCH  19  20
HETATM   20  N   UNL     1      -8.989  10.295  64.657  1.00  0.00    -0.193 NA 
HETATM   21  C   UNL     1      -9.730  11.441  64.626  1.00  0.00    -0.240 A  
HETATM   22  N   UNL     1      -9.898  10.373  62.643  1.00  0.00    -0.157 NA 
HETATM   23  C   UNL     1     -10.332  11.437  63.395  1.00  0.00    -0.402 A  
HETATM   24  C   UNL     1      -9.066   9.720  63.422  1.00  0.00    -0.229 A  
ENDBRANCH  19  20
ENDBRANCH  10  19
ENDBRANCH   9  10
ENDBRANCH   8   9
ENDBRANCH   5   8
TORSDOF 6
ENDMDL
MODEL      182
REMARK 921   NORMALIZED FREE ENERGY PREDICTED BY IDOCK:   -4.14 KCAL/MOL
REMARK 922        TOTAL FREE ENERGY PREDICTED BY IDOCK:   -6.52 KCAL/MOL
REMARK 923 INTER-LIGAND FREE ENERGY PREDICTED BY IDOCK:   -7.14 KCAL/MOL
REMARK 924 INTRA-LIGAND FREE ENERGY PREDICTED BY IDOCK:    0.62 KCAL/MOL
REMARK 927      BINDING AFFINITY PREDICTED BY RF-SCORE:    0.00 PKD
ROOT
HETATM    1 CL   UNL     1     -10.021   2.844  71.603  1.00  0.00    -0.206 Cl 
HETATM    2  C   UNL     1      -9.957   4.555  71.436  1.00  0.00    -0.189 A  
HETATM    3  C   UNL     1     -10.745   5.361  72.253  1.00  0.00    -0.287 A  
HETATM    4  C   UNL     1     -10.696   6.754  72.111  1.00  0.00    -0.249 A  
HETATM    5  C   UNL     1      -9.869   7.349  71.141  1.00  0.00    -0.177 A  
HETATM    6  C   UNL     1      -9.066   6.518  70.343  1.00  0.00    -0.156 A  
HETATM    7  C   UNL     1      -9.114   5.127  70.487  1.00  0.00    -0.177 A  
ENDROOT
BRANCH   5   8
HETATM    8  C   UNL     1      -9.787   8.861  71.017  1.00  0.00    -0.253 C  
BRANCH   8   9
HETATM    9  S   UNL     1     -11.468   9.536  70.873  1.00  0.00    -0.362 SA 
BRANCH   9  10
HETATM   10  C   UNL     1     -11.290  11.116  69.863  1.00  0.00    -0.268 C  
BRANCH  10  11
HETATM   11  C   UNL     1     -12.063  12.295  70.525  1.00  0.00    -0.371 A  
HETATM   12  C   UNL     1     -13.371  14.501  71.764  1.00  0.00    -0.363 A  
HETATM   13  C   UNL     1     -12.921  12.123  71.635  1.00  0.00    -0.321 A  
HETATM   14  C   UNL     1     -11.927  13.623  70.054  1.00  0.00    -0.413 A  
HETATM   15  C   UNL     1     -13.542  13.216  72.264  1.00  0.00    -0.677 A  
HETATM   16 CL   UNL     1     -14.150  15.838  72.516  1.00  0.00    -0.592 Cl 
HETATM   17 CL   UNL     1     -13.302  10.567  72.290  1.00  0.00    -0.379 Cl 
HETATM   18  C   UNL     1     -12.580  14.707  70.650  1.00  0.00    -0.419 A  
ENDBRANCH  10  11
BRANCH  10  19
HETATM   19  C   UNL     1     -11.642  10.903  68.366  1.00  0.00    -0.276 C  
BRANCH  19  20
HETATM   20  N   UNL     1     -10.578  10.334  67.568  1.00  0.00    -0.248 NA 
HETATM   21  C   UNL     1     -10.400   9.012  67.274  1.00  0.00    -0.273 A  
HETATM   22  N   UNL     1      -8.727  10.226  66.363  1.00  0.00    -0.133 NA 
HETATM   23  C   UNL     1      -9.218   8.962  66.583  1.00  0.00    -0.170 A  
HETATM   24  C   UNL     1      -9.586  11.032  66.945  1.00  0.00    -0.182 A  
ENDBRANCH  19  20
ENDBRANCH  10  19
ENDBRANCH   9  10
ENDBRANCH   8   9
ENDBRANCH   5   8
TORSDOF 6
ENDMDL
MODEL      183
REMARK 921   NORMALIZED FREE ENERGY PREDICTED BY IDOCK:   -4.14 KCAL/MOL
REMARK 922        TOTAL FREE ENERGY PREDICTED BY IDOCK:   -6.51 KCAL/MOL
REMARK 923 INTER-LIGAND FREE ENERGY PREDICTED BY IDOCK:   -5.76 KCAL/MOL
REMARK 924 INTRA-LIGAND FREE ENERGY PREDICTED BY IDOCK:   -0.75 KCAL/MOL
REMARK 927      BINDING AFFINITY PREDICTED BY RF-SCORE:    0.00 PKD
ROOT
HETATM    1 CL   UNL     1     -11.206   2.030  73.167  1.00  0.00    -0.244 Cl 
HETATM    2  C   UNL     1     -10.501   3.526  72.695  1.00  0.00    -0.104 A  
HETATM    3  C   UNL     1     -10.736   4.671  73.451  1.00  0.00    -0.322 A  
HETATM    4  C   UNL     1     -10.166   5.891  73.061  1.00  0.00    -0.211 A  
HETATM    5  C   UNL     1      -9.369   5.975  71.906  1.00  0.00    -0.160 A  
HETATM    6  C   UNL     1      -9.128   4.802  71.170  1.00  0.00    -0.180 A  
HETATM    7  C   UNL     1      -9.695   3.585  71.561  1.00  0.00    -0.237 A  
ENDROOT
BRANCH   5   8
HETATM    8  C   UNL     1      -8.719   7.289  71.508  1.00  0.00    -0.118 C  
BRANCH   8   9
HETATM    9  S   UNL     1      -9.095   7.633  69.764  1.00  0.00    -0.146 SA 
BRANCH   9  10
HETATM   10  C   UNL     1     -10.357   9.032  69.788  1.00  0.00    -0.211 C  
BRANCH  10  11
HETATM   11  C   UNL     1      -9.779  10.319  69.130  1.00  0.00    -0.229 A  
HETATM   12  C   UNL     1      -8.651  12.690  68.024  1.00  0.00    -0.189 A  
HETATM   13  C   UNL     1     -10.570  11.456  68.845  1.00  0.00    -0.202 A  
HETATM   14  C   UNL     1      -8.407  10.427  68.800  1.00  0.00    -0.134 A  
HETATM   15  C   UNL     1     -10.006  12.635  68.327  1.00  0.00    -0.229 A  
HETATM   16 CL   UNL     1      -7.964  14.123  67.366  1.00  0.00    -0.200 Cl 
HETATM   17 CL   UNL     1     -12.284  11.485  69.076  1.00  0.00    -0.286 Cl 
HETATM   18  C   UNL     1      -7.852  11.583  68.242  1.00  0.00    -0.138 A  
ENDBRANCH  10  11
BRANCH  10  19
HETATM   19  C   UNL     1     -10.950   9.267  71.202  1.00  0.00    -0.339 C  
BRANCH  19  20
HETATM   20  N   UNL     1     -12.277   8.723  71.402  1.00  0.00    -0.301 NA 
HETATM   21  C   UNL     1     -13.375   9.402  71.847  1.00  0.00    -0.434 A  
HETATM   22  N   UNL     1     -13.908   7.234  71.503  1.00  0.00    -0.389 NA 
HETATM   23  C   UNL     1     -14.354   8.449  71.961  1.00  0.00    -0.464 A  
HETATM   24  C   UNL     1     -12.661   7.440  71.146  1.00  0.00    -0.293 A  
ENDBRANCH  19  20
ENDBRANCH  10  19
ENDBRANCH   9  10
ENDBRANCH   8   9
ENDBRANCH   5   8
TORSDOF 6
ENDMDL
MODEL      184
REMARK 921   NORMALIZED FREE ENERGY PREDICTED BY IDOCK:   -4.13 KCAL/MOL
REMARK 922        TOTAL FREE ENERGY PREDICTED BY IDOCK:   -6.51 KCAL/MOL
REMARK 923 INTER-LIGAND FREE ENERGY PREDICTED BY IDOCK:   -5.00 KCAL/MOL
REMARK 924 INTRA-LIGAND FREE ENERGY PREDICTED BY IDOCK:   -1.51 KCAL/MOL
REMARK 927      BINDING AFFINITY PREDICTED BY RF-SCORE:    0.00 PKD
ROOT
HETATM    1 CL   UNL     1      -6.107   7.634  64.196  1.00  0.00    -0.048 Cl 
HETATM    2  C   UNL     1      -6.510   8.676  65.504  1.00  0.00    -0.059 A  
HETATM    3  C   UNL     1      -6.629  10.046  65.286  1.00  0.00    -0.116 A  
HETATM    4  C   UNL     1      -6.951  10.895  66.354  1.00  0.00    -0.134 A  
HETATM    5  C   UNL     1      -7.143  10.380  67.648  1.00  0.00    -0.085 A  
HETATM    6  C   UNL     1      -7.039   8.992  67.840  1.00  0.00    -0.079 A  
HETATM    7  C   UNL     1      -6.720   8.146  66.774  1.00  0.00    -0.064 A  
ENDROOT
BRANCH   5   8
HETATM    8  C   UNL     1      -7.532  11.296  68.795  1.00  0.00    -0.123 C  
BRANCH   8   9
HETATM    9  S   UNL     1      -8.898  12.369  68.262  1.00  0.00    -0.142 SA 
BRANCH   9  10
HETATM   10  C   UNL     1     -10.466  11.535  68.887  1.00  0.00    -0.187 C  
BRANCH  10  11
HETATM   11  C   UNL     1     -10.525  10.044  68.440  1.00  0.00    -0.235 A  
HETATM   12  C   UNL     1     -10.527   7.299  67.679  1.00  0.00    -0.242 A  
HETATM   13  C   UNL     1     -10.526   9.649  67.083  1.00  0.00    -0.249 A  
HETATM   14  C   UNL     1     -10.559   8.991  69.387  1.00  0.00    -0.231 A  
HETATM   15  C   UNL     1     -10.497   8.294  66.710  1.00  0.00    -0.313 A  
HETATM   16 CL   UNL     1     -10.517   5.640  67.224  1.00  0.00    -0.293 Cl 
HETATM   17 CL   UNL     1     -10.594  10.783  65.779  1.00  0.00    -0.249 Cl 
HETATM   18  C   UNL     1     -10.576   7.643  69.017  1.00  0.00    -0.186 A  
ENDBRANCH  10  11
BRANCH  10  19
HETATM   19  C   UNL     1     -11.745  12.341  68.534  1.00  0.00    -0.331 C  
BRANCH  19  20
HETATM   20  N   UNL     1     -12.061  13.411  69.456  1.00  0.00    -0.304 NA 
HETATM   21  C   UNL     1     -12.136  14.742  69.163  1.00  0.00    -0.243 A  
HETATM   22  N   UNL     1     -12.531  14.425  71.364  1.00  0.00    -0.341 NA 
HETATM   23  C   UNL     1     -12.365  15.355  70.367  1.00  0.00    -0.402 A  
HETATM   24  C   UNL     1     -12.370  13.261  70.777  1.00  0.00    -0.344 A  
ENDBRANCH  19  20
ENDBRANCH  10  19
ENDBRANCH   9  10
ENDBRANCH   8   9
ENDBRANCH   5   8
TORSDOF 6
ENDMDL
MODEL      185
REMARK 921   NORMALIZED FREE ENERGY PREDICTED BY IDOCK:   -4.13 KCAL/MOL
REMARK 922        TOTAL FREE ENERGY PREDICTED BY IDOCK:   -6.50 KCAL/MOL
REMARK 923 INTER-LIGAND FREE ENERGY PREDICTED BY IDOCK:   -6.06 KCAL/MOL
REMARK 924 INTRA-LIGAND FREE ENERGY PREDICTED BY IDOCK:   -0.44 KCAL/MOL
REMARK 927      BINDING AFFINITY PREDICTED BY RF-SCORE:    0.00 PKD
ROOT
HETATM    1 CL   UNL     1      -8.136   6.985  73.892  1.00  0.00    -0.130 Cl 
HETATM    2  C   UNL     1      -8.295   8.025  72.530  1.00  0.00    -0.157 A  
HETATM    3  C   UNL     1      -9.558   8.451  72.129  1.00  0.00    -0.367 A  
HETATM    4  C   UNL     1      -9.687   9.292  71.016  1.00  0.00    -0.341 A  
HETATM    5  C   UNL     1      -8.554   9.702  70.290  1.00  0.00    -0.234 A  
HETATM    6  C   UNL     1      -7.288   9.278  70.727  1.00  0.00    -0.134 A  
HETATM    7  C   UNL     1      -7.160   8.440  71.839  1.00  0.00    -0.103 A  
ENDROOT
BRANCH   5   8
HETATM    8  C   UNL     1      -8.693  10.647  69.108  1.00  0.00    -0.126 C  
BRANCH   8   9
HETATM    9  S   UNL     1     -10.292  10.354  68.298  1.00  0.00    -0.183 SA 
BRANCH   9  10
HETATM   10  C   UNL     1     -10.862  12.041  67.683  1.00  0.00    -0.231 C  
BRANCH  10  11
HETATM   11  C   UNL     1     -11.230  12.976  68.871  1.00  0.00    -0.326 A  
HETATM   12  C   UNL     1     -11.786  14.698  71.072  1.00  0.00    -0.322 A  
HETATM   13  C   UNL     1     -12.014  12.551  69.968  1.00  0.00    -0.299 A  
HETATM   14  C   UNL     1     -10.773  14.315  68.926  1.00  0.00    -0.268 A  
HETATM   15  C   UNL     1     -12.263  13.392  71.067  1.00  0.00    -0.312 A  
HETATM   16 CL   UNL     1     -12.111  15.736  72.404  1.00  0.00    -0.534 Cl 
HETATM   17 CL   UNL     1     -12.753  10.988  70.040  1.00  0.00    -0.233 Cl 
HETATM   18  C   UNL     1     -11.058  15.169  69.996  1.00  0.00    -0.297 A  
ENDBRANCH  10  11
BRANCH  10  19
HETATM   19  C   UNL     1     -11.976  11.931  66.607  1.00  0.00     0.114 C  
BRANCH  19  20
HETATM   20  N   UNL     1     -11.515  12.063  65.242  1.00  0.00    -0.328 NA 
HETATM   21  C   UNL     1     -12.116  12.779  64.247  1.00  0.00    -0.425 A  
HETATM   22  N   UNL     1     -10.276  11.748  63.437  1.00  0.00    -0.429 NA 
HETATM   23  C   UNL     1     -11.369  12.520  63.127  1.00  0.00    -0.103 A  
HETATM   24  C   UNL     1     -10.378  11.513  64.726  1.00  0.00    -0.289 A  
ENDBRANCH  19  20
ENDBRANCH  10  19
ENDBRANCH   9  10
ENDBRANCH   8   9
ENDBRANCH   5   8
TORSDOF 6
ENDMDL
MODEL      186
REMARK 921   NORMALIZED FREE ENERGY PREDICTED BY IDOCK:   -4.12 KCAL/MOL
REMARK 922        TOTAL FREE ENERGY PREDICTED BY IDOCK:   -6.49 KCAL/MOL
REMARK 923 INTER-LIGAND FREE ENERGY PREDICTED BY IDOCK:   -5.55 KCAL/MOL
REMARK 924 INTRA-LIGAND FREE ENERGY PREDICTED BY IDOCK:   -0.94 KCAL/MOL
REMARK 927      BINDING AFFINITY PREDICTED BY RF-SCORE:    0.00 PKD
ROOT
HETATM    1 CL   UNL     1      -7.666  17.278  68.729  1.00  0.00    -0.267 Cl 
HETATM    2  C   UNL     1      -7.540  15.567  68.598  1.00  0.00    -0.141 A  
HETATM    3  C   UNL     1      -8.159  14.906  67.541  1.00  0.00    -0.200 A  
HETATM    4  C   UNL     1      -8.061  13.512  67.439  1.00  0.00    -0.184 A  
HETATM    5  C   UNL     1      -7.354  12.769  68.401  1.00  0.00    -0.118 A  
HETATM    6  C   UNL     1      -6.719  13.459  69.447  1.00  0.00    -0.037 A  
HETATM    7  C   UNL     1      -6.815  14.851  69.547  1.00  0.00    -0.172 A  
ENDROOT
BRANCH   5   8
HETATM    8  C   UNL     1      -7.214  11.263  68.267  1.00  0.00    -0.080 C  
BRANCH   8   9
HETATM    9  S   UNL     1      -8.346  10.455  69.435  1.00  0.00    -0.104 SA 
BRANCH   9  10
HETATM   10  C   UNL     1      -9.470   9.371  68.381  1.00  0.00    -0.141 C  
BRANCH  10  11
HETATM   11  C   UNL     1     -10.073  10.177  67.194  1.00  0.00    -0.260 A  
HETATM   12  C   UNL     1     -11.066  11.687  64.991  1.00  0.00    -0.249 A  
HETATM   13  C   UNL     1     -10.968  11.256  67.375  1.00  0.00    -0.282 A  
HETATM   14  C   UNL     1      -9.735   9.880  65.851  1.00  0.00    -0.326 A  
HETATM   15  C   UNL     1     -11.434  12.019  66.290  1.00  0.00    -0.408 A  
HETATM   16 CL   UNL     1     -11.655  12.603  63.660  1.00  0.00    -0.532 Cl 
HETATM   17 CL   UNL     1     -11.586  11.708  68.927  1.00  0.00    -0.341 Cl 
HETATM   18  C   UNL     1     -10.233  10.608  64.766  1.00  0.00    -0.401 A  
ENDBRANCH  10  11
BRANCH  10  19
HETATM   19  C   UNL     1     -10.531   8.621  69.228  1.00  0.00    -0.217 C  
BRANCH  19  20
HETATM   20  N   UNL     1     -10.079   8.206  70.539  1.00  0.00    -0.191 NA 
HETATM   21  C   UNL     1     -10.478   8.722  71.738  1.00  0.00    -0.346 A  
HETATM   22  N   UNL     1      -8.926   7.117  72.080  1.00  0.00    -0.130 NA 
HETATM   23  C   UNL     1      -9.707   8.079  72.672  1.00  0.00    -0.264 A  
HETATM   24  C   UNL     1      -9.195   7.199  70.797  1.00  0.00    -0.157 A  
ENDBRANCH  19  20
ENDBRANCH  10  19
ENDBRANCH   9  10
ENDBRANCH   8   9
ENDBRANCH   5   8
TORSDOF 6
ENDMDL
MODEL      187
REMARK 921   NORMALIZED FREE ENERGY PREDICTED BY IDOCK:   -4.12 KCAL/MOL
REMARK 922        TOTAL FREE ENERGY PREDICTED BY IDOCK:   -6.49 KCAL/MOL
REMARK 923 INTER-LIGAND FREE ENERGY PREDICTED BY IDOCK:   -5.74 KCAL/MOL
REMARK 924 INTRA-LIGAND FREE ENERGY PREDICTED BY IDOCK:   -0.75 KCAL/MOL
REMARK 927      BINDING AFFINITY PREDICTED BY RF-SCORE:    0.00 PKD
ROOT
HETATM    1 CL   UNL     1     -12.338  14.893  64.109  1.00  0.00    -0.393 Cl 
HETATM    2  C   UNL     1     -11.805  14.052  65.512  1.00  0.00    -0.365 A  
HETATM    3  C   UNL     1     -11.206  14.754  66.554  1.00  0.00    -0.342 A  
HETATM    4  C   UNL     1     -10.767  14.067  67.694  1.00  0.00    -0.261 A  
HETATM    5  C   UNL     1     -10.913  12.671  67.792  1.00  0.00    -0.266 A  
HETATM    6  C   UNL     1     -11.541  11.987  66.738  1.00  0.00    -0.391 A  
HETATM    7  C   UNL     1     -11.980  12.674  65.602  1.00  0.00    -0.507 A  
ENDROOT
BRANCH   5   8
HETATM    8  C   UNL     1     -10.473  11.934  69.045  1.00  0.00    -0.070 C  
BRANCH   8   9
HETATM    9  S   UNL     1     -10.890  10.174  68.875  1.00  0.00    -0.222 SA 
BRANCH   9  10
HETATM   10  C   UNL     1      -9.248   9.256  68.961  1.00  0.00    -0.144 C  
BRANCH  10  11
HETATM   11  C   UNL     1      -8.886   8.623  67.586  1.00  0.00    -0.138 A  
HETATM   12  C   UNL     1      -8.146   7.391  65.126  1.00  0.00    -0.129 A  
HETATM   13  C   UNL     1      -8.304   9.361  66.530  1.00  0.00    -0.119 A  
HETATM   14  C   UNL     1      -9.105   7.248  67.326  1.00  0.00    -0.133 A  
HETATM   15  C   UNL     1      -7.912   8.747  65.328  1.00  0.00    -0.118 A  
HETATM   16 CL   UNL     1      -7.690   6.642  63.647  1.00  0.00    -0.104 Cl 
HETATM   17 CL   UNL     1      -8.055  11.071  66.612  1.00  0.00    -0.150 Cl 
HETATM   18  C   UNL     1      -8.758   6.643  66.114  1.00  0.00    -0.154 A  
ENDBRANCH  10  11
BRANCH  10  19
HETATM   19  C   UNL     1      -9.194   8.251  70.143  1.00  0.00    -0.155 C  
BRANCH  19  20
HETATM   20  N   UNL     1     -10.450   8.064  70.837  1.00  0.00    -0.201 NA 
HETATM   21  C   UNL     1     -11.470   7.237  70.464  1.00  0.00    -0.279 A  
HETATM   22  N   UNL     1     -12.044   8.351  72.343  1.00  0.00    -0.389 NA 
HETATM   23  C   UNL     1     -12.468   7.477  71.372  1.00  0.00    -0.352 A  
HETATM   24  C   UNL     1     -10.813   8.664  72.008  1.00  0.00    -0.360 A  
ENDBRANCH  19  20
ENDBRANCH  10  19
ENDBRANCH   9  10
ENDBRANCH   8   9
ENDBRANCH   5   8
TORSDOF 6
ENDMDL
MODEL      188
REMARK 921   NORMALIZED FREE ENERGY PREDICTED BY IDOCK:   -4.11 KCAL/MOL
REMARK 922        TOTAL FREE ENERGY PREDICTED BY IDOCK:   -6.47 KCAL/MOL
REMARK 923 INTER-LIGAND FREE ENERGY PREDICTED BY IDOCK:   -5.77 KCAL/MOL
REMARK 924 INTRA-LIGAND FREE ENERGY PREDICTED BY IDOCK:   -0.70 KCAL/MOL
REMARK 927      BINDING AFFINITY PREDICTED BY RF-SCORE:    0.00 PKD
ROOT
HETATM    1 CL   UNL     1     -10.949   5.332  73.634  1.00  0.00    -0.344 Cl 
HETATM    2  C   UNL     1     -10.706   5.446  71.935  1.00  0.00    -0.211 A  
HETATM    3  C   UNL     1      -9.586   4.858  71.355  1.00  0.00    -0.226 A  
HETATM    4  C   UNL     1      -9.386   4.958  69.971  1.00  0.00    -0.207 A  
HETATM    5  C   UNL     1     -10.299   5.656  69.162  1.00  0.00    -0.328 A  
HETATM    6  C   UNL     1     -11.434   6.222  69.765  1.00  0.00    -0.449 A  
HETATM    7  C   UNL     1     -11.634   6.121  71.146  1.00  0.00    -0.269 A  
ENDROOT
BRANCH   5   8
HETATM    8  C   UNL     1     -10.102   5.728  67.657  1.00  0.00    -0.173 C  
BRANCH   8   9
HETATM    9  S   UNL     1     -10.742   7.316  67.049  1.00  0.00    -0.244 SA 
BRANCH   9  10
HETATM   10  C   UNL     1      -9.648   8.633  67.835  1.00  0.00    -0.149 C  
BRANCH  10  11
HETATM   11  C   UNL     1     -10.472   9.559  68.776  1.00  0.00    -0.243 A  
HETATM   12  C   UNL     1     -12.048  11.158  70.530  1.00  0.00    -0.381 A  
HETATM   13  C   UNL     1     -11.242  10.646  68.302  1.00  0.00    -0.301 A  
HETATM   14  C   UNL     1     -10.512   9.343  70.175  1.00  0.00    -0.280 A  
HETATM   15  C   UNL     1     -12.042  11.416  69.164  1.00  0.00    -0.331 A  
HETATM   16 CL   UNL     1     -13.006  12.114  71.591  1.00  0.00    -0.480 Cl 
HETATM   17 CL   UNL     1     -11.242  11.139  66.643  1.00  0.00    -0.265 Cl 
HETATM   18  C   UNL     1     -11.271  10.136  71.041  1.00  0.00    -0.322 A  
ENDBRANCH  10  11
BRANCH  10  19
HETATM   19  C   UNL     1      -8.805   9.404  66.784  1.00  0.00    -0.127 C  
BRANCH  19  20
HETATM   20  N   UNL     1      -7.786  10.268  67.339  1.00  0.00    -0.095 NA 
HETATM   21  C   UNL     1      -7.654  11.610  67.129  1.00  0.00    -0.152 A  
HETATM   22  N   UNL     1      -5.981  10.882  68.459  1.00  0.00    -0.043 NA 
HETATM   23  C   UNL     1      -6.498  11.957  67.779  1.00  0.00    -0.084 A  
HETATM   24  C   UNL     1      -6.796   9.886  68.197  1.00  0.00    -0.064 A  
ENDBRANCH  19  20
ENDBRANCH  10  19
ENDBRANCH   9  10
ENDBRANCH   8   9
ENDBRANCH   5   8
TORSDOF 6
ENDMDL
MODEL      189
REMARK 921   NORMALIZED FREE ENERGY PREDICTED BY IDOCK:   -4.08 KCAL/MOL
REMARK 922        TOTAL FREE ENERGY PREDICTED BY IDOCK:   -6.44 KCAL/MOL
REMARK 923 INTER-LIGAND FREE ENERGY PREDICTED BY IDOCK:   -5.46 KCAL/MOL
REMARK 924 INTRA-LIGAND FREE ENERGY PREDICTED BY IDOCK:   -0.98 KCAL/MOL
REMARK 927      BINDING AFFINITY PREDICTED BY RF-SCORE:    0.00 PKD
ROOT
HETATM    1 CL   UNL     1      -6.359   6.256  71.635  1.00  0.00    -0.045 Cl 
HETATM    2  C   UNL     1      -7.574   6.935  70.624  1.00  0.00    -0.094 A  
HETATM    3  C   UNL     1      -7.284   7.228  69.294  1.00  0.00    -0.081 A  
HETATM    4  C   UNL     1      -8.273   7.787  68.474  1.00  0.00    -0.128 A  
HETATM    5  C   UNL     1      -9.554   8.068  68.982  1.00  0.00    -0.156 A  
HETATM    6  C   UNL     1      -9.831   7.743  70.320  1.00  0.00    -0.184 A  
HETATM    7  C   UNL     1      -8.844   7.184  71.138  1.00  0.00    -0.144 A  
ENDROOT
BRANCH   5   8
HETATM    8  C   UNL     1     -10.637   8.636  68.079  1.00  0.00    -0.145 C  
BRANCH   8   9
HETATM    9  S   UNL     1     -11.083  10.298  68.661  1.00  0.00    -0.214 SA 
BRANCH   9  10
HETATM   10  C   UNL     1     -11.105  11.381  67.121  1.00  0.00    -0.305 C  
BRANCH  10  11
HETATM   11  C   UNL     1      -9.951  10.998  66.149  1.00  0.00    -0.277 A  
HETATM   12  C   UNL     1      -7.886  10.184  64.362  1.00  0.00    -0.138 A  
HETATM   13  C   UNL     1      -8.589  11.018  66.527  1.00  0.00    -0.165 A  
HETATM   14  C   UNL     1     -10.213  10.582  64.821  1.00  0.00    -0.373 A  
HETATM   15  C   UNL     1      -7.574  10.588  65.655  1.00  0.00    -0.134 A  
HETATM   16 CL   UNL     1      -6.644   9.682  63.284  1.00  0.00    -0.106 Cl 
HETATM   17 CL   UNL     1      -8.056  11.596  68.069  1.00  0.00    -0.131 Cl 
HETATM   18  C   UNL     1      -9.201  10.197  63.936  1.00  0.00    -0.322 A  
ENDBRANCH  10  11
BRANCH  10  19
HETATM   19  C   UNL     1     -11.153  12.894  67.464  1.00  0.00    -0.269 C  
BRANCH  19  20
HETATM   20  N   UNL     1     -11.377  13.767  66.331  1.00  0.00    -0.310 NA 
HETATM   21  C   UNL     1     -12.432  13.721  65.466  1.00  0.00    -0.512 A  
HETATM   22  N   UNL     1     -11.008  15.359  64.842  1.00  0.00    -0.437 NA 
HETATM   23  C   UNL     1     -12.152  14.672  64.519  1.00  0.00    -0.475 A  
HETATM   24  C   UNL     1     -10.580  14.809  65.956  1.00  0.00    -0.312 A  
ENDBRANCH  19  20
ENDBRANCH  10  19
ENDBRANCH   9  10
ENDBRANCH   8   9
ENDBRANCH   5   8
TORSDOF 6
ENDMDL
MODEL      190
REMARK 921   NORMALIZED FREE ENERGY PREDICTED BY IDOCK:   -4.07 KCAL/MOL
REMARK 922        TOTAL FREE ENERGY PREDICTED BY IDOCK:   -6.41 KCAL/MOL
REMARK 923 INTER-LIGAND FREE ENERGY PREDICTED BY IDOCK:   -5.18 KCAL/MOL
REMARK 924 INTRA-LIGAND FREE ENERGY PREDICTED BY IDOCK:   -1.24 KCAL/MOL
REMARK 927      BINDING AFFINITY PREDICTED BY RF-SCORE:    0.00 PKD
ROOT
HETATM    1 CL   UNL     1     -13.568  12.165  71.935  1.00  0.00    -0.303 Cl 
HETATM    2  C   UNL     1     -12.813  10.630  71.748  1.00  0.00    -0.444 A  
HETATM    3  C   UNL     1     -13.469   9.479  72.176  1.00  0.00    -0.535 A  
HETATM    4  C   UNL     1     -12.851   8.231  72.029  1.00  0.00    -0.369 A  
HETATM    5  C   UNL     1     -11.567   8.127  71.464  1.00  0.00    -0.315 A  
HETATM    6  C   UNL     1     -10.933   9.299  71.019  1.00  0.00    -0.390 A  
HETATM    7  C   UNL     1     -11.552  10.545  71.165  1.00  0.00    -0.230 A  
ENDROOT
BRANCH   5   8
HETATM    8  C   UNL     1     -10.916   6.769  71.268  1.00  0.00    -0.249 C  
BRANCH   8   9
HETATM    9  S   UNL     1     -11.229   6.200  69.571  1.00  0.00    -0.330 SA 
BRANCH   9  10
HETATM   10  C   UNL     1      -9.603   6.439  68.651  1.00  0.00    -0.120 C  
BRANCH  10  11
HETATM   11  C   UNL     1      -9.470   7.895  68.116  1.00  0.00    -0.154 A  
HETATM   12  C   UNL     1      -9.199  10.514  67.029  1.00  0.00    -0.150 A  
HETATM   13  C   UNL     1      -8.512   8.810  68.610  1.00  0.00    -0.129 A  
HETATM   14  C   UNL     1     -10.301   8.378  67.076  1.00  0.00    -0.385 A  
HETATM   15  C   UNL     1      -8.359  10.091  68.053  1.00  0.00    -0.117 A  
HETATM   16 CL   UNL     1      -9.031  12.091  66.362  1.00  0.00    -0.192 Cl 
HETATM   17 CL   UNL     1      -7.476   8.448  69.948  1.00  0.00    -0.063 Cl 
HETATM   18  C   UNL     1     -10.182   9.668  66.551  1.00  0.00    -0.294 A  
ENDBRANCH  10  11
BRANCH  10  19
HETATM   19  C   UNL     1      -9.373   5.353  67.566  1.00  0.00    -0.114 C  
BRANCH  19  20
HETATM   20  N   UNL     1      -7.987   5.123  67.222  1.00  0.00    -0.100 NA 
HETATM   21  C   UNL     1      -7.483   4.918  65.970  1.00  0.00    -0.082 A  
HETATM   22  N   UNL     1      -5.817   4.792  67.490  1.00  0.00    -0.021 NA 
HETATM   23  C   UNL     1      -6.152   4.654  66.165  1.00  0.00    -0.031 A  
HETATM   24  C   UNL     1      -6.940   5.104  68.096  1.00  0.00    -0.061 A  
ENDBRANCH  19  20
ENDBRANCH  10  19
ENDBRANCH   9  10
ENDBRANCH   8   9
ENDBRANCH   5   8
TORSDOF 6
ENDMDL
MODEL      191
REMARK 921   NORMALIZED FREE ENERGY PREDICTED BY IDOCK:   -4.06 KCAL/MOL
REMARK 922        TOTAL FREE ENERGY PREDICTED BY IDOCK:   -6.41 KCAL/MOL
REMARK 923 INTER-LIGAND FREE ENERGY PREDICTED BY IDOCK:   -5.65 KCAL/MOL
REMARK 924 INTRA-LIGAND FREE ENERGY PREDICTED BY IDOCK:   -0.76 KCAL/MOL
REMARK 927      BINDING AFFINITY PREDICTED BY RF-SCORE:    0.00 PKD
ROOT
HETATM    1 CL   UNL     1     -10.068   3.978  71.407  1.00  0.00    -0.200 Cl 
HETATM    2  C   UNL     1      -9.993   5.628  70.925  1.00  0.00    -0.194 A  
HETATM    3  C   UNL     1      -9.102   6.493  71.554  1.00  0.00    -0.144 A  
HETATM    4  C   UNL     1      -9.047   7.838  71.165  1.00  0.00    -0.152 A  
HETATM    5  C   UNL     1      -9.891   8.328  70.152  1.00  0.00    -0.184 A  
HETATM    6  C   UNL     1     -10.766   7.432  69.516  1.00  0.00    -0.233 A  
HETATM    7  C   UNL     1     -10.819   6.090  69.904  1.00  0.00    -0.434 A  
ENDROOT
BRANCH   5   8
HETATM    8  C   UNL     1      -9.800   9.777  69.703  1.00  0.00    -0.221 C  
BRANCH   8   9
HETATM    9  S   UNL     1     -10.993  10.058  68.363  1.00  0.00    -0.181 SA 
BRANCH   9  10
HETATM   10  C   UNL     1      -9.959  10.530  66.860  1.00  0.00    -0.200 C  
BRANCH  10  11
HETATM   11  C   UNL     1     -10.408  11.904  66.280  1.00  0.00    -0.259 A  
HETATM   12  C   UNL     1     -11.190  14.380  65.108  1.00  0.00    -0.359 A  
HETATM   13  C   UNL     1      -9.857  13.134  66.705  1.00  0.00    -0.261 A  
HETATM   14  C   UNL     1     -11.392  11.989  65.264  1.00  0.00    -0.366 A  
HETATM   15  C   UNL     1     -10.222  14.352  66.105  1.00  0.00    -0.317 A  
HETATM   16 CL   UNL     1     -11.657  15.872  64.391  1.00  0.00    -0.340 Cl 
HETATM   17 CL   UNL     1      -8.722  13.250  68.005  1.00  0.00    -0.178 Cl 
HETATM   18  C   UNL     1     -11.790  13.204  64.698  1.00  0.00    -0.417 A  
ENDBRANCH  10  11
BRANCH  10  19
HETATM   19  C   UNL     1      -9.902   9.396  65.803  1.00  0.00    -0.275 C  
BRANCH  19  20
HETATM   20  N   UNL     1      -8.793   9.484  64.878  1.00  0.00    -0.192 NA 
HETATM   21  C   UNL     1      -8.871   9.706  63.533  1.00  0.00    -0.234 A  
HETATM   22  N   UNL     1      -6.711   9.430  64.134  1.00  0.00    -0.092 NA 
HETATM   23  C   UNL     1      -7.579   9.607  63.085  1.00  0.00    -0.117 A  
HETATM   24  C   UNL     1      -7.472   9.389  65.204  1.00  0.00    -0.105 A  
ENDBRANCH  19  20
ENDBRANCH  10  19
ENDBRANCH   9  10
ENDBRANCH   8   9
ENDBRANCH   5   8
TORSDOF 6
ENDMDL
MODEL      192
REMARK 921   NORMALIZED FREE ENERGY PREDICTED BY IDOCK:   -4.03 KCAL/MOL
REMARK 922        TOTAL FREE ENERGY PREDICTED BY IDOCK:   -6.37 KCAL/MOL
REMARK 923 INTER-LIGAND FREE ENERGY PREDICTED BY IDOCK:   -6.21 KCAL/MOL
REMARK 924 INTRA-LIGAND FREE ENERGY PREDICTED BY IDOCK:   -0.16 KCAL/MOL
REMARK 927      BINDING AFFINITY PREDICTED BY RF-SCORE:    0.00 PKD
ROOT
HETATM    1 CL   UNL     1     -14.300  15.056  72.147  1.00  0.00    -0.613 Cl 
HETATM    2  C   UNL     1     -12.878  14.859  71.200  1.00  0.00    -0.359 A  
HETATM    3  C   UNL     1     -11.990  15.921  71.053  1.00  0.00    -0.453 A  
HETATM    4  C   UNL     1     -10.835  15.761  70.276  1.00  0.00    -0.363 A  
HETATM    5  C   UNL     1     -10.568  14.541  69.630  1.00  0.00    -0.075 A  
HETATM    6  C   UNL     1     -11.466  13.476  69.810  1.00  0.00    -0.246 A  
HETATM    7  C   UNL     1     -12.617  13.636  70.587  1.00  0.00    -0.366 A  
ENDROOT
BRANCH   5   8
HETATM    8  C   UNL     1      -9.295  14.356  68.822  1.00  0.00    -0.150 C  
BRANCH   8   9
HETATM    9  S   UNL     1      -9.714  13.624  67.213  1.00  0.00    -0.250 SA 
BRANCH   9  10
HETATM   10  C   UNL     1     -10.196  11.841  67.581  1.00  0.00    -0.199 C  
BRANCH  10  11
HETATM   11  C   UNL     1      -8.953  10.904  67.537  1.00  0.00    -0.136 A  
HETATM   12  C   UNL     1      -6.726   9.137  67.357  1.00  0.00    -0.069 A  
HETATM   13  C   UNL     1      -8.651   9.981  68.564  1.00  0.00    -0.119 A  
HETATM   14  C   UNL     1      -8.060  10.913  66.438  1.00  0.00    -0.164 A  
HETATM   15  C   UNL     1      -7.569   9.089  68.460  1.00  0.00    -0.093 A  
HETATM   16 CL   UNL     1      -5.386   8.065  67.240  1.00  0.00    -0.035 Cl 
HETATM   17 CL   UNL     1      -9.558   9.889  70.035  1.00  0.00    -0.275 Cl 
HETATM   18  C   UNL     1      -6.956  10.059  66.354  1.00  0.00    -0.101 A  
ENDBRANCH  10  11
BRANCH  10  19
HETATM   19  C   UNL     1     -11.375  11.353  66.698  1.00  0.00    -0.157 C  
BRANCH  19  20
HETATM   20  N   UNL     1     -11.566  12.101  65.474  1.00  0.00    -0.360 NA 
HETATM   21  C   UNL     1     -12.396  13.170  65.295  1.00  0.00    -0.481 A  
HETATM   22  N   UNL     1     -11.366  12.673  63.347  1.00  0.00    -0.466 NA 
HETATM   23  C   UNL     1     -12.304  13.467  63.960  1.00  0.00    -0.330 A  
HETATM   24  C   UNL     1     -10.918  11.879  64.294  1.00  0.00    -0.353 A  
ENDBRANCH  19  20
ENDBRANCH  10  19
ENDBRANCH   9  10
ENDBRANCH   8   9
ENDBRANCH   5   8
TORSDOF 6
ENDMDL
MODEL      193
REMARK 921   NORMALIZED FREE ENERGY PREDICTED BY IDOCK:   -4.03 KCAL/MOL
REMARK 922        TOTAL FREE ENERGY PREDICTED BY IDOCK:   -6.37 KCAL/MOL
REMARK 923 INTER-LIGAND FREE ENERGY PREDICTED BY IDOCK:   -5.50 KCAL/MOL
REMARK 924 INTRA-LIGAND FREE ENERGY PREDICTED BY IDOCK:   -0.87 KCAL/MOL
REMARK 927      BINDING AFFINITY PREDICTED BY RF-SCORE:    0.00 PKD
ROOT
HETATM    1 CL   UNL     1      -7.652  15.538  69.017  1.00  0.00    -0.163 Cl 
HETATM    2  C   UNL     1      -7.500  13.884  68.573  1.00  0.00    -0.122 A  
HETATM    3  C   UNL     1      -8.184  13.399  67.462  1.00  0.00    -0.186 A  
HETATM    4  C   UNL     1      -8.064  12.049  67.105  1.00  0.00    -0.177 A  
HETATM    5  C   UNL     1      -7.269  11.173  67.865  1.00  0.00    -0.090 A  
HETATM    6  C   UNL     1      -6.569  11.689  68.969  1.00  0.00    -0.092 A  
HETATM    7  C   UNL     1      -6.688  13.036  69.323  1.00  0.00    -0.062 A  
ENDROOT
BRANCH   5   8
HETATM    8  C   UNL     1      -7.107   9.720  67.453  1.00  0.00    -0.085 C  
BRANCH   8   9
HETATM    9  S   UNL     1      -8.195   8.688  68.478  1.00  0.00    -0.123 SA 
BRANCH   9  10
HETATM   10  C   UNL     1      -9.940   9.016  67.849  1.00  0.00    -0.178 C  
BRANCH  10  11
HETATM   11  C   UNL     1     -10.757   9.854  68.875  1.00  0.00    -0.244 A  
HETATM   12  C   UNL     1     -12.324  11.292  70.771  1.00  0.00    -0.398 A  
HETATM   13  C   UNL     1     -11.486  11.011  68.514  1.00  0.00    -0.309 A  
HETATM   14  C   UNL     1     -10.832   9.483  70.239  1.00  0.00    -0.319 A  
HETATM   15  C   UNL     1     -12.282  11.702  69.444  1.00  0.00    -0.246 A  
HETATM   16 CL   UNL     1     -13.276  12.151  71.917  1.00  0.00    -0.553 Cl 
HETATM   17 CL   UNL     1     -11.438  11.687  66.922  1.00  0.00    -0.367 Cl 
HETATM   18  C   UNL     1     -11.586  10.196  71.177  1.00  0.00    -0.430 A  
ENDBRANCH  10  11
BRANCH  10  19
HETATM   19  C   UNL     1     -10.657   7.717  67.394  1.00  0.00    -0.286 C  
BRANCH  19  20
HETATM   20  N   UNL     1     -10.365   6.549  68.198  1.00  0.00    -0.168 NA 
HETATM   21  C   UNL     1     -10.928   6.226  69.399  1.00  0.00    -0.375 A  
HETATM   22  N   UNL     1      -9.389   4.671  68.839  1.00  0.00    -0.130 NA 
HETATM   23  C   UNL     1     -10.266   5.097  69.806  1.00  0.00    -0.287 A  
HETATM   24  C   UNL     1      -9.493   5.552  67.870  1.00  0.00    -0.116 A  
ENDBRANCH  19  20
ENDBRANCH  10  19
ENDBRANCH   9  10
ENDBRANCH   8   9
ENDBRANCH   5   8
TORSDOF 6
ENDMDL
MODEL      194
REMARK 921   NORMALIZED FREE ENERGY PREDICTED BY IDOCK:   -4.03 KCAL/MOL
REMARK 922        TOTAL FREE ENERGY PREDICTED BY IDOCK:   -6.37 KCAL/MOL
REMARK 923 INTER-LIGAND FREE ENERGY PREDICTED BY IDOCK:   -6.11 KCAL/MOL
REMARK 924 INTRA-LIGAND FREE ENERGY PREDICTED BY IDOCK:   -0.26 KCAL/MOL
REMARK 927      BINDING AFFINITY PREDICTED BY RF-SCORE:    0.00 PKD
ROOT
HETATM    1 CL   UNL     1     -13.965   8.819  72.941  1.00  0.00    -0.220 Cl 
HETATM    2  C   UNL     1     -12.493   9.108  72.100  1.00  0.00    -0.366 A  
HETATM    3  C   UNL     1     -11.406   8.260  72.295  1.00  0.00    -0.446 A  
HETATM    4  C   UNL     1     -10.205   8.500  71.613  1.00  0.00    -0.336 A  
HETATM    5  C   UNL     1     -10.081   9.598  70.743  1.00  0.00    -0.293 A  
HETATM    6  C   UNL     1     -11.197  10.427  70.544  1.00  0.00    -0.395 A  
HETATM    7  C   UNL     1     -12.396  10.185  71.223  1.00  0.00    -0.501 A  
ENDROOT
BRANCH   5   8
HETATM    8  C   UNL     1      -8.792   9.833  69.974  1.00  0.00    -0.215 C  
BRANCH   8   9
HETATM    9  S   UNL     1      -8.861   8.918  68.406  1.00  0.00    -0.134 SA 
BRANCH   9  10
HETATM   10  C   UNL     1      -8.868  10.232  67.056  1.00  0.00    -0.136 C  
BRANCH  10  11
HETATM   11  C   UNL     1      -7.965  11.439  67.444  1.00  0.00    -0.139 A  
HETATM   12  C   UNL     1      -6.252  13.576  68.230  1.00  0.00    -0.105 A  
HETATM   13  C   UNL     1      -8.468  12.609  68.057  1.00  0.00    -0.177 A  
HETATM   14  C   UNL     1      -6.567  11.418  67.218  1.00  0.00    -0.104 A  
HETATM   15  C   UNL     1      -7.619  13.649  68.472  1.00  0.00    -0.130 A  
HETATM   16 CL   UNL     1      -5.213  14.859  68.713  1.00  0.00    -0.086 Cl 
HETATM   17 CL   UNL     1     -10.158  12.873  68.322  1.00  0.00    -0.239 Cl 
HETATM   18  C   UNL     1      -5.725  12.472  67.587  1.00  0.00    -0.131 A  
ENDBRANCH  10  11
BRANCH  10  19
HETATM   19  C   UNL     1     -10.305  10.639  66.636  1.00  0.00    -0.241 C  
BRANCH  19  20
HETATM   20  N   UNL     1     -10.421  11.156  65.289  1.00  0.00    -0.272 NA 
HETATM   21  C   UNL     1     -11.074  12.292  64.907  1.00  0.00    -0.311 A  
HETATM   22  N   UNL     1     -10.214  11.262  63.090  1.00  0.00    -0.342 NA 
HETATM   23  C   UNL     1     -10.987  12.304  63.539  1.00  0.00    -0.459 A  
HETATM   24  C   UNL     1      -9.864  10.605  64.172  1.00  0.00    -0.335 A  
ENDBRANCH  19  20
ENDBRANCH  10  19
ENDBRANCH   9  10
ENDBRANCH   8   9
ENDBRANCH   5   8
TORSDOF 6
ENDMDL
MODEL      195
REMARK 921   NORMALIZED FREE ENERGY PREDICTED BY IDOCK:   -4.03 KCAL/MOL
REMARK 922        TOTAL FREE ENERGY PREDICTED BY IDOCK:   -6.37 KCAL/MOL
REMARK 923 INTER-LIGAND FREE ENERGY PREDICTED BY IDOCK:   -6.03 KCAL/MOL
REMARK 924 INTRA-LIGAND FREE ENERGY PREDICTED BY IDOCK:   -0.34 KCAL/MOL
REMARK 927      BINDING AFFINITY PREDICTED BY RF-SCORE:    0.00 PKD
ROOT
HETATM    1 CL   UNL     1      -8.441   5.582  69.112  1.00  0.00    -0.104 Cl 
HETATM    2  C   UNL     1      -8.352   7.024  68.179  1.00  0.00    -0.123 A  
HETATM    3  C   UNL     1      -9.214   7.206  67.101  1.00  0.00    -0.153 A  
HETATM    4  C   UNL     1      -9.136   8.379  66.338  1.00  0.00    -0.231 A  
HETATM    5  C   UNL     1      -8.187   9.371  66.641  1.00  0.00    -0.112 A  
HETATM    6  C   UNL     1      -7.343   9.177  67.746  1.00  0.00    -0.084 A  
HETATM    7  C   UNL     1      -7.422   8.007  68.509  1.00  0.00    -0.102 A  
ENDROOT
BRANCH   5   8
HETATM    8  C   UNL     1      -8.132  10.660  65.838  1.00  0.00    -0.159 C  
BRANCH   8   9
HETATM    9  S   UNL     1      -8.676  12.038  66.889  1.00  0.00    -0.189 SA 
BRANCH   9  10
HETATM   10  C   UNL     1     -10.193  12.755  66.034  1.00  0.00    -0.278 C  
BRANCH  10  11
HETATM   11  C   UNL     1     -10.126  14.310  65.982  1.00  0.00    -0.333 A  
HETATM   12  C   UNL     1     -10.021  17.157  66.009  1.00  0.00    -0.253 A  
HETATM   13  C   UNL     1     -11.050  15.095  65.255  1.00  0.00    -0.383 A  
HETATM   14  C   UNL     1      -9.133  15.029  66.691  1.00  0.00    -0.309 A  
HETATM   15  C   UNL     1     -11.015  16.499  65.293  1.00  0.00    -0.170 A  
HETATM   16 CL   UNL     1      -9.961  18.875  66.036  1.00  0.00    -0.366 Cl 
HETATM   17 CL   UNL     1     -12.270  14.404  64.243  1.00  0.00    -0.496 Cl 
HETATM   18  C   UNL     1      -9.068  16.426  66.693  1.00  0.00    -0.278 A  
ENDBRANCH  10  11
BRANCH  10  19
HETATM   19  C   UNL     1     -11.519  12.208  66.627  1.00  0.00    -0.365 C  
BRANCH  19  20
HETATM   20  N   UNL     1     -11.757  12.564  68.009  1.00  0.00    -0.346 NA 
HETATM   21  C   UNL     1     -11.613  11.749  69.095  1.00  0.00    -0.310 A  
HETATM   22  N   UNL     1     -12.350  13.778  69.760  1.00  0.00    -0.298 NA 
HETATM   23  C   UNL     1     -12.044  12.499  70.158  1.00  0.00    -0.292 A  
HETATM   24  C   UNL     1     -12.139  13.792  68.463  1.00  0.00    -0.292 A  
ENDBRANCH  19  20
ENDBRANCH  10  19
ENDBRANCH   9  10
ENDBRANCH   8   9
ENDBRANCH   5   8
TORSDOF 6
ENDMDL
MODEL      196
REMARK 921   NORMALIZED FREE ENERGY PREDICTED BY IDOCK:   -3.99 KCAL/MOL
REMARK 922        TOTAL FREE ENERGY PREDICTED BY IDOCK:   -6.32 KCAL/MOL
REMARK 923 INTER-LIGAND FREE ENERGY PREDICTED BY IDOCK:   -6.01 KCAL/MOL
REMARK 924 INTRA-LIGAND FREE ENERGY PREDICTED BY IDOCK:   -0.31 KCAL/MOL
REMARK 927      BINDING AFFINITY PREDICTED BY RF-SCORE:    0.00 PKD
ROOT
HETATM    1 CL   UNL     1     -10.504  18.761  66.013  1.00  0.00    -0.508 Cl 
HETATM    2  C   UNL     1     -10.398  17.045  65.942  1.00  0.00    -0.298 A  
HETATM    3  C   UNL     1     -11.119  16.346  64.978  1.00  0.00    -0.216 A  
HETATM    4  C   UNL     1     -11.037  14.949  64.926  1.00  0.00    -0.424 A  
HETATM    5  C   UNL     1     -10.242  14.241  65.845  1.00  0.00    -0.338 A  
HETATM    6  C   UNL     1      -9.505  14.968  66.794  1.00  0.00    -0.263 A  
HETATM    7  C   UNL     1      -9.586  16.363  66.845  1.00  0.00    -0.255 A  
ENDROOT
BRANCH   5   8
HETATM    8  C   UNL     1     -10.122  12.728  65.760  1.00  0.00    -0.286 C  
BRANCH   8   9
HETATM    9  S   UNL     1     -11.435  11.972  66.761  1.00  0.00    -0.317 SA 
BRANCH   9  10
HETATM   10  C   UNL     1     -10.549  10.863  67.999  1.00  0.00    -0.202 C  
BRANCH  10  11
HETATM   11  C   UNL     1      -9.949   9.608  67.301  1.00  0.00    -0.250 A  
HETATM   12  C   UNL     1      -8.875   7.247  66.122  1.00  0.00    -0.158 A  
HETATM   13  C   UNL     1      -8.603   9.535  66.877  1.00  0.00    -0.128 A  
HETATM   14  C   UNL     1     -10.729   8.449  67.070  1.00  0.00    -0.204 A  
HETATM   15  C   UNL     1      -8.066   8.360  66.323  1.00  0.00    -0.105 A  
HETATM   16 CL   UNL     1      -8.227   5.817  65.421  1.00  0.00    -0.131 Cl 
HETATM   17 CL   UNL     1      -7.518  10.880  66.974  1.00  0.00    -0.115 Cl 
HETATM   18  C   UNL     1     -10.210   7.294  66.477  1.00  0.00    -0.139 A  
ENDBRANCH  10  11
BRANCH  10  19
HETATM   19  C   UNL     1     -11.434  10.528  69.230  1.00  0.00    -0.256 C  
BRANCH  19  20
HETATM   20  N   UNL     1     -10.739   9.868  70.314  1.00  0.00    -0.290 NA 
HETATM   21  C   UNL     1     -11.307   9.317  71.427  1.00  0.00    -0.364 A  
HETATM   22  N   UNL     1      -9.061   9.100  71.532  1.00  0.00    -0.331 NA 
HETATM   23  C   UNL     1     -10.248   8.905  72.194  1.00  0.00    -0.222 A  
HETATM   24  C   UNL     1      -9.394   9.656  70.389  1.00  0.00    -0.211 A  
ENDBRANCH  19  20
ENDBRANCH  10  19
ENDBRANCH   9  10
ENDBRANCH   8   9
ENDBRANCH   5   8
TORSDOF 6
ENDMDL
MODEL      197
REMARK 921   NORMALIZED FREE ENERGY PREDICTED BY IDOCK:   -3.99 KCAL/MOL
REMARK 922        TOTAL FREE ENERGY PREDICTED BY IDOCK:   -6.31 KCAL/MOL
REMARK 923 INTER-LIGAND FREE ENERGY PREDICTED BY IDOCK:   -6.01 KCAL/MOL
REMARK 924 INTRA-LIGAND FREE ENERGY PREDICTED BY IDOCK:   -0.29 KCAL/MOL
REMARK 927      BINDING AFFINITY PREDICTED BY RF-SCORE:    0.00 PKD
ROOT
HETATM    1 CL   UNL     1      -6.179  20.345  70.368  1.00  0.00    -0.320 Cl 
HETATM    2  C   UNL     1      -6.603  18.883  69.568  1.00  0.00    -0.226 A  
HETATM    3  C   UNL     1      -5.776  17.769  69.676  1.00  0.00    -0.234 A  
HETATM    4  C   UNL     1      -6.120  16.580  69.018  1.00  0.00    -0.155 A  
HETATM    5  C   UNL     1      -7.286  16.503  68.237  1.00  0.00    -0.169 A  
HETATM    6  C   UNL     1      -8.118  17.633  68.160  1.00  0.00    -0.252 A  
HETATM    7  C   UNL     1      -7.775  18.818  68.818  1.00  0.00    -0.351 A  
ENDROOT
BRANCH   5   8
HETATM    8  C   UNL     1      -7.678  15.202  67.558  1.00  0.00    -0.181 C  
BRANCH   8   9
HETATM    9  S   UNL     1      -8.793  14.274  68.652  1.00  0.00    -0.105 SA 
BRANCH   9  10
HETATM   10  C   UNL     1     -10.062  13.472  67.515  1.00  0.00    -0.234 C  
BRANCH  10  11
HETATM   11  C   UNL     1     -10.258  11.968  67.865  1.00  0.00    -0.203 A  
HETATM   12  C   UNL     1     -10.623   9.246  68.623  1.00  0.00    -0.187 A  
HETATM   13  C   UNL     1      -9.278  10.984  67.600  1.00  0.00    -0.149 A  
HETATM   14  C   UNL     1     -11.438  11.504  68.497  1.00  0.00    -0.354 A  
HETATM   15  C   UNL     1      -9.447   9.647  68.001  1.00  0.00    -0.146 A  
HETATM   16 CL   UNL     1     -10.843   7.606  69.091  1.00  0.00    -0.142 Cl 
HETATM   17 CL   UNL     1      -7.816  11.328  66.742  1.00  0.00    -0.151 Cl 
HETATM   18  C   UNL     1     -11.628  10.166  68.856  1.00  0.00    -0.056 A  
ENDBRANCH  10  11
BRANCH  10  19
HETATM   19  C   UNL     1      -9.756  13.727  66.015  1.00  0.00    -0.237 C  
BRANCH  19  20
HETATM   20  N   UNL     1     -10.840  13.408  65.111  1.00  0.00    -0.300 NA 
HETATM   21  C   UNL     1     -10.726  13.049  63.799  1.00  0.00    -0.188 A  
HETATM   22  N   UNL     1     -12.908  13.135  64.376  1.00  0.00    -0.687 NA 
HETATM   23  C   UNL     1     -12.016  12.946  63.349  1.00  0.00    -0.537 A  
HETATM   24  C   UNL     1     -12.166  13.383  65.432  1.00  0.00    -0.452 A  
ENDBRANCH  19  20
ENDBRANCH  10  19
ENDBRANCH   9  10
ENDBRANCH   8   9
ENDBRANCH   5   8
TORSDOF 6
ENDMDL
MODEL      198
REMARK 921   NORMALIZED FREE ENERGY PREDICTED BY IDOCK:   -3.98 KCAL/MOL
REMARK 922        TOTAL FREE ENERGY PREDICTED BY IDOCK:   -6.29 KCAL/MOL
REMARK 923 INTER-LIGAND FREE ENERGY PREDICTED BY IDOCK:   -5.75 KCAL/MOL
REMARK 924 INTRA-LIGAND FREE ENERGY PREDICTED BY IDOCK:   -0.54 KCAL/MOL
REMARK 927      BINDING AFFINITY PREDICTED BY RF-SCORE:    0.00 PKD
ROOT
HETATM    1 CL   UNL     1      -5.992   5.442  63.847  1.00  0.00    -0.021 Cl 
HETATM    2  C   UNL     1      -6.850   6.351  65.029  1.00  0.00    -0.047 A  
HETATM    3  C   UNL     1      -6.279   7.501  65.567  1.00  0.00    -0.038 A  
HETATM    4  C   UNL     1      -6.977   8.237  66.534  1.00  0.00    -0.068 A  
HETATM    5  C   UNL     1      -8.245   7.820  66.978  1.00  0.00    -0.117 A  
HETATM    6  C   UNL     1      -8.811   6.670  66.405  1.00  0.00    -0.151 A  
HETATM    7  C   UNL     1      -8.115   5.937  65.438  1.00  0.00    -0.130 A  
ENDROOT
BRANCH   5   8
HETATM    8  C   UNL     1      -9.017   8.642  67.996  1.00  0.00    -0.141 C  
BRANCH   8   9
HETATM    9  S   UNL     1     -10.651   9.048  67.314  1.00  0.00    -0.160 SA 
BRANCH   9  10
HETATM   10  C   UNL     1     -11.246  10.545  68.292  1.00  0.00    -0.291 C  
BRANCH  10  11
HETATM   11  C   UNL     1     -11.160  11.843  67.437  1.00  0.00    -0.336 A  
HETATM   12  C   UNL     1     -10.883  14.204  65.866  1.00  0.00    -0.294 A  
HETATM   13  C   UNL     1     -11.544  13.112  67.927  1.00  0.00    -0.336 A  
HETATM   14  C   UNL     1     -10.664  11.822  66.110  1.00  0.00    -0.320 A  
HETATM   15  C   UNL     1     -11.379  14.280  67.162  1.00  0.00    -0.352 A  
HETATM   16 CL   UNL     1     -10.704  15.628  64.918  1.00  0.00    -0.454 Cl 
HETATM   17 CL   UNL     1     -12.271  13.333  69.482  1.00  0.00    -0.285 Cl 
HETATM   18  C   UNL     1     -10.542  12.976  65.330  1.00  0.00    -0.307 A  
ENDBRANCH  10  11
BRANCH  10  19
HETATM   19  C   UNL     1     -10.549  10.662  69.674  1.00  0.00    -0.217 C  
BRANCH  19  20
HETATM   20  N   UNL     1     -11.210   9.953  70.748  1.00  0.00    -0.329 NA 
HETATM   21  C   UNL     1     -12.513  10.091  71.133  1.00  0.00    -0.379 A  
HETATM   22  N   UNL     1     -11.478   8.598  72.476  1.00  0.00    -0.303 NA 
HETATM   23  C   UNL     1     -12.639   9.292  72.240  1.00  0.00    -0.332 A  
HETATM   24  C   UNL     1     -10.645   8.998  71.541  1.00  0.00    -0.345 A  
ENDBRANCH  19  20
ENDBRANCH  10  19
ENDBRANCH   9  10
ENDBRANCH   8   9
ENDBRANCH   5   8
TORSDOF 6
ENDMDL
MODEL      199
REMARK 921   NORMALIZED FREE ENERGY PREDICTED BY IDOCK:   -3.97 KCAL/MOL
REMARK 922        TOTAL FREE ENERGY PREDICTED BY IDOCK:   -6.29 KCAL/MOL
REMARK 923 INTER-LIGAND FREE ENERGY PREDICTED BY IDOCK:   -5.38 KCAL/MOL
REMARK 924 INTRA-LIGAND FREE ENERGY PREDICTED BY IDOCK:   -0.91 KCAL/MOL
REMARK 927      BINDING AFFINITY PREDICTED BY RF-SCORE:    0.00 PKD
ROOT
HETATM    1 CL   UNL     1      -6.437  15.213  68.901  1.00  0.00    -0.095 Cl 
HETATM    2  C   UNL     1      -6.566  13.515  68.655  1.00  0.00    -0.098 A  
HETATM    3  C   UNL     1      -6.915  13.022  67.401  1.00  0.00    -0.123 A  
HETATM    4  C   UNL     1      -7.026  11.639  67.204  1.00  0.00    -0.144 A  
HETATM    5  C   UNL     1      -6.801  10.742  68.263  1.00  0.00    -0.067 A  
HETATM    6  C   UNL     1      -6.428  11.261  69.514  1.00  0.00    -0.119 A  
HETATM    7  C   UNL     1      -6.316  12.641  69.710  1.00  0.00    -0.070 A  
ENDROOT
BRANCH   5   8
HETATM    8  C   UNL     1      -6.881   9.242  68.037  1.00  0.00    -0.068 C  
BRANCH   8   9
HETATM    9  S   UNL     1      -8.503   8.643  68.595  1.00  0.00    -0.131 SA 
BRANCH   9  10
HETATM   10  C   UNL     1      -9.579   8.589  67.050  1.00  0.00    -0.188 C  
BRANCH  10  11
HETATM   11  C   UNL     1     -10.286   9.955  66.810  1.00  0.00    -0.301 A  
HETATM   12  C   UNL     1     -11.685  12.403  66.400  1.00  0.00    -0.391 A  
HETATM   13  C   UNL     1     -10.297  10.604  65.555  1.00  0.00    -0.227 A  
HETATM   14  C   UNL     1     -10.983  10.618  67.850  1.00  0.00    -0.351 A  
HETATM   15  C   UNL     1     -11.012  11.796  65.346  1.00  0.00    -0.352 A  
HETATM   16 CL   UNL     1     -12.539  13.875  66.154  1.00  0.00    -0.471 Cl 
HETATM   17 CL   UNL     1      -9.417  10.011  64.188  1.00  0.00    -0.339 Cl 
HETATM   18  C   UNL     1     -11.657  11.828  67.656  1.00  0.00    -0.364 A  
ENDBRANCH  10  11
BRANCH  10  19
HETATM   19  C   UNL     1     -10.549   7.377  67.049  1.00  0.00    -0.344 C  
BRANCH  19  20
HETATM   20  N   UNL     1     -10.586   6.628  68.287  1.00  0.00    -0.217 NA 
HETATM   21  C   UNL     1     -11.166   7.022  69.458  1.00  0.00    -0.145 A  
HETATM   22  N   UNL     1     -10.193   5.002  69.733  1.00  0.00    -0.277 NA 
HETATM   23  C   UNL     1     -10.858   6.032  70.354  1.00  0.00    -0.318 A  
HETATM   24  C   UNL     1     -10.071   5.380  68.480  1.00  0.00    -0.177 A  
ENDBRANCH  19  20
ENDBRANCH  10  19
ENDBRANCH   9  10
ENDBRANCH   8   9
ENDBRANCH   5   8
TORSDOF 6
ENDMDL
MODEL      200
REMARK 921   NORMALIZED FREE ENERGY PREDICTED BY IDOCK:   -3.95 KCAL/MOL
REMARK 922        TOTAL FREE ENERGY PREDICTED BY IDOCK:   -6.26 KCAL/MOL
REMARK 923 INTER-LIGAND FREE ENERGY PREDICTED BY IDOCK:   -5.53 KCAL/MOL
REMARK 924 INTRA-LIGAND FREE ENERGY PREDICTED BY IDOCK:   -0.73 KCAL/MOL
REMARK 927      BINDING AFFINITY PREDICTED BY RF-SCORE:    0.00 PKD
ROOT
HETATM    1 CL   UNL     1     -12.279  15.368  64.121  1.00  0.00    -0.252 Cl 
HETATM    2  C   UNL     1     -11.633  14.373  65.367  1.00  0.00    -0.347 A  
HETATM    3  C   UNL     1     -10.538  14.813  66.106  1.00  0.00    -0.314 A  
HETATM    4  C   UNL     1     -10.008  13.999  67.116  1.00  0.00    -0.252 A  
HETATM    5  C   UNL     1     -10.563  12.735  67.386  1.00  0.00    -0.241 A  
HETATM    6  C   UNL     1     -11.681  12.322  66.643  1.00  0.00    -0.417 A  
HETATM    7  C   UNL     1     -12.210  13.135  65.636  1.00  0.00    -0.521 A  
ENDROOT
BRANCH   5   8
HETATM    8  C   UNL     1     -10.013  11.872  68.509  1.00  0.00    -0.192 C  
BRANCH   8   9
HETATM    9  S   UNL     1     -11.164  10.503  68.822  1.00  0.00    -0.251 SA 
BRANCH   9  10
HETATM   10  C   UNL     1     -10.121   8.937  68.731  1.00  0.00    -0.200 C  
BRANCH  10  11
HETATM   11  C   UNL     1      -9.830   8.373  70.153  1.00  0.00    -0.183 A  
HETATM   12  C   UNL     1      -9.185   7.313  72.717  1.00  0.00    -0.143 A  
HETATM   13  C   UNL     1     -10.529   7.273  70.700  1.00  0.00    -0.214 A  
HETATM   14  C   UNL     1      -8.819   8.928  70.974  1.00  0.00    -0.285 A  
HETATM   15  C   UNL     1     -10.190   6.733  71.953  1.00  0.00    -0.206 A  
HETATM   16 CL   UNL     1      -8.785   6.670  74.261  1.00  0.00    -0.158 Cl 
HETATM   17 CL   UNL     1     -11.867   6.524  69.899  1.00  0.00    -0.368 Cl 
HETATM   18  C   UNL     1      -8.510   8.421  72.240  1.00  0.00    -0.242 A  
ENDBRANCH  10  11
BRANCH  10  19
HETATM   19  C   UNL     1      -8.848   9.126  67.863  1.00  0.00    -0.128 C  
BRANCH  19  20
HETATM   20  N   UNL     1      -8.573   8.042  66.945  1.00  0.00    -0.126 NA 
HETATM   21  C   UNL     1      -7.527   7.961  66.071  1.00  0.00    -0.078 A  
HETATM   22  N   UNL     1      -8.845   6.141  65.849  1.00  0.00    -0.154 NA 
HETATM   23  C   UNL     1      -7.750   6.810  65.361  1.00  0.00    -0.100 A  
HETATM   24  C   UNL     1      -9.302   6.895  66.822  1.00  0.00    -0.158 A  
ENDBRANCH  19  20
ENDBRANCH  10  19
ENDBRANCH   9  10
ENDBRANCH   8   9
ENDBRANCH   5   8
TORSDOF 6
ENDMDL
MODEL      201
REMARK 921   NORMALIZED FREE ENERGY PREDICTED BY IDOCK:   -3.94 KCAL/MOL
REMARK 922        TOTAL FREE ENERGY PREDICTED BY IDOCK:   -6.24 KCAL/MOL
REMARK 923 INTER-LIGAND FREE ENERGY PREDICTED BY IDOCK:   -5.80 KCAL/MOL
REMARK 924 INTRA-LIGAND FREE ENERGY PREDICTED BY IDOCK:   -0.44 KCAL/MOL
REMARK 927      BINDING AFFINITY PREDICTED BY RF-SCORE:    0.00 PKD
ROOT
HETATM    1 CL   UNL     1     -13.426  15.243  71.607  1.00  0.00    -0.521 Cl 
HETATM    2  C   UNL     1     -12.728  14.015  70.625  1.00  0.00    -0.303 A  
HETATM    3  C   UNL     1     -12.156  14.349  69.401  1.00  0.00    -0.338 A  
HETATM    4  C   UNL     1     -11.593  13.347  68.600  1.00  0.00    -0.362 A  
HETATM    5  C   UNL     1     -11.610  12.003  69.013  1.00  0.00    -0.370 A  
HETATM    6  C   UNL     1     -12.172  11.692  70.262  1.00  0.00    -0.401 A  
HETATM    7  C   UNL     1     -12.732  12.693  71.062  1.00  0.00    -0.316 A  
ENDROOT
BRANCH   5   8
HETATM    8  C   UNL     1     -10.963  10.924  68.161  1.00  0.00    -0.249 C  
BRANCH   8   9
HETATM    9  S   UNL     1     -11.137   9.322  69.001  1.00  0.00     0.149 SA 
BRANCH   9  10
HETATM   10  C   UNL     1      -9.440   8.510  68.894  1.00  0.00    -0.147 C  
BRANCH  10  11
HETATM   11  C   UNL     1      -9.412   7.412  67.791  1.00  0.00    -0.154 A  
HETATM   12  C   UNL     1      -9.341   5.320  65.859  1.00  0.00    -0.155 A  
HETATM   13  C   UNL     1      -8.451   7.389  66.755  1.00  0.00    -0.124 A  
HETATM   14  C   UNL     1     -10.350   6.351  67.782  1.00  0.00    -0.238 A  
HETATM   15  C   UNL     1      -8.399   6.340  65.820  1.00  0.00    -0.145 A  
HETATM   16 CL   UNL     1      -9.295   4.049  64.700  1.00  0.00    -0.152 Cl 
HETATM   17 CL   UNL     1      -7.288   8.650  66.530  1.00  0.00    -0.080 Cl 
HETATM   18  C   UNL     1     -10.329   5.331  66.826  1.00  0.00    -0.320 A  
ENDBRANCH  10  11
BRANCH  10  19
HETATM   19  C   UNL     1      -8.933   8.018  70.276  1.00  0.00    -0.147 C  
BRANCH  19  20
HETATM   20  N   UNL     1      -9.976   7.688  71.223  1.00  0.00    -0.179 NA 
HETATM   21  C   UNL     1     -10.711   6.538  71.255  1.00  0.00    -0.237 A  
HETATM   22  N   UNL     1     -11.400   7.927  72.898  1.00  0.00    -0.401 NA 
HETATM   23  C   UNL     1     -11.626   6.733  72.257  1.00  0.00    -0.273 A  
HETATM   24  C   UNL     1     -10.380   8.465  72.269  1.00  0.00    -0.333 A  
ENDBRANCH  19  20
ENDBRANCH  10  19
ENDBRANCH   9  10
ENDBRANCH   8   9
ENDBRANCH   5   8
TORSDOF 6
ENDMDL
MODEL      202
REMARK 921   NORMALIZED FREE ENERGY PREDICTED BY IDOCK:   -3.92 KCAL/MOL
REMARK 922        TOTAL FREE ENERGY PREDICTED BY IDOCK:   -6.21 KCAL/MOL
REMARK 923 INTER-LIGAND FREE ENERGY PREDICTED BY IDOCK:   -5.49 KCAL/MOL
REMARK 924 INTRA-LIGAND FREE ENERGY PREDICTED BY IDOCK:   -0.72 KCAL/MOL
REMARK 927      BINDING AFFINITY PREDICTED BY RF-SCORE:    0.00 PKD
ROOT
HETATM    1 CL   UNL     1     -10.216   4.919  72.273  1.00  0.00    -0.245 Cl 
HETATM    2  C   UNL     1     -10.297   6.172  71.097  1.00  0.00    -0.208 A  
HETATM    3  C   UNL     1     -10.407   5.849  69.748  1.00  0.00    -0.309 A  
HETATM    4  C   UNL     1     -10.467   6.871  68.791  1.00  0.00    -0.223 A  
HETATM    5  C   UNL     1     -10.404   8.222  69.177  1.00  0.00    -0.225 A  
HETATM    6  C   UNL     1     -10.315   8.525  70.546  1.00  0.00    -0.226 A  
HETATM    7  C   UNL     1     -10.258   7.504  71.501  1.00  0.00    -0.208 A  
ENDROOT
BRANCH   5   8
HETATM    8  C   UNL     1     -10.510   9.329  68.142  1.00  0.00    -0.215 C  
BRANCH   8   9
HETATM    9  S   UNL     1      -9.626  10.795  68.748  1.00  0.00    -0.187 SA 
BRANCH   9  10
HETATM   10  C   UNL     1      -9.338  11.873  67.230  1.00  0.00    -0.177 C  
BRANCH  10  11
HETATM   11  C   UNL     1      -8.340  11.198  66.244  1.00  0.00    -0.163 A  
HETATM   12  C   UNL     1      -6.458  10.069  64.428  1.00  0.00    -0.131 A  
HETATM   13  C   UNL     1      -8.741  10.640  65.009  1.00  0.00    -0.176 A  
HETATM   14  C   UNL     1      -6.955  11.127  66.529  1.00  0.00    -0.126 A  
HETATM   15  C   UNL     1      -7.808  10.110  64.101  1.00  0.00    -0.145 A  
HETATM   16 CL   UNL     1      -5.317   9.398  63.330  1.00  0.00    -0.070 Cl 
HETATM   17 CL   UNL     1     -10.399  10.533  64.525  1.00  0.00    -0.371 Cl 
HETATM   18  C   UNL     1      -6.030  10.559  65.648  1.00  0.00    -0.130 A  
ENDBRANCH  10  11
BRANCH  10  19
HETATM   19  C   UNL     1      -8.954  13.330  67.605  1.00  0.00    -0.199 C  
BRANCH  19  20
HETATM   20  N   UNL     1      -9.531  14.347  66.752  1.00  0.00    -0.256 NA 
HETATM   21  C   UNL     1     -10.796  14.358  66.241  1.00  0.00    -0.313 A  
HETATM   22  N   UNL     1      -9.667  16.173  65.512  1.00  0.00    -0.467 NA 
HETATM   23  C   UNL     1     -10.838  15.461  65.428  1.00  0.00    -0.391 A  
HETATM   24  C   UNL     1      -8.910  15.490  66.342  1.00  0.00    -0.324 A  
ENDBRANCH  19  20
ENDBRANCH  10  19
ENDBRANCH   9  10
ENDBRANCH   8   9
ENDBRANCH   5   8
TORSDOF 6
ENDMDL
MODEL      203
REMARK 921   NORMALIZED FREE ENERGY PREDICTED BY IDOCK:   -3.91 KCAL/MOL
REMARK 922        TOTAL FREE ENERGY PREDICTED BY IDOCK:   -6.21 KCAL/MOL
REMARK 923 INTER-LIGAND FREE ENERGY PREDICTED BY IDOCK:   -5.09 KCAL/MOL
REMARK 924 INTRA-LIGAND FREE ENERGY PREDICTED BY IDOCK:   -1.12 KCAL/MOL
REMARK 927      BINDING AFFINITY PREDICTED BY RF-SCORE:    0.00 PKD
ROOT
HETATM    1 CL   UNL     1     -11.582   4.447  73.530  1.00  0.00    -0.297 Cl 
HETATM    2  C   UNL     1     -10.329   5.557  73.131  1.00  0.00    -0.204 A  
HETATM    3  C   UNL     1      -9.257   5.138  72.348  1.00  0.00    -0.148 A  
HETATM    4  C   UNL     1      -8.234   6.042  72.029  1.00  0.00    -0.107 A  
HETATM    5  C   UNL     1      -8.271   7.365  72.504  1.00  0.00    -0.123 A  
HETATM    6  C   UNL     1      -9.373   7.771  73.274  1.00  0.00    -0.331 A  
HETATM    7  C   UNL     1     -10.394   6.870  73.590  1.00  0.00    -0.397 A  
ENDROOT
BRANCH   5   8
HETATM    8  C   UNL     1      -7.182   8.354  72.123  1.00  0.00    -0.095 C  
BRANCH   8   9
HETATM    9  S   UNL     1      -7.568   9.066  70.497  1.00  0.00    -0.126 SA 
BRANCH   9  10
HETATM   10  C   UNL     1      -9.392   8.699  70.207  1.00  0.00    -0.167 C  
BRANCH  10  11
HETATM   11  C   UNL     1      -9.578   7.609  69.111  1.00  0.00    -0.155 A  
HETATM   12  C   UNL     1      -9.919   5.704  67.021  1.00  0.00    -0.169 A  
HETATM   13  C   UNL     1     -10.712   6.767  69.050  1.00  0.00    -0.246 A  
HETATM   14  C   UNL     1      -8.616   7.419  68.090  1.00  0.00    -0.123 A  
HETATM   15  C   UNL     1     -10.893   5.848  68.002  1.00  0.00    -0.321 A  
HETATM   16 CL   UNL     1     -10.126   4.562  65.752  1.00  0.00    -0.251 Cl 
HETATM   17 CL   UNL     1     -11.946   6.772  70.263  1.00  0.00    -0.368 Cl 
HETATM   18  C   UNL     1      -8.772   6.473  67.071  1.00  0.00    -0.112 A  
ENDBRANCH  10  11
BRANCH  10  19
HETATM   19  C   UNL     1     -10.220   9.987  69.952  1.00  0.00    -0.260 C  
BRANCH  19  20
HETATM   20  N   UNL     1     -10.088  10.540  68.622  1.00  0.00    -0.171 NA 
HETATM   21  C   UNL     1      -8.997  11.184  68.114  1.00  0.00    -0.159 A  
HETATM   22  N   UNL     1     -10.643  11.142  66.567  1.00  0.00    -0.256 NA 
HETATM   23  C   UNL     1      -9.384  11.602  66.867  1.00  0.00    -0.188 A  
HETATM   24  C   UNL     1     -11.028  10.480  67.635  1.00  0.00    -0.314 A  
ENDBRANCH  19  20
ENDBRANCH  10  19
ENDBRANCH   9  10
ENDBRANCH   8   9
ENDBRANCH   5   8
TORSDOF 6
ENDMDL
MODEL      204
REMARK 921   NORMALIZED FREE ENERGY PREDICTED BY IDOCK:   -3.91 KCAL/MOL
REMARK 922        TOTAL FREE ENERGY PREDICTED BY IDOCK:   -6.21 KCAL/MOL
REMARK 923 INTER-LIGAND FREE ENERGY PREDICTED BY IDOCK:   -5.33 KCAL/MOL
REMARK 924 INTRA-LIGAND FREE ENERGY PREDICTED BY IDOCK:   -0.87 KCAL/MOL
REMARK 927      BINDING AFFINITY PREDICTED BY RF-SCORE:    0.00 PKD
ROOT
HETATM    1 CL   UNL     1     -13.256  12.453  71.625  1.00  0.00    -0.453 Cl 
HETATM    2  C   UNL     1     -12.834  10.788  71.544  1.00  0.00    -0.462 A  
HETATM    3  C   UNL     1     -13.662   9.834  72.131  1.00  0.00    -0.350 A  
HETATM    4  C   UNL     1     -13.313   8.478  72.069  1.00  0.00    -0.397 A  
HETATM    5  C   UNL     1     -12.128   8.069  71.433  1.00  0.00    -0.332 A  
HETATM    6  C   UNL     1     -11.319   9.046  70.829  1.00  0.00    -0.329 A  
HETATM    7  C   UNL     1     -11.669  10.399  70.889  1.00  0.00    -0.455 A  
ENDROOT
BRANCH   5   8
HETATM    8  C   UNL     1     -11.773   6.595  71.332  1.00  0.00    -0.324 C  
BRANCH   8   9
HETATM    9  S   UNL     1     -11.276   6.220  69.625  1.00  0.00    -0.417 SA 
BRANCH   9  10
HETATM   10  C   UNL     1      -9.455   6.690  69.516  1.00  0.00    -0.147 C  
BRANCH  10  11
HETATM   11  C   UNL     1      -9.208   7.715  68.370  1.00  0.00    -0.140 A  
HETATM   12  C   UNL     1      -8.715   9.498  66.204  1.00  0.00    -0.145 A  
HETATM   13  C   UNL     1      -8.287   8.781  68.480  1.00  0.00    -0.129 A  
HETATM   14  C   UNL     1      -9.888   7.615  67.132  1.00  0.00    -0.265 A  
HETATM   15  C   UNL     1      -8.023   9.642  67.400  1.00  0.00    -0.106 A  
HETATM   16 CL   UNL     1      -8.413  10.566  64.890  1.00  0.00    -0.176 Cl 
HETATM   17 CL   UNL     1      -7.436   9.136  69.944  1.00  0.00    -0.063 Cl 
HETATM   18  C   UNL     1      -9.661   8.498  66.072  1.00  0.00    -0.236 A  
ENDBRANCH  10  11
BRANCH  10  19
HETATM   19  C   UNL     1      -8.527   5.448  69.452  1.00  0.00    -0.099 C  
BRANCH  19  20
HETATM   20  N   UNL     1      -7.690   5.254  70.617  1.00  0.00    -0.082 NA 
HETATM   21  C   UNL     1      -6.399   5.670  70.769  1.00  0.00    -0.031 A  
HETATM   22  N   UNL     1      -7.061   4.556  72.618  1.00  0.00    -0.069 NA 
HETATM   23  C   UNL     1      -6.010   5.174  71.985  1.00  0.00    -0.025 A  
HETATM   24  C   UNL     1      -8.067   4.647  71.779  1.00  0.00    -0.103 A  
ENDBRANCH  19  20
ENDBRANCH  10  19
ENDBRANCH   9  10
ENDBRANCH   8   9
ENDBRANCH   5   8
TORSDOF 6
ENDMDL
MODEL      205
REMARK 921   NORMALIZED FREE ENERGY PREDICTED BY IDOCK:   -3.91 KCAL/MOL
REMARK 922        TOTAL FREE ENERGY PREDICTED BY IDOCK:   -6.21 KCAL/MOL
REMARK 923 INTER-LIGAND FREE ENERGY PREDICTED BY IDOCK:   -5.57 KCAL/MOL
REMARK 924 INTRA-LIGAND FREE ENERGY PREDICTED BY IDOCK:   -0.64 KCAL/MOL
REMARK 927      BINDING AFFINITY PREDICTED BY RF-SCORE:    0.00 PKD
ROOT
HETATM    1 CL   UNL     1      -6.416   3.407  69.122  1.00  0.00    -0.033 Cl 
HETATM    2  C   UNL     1      -7.638   4.466  68.536  1.00  0.00    -0.064 A  
HETATM    3  C   UNL     1      -8.832   3.942  68.048  1.00  0.00    -0.136 A  
HETATM    4  C   UNL     1      -9.825   4.806  67.565  1.00  0.00    -0.206 A  
HETATM    5  C   UNL     1      -9.624   6.197  67.555  1.00  0.00    -0.117 A  
HETATM    6  C   UNL     1      -8.420   6.705  68.073  1.00  0.00    -0.116 A  
HETATM    7  C   UNL     1      -7.431   5.843  68.557  1.00  0.00    -0.086 A  
ENDROOT
BRANCH   5   8
HETATM    8  C   UNL     1     -10.717   7.134  67.069  1.00  0.00    -0.350 C  
BRANCH   8   9
HETATM    9  S   UNL     1     -10.031   8.808  66.898  1.00  0.00    -0.283 SA 
BRANCH   9  10
HETATM   10  C   UNL     1     -10.840   9.825  68.261  1.00  0.00    -0.210 C  
BRANCH  10  11
HETATM   11  C   UNL     1     -10.751  11.348  67.952  1.00  0.00    -0.242 A  
HETATM   12  C   UNL     1     -10.633  14.114  67.277  1.00  0.00    -0.277 A  
HETATM   13  C   UNL     1      -9.527  12.055  67.921  1.00  0.00    -0.196 A  
HETATM   14  C   UNL     1     -11.907  12.111  67.661  1.00  0.00    -0.316 A  
HETATM   15  C   UNL     1      -9.467  13.412  67.559  1.00  0.00    -0.219 A  
HETATM   16 CL   UNL     1     -10.565  15.780  66.859  1.00  0.00    -0.317 Cl 
HETATM   17 CL   UNL     1      -8.016  11.328  68.350  1.00  0.00    -0.132 Cl 
HETATM   18  C   UNL     1     -11.856  13.473  67.345  1.00  0.00    -0.423 A  
ENDBRANCH  10  11
BRANCH  10  19
HETATM   19  C   UNL     1     -10.316   9.444  69.672  1.00  0.00    -0.216 C  
BRANCH  19  20
HETATM   20  N   UNL     1     -11.274   8.754  70.509  1.00  0.00    -0.256 NA 
HETATM   21  C   UNL     1     -11.454   7.404  70.596  1.00  0.00    -0.282 A  
HETATM   22  N   UNL     1     -12.937   8.456  71.936  1.00  0.00    -0.342 NA 
HETATM   23  C   UNL     1     -12.526   7.245  71.435  1.00  0.00    -0.383 A  
HETATM   24  C   UNL     1     -12.143   9.343  71.380  1.00  0.00    -0.363 A  
ENDBRANCH  19  20
ENDBRANCH  10  19
ENDBRANCH   9  10
ENDBRANCH   8   9
ENDBRANCH   5   8
TORSDOF 6
ENDMDL
MODEL      206
REMARK 921   NORMALIZED FREE ENERGY PREDICTED BY IDOCK:   -3.90 KCAL/MOL
REMARK 922        TOTAL FREE ENERGY PREDICTED BY IDOCK:   -6.19 KCAL/MOL
REMARK 923 INTER-LIGAND FREE ENERGY PREDICTED BY IDOCK:   -5.77 KCAL/MOL
REMARK 924 INTRA-LIGAND FREE ENERGY PREDICTED BY IDOCK:   -0.42 KCAL/MOL
REMARK 927      BINDING AFFINITY PREDICTED BY RF-SCORE:    0.00 PKD
ROOT
HETATM    1 CL   UNL     1     -10.858  19.724  67.084  1.00  0.00    -0.540 Cl 
HETATM    2  C   UNL     1     -10.217  18.129  67.155  1.00  0.00    -0.367 A  
HETATM    3  C   UNL     1     -10.346  17.282  66.058  1.00  0.00    -0.312 A  
HETATM    4  C   UNL     1      -9.829  15.981  66.120  1.00  0.00    -0.351 A  
HETATM    5  C   UNL     1      -9.191  15.516  67.284  1.00  0.00    -0.219 A  
HETATM    6  C   UNL     1      -9.053  16.396  68.371  1.00  0.00    -0.214 A  
HETATM    7  C   UNL     1      -9.568  17.694  68.307  1.00  0.00    -0.306 A  
ENDROOT
BRANCH   5   8
HETATM    8  C   UNL     1      -8.596  14.119  67.335  1.00  0.00    -0.210 C  
BRANCH   8   9
HETATM    9  S   UNL     1      -9.059  13.332  68.905  1.00  0.00     0.411 SA 
BRANCH   9  10
HETATM   10  C   UNL     1      -9.998  11.771  68.429  1.00  0.00    -0.202 C  
BRANCH  10  11
HETATM   11  C   UNL     1      -9.958  11.540  66.889  1.00  0.00    -0.231 A  
HETATM   12  C   UNL     1      -9.983  11.048  64.084  1.00  0.00    -0.329 A  
HETATM   13  C   UNL     1      -8.880  10.899  66.237  1.00  0.00    -0.179 A  
HETATM   14  C   UNL     1     -11.026  11.948  66.054  1.00  0.00    -0.355 A  
HETATM   15  C   UNL     1      -8.907  10.630  64.858  1.00  0.00    -0.204 A  
HETATM   16 CL   UNL     1     -10.007  10.743  62.391  1.00  0.00     0.012 Cl 
HETATM   17 CL   UNL     1      -7.437  10.421  67.064  1.00  0.00    -0.095 Cl 
HETATM   18  C   UNL     1     -11.035  11.723  64.674  1.00  0.00    -0.368 A  
ENDBRANCH  10  11
BRANCH  10  19
HETATM   19  C   UNL     1     -11.430  11.738  69.026  1.00  0.00    -0.297 C  
BRANCH  19  20
HETATM   20  N   UNL     1     -11.917  13.013  69.507  1.00  0.00    -0.308 NA 
HETATM   21  C   UNL     1     -12.340  13.297  70.773  1.00  0.00    -0.344 A  
HETATM   22  N   UNL     1     -12.558  15.129  69.470  1.00  0.00    -0.070 NA 
HETATM   23  C   UNL     1     -12.790  14.590  70.712  1.00  0.00    -0.361 A  
HETATM   24  C   UNL     1     -12.004  14.161  68.775  1.00  0.00    -0.332 A  
ENDBRANCH  19  20
ENDBRANCH  10  19
ENDBRANCH   9  10
ENDBRANCH   8   9
ENDBRANCH   5   8
TORSDOF 6
ENDMDL
MODEL      207
REMARK 921   NORMALIZED FREE ENERGY PREDICTED BY IDOCK:   -3.90 KCAL/MOL
REMARK 922        TOTAL FREE ENERGY PREDICTED BY IDOCK:   -6.19 KCAL/MOL
REMARK 923 INTER-LIGAND FREE ENERGY PREDICTED BY IDOCK:   -5.51 KCAL/MOL
REMARK 924 INTRA-LIGAND FREE ENERGY PREDICTED BY IDOCK:   -0.68 KCAL/MOL
REMARK 927      BINDING AFFINITY PREDICTED BY RF-SCORE:    0.00 PKD
ROOT
HETATM    1 CL   UNL     1     -10.746  13.078  65.312  1.00  0.00    -0.307 Cl 
HETATM    2  C   UNL     1     -11.057  12.240  66.781  1.00  0.00    -0.296 A  
HETATM    3  C   UNL     1     -11.597  12.923  67.868  1.00  0.00    -0.391 A  
HETATM    4  C   UNL     1     -11.844  12.240  69.066  1.00  0.00    -0.358 A  
HETATM    5  C   UNL     1     -11.542  10.872  69.189  1.00  0.00    -0.389 A  
HETATM    6  C   UNL     1     -11.019  10.198  68.073  1.00  0.00    -0.326 A  
HETATM    7  C   UNL     1     -10.774  10.880  66.877  1.00  0.00    -0.318 A  
ENDROOT
BRANCH   5   8
HETATM    8  C   UNL     1     -11.849  10.125  70.475  1.00  0.00    -0.321 C  
BRANCH   8   9
HETATM    9  S   UNL     1     -10.350   9.261  71.032  1.00  0.00    -0.323 SA 
BRANCH   9  10
HETATM   10  C   UNL     1     -10.900   7.503  71.427  1.00  0.00    -0.229 C  
BRANCH  10  11
HETATM   11  C   UNL     1      -9.786   6.724  72.186  1.00  0.00    -0.156 A  
HETATM   12  C   UNL     1      -7.690   5.281  73.468  1.00  0.00    -0.099 A  
HETATM   13  C   UNL     1     -10.034   5.528  72.897  1.00  0.00    -0.169 A  
HETATM   14  C   UNL     1      -8.442   7.170  72.184  1.00  0.00    -0.118 A  
HETATM   15  C   UNL     1      -8.994   4.802  73.504  1.00  0.00    -0.107 A  
HETATM   16 CL   UNL     1      -6.421   4.408  74.232  1.00  0.00    -0.051 Cl 
HETATM   17 CL   UNL     1     -11.623   4.877  73.107  1.00  0.00    -0.375 Cl 
HETATM   18  C   UNL     1      -7.413   6.473  72.826  1.00  0.00    -0.094 A  
ENDBRANCH  10  11
BRANCH  10  19
HETATM   19  C   UNL     1     -11.440   6.758  70.177  1.00  0.00    -0.349 C  
BRANCH  19  20
HETATM   20  N   UNL     1     -10.424   6.132  69.358  1.00  0.00    -0.227 NA 
HETATM   21  C   UNL     1      -9.555   6.764  68.517  1.00  0.00    -0.130 A  
HETATM   22  N   UNL     1      -9.222   4.532  68.418  1.00  0.00    -0.125 NA 
HETATM   23  C   UNL     1      -8.865   5.752  67.900  1.00  0.00    -0.108 A  
HETATM   24  C   UNL     1     -10.144   4.797  69.316  1.00  0.00    -0.147 A  
ENDBRANCH  19  20
ENDBRANCH  10  19
ENDBRANCH   9  10
ENDBRANCH   8   9
ENDBRANCH   5   8
TORSDOF 6
ENDMDL
MODEL      208
REMARK 921   NORMALIZED FREE ENERGY PREDICTED BY IDOCK:   -3.90 KCAL/MOL
REMARK 922        TOTAL FREE ENERGY PREDICTED BY IDOCK:   -6.19 KCAL/MOL
REMARK 923 INTER-LIGAND FREE ENERGY PREDICTED BY IDOCK:   -6.62 KCAL/MOL
REMARK 924 INTRA-LIGAND FREE ENERGY PREDICTED BY IDOCK:    0.44 KCAL/MOL
REMARK 927      BINDING AFFINITY PREDICTED BY RF-SCORE:    0.00 PKD
ROOT
HETATM    1 CL   UNL     1      -7.021   6.944  67.524  1.00  0.00    -0.080 Cl 
HETATM    2  C   UNL     1      -8.271   8.031  67.989  1.00  0.00    -0.129 A  
HETATM    3  C   UNL     1      -9.467   8.057  67.277  1.00  0.00    -0.196 A  
HETATM    4  C   UNL     1     -10.482   8.947  67.654  1.00  0.00    -0.320 A  
HETATM    5  C   UNL     1     -10.301   9.825  68.737  1.00  0.00    -0.227 A  
HETATM    6  C   UNL     1      -9.095   9.766  69.455  1.00  0.00    -0.227 A  
HETATM    7  C   UNL     1      -8.084   8.876  69.080  1.00  0.00    -0.115 A  
ENDROOT
BRANCH   5   8
HETATM    8  C   UNL     1     -11.418  10.760  69.169  1.00  0.00    -0.298 C  
BRANCH   8   9
HETATM    9  S   UNL     1     -11.689  12.001  67.870  1.00  0.00    -0.275 SA 
BRANCH   9  10
HETATM   10  C   UNL     1     -10.035  12.875  67.655  1.00  0.00    -0.218 C  
BRANCH  10  11
HETATM   11  C   UNL     1     -10.221  14.419  67.583  1.00  0.00    -0.229 A  
HETATM   12  C   UNL     1     -10.447  17.257  67.485  1.00  0.00    -0.356 A  
HETATM   13  C   UNL     1     -11.134  15.121  68.402  1.00  0.00    -0.282 A  
HETATM   14  C   UNL     1      -9.458  15.213  66.694  1.00  0.00    -0.285 A  
HETATM   15  C   UNL     1     -11.224  16.523  68.374  1.00  0.00    -0.280 A  
HETATM   16 CL   UNL     1     -10.573  18.971  67.431  1.00  0.00    -0.530 Cl 
HETATM   17 CL   UNL     1     -12.231  14.323  69.477  1.00  0.00    -0.361 Cl 
HETATM   18  C   UNL     1      -9.577  16.605  66.631  1.00  0.00    -0.280 A  
ENDBRANCH  10  11
BRANCH  10  19
HETATM   19  C   UNL     1      -9.208  12.292  66.478  1.00  0.00    -0.219 C  
BRANCH  19  20
HETATM   20  N   UNL     1      -9.940  12.138  65.239  1.00  0.00    -0.253 NA 
HETATM   21  C   UNL     1     -10.753  13.066  64.655  1.00  0.00    -0.367 A  
HETATM   22  N   UNL     1     -10.744  11.176  63.418  1.00  0.00    -0.309 NA 
HETATM   23  C   UNL     1     -11.288  12.429  63.566  1.00  0.00    -0.476 A  
HETATM   24  C   UNL     1      -9.913  11.043  64.426  1.00  0.00    -0.312 A  
ENDBRANCH  19  20
ENDBRANCH  10  19
ENDBRANCH   9  10
ENDBRANCH   8   9
ENDBRANCH   5   8
TORSDOF 6
ENDMDL
MODEL      209
REMARK 921   NORMALIZED FREE ENERGY PREDICTED BY IDOCK:   -3.89 KCAL/MOL
REMARK 922        TOTAL FREE ENERGY PREDICTED BY IDOCK:   -6.18 KCAL/MOL
REMARK 923 INTER-LIGAND FREE ENERGY PREDICTED BY IDOCK:   -5.43 KCAL/MOL
REMARK 924 INTRA-LIGAND FREE ENERGY PREDICTED BY IDOCK:   -0.75 KCAL/MOL
REMARK 927      BINDING AFFINITY PREDICTED BY RF-SCORE:    0.00 PKD
ROOT
HETATM    1 CL   UNL     1      -6.062   7.684  63.401  1.00  0.00    -0.054 Cl 
HETATM    2  C   UNL     1      -6.427   8.675  64.759  1.00  0.00    -0.065 A  
HETATM    3  C   UNL     1      -5.954   9.983  64.808  1.00  0.00    -0.113 A  
HETATM    4  C   UNL     1      -6.247  10.787  65.918  1.00  0.00    -0.121 A  
HETATM    5  C   UNL     1      -7.004  10.283  66.991  1.00  0.00    -0.089 A  
HETATM    6  C   UNL     1      -7.489   8.968  66.909  1.00  0.00    -0.090 A  
HETATM    7  C   UNL     1      -7.199   8.166  65.801  1.00  0.00    -0.068 A  
ENDROOT
BRANCH   5   8
HETATM    8  C   UNL     1      -7.355  11.169  68.174  1.00  0.00    -0.087 C  
BRANCH   8   9
HETATM    9  S   UNL     1      -7.906  12.788  67.560  1.00  0.00    -0.175 SA 
BRANCH   9  10
HETATM   10  C   UNL     1      -9.728  12.570  67.132  1.00  0.00    -0.205 C  
BRANCH  10  11
HETATM   11  C   UNL     1     -10.514  11.950  68.324  1.00  0.00    -0.221 A  
HETATM   12  C   UNL     1     -12.015  10.748  70.426  1.00  0.00    -0.357 A  
HETATM   13  C   UNL     1     -11.333  12.715  69.184  1.00  0.00    -0.282 A  
HETATM   14  C   UNL     1     -10.464  10.562  68.599  1.00  0.00    -0.211 A  
HETATM   15  C   UNL     1     -12.097  12.117  70.202  1.00  0.00    -0.368 A  
HETATM   16 CL   UNL     1     -12.928  10.018  71.688  1.00  0.00    -0.511 Cl 
HETATM   17 CL   UNL     1     -11.445  14.439  69.080  1.00  0.00    -0.303 Cl 
HETATM   18  C   UNL     1     -11.187   9.970  69.640  1.00  0.00    -0.285 A  
ENDBRANCH  10  11
BRANCH  10  19
HETATM   19  C   UNL     1      -9.933  11.815  65.791  1.00  0.00    -0.238 C  
BRANCH  19  20
HETATM   20  N   UNL     1     -10.975  12.354  64.945  1.00  0.00    -0.292 NA 
HETATM   21  C   UNL     1     -12.249  12.668  65.323  1.00  0.00    -0.475 A  
HETATM   22  N   UNL     1     -11.992  13.065  63.114  1.00  0.00    -0.427 NA 
HETATM   23  C   UNL     1     -12.877  13.046  64.164  1.00  0.00     0.006 A  
HETATM   24  C   UNL     1     -10.847  12.671  63.624  1.00  0.00    -0.395 A  
ENDBRANCH  19  20
ENDBRANCH  10  19
ENDBRANCH   9  10
ENDBRANCH   8   9
ENDBRANCH   5   8
TORSDOF 6
ENDMDL
MODEL      210
REMARK 921   NORMALIZED FREE ENERGY PREDICTED BY IDOCK:   -3.89 KCAL/MOL
REMARK 922        TOTAL FREE ENERGY PREDICTED BY IDOCK:   -6.17 KCAL/MOL
REMARK 923 INTER-LIGAND FREE ENERGY PREDICTED BY IDOCK:   -5.12 KCAL/MOL
REMARK 924 INTRA-LIGAND FREE ENERGY PREDICTED BY IDOCK:   -1.05 KCAL/MOL
REMARK 927      BINDING AFFINITY PREDICTED BY RF-SCORE:    0.00 PKD
ROOT
HETATM    1 CL   UNL     1     -10.298  10.974  64.450  1.00  0.00    -0.401 Cl 
HETATM    2  C   UNL     1      -9.565   9.818  65.492  1.00  0.00    -0.282 A  
HETATM    3  C   UNL     1      -8.742   8.830  64.960  1.00  0.00    -0.183 A  
HETATM    4  C   UNL     1      -8.150   7.886  65.810  1.00  0.00    -0.123 A  
HETATM    5  C   UNL     1      -8.389   7.917  67.196  1.00  0.00    -0.117 A  
HETATM    6  C   UNL     1      -9.205   8.937  67.713  1.00  0.00    -0.153 A  
HETATM    7  C   UNL     1      -9.793   9.880  66.865  1.00  0.00    -0.252 A  
ENDROOT
BRANCH   5   8
HETATM    8  C   UNL     1      -7.714   6.917  68.120  1.00  0.00    -0.113 C  
BRANCH   8   9
HETATM    9  S   UNL     1      -8.636   6.839  69.683  1.00  0.00    -0.133 SA 
BRANCH   9  10
HETATM   10  C   UNL     1     -10.156   5.788  69.320  1.00  0.00    -0.205 C  
BRANCH  10  11
HETATM   11  C   UNL     1     -10.015   5.052  67.955  1.00  0.00    -0.193 A  
HETATM   12  C   UNL     1      -9.877   3.680  65.461  1.00  0.00    -0.066 A  
HETATM   13  C   UNL     1      -9.205   3.907  67.780  1.00  0.00    -0.166 A  
HETATM   14  C   UNL     1     -10.720   5.486  66.806  1.00  0.00    -0.329 A  
HETATM   15  C   UNL     1      -9.161   3.214  66.558  1.00  0.00    -0.155 A  
HETATM   16 CL   UNL     1      -9.805   2.849  63.958  1.00  0.00    -0.150 Cl 
HETATM   17 CL   UNL     1      -8.186   3.283  69.031  1.00  0.00    -0.072 Cl 
HETATM   18  C   UNL     1     -10.643   4.826  65.576  1.00  0.00    -0.169 A  
ENDBRANCH  10  11
BRANCH  10  19
HETATM   19  C   UNL     1     -11.476   6.591  69.461  1.00  0.00    -0.319 C  
BRANCH  19  20
HETATM   20  N   UNL     1     -11.529   7.475  70.606  1.00  0.00    -0.284 NA 
HETATM   21  C   UNL     1     -11.521   8.840  70.580  1.00  0.00    -0.231 A  
HETATM   22  N   UNL     1     -11.574   8.120  72.721  1.00  0.00    -0.386 NA 
HETATM   23  C   UNL     1     -11.487   9.216  71.897  1.00  0.00    -0.353 A  
HETATM   24  C   UNL     1     -11.628   7.087  71.910  1.00  0.00    -0.284 A  
ENDBRANCH  19  20
ENDBRANCH  10  19
ENDBRANCH   9  10
ENDBRANCH   8   9
ENDBRANCH   5   8
TORSDOF 6
ENDMDL
MODEL      211
REMARK 921   NORMALIZED FREE ENERGY PREDICTED BY IDOCK:   -3.87 KCAL/MOL
REMARK 922        TOTAL FREE ENERGY PREDICTED BY IDOCK:   -6.15 KCAL/MOL
REMARK 923 INTER-LIGAND FREE ENERGY PREDICTED BY IDOCK:   -5.39 KCAL/MOL
REMARK 924 INTRA-LIGAND FREE ENERGY PREDICTED BY IDOCK:   -0.76 KCAL/MOL
REMARK 927      BINDING AFFINITY PREDICTED BY RF-SCORE:    0.00 PKD
ROOT
HETATM    1 CL   UNL     1     -12.971  15.266  70.930  1.00  0.00    -0.495 Cl 
HETATM    2  C   UNL     1     -12.286  14.098  69.869  1.00  0.00    -0.359 A  
HETATM    3  C   UNL     1     -11.919  14.466  68.577  1.00  0.00    -0.333 A  
HETATM    4  C   UNL     1     -11.367  13.512  67.712  1.00  0.00    -0.327 A  
HETATM    5  C   UNL     1     -11.190  12.181  68.130  1.00  0.00    -0.320 A  
HETATM    6  C   UNL     1     -11.547  11.837  69.444  1.00  0.00    -0.386 A  
HETATM    7  C   UNL     1     -12.096  12.790  70.308  1.00  0.00    -0.373 A  
ENDROOT
BRANCH   5   8
HETATM    8  C   UNL     1     -10.553  11.158  67.204  1.00  0.00    -0.244 C  
BRANCH   8   9
HETATM    9  S   UNL     1     -10.908   9.489  67.830  1.00  0.00    -0.103 SA 
BRANCH   9  10
HETATM   10  C   UNL     1      -9.254   8.815  68.429  1.00  0.00    -0.137 C  
BRANCH  10  11
HETATM   11  C   UNL     1      -8.337   8.433  67.230  1.00  0.00    -0.123 A  
HETATM   12  C   UNL     1      -6.619   7.639  65.100  1.00  0.00    -0.044 A  
HETATM   13  C   UNL     1      -7.300   9.270  66.759  1.00  0.00    -0.086 A  
HETATM   14  C   UNL     1      -8.483   7.198  66.553  1.00  0.00    -0.125 A  
HETATM   15  C   UNL     1      -6.435   8.865  65.728  1.00  0.00    -0.060 A  
HETATM   16 CL   UNL     1      -5.578   7.152  63.821  1.00  0.00    -0.036 Cl 
HETATM   17 CL   UNL     1      -7.028  10.861  67.382  1.00  0.00    -0.081 Cl 
HETATM   18  C   UNL     1      -7.652   6.811  65.497  1.00  0.00    -0.088 A  
ENDBRANCH  10  11
BRANCH  10  19
HETATM   19  C   UNL     1      -9.423   7.677  69.471  1.00  0.00    -0.152 C  
BRANCH  19  20
HETATM   20  N   UNL     1     -10.446   7.913  70.466  1.00  0.00    -0.211 NA 
HETATM   21  C   UNL     1     -10.447   8.895  71.414  1.00  0.00    -0.305 A  
HETATM   22  N   UNL     1     -12.291   7.611  71.648  1.00  0.00    -0.314 NA 
HETATM   23  C   UNL     1     -11.564   8.652  72.172  1.00  0.00    -0.370 A  
HETATM   24  C   UNL     1     -11.605   7.206  70.603  1.00  0.00    -0.314 A  
ENDBRANCH  19  20
ENDBRANCH  10  19
ENDBRANCH   9  10
ENDBRANCH   8   9
ENDBRANCH   5   8
TORSDOF 6
ENDMDL
MODEL      212
REMARK 921   NORMALIZED FREE ENERGY PREDICTED BY IDOCK:   -3.86 KCAL/MOL
REMARK 922        TOTAL FREE ENERGY PREDICTED BY IDOCK:   -6.14 KCAL/MOL
REMARK 923 INTER-LIGAND FREE ENERGY PREDICTED BY IDOCK:   -5.42 KCAL/MOL
REMARK 924 INTRA-LIGAND FREE ENERGY PREDICTED BY IDOCK:   -0.72 KCAL/MOL
REMARK 927      BINDING AFFINITY PREDICTED BY RF-SCORE:    0.00 PKD
ROOT
HETATM    1 CL   UNL     1     -11.428   5.307  72.890  1.00  0.00    -0.370 Cl 
HETATM    2  C   UNL     1     -11.041   6.211  71.479  1.00  0.00    -0.286 A  
HETATM    3  C   UNL     1     -11.157   7.599  71.493  1.00  0.00    -0.267 A  
HETATM    4  C   UNL     1     -10.847   8.334  70.341  1.00  0.00    -0.241 A  
HETATM    5  C   UNL     1     -10.433   7.685  69.164  1.00  0.00    -0.220 A  
HETATM    6  C   UNL     1     -10.302   6.286  69.180  1.00  0.00    -0.262 A  
HETATM    7  C   UNL     1     -10.610   5.553  70.331  1.00  0.00    -0.350 A  
ENDROOT
BRANCH   5   8
HETATM    8  C   UNL     1     -10.058   8.486  67.929  1.00  0.00    -0.207 C  
BRANCH   8   9
HETATM    9  S   UNL     1     -11.015  10.031  67.912  1.00  0.00    -0.192 SA 
BRANCH   9  10
HETATM   10  C   UNL     1      -9.793  11.373  67.407  1.00  0.00    -0.182 C  
BRANCH  10  11
HETATM   11  C   UNL     1     -10.501  12.500  66.599  1.00  0.00    -0.252 A  
HETATM   12  C   UNL     1     -11.772  14.501  65.019  1.00  0.00    -0.392 A  
HETATM   13  C   UNL     1     -10.036  13.835  66.574  1.00  0.00    -0.288 A  
HETATM   14  C   UNL     1     -11.652  12.237  65.818  1.00  0.00    -0.443 A  
HETATM   15  C   UNL     1     -10.646  14.814  65.771  1.00  0.00    -0.338 A  
HETATM   16 CL   UNL     1     -12.535  15.704  64.055  1.00  0.00     0.034 Cl 
HETATM   17 CL   UNL     1      -8.710  14.381  67.542  1.00  0.00    -0.188 Cl 
HETATM   18  C   UNL     1     -12.289  13.220  65.053  1.00  0.00    -0.499 A  
ENDBRANCH  10  11
BRANCH  10  19
HETATM   19  C   UNL     1      -8.538  10.794  66.701  1.00  0.00    -0.143 C  
BRANCH  19  20
HETATM   20  N   UNL     1      -7.312  10.896  67.462  1.00  0.00    -0.094 NA 
HETATM   21  C   UNL     1      -7.164  11.470  68.692  1.00  0.00    -0.102 A  
HETATM   22  N   UNL     1      -5.163  10.724  67.956  1.00  0.00    -0.037 NA 
HETATM   23  C   UNL     1      -5.819  11.408  68.950  1.00  0.00    -0.047 A  
HETATM   24  C   UNL     1      -6.096  10.403  67.088  1.00  0.00    -0.055 A  
ENDBRANCH  19  20
ENDBRANCH  10  19
ENDBRANCH   9  10
ENDBRANCH   8   9
ENDBRANCH   5   8
TORSDOF 6
ENDMDL
MODEL      213
REMARK 921   NORMALIZED FREE ENERGY PREDICTED BY IDOCK:   -3.86 KCAL/MOL
REMARK 922        TOTAL FREE ENERGY PREDICTED BY IDOCK:   -6.14 KCAL/MOL
REMARK 923 INTER-LIGAND FREE ENERGY PREDICTED BY IDOCK:   -5.52 KCAL/MOL
REMARK 924 INTRA-LIGAND FREE ENERGY PREDICTED BY IDOCK:   -0.62 KCAL/MOL
REMARK 927      BINDING AFFINITY PREDICTED BY RF-SCORE:    0.00 PKD
ROOT
HETATM    1 CL   UNL     1     -13.869  15.237  72.411  1.00  0.00    -0.593 Cl 
HETATM    2  C   UNL     1     -13.014  14.297  71.252  1.00  0.00    -0.352 A  
HETATM    3  C   UNL     1     -12.392  14.923  70.175  1.00  0.00    -0.376 A  
HETATM    4  C   UNL     1     -11.701  14.155  69.229  1.00  0.00    -0.368 A  
HETATM    5  C   UNL     1     -11.638  12.755  69.347  1.00  0.00    -0.361 A  
HETATM    6  C   UNL     1     -12.255  12.147  70.453  1.00  0.00    -0.378 A  
HETATM    7  C   UNL     1     -12.942  12.914  71.398  1.00  0.00    -0.362 A  
ENDROOT
BRANCH   5   8
HETATM    8  C   UNL     1     -10.854  11.928  68.342  1.00  0.00    -0.228 C  
BRANCH   8   9
HETATM    9  S   UNL     1     -11.466  10.217  68.375  1.00  0.00     0.032 SA 
BRANCH   9  10
HETATM   10  C   UNL     1      -9.927   9.132  68.318  1.00  0.00    -0.175 C  
BRANCH  10  11
HETATM   11  C   UNL     1     -10.068   7.909  69.271  1.00  0.00    -0.197 A  
HETATM   12  C   UNL     1     -10.426   5.638  70.954  1.00  0.00    -0.256 A  
HETATM   13  C   UNL     1     -10.279   8.040  70.663  1.00  0.00    -0.196 A  
HETATM   14  C   UNL     1     -10.013   6.581  68.782  1.00  0.00    -0.155 A  
HETATM   15  C   UNL     1     -10.485   6.920  71.487  1.00  0.00    -0.231 A  
HETATM   16 CL   UNL     1     -10.652   4.265  71.965  1.00  0.00    -0.097 Cl 
HETATM   17 CL   UNL     1     -10.272   9.571  71.469  1.00  0.00    -0.218 Cl 
HETATM   18  C   UNL     1     -10.172   5.464  69.607  1.00  0.00    -0.345 A  
ENDBRANCH  10  11
BRANCH  10  19
HETATM   19  C   UNL     1      -8.623   9.944  68.537  1.00  0.00    -0.117 C  
BRANCH  19  20
HETATM   20  N   UNL     1      -7.803  10.105  67.355  1.00  0.00    -0.102 NA 
HETATM   21  C   UNL     1      -6.556  10.656  67.299  1.00  0.00    -0.073 A  
HETATM   22  N   UNL     1      -7.215  10.058  65.223  1.00  0.00    -0.131 NA 
HETATM   23  C   UNL     1      -6.238  10.674  65.966  1.00  0.00    -0.134 A  
HETATM   24  C   UNL     1      -8.132   9.700  66.094  1.00  0.00    -0.108 A  
ENDBRANCH  19  20
ENDBRANCH  10  19
ENDBRANCH   9  10
ENDBRANCH   8   9
ENDBRANCH   5   8
TORSDOF 6
ENDMDL
MODEL      214
REMARK 921   NORMALIZED FREE ENERGY PREDICTED BY IDOCK:   -3.85 KCAL/MOL
REMARK 922        TOTAL FREE ENERGY PREDICTED BY IDOCK:   -6.12 KCAL/MOL
REMARK 923 INTER-LIGAND FREE ENERGY PREDICTED BY IDOCK:   -5.73 KCAL/MOL
REMARK 924 INTRA-LIGAND FREE ENERGY PREDICTED BY IDOCK:   -0.39 KCAL/MOL
REMARK 927      BINDING AFFINITY PREDICTED BY RF-SCORE:    0.00 PKD
ROOT
HETATM    1 CL   UNL     1     -12.079  15.696  64.173  1.00  0.00    -0.194 Cl 
HETATM    2  C   UNL     1     -11.483  14.608  65.365  1.00  0.00    -0.352 A  
HETATM    3  C   UNL     1     -12.369  13.790  66.060  1.00  0.00    -0.499 A  
HETATM    4  C   UNL     1     -11.883  12.908  67.035  1.00  0.00    -0.437 A  
HETATM    5  C   UNL     1     -10.509  12.850  67.329  1.00  0.00    -0.236 A  
HETATM    6  C   UNL     1      -9.631  13.668  66.600  1.00  0.00    -0.289 A  
HETATM    7  C   UNL     1     -10.117  14.546  65.625  1.00  0.00    -0.384 A  
ENDROOT
BRANCH   5   8
HETATM    8  C   UNL     1      -9.980  11.864  68.357  1.00  0.00    -0.203 C  
BRANCH   8   9
HETATM    9  S   UNL     1     -11.241  10.594  68.667  1.00  0.00    -0.280 SA 
BRANCH   9  10
HETATM   10  C   UNL     1     -10.375   8.945  68.386  1.00  0.00    -0.200 C  
BRANCH  10  11
HETATM   11  C   UNL     1     -10.543   8.007  69.617  1.00  0.00    -0.223 A  
HETATM   12  C   UNL     1     -10.965   6.329  71.880  1.00  0.00    -0.256 A  
HETATM   13  C   UNL     1      -9.783   8.149  70.800  1.00  0.00    -0.170 A  
HETATM   14  C   UNL     1     -11.496   6.960  69.622  1.00  0.00    -0.204 A  
HETATM   15  C   UNL     1     -10.012   7.340  71.927  1.00  0.00    -0.184 A  
HETATM   16 CL   UNL     1     -11.230   5.320  73.248  1.00  0.00    -0.369 Cl 
HETATM   17 CL   UNL     1      -8.498   9.298  70.954  1.00  0.00    -0.240 Cl 
HETATM   18  C   UNL     1     -11.695   6.124  70.725  1.00  0.00    -0.168 A  
ENDBRANCH  10  11
BRANCH  10  19
HETATM   19  C   UNL     1      -8.900   9.123  67.935  1.00  0.00    -0.128 C  
BRANCH  19  20
HETATM   20  N   UNL     1      -8.607   8.622  66.609  1.00  0.00    -0.115 NA 
HETATM   21  C   UNL     1      -8.135   7.381  66.294  1.00  0.00    -0.117 A  
HETATM   22  N   UNL     1      -8.355   8.610  64.412  1.00  0.00    -0.161 NA 
HETATM   23  C   UNL     1      -7.927   7.416  64.940  1.00  0.00    -0.128 A  
HETATM   24  C   UNL     1      -8.787   9.304  65.441  1.00  0.00    -0.192 A  
ENDBRANCH  19  20
ENDBRANCH  10  19
ENDBRANCH   9  10
ENDBRANCH   8   9
ENDBRANCH   5   8
TORSDOF 6
ENDMDL
MODEL      215
REMARK 921   NORMALIZED FREE ENERGY PREDICTED BY IDOCK:   -3.85 KCAL/MOL
REMARK 922        TOTAL FREE ENERGY PREDICTED BY IDOCK:   -6.12 KCAL/MOL
REMARK 923 INTER-LIGAND FREE ENERGY PREDICTED BY IDOCK:   -5.28 KCAL/MOL
REMARK 924 INTRA-LIGAND FREE ENERGY PREDICTED BY IDOCK:   -0.84 KCAL/MOL
REMARK 927      BINDING AFFINITY PREDICTED BY RF-SCORE:    0.00 PKD
ROOT
HETATM    1 CL   UNL     1     -10.332  17.159  66.673  1.00  0.00    -0.323 Cl 
HETATM    2  C   UNL     1     -10.602  15.463  66.765  1.00  0.00    -0.309 A  
HETATM    3  C   UNL     1      -9.717  14.586  66.143  1.00  0.00    -0.340 A  
HETATM    4  C   UNL     1      -9.942  13.205  66.213  1.00  0.00    -0.285 A  
HETATM    5  C   UNL     1     -11.060  12.692  66.895  1.00  0.00    -0.315 A  
HETATM    6  C   UNL     1     -11.928  13.594  67.533  1.00  0.00    -0.393 A  
HETATM    7  C   UNL     1     -11.701  14.972  67.465  1.00  0.00    -0.270 A  
ENDROOT
BRANCH   5   8
HETATM    8  C   UNL     1     -11.280  11.193  67.004  1.00  0.00    -0.219 C  
BRANCH   8   9
HETATM    9  S   UNL     1      -9.957  10.332  66.103  1.00  0.00    -0.243 SA 
BRANCH   9  10
HETATM   10  C   UNL     1      -8.884   9.532  67.428  1.00  0.00    -0.128 C  
BRANCH  10  11
HETATM   11  C   UNL     1      -9.731   9.140  68.675  1.00  0.00    -0.164 A  
HETATM   12  C   UNL     1     -11.179   8.431  71.023  1.00  0.00    -0.266 A  
HETATM   13  C   UNL     1     -10.384   7.893  68.797  1.00  0.00    -0.203 A  
HETATM   14  C   UNL     1      -9.873  10.019  69.776  1.00  0.00    -0.270 A  
HETATM   15  C   UNL     1     -11.073   7.532  69.968  1.00  0.00    -0.219 A  
HETATM   16 CL   UNL     1     -12.044   8.003  72.447  1.00  0.00    -0.384 Cl 
HETATM   17 CL   UNL     1     -10.418   6.725  67.520  1.00  0.00    -0.262 Cl 
HETATM   18  C   UNL     1     -10.597   9.681  70.924  1.00  0.00    -0.386 A  
ENDBRANCH  10  11
BRANCH  10  19
HETATM   19  C   UNL     1      -7.633  10.385  67.769  1.00  0.00    -0.089 C  
BRANCH  19  20
HETATM   20  N   UNL     1      -6.635   9.706  68.568  1.00  0.00    -0.052 NA 
HETATM   21  C   UNL     1      -6.099  10.145  69.744  1.00  0.00    -0.050 A  
HETATM   22  N   UNL     1      -5.151   8.179  69.164  1.00  0.00    -0.026 NA 
HETATM   23  C   UNL     1      -5.141   9.218  70.062  1.00  0.00    -0.029 A  
HETATM   24  C   UNL     1      -6.083   8.490  68.292  1.00  0.00    -0.050 A  
ENDBRANCH  19  20
ENDBRANCH  10  19
ENDBRANCH   9  10
ENDBRANCH   8   9
ENDBRANCH   5   8
TORSDOF 6
ENDMDL
MODEL      216
REMARK 921   NORMALIZED FREE ENERGY PREDICTED BY IDOCK:   -3.84 KCAL/MOL
REMARK 922        TOTAL FREE ENERGY PREDICTED BY IDOCK:   -6.11 KCAL/MOL
REMARK 923 INTER-LIGAND FREE ENERGY PREDICTED BY IDOCK:   -5.75 KCAL/MOL
REMARK 924 INTRA-LIGAND FREE ENERGY PREDICTED BY IDOCK:   -0.36 KCAL/MOL
REMARK 927      BINDING AFFINITY PREDICTED BY RF-SCORE:    0.00 PKD
ROOT
HETATM    1 CL   UNL     1      -7.758   6.904  67.552  1.00  0.00    -0.109 Cl 
HETATM    2  C   UNL     1      -7.635   8.619  67.529  1.00  0.00    -0.094 A  
HETATM    3  C   UNL     1      -7.637   9.298  66.314  1.00  0.00    -0.096 A  
HETATM    4  C   UNL     1      -7.530  10.695  66.297  1.00  0.00    -0.137 A  
HETATM    5  C   UNL     1      -7.409  11.421  67.496  1.00  0.00    -0.112 A  
HETATM    6  C   UNL     1      -7.432  10.717  68.711  1.00  0.00    -0.109 A  
HETATM    7  C   UNL     1      -7.540   9.323  68.727  1.00  0.00    -0.079 A  
ENDROOT
BRANCH   5   8
HETATM    8  C   UNL     1      -7.334  12.938  67.477  1.00  0.00    -0.154 C  
BRANCH   8   9
HETATM    9  S   UNL     1      -8.819  13.615  68.276  1.00  0.00    -0.160 SA 
BRANCH   9  10
HETATM   10  C   UNL     1      -9.797  14.449  66.899  1.00  0.00    -0.261 C  
BRANCH  10  11
HETATM   11  C   UNL     1      -9.719  15.999  67.016  1.00  0.00    -0.235 A  
HETATM   12  C   UNL     1      -9.460  18.826  67.255  1.00  0.00    -0.301 A  
HETATM   13  C   UNL     1     -10.437  16.732  67.989  1.00  0.00    -0.333 A  
HETATM   14  C   UNL     1      -8.897  16.764  66.154  1.00  0.00    -0.298 A  
HETATM   15  C   UNL     1     -10.285  18.123  68.125  1.00  0.00    -0.400 A  
HETATM   16 CL   UNL     1      -9.292  20.531  67.402  1.00  0.00    -0.530 Cl 
HETATM   17 CL   UNL     1     -11.574  15.995  69.064  1.00  0.00    -0.369 Cl 
HETATM   18  C   UNL     1      -8.779  18.154  66.257  1.00  0.00    -0.195 A  
ENDBRANCH  10  11
BRANCH  10  19
HETATM   19  C   UNL     1     -11.246  13.904  66.790  1.00  0.00    -0.318 C  
BRANCH  19  20
HETATM   20  N   UNL     1     -11.458  12.615  67.413  1.00  0.00    -0.316 NA 
HETATM   21  C   UNL     1     -12.013  12.386  68.639  1.00  0.00    -0.225 A  
HETATM   22  N   UNL     1     -11.399  10.423  67.704  1.00  0.00    -0.375 NA 
HETATM   23  C   UNL     1     -11.910  11.032  68.825  1.00  0.00    -0.282 A  
HETATM   24  C   UNL     1     -11.164  11.403  66.860  1.00  0.00    -0.264 A  
ENDBRANCH  19  20
ENDBRANCH  10  19
ENDBRANCH   9  10
ENDBRANCH   8   9
ENDBRANCH   5   8
TORSDOF 6
ENDMDL
MODEL      217
REMARK 921   NORMALIZED FREE ENERGY PREDICTED BY IDOCK:   -3.84 KCAL/MOL
REMARK 922        TOTAL FREE ENERGY PREDICTED BY IDOCK:   -6.11 KCAL/MOL
REMARK 923 INTER-LIGAND FREE ENERGY PREDICTED BY IDOCK:   -5.38 KCAL/MOL
REMARK 924 INTRA-LIGAND FREE ENERGY PREDICTED BY IDOCK:   -0.73 KCAL/MOL
REMARK 927      BINDING AFFINITY PREDICTED BY RF-SCORE:    0.00 PKD
ROOT
HETATM    1 CL   UNL     1     -10.725  19.430  66.858  1.00  0.00    -0.571 Cl 
HETATM    2  C   UNL     1     -10.142  17.826  67.074  1.00  0.00    -0.337 A  
HETATM    3  C   UNL     1      -9.150  17.330  66.233  1.00  0.00    -0.245 A  
HETATM    4  C   UNL     1      -8.681  16.021  66.407  1.00  0.00    -0.362 A  
HETATM    5  C   UNL     1      -9.210  15.196  67.415  1.00  0.00    -0.199 A  
HETATM    6  C   UNL     1     -10.194  15.725  68.267  1.00  0.00    -0.225 A  
HETATM    7  C   UNL     1     -10.661  17.032  68.094  1.00  0.00    -0.369 A  
ENDROOT
BRANCH   5   8
HETATM    8  C   UNL     1      -8.671  13.792  67.628  1.00  0.00    -0.185 C  
BRANCH   8   9
HETATM    9  S   UNL     1     -10.061  12.663  67.937  1.00  0.00    -0.228 SA 
BRANCH   9  10
HETATM   10  C   UNL     1      -9.334  10.929  67.831  1.00  0.00    -0.156 C  
BRANCH  10  11
HETATM   11  C   UNL     1     -10.099   9.942  68.761  1.00  0.00    -0.186 A  
HETATM   12  C   UNL     1     -11.410   8.149  70.545  1.00  0.00    -0.221 A  
HETATM   13  C   UNL     1     -10.356   8.598  68.409  1.00  0.00    -0.201 A  
HETATM   14  C   UNL     1     -10.565  10.342  70.037  1.00  0.00    -0.321 A  
HETATM   15  C   UNL     1     -10.976   7.706  69.301  1.00  0.00    -0.030 A  
HETATM   16 CL   UNL     1     -12.192   7.067  71.629  1.00  0.00    -0.374 Cl 
HETATM   17 CL   UNL     1      -9.962   7.947  66.855  1.00  0.00    -0.306 Cl 
HETATM   18  C   UNL     1     -11.223   9.469  70.909  1.00  0.00    -0.411 A  
ENDBRANCH  10  11
BRANCH  10  19
HETATM   19  C   UNL     1      -7.797  10.919  68.041  1.00  0.00    -0.107 C  
BRANCH  19  20
HETATM   20  N   UNL     1      -7.095   9.865  67.341  1.00  0.00    -0.084 NA 
HETATM   21  C   UNL     1      -6.539   8.749  67.897  1.00  0.00    -0.061 A  
HETATM   22  N   UNL     1      -6.159   8.759  65.670  1.00  0.00    -0.051 NA 
HETATM   23  C   UNL     1      -5.913   8.112  66.857  1.00  0.00    -0.053 A  
HETATM   24  C   UNL     1      -6.899   9.795  65.993  1.00  0.00    -0.094 A  
ENDBRANCH  19  20
ENDBRANCH  10  19
ENDBRANCH   9  10
ENDBRANCH   8   9
ENDBRANCH   5   8
TORSDOF 6
ENDMDL
MODEL      218
REMARK 921   NORMALIZED FREE ENERGY PREDICTED BY IDOCK:   -3.82 KCAL/MOL
REMARK 922        TOTAL FREE ENERGY PREDICTED BY IDOCK:   -6.09 KCAL/MOL
REMARK 923 INTER-LIGAND FREE ENERGY PREDICTED BY IDOCK:   -5.68 KCAL/MOL
REMARK 924 INTRA-LIGAND FREE ENERGY PREDICTED BY IDOCK:   -0.41 KCAL/MOL
REMARK 927      BINDING AFFINITY PREDICTED BY RF-SCORE:    0.00 PKD
ROOT
HETATM    1 CL   UNL     1      -9.132  11.182  62.331  1.00  0.00    -0.344 Cl 
HETATM    2  C   UNL     1      -9.448  10.721  63.958  1.00  0.00    -0.272 A  
HETATM    3  C   UNL     1     -10.237  11.535  64.767  1.00  0.00    -0.331 A  
HETATM    4  C   UNL     1     -10.488  11.162  66.094  1.00  0.00    -0.307 A  
HETATM    5  C   UNL     1      -9.941   9.979  66.624  1.00  0.00    -0.274 A  
HETATM    6  C   UNL     1      -9.166   9.163  65.784  1.00  0.00    -0.294 A  
HETATM    7  C   UNL     1      -8.917   9.535  64.459  1.00  0.00    -0.256 A  
ENDROOT
BRANCH   5   8
HETATM    8  C   UNL     1     -10.248   9.556  68.051  1.00  0.00    -0.201 C  
BRANCH   8   9
HETATM    9  S   UNL     1      -9.349   8.021  68.421  1.00  0.00    -0.137 SA 
BRANCH   9  10
HETATM   10  C   UNL     1     -10.676   6.704  68.648  1.00  0.00    -0.254 C  
BRANCH  10  11
HETATM   11  C   UNL     1     -10.672   6.148  70.102  1.00  0.00    -0.366 A  
HETATM   12  C   UNL     1     -10.726   5.034  72.724  1.00  0.00    -0.236 A  
HETATM   13  C   UNL     1     -11.311   6.808  71.177  1.00  0.00    -0.296 A  
HETATM   14  C   UNL     1     -10.038   4.924  70.423  1.00  0.00    -0.316 A  
HETATM   15  C   UNL     1     -11.362   6.243  72.463  1.00  0.00    -0.313 A  
HETATM   16 CL   UNL     1     -10.765   4.354  74.303  1.00  0.00    -0.311 Cl 
HETATM   17 CL   UNL     1     -12.050   8.363  71.014  1.00  0.00    -0.260 Cl 
HETATM   18  C   UNL     1     -10.048   4.382  71.712  1.00  0.00    -0.238 A  
ENDBRANCH  10  11
BRANCH  10  19
HETATM   19  C   UNL     1     -10.604   5.600  67.559  1.00  0.00    -0.221 C  
BRANCH  19  20
HETATM   20  N   UNL     1      -9.348   5.536  66.842  1.00  0.00    -0.124 NA 
HETATM   21  C   UNL     1      -8.107   5.384  67.388  1.00  0.00    -0.101 A  
HETATM   22  N   UNL     1      -7.931   5.584  65.145  1.00  0.00    -0.104 NA 
HETATM   23  C   UNL     1      -7.242   5.479  66.328  1.00  0.00    -0.077 A  
HETATM   24  C   UNL     1      -9.200   5.586  65.487  1.00  0.00    -0.045 A  
ENDBRANCH  19  20
ENDBRANCH  10  19
ENDBRANCH   9  10
ENDBRANCH   8   9
ENDBRANCH   5   8
TORSDOF 6
ENDMDL
MODEL      219
REMARK 921   NORMALIZED FREE ENERGY PREDICTED BY IDOCK:   -3.82 KCAL/MOL
REMARK 922        TOTAL FREE ENERGY PREDICTED BY IDOCK:   -6.08 KCAL/MOL
REMARK 923 INTER-LIGAND FREE ENERGY PREDICTED BY IDOCK:   -4.56 KCAL/MOL
REMARK 924 INTRA-LIGAND FREE ENERGY PREDICTED BY IDOCK:   -1.52 KCAL/MOL
REMARK 927      BINDING AFFINITY PREDICTED BY RF-SCORE:    0.00 PKD
ROOT
HETATM    1 CL   UNL     1      -9.483   2.496  72.170  1.00  0.00    -0.164 Cl 
HETATM    2  C   UNL     1      -8.647   3.702  71.272  1.00  0.00    -0.079 A  
HETATM    3  C   UNL     1      -8.141   4.824  71.923  1.00  0.00    -0.109 A  
HETATM    4  C   UNL     1      -7.467   5.809  71.190  1.00  0.00    -0.091 A  
HETATM    5  C   UNL     1      -7.305   5.684  69.798  1.00  0.00    -0.070 A  
HETATM    6  C   UNL     1      -7.804   4.534  69.165  1.00  0.00    -0.069 A  
HETATM    7  C   UNL     1      -8.476   3.550  69.899  1.00  0.00    -0.089 A  
ENDROOT
BRANCH   5   8
HETATM    8  C   UNL     1      -6.538   6.733  69.011  1.00  0.00    -0.041 C  
BRANCH   8   9
HETATM    9  S   UNL     1      -7.302   6.923  67.374  1.00  0.00    -0.093 SA 
BRANCH   9  10
HETATM   10  C   UNL     1      -8.654   8.215  67.596  1.00  0.00    -0.130 C  
BRANCH  10  11
HETATM   11  C   UNL     1      -9.663   7.787  68.701  1.00  0.00    -0.159 A  
HETATM   12  C   UNL     1     -11.416   6.980  70.797  1.00  0.00    -0.318 A  
HETATM   13  C   UNL     1     -10.550   6.697  68.550  1.00  0.00    -0.233 A  
HETATM   14  C   UNL     1      -9.730   8.466  69.942  1.00  0.00    -0.179 A  
HETATM   15  C   UNL     1     -11.393   6.281  69.595  1.00  0.00    -0.492 A  
HETATM   16 CL   UNL     1     -12.465   6.489  72.068  1.00  0.00    -0.337 Cl 
HETATM   17 CL   UNL     1     -10.696   5.808  67.073  1.00  0.00    -0.363 Cl 
HETATM   18  C   UNL     1     -10.600   8.083  70.967  1.00  0.00    -0.239 A  
ENDBRANCH  10  11
BRANCH  10  19
HETATM   19  C   UNL     1      -9.328   8.601  66.252  1.00  0.00    -0.220 C  
BRANCH  19  20
HETATM   20  N   UNL     1      -9.492  10.023  66.041  1.00  0.00    -0.183 NA 
HETATM   21  C   UNL     1      -9.937  10.630  64.903  1.00  0.00    -0.318 A  
HETATM   22  N   UNL     1      -9.422  12.196  66.447  1.00  0.00    -0.230 NA 
HETATM   23  C   UNL     1      -9.826  11.973  65.154  1.00  0.00    -0.200 A  
HETATM   24  C   UNL     1      -9.256  10.999  66.964  1.00  0.00    -0.153 A  
ENDBRANCH  19  20
ENDBRANCH  10  19
ENDBRANCH   9  10
ENDBRANCH   8   9
ENDBRANCH   5   8
TORSDOF 6
ENDMDL
MODEL      220
REMARK 921   NORMALIZED FREE ENERGY PREDICTED BY IDOCK:   -3.81 KCAL/MOL
REMARK 922        TOTAL FREE ENERGY PREDICTED BY IDOCK:   -6.07 KCAL/MOL
REMARK 923 INTER-LIGAND FREE ENERGY PREDICTED BY IDOCK:   -5.37 KCAL/MOL
REMARK 924 INTRA-LIGAND FREE ENERGY PREDICTED BY IDOCK:   -0.69 KCAL/MOL
REMARK 927      BINDING AFFINITY PREDICTED BY RF-SCORE:    0.00 PKD
ROOT
HETATM    1 CL   UNL     1      -5.944  15.064  69.252  1.00  0.00    -0.102 Cl 
HETATM    2  C   UNL     1      -6.334  13.396  69.100  1.00  0.00    -0.102 A  
HETATM    3  C   UNL     1      -6.012  12.512  70.126  1.00  0.00    -0.142 A  
HETATM    4  C   UNL     1      -6.324  11.153  69.998  1.00  0.00    -0.147 A  
HETATM    5  C   UNL     1      -6.950  10.666  68.836  1.00  0.00    -0.073 A  
HETATM    6  C   UNL     1      -7.286  11.578  67.823  1.00  0.00    -0.094 A  
HETATM    7  C   UNL     1      -6.976  12.936  67.952  1.00  0.00    -0.122 A  
ENDROOT
BRANCH   5   8
HETATM    8  C   UNL     1      -7.324   9.198  68.717  1.00  0.00    -0.075 C  
BRANCH   8   9
HETATM    9  S   UNL     1      -8.502   8.777  70.035  1.00  0.00    -0.143 SA 
BRANCH   9  10
HETATM   10  C   UNL     1     -10.153   8.510  69.168  1.00  0.00    -0.203 C  
BRANCH  10  11
HETATM   11  C   UNL     1     -10.729   9.853  68.633  1.00  0.00    -0.256 A  
HETATM   12  C   UNL     1     -11.670  12.349  67.630  1.00  0.00    -0.346 A  
HETATM   13  C   UNL     1     -11.466  10.749  69.440  1.00  0.00    -0.295 A  
HETATM   14  C   UNL     1     -10.521  10.263  67.293  1.00  0.00    -0.307 A  
HETATM   15  C   UNL     1     -11.904  11.992  68.953  1.00  0.00    -0.356 A  
HETATM   16 CL   UNL     1     -12.227  13.859  67.024  1.00  0.00    -0.441 Cl 
HETATM   17 CL   UNL     1     -11.916  10.384  71.071  1.00  0.00    -0.463 Cl 
HETATM   18  C   UNL     1     -10.995  11.480  66.793  1.00  0.00    -0.347 A  
ENDBRANCH  10  11
BRANCH  10  19
HETATM   19  C   UNL     1     -11.154   7.707  70.041  1.00  0.00    -0.191 C  
BRANCH  19  20
HETATM   20  N   UNL     1     -10.711   6.378  70.405  1.00  0.00    -0.242 NA 
HETATM   21  C   UNL     1     -10.634   5.864  71.668  1.00  0.00    -0.241 A  
HETATM   22  N   UNL     1      -9.903   4.332  70.178  1.00  0.00    -0.219 NA 
HETATM   23  C   UNL     1     -10.074   4.623  71.509  1.00  0.00    -0.185 A  
HETATM   24  C   UNL     1     -10.324   5.399  69.537  1.00  0.00    -0.280 A  
ENDBRANCH  19  20
ENDBRANCH  10  19
ENDBRANCH   9  10
ENDBRANCH   8   9
ENDBRANCH   5   8
TORSDOF 6
ENDMDL
MODEL      221
REMARK 921   NORMALIZED FREE ENERGY PREDICTED BY IDOCK:   -3.80 KCAL/MOL
REMARK 922        TOTAL FREE ENERGY PREDICTED BY IDOCK:   -6.06 KCAL/MOL
REMARK 923 INTER-LIGAND FREE ENERGY PREDICTED BY IDOCK:   -4.96 KCAL/MOL
REMARK 924 INTRA-LIGAND FREE ENERGY PREDICTED BY IDOCK:   -1.10 KCAL/MOL
REMARK 927      BINDING AFFINITY PREDICTED BY RF-SCORE:    0.00 PKD
ROOT
HETATM    1 CL   UNL     1     -13.252  10.718  71.563  1.00  0.00    -0.468 Cl 
HETATM    2  C   UNL     1     -11.716  10.144  71.042  1.00  0.00    -0.382 A  
HETATM    3  C   UNL     1     -11.134  10.669  69.892  1.00  0.00    -0.364 A  
HETATM    4  C   UNL     1      -9.886  10.195  69.465  1.00  0.00    -0.255 A  
HETATM    5  C   UNL     1      -9.219   9.184  70.180  1.00  0.00    -0.231 A  
HETATM    6  C   UNL     1      -9.815   8.685  71.350  1.00  0.00    -0.327 A  
HETATM    7  C   UNL     1     -11.059   9.159  71.776  1.00  0.00    -0.437 A  
ENDROOT
BRANCH   5   8
HETATM    8  C   UNL     1      -7.848   8.701  69.738  1.00  0.00    -0.093 C  
BRANCH   8   9
HETATM    9  S   UNL     1      -7.948   6.937  69.315  1.00  0.00    -0.117 SA 
BRANCH   9  10
HETATM   10  C   UNL     1      -7.625   6.845  67.462  1.00  0.00    -0.109 C  
BRANCH  10  11
HETATM   11  C   UNL     1      -8.233   8.074  66.725  1.00  0.00    -0.111 A  
HETATM   12  C   UNL     1      -9.297  10.395  65.461  1.00  0.00    -0.197 A  
HETATM   13  C   UNL     1      -9.624   8.254  66.550  1.00  0.00    -0.244 A  
HETATM   14  C   UNL     1      -7.410   9.102  66.202  1.00  0.00    -0.095 A  
HETATM   15  C   UNL     1     -10.149   9.413  65.953  1.00  0.00    -0.243 A  
HETATM   16 CL   UNL     1      -9.935  11.803  64.707  1.00  0.00    -0.276 Cl 
HETATM   17 CL   UNL     1     -10.787   7.063  67.022  1.00  0.00    -0.441 Cl 
HETATM   18  C   UNL     1      -7.928  10.235  65.567  1.00  0.00    -0.151 A  
ENDBRANCH  10  11
BRANCH  10  19
HETATM   19  C   UNL     1      -8.052   5.481  66.856  1.00  0.00    -0.101 C  
BRANCH  19  20
HETATM   20  N   UNL     1      -7.497   5.197  65.550  1.00  0.00    -0.076 NA 
HETATM   21  C   UNL     1      -6.233   4.758  65.281  1.00  0.00    -0.034 A  
HETATM   22  N   UNL     1      -7.365   5.044  63.348  1.00  0.00    -0.049 NA 
HETATM   23  C   UNL     1      -6.153   4.731  63.913  1.00  0.00    -0.022 A  
HETATM   24  C   UNL     1      -8.162   5.292  64.362  1.00  0.00    -0.135 A  
ENDBRANCH  19  20
ENDBRANCH  10  19
ENDBRANCH   9  10
ENDBRANCH   8   9
ENDBRANCH   5   8
TORSDOF 6
ENDMDL
MODEL      222
REMARK 921   NORMALIZED FREE ENERGY PREDICTED BY IDOCK:   -3.80 KCAL/MOL
REMARK 922        TOTAL FREE ENERGY PREDICTED BY IDOCK:   -6.05 KCAL/MOL
REMARK 923 INTER-LIGAND FREE ENERGY PREDICTED BY IDOCK:   -5.39 KCAL/MOL
REMARK 924 INTRA-LIGAND FREE ENERGY PREDICTED BY IDOCK:   -0.66 KCAL/MOL
REMARK 927      BINDING AFFINITY PREDICTED BY RF-SCORE:    0.00 PKD
ROOT
HETATM    1 CL   UNL     1     -12.297  13.232  66.199  1.00  0.00    -0.452 Cl 
HETATM    2  C   UNL     1     -11.320  11.823  66.055  1.00  0.00    -0.273 A  
HETATM    3  C   UNL     1     -11.073  11.034  67.175  1.00  0.00    -0.333 A  
HETATM    4  C   UNL     1     -10.272   9.891  67.057  1.00  0.00    -0.294 A  
HETATM    5  C   UNL     1      -9.702   9.537  65.821  1.00  0.00    -0.357 A  
HETATM    6  C   UNL     1      -9.983  10.335  64.700  1.00  0.00    -0.377 A  
HETATM    7  C   UNL     1     -10.784  11.475  64.818  1.00  0.00    -0.366 A  
ENDROOT
BRANCH   5   8
HETATM    8  C   UNL     1      -8.867   8.275  65.686  1.00  0.00    -0.132 C  
BRANCH   8   9
HETATM    9  S   UNL     1      -7.957   7.997  67.234  1.00  0.00    -0.122 SA 
BRANCH   9  10
HETATM   10  C   UNL     1      -8.791   6.518  68.050  1.00  0.00    -0.114 C  
BRANCH  10  11
HETATM   11  C   UNL     1      -9.733   6.972  69.205  1.00  0.00    -0.156 A  
HETATM   12  C   UNL     1     -11.525   7.856  71.234  1.00  0.00    -0.265 A  
HETATM   13  C   UNL     1      -9.310   7.823  70.251  1.00  0.00    -0.156 A  
HETATM   14  C   UNL     1     -11.088   6.565  69.254  1.00  0.00    -0.393 A  
HETATM   15  C   UNL     1     -10.203   8.282  71.235  1.00  0.00    -0.253 A  
HETATM   16 CL   UNL     1     -12.613   8.396  72.452  1.00  0.00    -0.394 Cl 
HETATM   17 CL   UNL     1      -7.669   8.343  70.427  1.00  0.00    -0.074 Cl 
HETATM   18  C   UNL     1     -11.967   6.984  70.258  1.00  0.00    -0.197 A  
ENDBRANCH  10  11
BRANCH  10  19
HETATM   19  C   UNL     1      -7.774   5.424  68.470  1.00  0.00    -0.084 C  
BRANCH  19  20
HETATM   20  N   UNL     1      -8.217   4.065  68.244  1.00  0.00    -0.090 NA 
HETATM   21  C   UNL     1      -7.549   3.097  67.552  1.00  0.00    -0.065 A  
HETATM   22  N   UNL     1      -9.528   2.285  68.277  1.00  0.00    -0.209 NA 
HETATM   23  C   UNL     1      -8.404   2.026  67.531  1.00  0.00    -0.071 A  
HETATM   24  C   UNL     1      -9.371   3.513  68.717  1.00  0.00    -0.166 A  
ENDBRANCH  19  20
ENDBRANCH  10  19
ENDBRANCH   9  10
ENDBRANCH   8   9
ENDBRANCH   5   8
TORSDOF 6
ENDMDL
MODEL      223
REMARK 921   NORMALIZED FREE ENERGY PREDICTED BY IDOCK:   -3.80 KCAL/MOL
REMARK 922        TOTAL FREE ENERGY PREDICTED BY IDOCK:   -6.05 KCAL/MOL
REMARK 923 INTER-LIGAND FREE ENERGY PREDICTED BY IDOCK:   -5.44 KCAL/MOL
REMARK 924 INTRA-LIGAND FREE ENERGY PREDICTED BY IDOCK:   -0.61 KCAL/MOL
REMARK 927      BINDING AFFINITY PREDICTED BY RF-SCORE:    0.00 PKD
ROOT
HETATM    1 CL   UNL     1      -6.170   8.219  72.902  1.00  0.00    -0.078 Cl 
HETATM    2  C   UNL     1      -6.666   9.060  71.486  1.00  0.00    -0.052 A  
HETATM    3  C   UNL     1      -7.893   8.763  70.898  1.00  0.00    -0.137 A  
HETATM    4  C   UNL     1      -8.293   9.444  69.741  1.00  0.00    -0.161 A  
HETATM    5  C   UNL     1      -7.463  10.417  69.157  1.00  0.00    -0.112 A  
HETATM    6  C   UNL     1      -6.239  10.717  69.779  1.00  0.00    -0.085 A  
HETATM    7  C   UNL     1      -5.842  10.038  70.935  1.00  0.00    -0.088 A  
ENDROOT
BRANCH   5   8
HETATM    8  C   UNL     1      -7.916  11.183  67.925  1.00  0.00    -0.114 C  
BRANCH   8   9
HETATM    9  S   UNL     1      -7.703  10.131  66.460  1.00  0.00    -0.112 SA 
BRANCH   9  10
HETATM   10  C   UNL     1      -9.446   9.738  65.864  1.00  0.00    -0.226 C  
BRANCH  10  11
HETATM   11  C   UNL     1     -10.179  11.026  65.387  1.00  0.00    -0.333 A  
HETATM   12  C   UNL     1     -11.627  13.328  64.538  1.00  0.00    -0.369 A  
HETATM   13  C   UNL     1     -10.077  11.525  64.068  1.00  0.00    -0.321 A  
HETATM   14  C   UNL     1     -11.016  11.764  66.259  1.00  0.00    -0.346 A  
HETATM   15  C   UNL     1     -10.815  12.643  63.643  1.00  0.00    -0.437 A  
HETATM   16 CL   UNL     1     -12.511  14.712  64.027  1.00  0.00    -0.268 Cl 
HETATM   17 CL   UNL     1      -9.024  10.829  62.885  1.00  0.00    -0.247 Cl 
HETATM   18  C   UNL     1     -11.716  12.904  65.850  1.00  0.00    -0.449 A  
ENDBRANCH  10  11
BRANCH  10  19
HETATM   19  C   UNL     1     -10.251   8.910  66.900  1.00  0.00    -0.276 C  
BRANCH  19  20
HETATM   20  N   UNL     1     -10.077   7.477  66.799  1.00  0.00    -0.249 NA 
HETATM   21  C   UNL     1      -8.940   6.821  66.425  1.00  0.00    -0.149 A  
HETATM   22  N   UNL     1     -10.583   5.325  66.827  1.00  0.00    -0.276 NA 
HETATM   23  C   UNL     1      -9.293   5.497  66.388  1.00  0.00    -0.152 A  
HETATM   24  C   UNL     1     -11.018   6.535  67.094  1.00  0.00    -0.408 A  
ENDBRANCH  19  20
ENDBRANCH  10  19
ENDBRANCH   9  10
ENDBRANCH   8   9
ENDBRANCH   5   8
TORSDOF 6
ENDMDL
MODEL      224
REMARK 921   NORMALIZED FREE ENERGY PREDICTED BY IDOCK:   -3.79 KCAL/MOL
REMARK 922        TOTAL FREE ENERGY PREDICTED BY IDOCK:   -6.04 KCAL/MOL
REMARK 923 INTER-LIGAND FREE ENERGY PREDICTED BY IDOCK:   -5.01 KCAL/MOL
REMARK 924 INTRA-LIGAND FREE ENERGY PREDICTED BY IDOCK:   -1.03 KCAL/MOL
REMARK 927      BINDING AFFINITY PREDICTED BY RF-SCORE:    0.00 PKD
ROOT
HETATM    1 CL   UNL     1     -12.745  11.168  70.605  1.00  0.00    -0.378 Cl 
HETATM    2  C   UNL     1     -11.408  10.183  70.157  1.00  0.00    -0.303 A  
HETATM    3  C   UNL     1     -11.186   9.885  68.815  1.00  0.00    -0.122 A  
HETATM    4  C   UNL     1     -10.101   9.077  68.451  1.00  0.00    -0.216 A  
HETATM    5  C   UNL     1      -9.237   8.552  69.429  1.00  0.00    -0.153 A  
HETATM    6  C   UNL     1      -9.467   8.883  70.775  1.00  0.00    -0.280 A  
HETATM    7  C   UNL     1     -10.550   9.691  71.137  1.00  0.00    -0.327 A  
ENDROOT
BRANCH   5   8
HETATM    8  C   UNL     1      -8.037   7.710  69.030  1.00  0.00    -0.126 C  
BRANCH   8   9
HETATM    9  S   UNL     1      -7.748   6.447  70.303  1.00  0.00    -0.100 SA 
BRANCH   9  10
HETATM   10  C   UNL     1      -9.139   5.194  70.096  1.00  0.00    -0.128 C  
BRANCH  10  11
HETATM   11  C   UNL     1      -9.405   4.896  68.591  1.00  0.00    -0.182 A  
HETATM   12  C   UNL     1     -10.001   4.305  65.869  1.00  0.00    -0.219 A  
HETATM   13  C   UNL     1      -8.618   3.997  67.836  1.00  0.00    -0.097 A  
HETATM   14  C   UNL     1     -10.480   5.503  67.897  1.00  0.00    -0.244 A  
HETATM   15  C   UNL     1      -8.931   3.684  66.502  1.00  0.00    -0.152 A  
HETATM   16 CL   UNL     1     -10.370   3.943  64.228  1.00  0.00    -0.246 Cl 
HETATM   17 CL   UNL     1      -7.200   3.236  68.470  1.00  0.00    -0.050 Cl 
HETATM   18  C   UNL     1     -10.766   5.228  66.556  1.00  0.00    -0.290 A  
ENDBRANCH  10  11
BRANCH  10  19
HETATM   19  C   UNL     1     -10.414   5.592  70.887  1.00  0.00    -0.249 C  
BRANCH  19  20
HETATM   20  N   UNL     1     -10.397   5.228  72.288  1.00  0.00    -0.206 NA 
HETATM   21  C   UNL     1     -10.300   3.967  72.799  1.00  0.00    -0.164 A  
HETATM   22  N   UNL     1     -10.490   5.458  74.485  1.00  0.00    -0.294 NA 
HETATM   23  C   UNL     1     -10.422   4.126  74.155  1.00  0.00    -0.233 A  
HETATM   24  C   UNL     1     -10.443   6.097  73.338  1.00  0.00    -0.253 A  
ENDBRANCH  19  20
ENDBRANCH  10  19
ENDBRANCH   9  10
ENDBRANCH   8   9
ENDBRANCH   5   8
TORSDOF 6
ENDMDL
MODEL      225
REMARK 921   NORMALIZED FREE ENERGY PREDICTED BY IDOCK:   -3.79 KCAL/MOL
REMARK 922        TOTAL FREE ENERGY PREDICTED BY IDOCK:   -6.04 KCAL/MOL
REMARK 923 INTER-LIGAND FREE ENERGY PREDICTED BY IDOCK:   -5.58 KCAL/MOL
REMARK 924 INTRA-LIGAND FREE ENERGY PREDICTED BY IDOCK:   -0.45 KCAL/MOL
REMARK 927      BINDING AFFINITY PREDICTED BY RF-SCORE:    0.00 PKD
ROOT
HETATM    1 CL   UNL     1     -11.141   1.891  74.104  1.00  0.00    -0.217 Cl 
HETATM    2  C   UNL     1     -10.642   3.320  73.287  1.00  0.00    -0.182 A  
HETATM    3  C   UNL     1     -10.738   4.553  73.926  1.00  0.00    -0.349 A  
HETATM    4  C   UNL     1     -10.337   5.716  73.256  1.00  0.00    -0.234 A  
HETATM    5  C   UNL     1      -9.849   5.655  71.938  1.00  0.00    -0.203 A  
HETATM    6  C   UNL     1      -9.740   4.398  71.321  1.00  0.00    -0.252 A  
HETATM    7  C   UNL     1     -10.138   3.237  71.991  1.00  0.00    -0.178 A  
ENDROOT
BRANCH   5   8
HETATM    8  C   UNL     1      -9.377   6.913  71.229  1.00  0.00    -0.164 C  
BRANCH   8   9
HETATM    9  S   UNL     1      -9.744   6.767  69.456  1.00  0.00    -0.150 SA 
BRANCH   9  10
HETATM   10  C   UNL     1     -10.167   8.512  68.884  1.00  0.00    -0.207 C  
BRANCH  10  11
HETATM   11  C   UNL     1      -9.422   8.865  67.563  1.00  0.00    -0.172 A  
HETATM   12  C   UNL     1      -7.958   9.525  65.211  1.00  0.00    -0.112 A  
HETATM   13  C   UNL     1      -9.745   9.996  66.779  1.00  0.00    -0.189 A  
HETATM   14  C   UNL     1      -8.352   8.071  67.084  1.00  0.00    -0.121 A  
HETATM   15  C   UNL     1      -9.003  10.337  65.635  1.00  0.00    -0.198 A  
HETATM   16 CL   UNL     1      -7.065   9.926  63.797  1.00  0.00    -0.123 Cl 
HETATM   17 CL   UNL     1     -11.086  11.030  67.137  1.00  0.00    -0.349 Cl 
HETATM   18  C   UNL     1      -7.641   8.383  65.921  1.00  0.00    -0.082 A  
ENDBRANCH  10  11
BRANCH  10  19
HETATM   19  C   UNL     1      -9.974   9.564  70.009  1.00  0.00    -0.237 C  
BRANCH  19  20
HETATM   20  N   UNL     1     -11.201  10.041  70.610  1.00  0.00    -0.328 NA 
HETATM   21  C   UNL     1     -11.870  11.188  70.291  1.00  0.00    -0.366 A  
HETATM   22  N   UNL     1     -12.939  10.126  71.975  1.00  0.00    -0.427 NA 
HETATM   23  C   UNL     1     -12.905  11.252  71.188  1.00  0.00    -0.352 A  
HETATM   24  C   UNL     1     -11.915   9.403  71.581  1.00  0.00    -0.393 A  
ENDBRANCH  19  20
ENDBRANCH  10  19
ENDBRANCH   9  10
ENDBRANCH   8   9
ENDBRANCH   5   8
TORSDOF 6
ENDMDL
MODEL      226
REMARK 921   NORMALIZED FREE ENERGY PREDICTED BY IDOCK:   -3.78 KCAL/MOL
REMARK 922        TOTAL FREE ENERGY PREDICTED BY IDOCK:   -6.02 KCAL/MOL
REMARK 923 INTER-LIGAND FREE ENERGY PREDICTED BY IDOCK:   -4.84 KCAL/MOL
REMARK 924 INTRA-LIGAND FREE ENERGY PREDICTED BY IDOCK:   -1.18 KCAL/MOL
REMARK 927      BINDING AFFINITY PREDICTED BY RF-SCORE:    0.00 PKD
ROOT
HETATM    1 CL   UNL     1      -8.875   1.779  66.510  1.00  0.00    -0.123 Cl 
HETATM    2  C   UNL     1      -8.656   3.483  66.586  1.00  0.00    -0.113 A  
HETATM    3  C   UNL     1      -9.742   4.309  66.861  1.00  0.00    -0.239 A  
HETATM    4  C   UNL     1      -9.564   5.698  66.916  1.00  0.00    -0.151 A  
HETATM    5  C   UNL     1      -8.300   6.270  66.684  1.00  0.00    -0.112 A  
HETATM    6  C   UNL     1      -7.214   5.416  66.431  1.00  0.00    -0.077 A  
HETATM    7  C   UNL     1      -7.392   4.030  66.378  1.00  0.00    -0.076 A  
ENDROOT
BRANCH   5   8
HETATM    8  C   UNL     1      -8.100   7.772  66.785  1.00  0.00    -0.115 C  
BRANCH   8   9
HETATM    9  S   UNL     1      -7.720   8.206  68.508  1.00  0.00    -0.114 SA 
BRANCH   9  10
HETATM   10  C   UNL     1      -9.345   8.805  69.247  1.00  0.00    -0.149 C  
BRANCH  10  11
HETATM   11  C   UNL     1      -9.885   7.798  70.306  1.00  0.00    -0.184 A  
HETATM   12  C   UNL     1     -10.906   5.883  72.151  1.00  0.00    -0.241 A  
HETATM   13  C   UNL     1     -10.933   8.113  71.200  1.00  0.00    -0.237 A  
HETATM   14  C   UNL     1      -9.358   6.488  70.413  1.00  0.00    -0.166 A  
HETATM   15  C   UNL     1     -11.456   7.158  72.089  1.00  0.00    -0.306 A  
HETATM   16 CL   UNL     1     -11.526   4.721  73.257  1.00  0.00    -0.411 Cl 
HETATM   17 CL   UNL     1     -11.637   9.690  71.298  1.00  0.00    -0.435 Cl 
HETATM   18  C   UNL     1      -9.846   5.550  71.329  1.00  0.00    -0.228 A  
ENDBRANCH  10  11
BRANCH  10  19
HETATM   19  C   UNL     1     -10.386   9.181  68.159  1.00  0.00    -0.216 C  
BRANCH  19  20
HETATM   20  N   UNL     1     -10.598  10.602  67.988  1.00  0.00    -0.194 NA 
HETATM   21  C   UNL     1     -11.780  11.271  68.132  1.00  0.00    -0.253 A  
HETATM   22  N   UNL     1     -10.157  12.718  67.519  1.00  0.00    -0.211 NA 
HETATM   23  C   UNL     1     -11.497  12.564  67.777  1.00  0.00    -0.321 A  
HETATM   24  C   UNL     1      -9.638  11.522  67.684  1.00  0.00    -0.171 A  
ENDBRANCH  19  20
ENDBRANCH  10  19
ENDBRANCH   9  10
ENDBRANCH   8   9
ENDBRANCH   5   8
TORSDOF 6
ENDMDL
MODEL      227
REMARK 921   NORMALIZED FREE ENERGY PREDICTED BY IDOCK:   -3.77 KCAL/MOL
REMARK 922        TOTAL FREE ENERGY PREDICTED BY IDOCK:   -6.02 KCAL/MOL
REMARK 923 INTER-LIGAND FREE ENERGY PREDICTED BY IDOCK:   -5.21 KCAL/MOL
REMARK 924 INTRA-LIGAND FREE ENERGY PREDICTED BY IDOCK:   -0.81 KCAL/MOL
REMARK 927      BINDING AFFINITY PREDICTED BY RF-SCORE:    0.00 PKD
ROOT
HETATM    1 CL   UNL     1     -10.606  16.886  67.355  1.00  0.00    -0.320 Cl 
HETATM    2  C   UNL     1     -10.830  15.182  67.420  1.00  0.00    -0.302 A  
HETATM    3  C   UNL     1     -10.052  14.413  68.281  1.00  0.00    -0.239 A  
HETATM    4  C   UNL     1     -10.232  13.024  68.328  1.00  0.00    -0.246 A  
HETATM    5  C   UNL     1     -11.182  12.394  67.505  1.00  0.00    -0.348 A  
HETATM    6  C   UNL     1     -11.971  13.192  66.660  1.00  0.00    -0.451 A  
HETATM    7  C   UNL     1     -11.793  14.578  66.615  1.00  0.00    -0.383 A  
ENDROOT
BRANCH   5   8
HETATM    8  C   UNL     1     -11.403  10.894  67.587  1.00  0.00    -0.270 C  
BRANCH   8   9
HETATM    9  S   UNL     1     -10.228  10.059  66.481  1.00  0.00    -0.203 SA 
BRANCH   9  10
HETATM   10  C   UNL     1      -9.126   9.024  67.605  1.00  0.00    -0.133 C  
BRANCH  10  11
HETATM   11  C   UNL     1      -9.228   7.511  67.252  1.00  0.00    -0.152 A  
HETATM   12  C   UNL     1      -9.483   4.727  66.704  1.00  0.00    -0.155 A  
HETATM   13  C   UNL     1      -8.103   6.657  67.207  1.00  0.00    -0.121 A  
HETATM   14  C   UNL     1     -10.475   6.901  66.975  1.00  0.00    -0.374 A  
HETATM   15  C   UNL     1      -8.234   5.278  66.966  1.00  0.00    -0.108 A  
HETATM   16 CL   UNL     1      -9.642   3.045  66.384  1.00  0.00    -0.010 Cl 
HETATM   17 CL   UNL     1      -6.484   7.230  67.411  1.00  0.00    -0.057 Cl 
HETATM   18  C   UNL     1     -10.603   5.537  66.689  1.00  0.00    -0.365 A  
ENDBRANCH  10  11
BRANCH  10  19
HETATM   19  C   UNL     1      -9.363   9.331  69.108  1.00  0.00    -0.157 C  
BRANCH  19  20
HETATM   20  N   UNL     1      -8.167   9.648  69.858  1.00  0.00    -0.156 NA 
HETATM   21  C   UNL     1      -7.288  10.660  69.598  1.00  0.00    -0.130 A  
HETATM   22  N   UNL     1      -6.575   9.473  71.383  1.00  0.00    -0.298 NA 
HETATM   23  C   UNL     1      -6.281  10.495  70.513  1.00  0.00    -0.108 A  
HETATM   24  C   UNL     1      -7.733   9.002  70.978  1.00  0.00    -0.125 A  
ENDBRANCH  19  20
ENDBRANCH  10  19
ENDBRANCH   9  10
ENDBRANCH   8   9
ENDBRANCH   5   8
TORSDOF 6
ENDMDL
MODEL      228
REMARK 921   NORMALIZED FREE ENERGY PREDICTED BY IDOCK:   -3.77 KCAL/MOL
REMARK 922        TOTAL FREE ENERGY PREDICTED BY IDOCK:   -6.01 KCAL/MOL
REMARK 923 INTER-LIGAND FREE ENERGY PREDICTED BY IDOCK:   -5.25 KCAL/MOL
REMARK 924 INTRA-LIGAND FREE ENERGY PREDICTED BY IDOCK:   -0.76 KCAL/MOL
REMARK 927      BINDING AFFINITY PREDICTED BY RF-SCORE:    0.00 PKD
ROOT
HETATM    1 CL   UNL     1     -12.282  12.294  63.255  1.00  0.00    -0.587 Cl 
HETATM    2  C   UNL     1     -11.556  11.882  64.758  1.00  0.00    -0.236 A  
HETATM    3  C   UNL     1     -12.143  12.302  65.949  1.00  0.00    -0.261 A  
HETATM    4  C   UNL     1     -11.547  11.970  67.173  1.00  0.00    -0.387 A  
HETATM    5  C   UNL     1     -10.353  11.228  67.213  1.00  0.00    -0.236 A  
HETATM    6  C   UNL     1      -9.791  10.795  66.001  1.00  0.00    -0.285 A  
HETATM    7  C   UNL     1     -10.387  11.125  64.779  1.00  0.00    -0.387 A  
ENDROOT
BRANCH   5   8
HETATM    8  C   UNL     1      -9.731  10.835  68.542  1.00  0.00    -0.182 C  
BRANCH   8   9
HETATM    9  S   UNL     1     -10.897   9.783  69.456  1.00  0.00    -0.235 SA 
BRANCH   9  10
HETATM   10  C   UNL     1     -10.025   8.126  69.662  1.00  0.00    -0.193 C  
BRANCH  10  11
HETATM   11  C   UNL     1      -9.183   7.774  68.400  1.00  0.00    -0.137 A  
HETATM   12  C   UNL     1      -7.618   7.249  66.078  1.00  0.00    -0.089 A  
HETATM   13  C   UNL     1      -9.741   7.178  67.247  1.00  0.00    -0.155 A  
HETATM   14  C   UNL     1      -7.798   8.059  68.335  1.00  0.00    -0.122 A  
HETATM   15  C   UNL     1      -8.974   6.946  66.091  1.00  0.00    -0.157 A  
HETATM   16 CL   UNL     1      -6.672   6.944  64.675  1.00  0.00    -0.042 Cl 
HETATM   17 CL   UNL     1     -11.389   6.658  67.167  1.00  0.00    -0.300 Cl 
HETATM   18  C   UNL     1      -7.022   7.788  67.203  1.00  0.00    -0.077 A  
ENDBRANCH  10  11
BRANCH  10  19
HETATM   19  C   UNL     1     -10.998   6.997  70.095  1.00  0.00    -0.272 C  
BRANCH  19  20
HETATM   20  N   UNL     1     -10.423   6.007  70.980  1.00  0.00    -0.219 NA 
HETATM   21  C   UNL     1     -10.326   6.089  72.339  1.00  0.00    -0.194 A  
HETATM   22  N   UNL     1      -9.390   4.161  71.626  1.00  0.00    -0.132 NA 
HETATM   23  C   UNL     1      -9.629   4.969  72.711  1.00  0.00    -0.142 A  
HETATM   24  C   UNL     1      -9.907   4.802  70.602  1.00  0.00    -0.222 A  
ENDBRANCH  19  20
ENDBRANCH  10  19
ENDBRANCH   9  10
ENDBRANCH   8   9
ENDBRANCH   5   8
TORSDOF 6
ENDMDL
MODEL      229
REMARK 921   NORMALIZED FREE ENERGY PREDICTED BY IDOCK:   -3.76 KCAL/MOL
REMARK 922        TOTAL FREE ENERGY PREDICTED BY IDOCK:   -6.01 KCAL/MOL
REMARK 923 INTER-LIGAND FREE ENERGY PREDICTED BY IDOCK:   -5.13 KCAL/MOL
REMARK 924 INTRA-LIGAND FREE ENERGY PREDICTED BY IDOCK:   -0.87 KCAL/MOL
REMARK 927      BINDING AFFINITY PREDICTED BY RF-SCORE:    0.00 PKD
ROOT
HETATM    1 CL   UNL     1      -6.987   2.002  69.593  1.00  0.00    -0.033 Cl 
HETATM    2  C   UNL     1      -7.677   3.251  68.631  1.00  0.00    -0.055 A  
HETATM    3  C   UNL     1      -9.018   3.589  68.792  1.00  0.00    -0.184 A  
HETATM    4  C   UNL     1      -9.579   4.602  68.004  1.00  0.00    -0.207 A  
HETATM    5  C   UNL     1      -8.806   5.275  67.042  1.00  0.00    -0.109 A  
HETATM    6  C   UNL     1      -7.450   4.934  66.912  1.00  0.00    -0.087 A  
HETATM    7  C   UNL     1      -6.889   3.924  67.700  1.00  0.00    -0.054 A  
ENDROOT
BRANCH   5   8
HETATM    8  C   UNL     1      -9.406   6.402  66.217  1.00  0.00    -0.118 C  
BRANCH   8   9
HETATM    9  S   UNL     1     -10.743   7.184  67.165  1.00  0.00    -0.325 SA 
BRANCH   9  10
HETATM   10  C   UNL     1     -10.026   8.805  67.804  1.00  0.00    -0.194 C  
BRANCH  10  11
HETATM   11  C   UNL     1     -10.445   9.999  66.898  1.00  0.00    -0.284 A  
HETATM   12  C   UNL     1     -11.095  12.213  65.227  1.00  0.00    -0.321 A  
HETATM   13  C   UNL     1     -11.232  11.077  67.364  1.00  0.00    -0.285 A  
HETATM   14  C   UNL     1     -10.035  10.079  65.545  1.00  0.00    -0.367 A  
HETATM   15  C   UNL     1     -11.527  12.183  66.548  1.00  0.00    -0.430 A  
HETATM   16 CL   UNL     1     -11.476  13.553  64.218  1.00  0.00    -0.411 Cl 
HETATM   17 CL   UNL     1     -11.919  11.115  68.952  1.00  0.00    -0.402 Cl 
HETATM   18  C   UNL     1     -10.365  11.156  64.717  1.00  0.00    -0.387 A  
ENDBRANCH  10  11
BRANCH  10  19
HETATM   19  C   UNL     1      -8.496   8.716  68.051  1.00  0.00    -0.127 C  
BRANCH  19  20
HETATM   20  N   UNL     1      -8.115   8.518  69.432  1.00  0.00    -0.110 NA 
HETATM   21  C   UNL     1      -8.245   7.368  70.155  1.00  0.00    -0.133 A  
HETATM   22  N   UNL     1      -7.375   8.991  71.462  1.00  0.00    -0.293 NA 
HETATM   23  C   UNL     1      -7.841   7.700  71.422  1.00  0.00    -0.089 A  
HETATM   24  C   UNL     1      -7.527   9.448  70.240  1.00  0.00    -0.128 A  
ENDBRANCH  19  20
ENDBRANCH  10  19
ENDBRANCH   9  10
ENDBRANCH   8   9
ENDBRANCH   5   8
TORSDOF 6
ENDMDL
MODEL      230
REMARK 921   NORMALIZED FREE ENERGY PREDICTED BY IDOCK:   -3.76 KCAL/MOL
REMARK 922        TOTAL FREE ENERGY PREDICTED BY IDOCK:   -6.00 KCAL/MOL
REMARK 923 INTER-LIGAND FREE ENERGY PREDICTED BY IDOCK:   -5.83 KCAL/MOL
REMARK 924 INTRA-LIGAND FREE ENERGY PREDICTED BY IDOCK:   -0.17 KCAL/MOL
REMARK 927      BINDING AFFINITY PREDICTED BY RF-SCORE:    0.00 PKD
ROOT
HETATM    1 CL   UNL     1     -13.400  15.743  71.845  1.00  0.00    -0.514 Cl 
HETATM    2  C   UNL     1     -12.173  15.125  70.810  1.00  0.00    -0.340 A  
HETATM    3  C   UNL     1     -12.225  13.799  70.389  1.00  0.00    -0.433 A  
HETATM    4  C   UNL     1     -11.220  13.296  69.551  1.00  0.00    -0.163 A  
HETATM    5  C   UNL     1     -10.151  14.111  69.141  1.00  0.00    -0.023 A  
HETATM    6  C   UNL     1     -10.131  15.452  69.560  1.00  0.00    -0.278 A  
HETATM    7  C   UNL     1     -11.134  15.955  70.394  1.00  0.00    -0.382 A  
ENDROOT
BRANCH   5   8
HETATM    8  C   UNL     1      -9.086  13.575  68.200  1.00  0.00    -0.199 C  
BRANCH   8   9
HETATM    9  S   UNL     1      -8.673  11.872  68.680  1.00  0.00     0.041 SA 
BRANCH   9  10
HETATM   10  C   UNL     1      -8.411  10.942  67.063  1.00  0.00    -0.132 C  
BRANCH  10  11
HETATM   11  C   UNL     1      -9.522  11.291  66.029  1.00  0.00    -0.240 A  
HETATM   12  C   UNL     1     -11.629  11.851  64.196  1.00  0.00    -0.351 A  
HETATM   13  C   UNL     1      -9.399  11.015  64.649  1.00  0.00    -0.205 A  
HETATM   14  C   UNL     1     -10.740  11.891  66.430  1.00  0.00    -0.303 A  
HETATM   15  C   UNL     1     -10.451  11.265  63.750  1.00  0.00    -0.459 A  
HETATM   16 CL   UNL     1     -12.908  12.182  63.094  1.00  0.00    -0.382 Cl 
HETATM   17 CL   UNL     1      -7.950  10.382  63.946  1.00  0.00    -0.119 Cl 
HETATM   18  C   UNL     1     -11.771  12.183  65.530  1.00  0.00    -0.384 A  
ENDBRANCH  10  11
BRANCH  10  19
HETATM   19  C   UNL     1      -8.220   9.418  67.283  1.00  0.00    -0.117 C  
BRANCH  19  20
HETATM   20  N   UNL     1      -8.976   8.865  68.386  1.00  0.00    -0.134 NA 
HETATM   21  C   UNL     1      -8.480   8.471  69.595  1.00  0.00    -0.130 A  
HETATM   22  N   UNL     1     -10.704   8.081  69.522  1.00  0.00    -0.215 NA 
HETATM   23  C   UNL     1      -9.553   7.933  70.257  1.00  0.00    -0.171 A  
HETATM   24  C   UNL     1     -10.326   8.672  68.411  1.00  0.00    -0.201 A  
ENDBRANCH  19  20
ENDBRANCH  10  19
ENDBRANCH   9  10
ENDBRANCH   8   9
ENDBRANCH   5   8
TORSDOF 6
ENDMDL
MODEL      231
REMARK 921   NORMALIZED FREE ENERGY PREDICTED BY IDOCK:   -3.76 KCAL/MOL
REMARK 922        TOTAL FREE ENERGY PREDICTED BY IDOCK:   -6.00 KCAL/MOL
REMARK 923 INTER-LIGAND FREE ENERGY PREDICTED BY IDOCK:   -4.86 KCAL/MOL
REMARK 924 INTRA-LIGAND FREE ENERGY PREDICTED BY IDOCK:   -1.14 KCAL/MOL
REMARK 927      BINDING AFFINITY PREDICTED BY RF-SCORE:    0.00 PKD
ROOT
HETATM    1 CL   UNL     1      -7.093  12.384  67.354  1.00  0.00    -0.148 Cl 
HETATM    2  C   UNL     1      -7.155  10.837  68.105  1.00  0.00    -0.078 A  
HETATM    3  C   UNL     1      -6.973   9.688  67.339  1.00  0.00    -0.084 A  
HETATM    4  C   UNL     1      -7.031   8.429  67.951  1.00  0.00    -0.078 A  
HETATM    5  C   UNL     1      -7.283   8.310  69.329  1.00  0.00    -0.064 A  
HETATM    6  C   UNL     1      -7.442   9.483  70.086  1.00  0.00    -0.137 A  
HETATM    7  C   UNL     1      -7.382  10.740  69.475  1.00  0.00    -0.125 A  
ENDROOT
BRANCH   5   8
HETATM    8  C   UNL     1      -7.304   6.945  69.997  1.00  0.00    -0.082 C  
BRANCH   8   9
HETATM    9  S   UNL     1      -8.413   7.006  71.435  1.00  0.00    -0.113 SA 
BRANCH   9  10
HETATM   10  C   UNL     1     -10.157   6.898  70.731  1.00  0.00    -0.194 C  
BRANCH  10  11
HETATM   11  C   UNL     1     -10.154   6.230  69.324  1.00  0.00    -0.213 A  
HETATM   12  C   UNL     1     -10.263   5.042  66.737  1.00  0.00    -0.248 A  
HETATM   13  C   UNL     1      -9.939   4.846  69.132  1.00  0.00    -0.182 A  
HETATM   14  C   UNL     1     -10.390   6.984  68.149  1.00  0.00    -0.226 A  
HETATM   15  C   UNL     1     -10.023   4.257  67.859  1.00  0.00    -0.055 A  
HETATM   16 CL   UNL     1     -10.341   4.327  65.175  1.00  0.00    -0.251 Cl 
HETATM   17 CL   UNL     1      -9.530   3.775  70.427  1.00  0.00    -0.240 Cl 
HETATM   18  C   UNL     1     -10.429   6.407  66.876  1.00  0.00    -0.340 A  
ENDBRANCH  10  11
BRANCH  10  19
HETATM   19  C   UNL     1     -10.895   8.262  70.771  1.00  0.00    -0.227 C  
BRANCH  19  20
HETATM   20  N   UNL     1     -12.282   8.190  71.178  1.00  0.00    -0.278 NA 
HETATM   21  C   UNL     1     -13.087   9.240  71.512  1.00  0.00    -0.363 A  
HETATM   22  N   UNL     1     -14.230   7.305  71.738  1.00  0.00    -0.411 NA 
HETATM   23  C   UNL     1     -14.265   8.667  71.915  1.00  0.00    -0.427 A  
HETATM   24  C   UNL     1     -13.031   7.053  71.264  1.00  0.00    -0.297 A  
ENDBRANCH  19  20
ENDBRANCH  10  19
ENDBRANCH   9  10
ENDBRANCH   8   9
ENDBRANCH   5   8
TORSDOF 6
ENDMDL
MODEL      232
REMARK 921   NORMALIZED FREE ENERGY PREDICTED BY IDOCK:   -3.75 KCAL/MOL
REMARK 922        TOTAL FREE ENERGY PREDICTED BY IDOCK:   -5.99 KCAL/MOL
REMARK 923 INTER-LIGAND FREE ENERGY PREDICTED BY IDOCK:   -5.58 KCAL/MOL
REMARK 924 INTRA-LIGAND FREE ENERGY PREDICTED BY IDOCK:   -0.41 KCAL/MOL
REMARK 927      BINDING AFFINITY PREDICTED BY RF-SCORE:    0.00 PKD
ROOT
HETATM    1 CL   UNL     1      -6.300   3.403  69.021  1.00  0.00    -0.029 Cl 
HETATM    2  C   UNL     1      -7.596   4.520  68.849  1.00  0.00    -0.060 A  
HETATM    3  C   UNL     1      -8.864   4.186  69.317  1.00  0.00    -0.142 A  
HETATM    4  C   UNL     1      -9.921   5.094  69.171  1.00  0.00    -0.273 A  
HETATM    5  C   UNL     1      -9.719   6.337  68.544  1.00  0.00    -0.137 A  
HETATM    6  C   UNL     1      -8.427   6.662  68.100  1.00  0.00    -0.116 A  
HETATM    7  C   UNL     1      -7.372   5.755  68.248  1.00  0.00    -0.080 A  
ENDROOT
BRANCH   5   8
HETATM    8  C   UNL     1     -10.857   7.337  68.424  1.00  0.00    -0.058 C  
BRANCH   8   9
HETATM    9  S   UNL     1     -10.174   8.962  67.984  1.00  0.00    -0.221 SA 
BRANCH   9  10
HETATM   10  C   UNL     1     -10.450  10.050  69.497  1.00  0.00    -0.240 C  
BRANCH  10  11
HETATM   11  C   UNL     1     -10.376   9.215  70.809  1.00  0.00    -0.323 A  
HETATM   12  C   UNL     1     -10.184   7.600  73.148  1.00  0.00    -0.342 A  
HETATM   13  C   UNL     1     -11.525   8.760  71.495  1.00  0.00    -0.305 A  
HETATM   14  C   UNL     1      -9.134   8.845  71.379  1.00  0.00    -0.318 A  
HETATM   15  C   UNL     1     -11.429   7.939  72.632  1.00  0.00    -0.454 A  
HETATM   16 CL   UNL     1     -10.063   6.617  74.554  1.00  0.00    -0.355 Cl 
HETATM   17 CL   UNL     1     -13.131   9.193  71.020  1.00  0.00    -0.179 Cl 
HETATM   18  C   UNL     1      -9.035   8.066  72.537  1.00  0.00    -0.256 A  
ENDBRANCH  10  11
BRANCH  10  19
HETATM   19  C   UNL     1     -11.736  10.911  69.378  1.00  0.00    -0.325 C  
BRANCH  19  20
HETATM   20  N   UNL     1     -11.504  12.314  69.112  1.00  0.00    -0.277 NA 
HETATM   21  C   UNL     1     -10.753  12.836  68.098  1.00  0.00    -0.226 A  
HETATM   22  N   UNL     1     -11.569  14.508  69.379  1.00  0.00    -0.285 NA 
HETATM   23  C   UNL     1     -10.755  14.189  68.319  1.00  0.00    -0.249 A  
HETATM   24  C   UNL     1     -12.028  13.358  69.817  1.00  0.00    -0.330 A  
ENDBRANCH  19  20
ENDBRANCH  10  19
ENDBRANCH   9  10
ENDBRANCH   8   9
ENDBRANCH   5   8
TORSDOF 6
ENDMDL
MODEL      233
REMARK 921   NORMALIZED FREE ENERGY PREDICTED BY IDOCK:   -3.72 KCAL/MOL
REMARK 922        TOTAL FREE ENERGY PREDICTED BY IDOCK:   -5.95 KCAL/MOL
REMARK 923 INTER-LIGAND FREE ENERGY PREDICTED BY IDOCK:   -5.09 KCAL/MOL
REMARK 924 INTRA-LIGAND FREE ENERGY PREDICTED BY IDOCK:   -0.86 KCAL/MOL
REMARK 927      BINDING AFFINITY PREDICTED BY RF-SCORE:    0.00 PKD
ROOT
HETATM    1 CL   UNL     1      -5.406   7.368  67.285  1.00  0.00    -0.027 Cl 
HETATM    2  C   UNL     1      -6.729   8.317  67.840  1.00  0.00    -0.065 A  
HETATM    3  C   UNL     1      -8.016   7.788  67.824  1.00  0.00    -0.124 A  
HETATM    4  C   UNL     1      -9.093   8.565  68.270  1.00  0.00    -0.138 A  
HETATM    5  C   UNL     1      -8.891   9.881  68.723  1.00  0.00    -0.136 A  
HETATM    6  C   UNL     1      -7.581  10.387  68.751  1.00  0.00    -0.097 A  
HETATM    7  C   UNL     1      -6.506   9.610  68.307  1.00  0.00    -0.056 A  
ENDROOT
BRANCH   5   8
HETATM    8  C   UNL     1     -10.054  10.707  69.244  1.00  0.00    -0.206 C  
BRANCH   8   9
HETATM    9  S   UNL     1     -11.252  10.960  67.902  1.00  0.00    -0.315 SA 
BRANCH   9  10
HETATM   10  C   UNL     1     -10.247  11.606  66.446  1.00  0.00    -0.221 C  
BRANCH  10  11
HETATM   11  C   UNL     1      -9.990  13.136  66.577  1.00  0.00    -0.268 A  
HETATM   12  C   UNL     1      -9.491  15.918  66.935  1.00  0.00    -0.227 A  
HETATM   13  C   UNL     1     -10.998  14.105  66.372  1.00  0.00    -0.311 A  
HETATM   14  C   UNL     1      -8.717  13.642  66.936  1.00  0.00    -0.162 A  
HETATM   15  C   UNL     1     -10.759  15.475  66.578  1.00  0.00    -0.304 A  
HETATM   16 CL   UNL     1      -9.189  17.596  67.162  1.00  0.00    -0.240 Cl 
HETATM   17 CL   UNL     1     -12.589  13.697  65.827  1.00  0.00    -0.521 Cl 
HETATM   18  C   UNL     1      -8.464  15.008  67.097  1.00  0.00    -0.244 A  
ENDBRANCH  10  11
BRANCH  10  19
HETATM   19  C   UNL     1     -10.855  11.192  65.079  1.00  0.00    -0.173 C  
BRANCH  19  20
HETATM   20  N   UNL     1      -9.901  10.671  64.124  1.00  0.00    -0.311 NA 
HETATM   21  C   UNL     1      -9.570  11.223  62.920  1.00  0.00    -0.352 A  
HETATM   22  N   UNL     1      -8.432   9.294  63.209  1.00  0.00    -0.195 NA 
HETATM   23  C   UNL     1      -8.709  10.325  62.345  1.00  0.00    -0.226 A  
HETATM   24  C   UNL     1      -9.143   9.547  64.284  1.00  0.00    -0.170 A  
ENDBRANCH  19  20
ENDBRANCH  10  19
ENDBRANCH   9  10
ENDBRANCH   8   9
ENDBRANCH   5   8
TORSDOF 6
ENDMDL
MODEL      234
REMARK 921   NORMALIZED FREE ENERGY PREDICTED BY IDOCK:   -3.72 KCAL/MOL
REMARK 922        TOTAL FREE ENERGY PREDICTED BY IDOCK:   -5.95 KCAL/MOL
REMARK 923 INTER-LIGAND FREE ENERGY PREDICTED BY IDOCK:   -5.15 KCAL/MOL
REMARK 924 INTRA-LIGAND FREE ENERGY PREDICTED BY IDOCK:   -0.80 KCAL/MOL
REMARK 927      BINDING AFFINITY PREDICTED BY RF-SCORE:    0.00 PKD
ROOT
HETATM    1 CL   UNL     1     -12.203  14.568  70.433  1.00  0.00    -0.369 Cl 
HETATM    2  C   UNL     1     -11.668  13.546  69.157  1.00  0.00    -0.327 A  
HETATM    3  C   UNL     1     -11.815  12.166  69.267  1.00  0.00    -0.370 A  
HETATM    4  C   UNL     1     -11.373  11.334  68.230  1.00  0.00    -0.359 A  
HETATM    5  C   UNL     1     -10.771  11.877  67.081  1.00  0.00    -0.280 A  
HETATM    6  C   UNL     1     -10.654  13.273  66.980  1.00  0.00    -0.259 A  
HETATM    7  C   UNL     1     -11.097  14.102  68.015  1.00  0.00    -0.285 A  
ENDROOT
BRANCH   5   8
HETATM    8  C   UNL     1     -10.330  10.976  65.939  1.00  0.00    -0.257 C  
BRANCH   8   9
HETATM    9  S   UNL     1      -8.663  10.346  66.290  1.00  0.00    -0.158 SA 
BRANCH   9  10
HETATM   10  C   UNL     1      -8.899   8.542  66.779  1.00  0.00    -0.139 C  
BRANCH  10  11
HETATM   11  C   UNL     1      -8.204   7.589  65.763  1.00  0.00    -0.137 A  
HETATM   12  C   UNL     1      -7.039   5.835  63.844  1.00  0.00    -0.052 A  
HETATM   13  C   UNL     1      -7.633   6.352  66.137  1.00  0.00    -0.090 A  
HETATM   14  C   UNL     1      -8.128   7.910  64.386  1.00  0.00    -0.103 A  
HETATM   15  C   UNL     1      -7.085   5.474  65.186  1.00  0.00    -0.065 A  
HETATM   16 CL   UNL     1      -6.346   4.774  62.681  1.00  0.00    -0.025 Cl 
HETATM   17 CL   UNL     1      -7.532   5.829  67.783  1.00  0.00    -0.077 Cl 
HETATM   18  C   UNL     1      -7.542   7.058  63.443  1.00  0.00    -0.105 A  
ENDBRANCH  10  11
BRANCH  10  19
HETATM   19  C   UNL     1     -10.388   8.192  67.044  1.00  0.00    -0.333 C  
BRANCH  19  20
HETATM   20  N   UNL     1     -10.648   7.573  68.326  1.00  0.00    -0.172 NA 
HETATM   21  C   UNL     1     -11.059   6.289  68.540  1.00  0.00    -0.308 A  
HETATM   22  N   UNL     1     -10.883   7.371  70.515  1.00  0.00    -0.238 NA 
HETATM   23  C   UNL     1     -11.258   6.205  69.894  1.00  0.00    -0.414 A  
HETATM   24  C   UNL     1     -10.492   8.166  69.545  1.00  0.00    -0.227 A  
ENDBRANCH  19  20
ENDBRANCH  10  19
ENDBRANCH   9  10
ENDBRANCH   8   9
ENDBRANCH   5   8
TORSDOF 6
ENDMDL
MODEL      235
REMARK 921   NORMALIZED FREE ENERGY PREDICTED BY IDOCK:   -3.72 KCAL/MOL
REMARK 922        TOTAL FREE ENERGY PREDICTED BY IDOCK:   -5.94 KCAL/MOL
REMARK 923 INTER-LIGAND FREE ENERGY PREDICTED BY IDOCK:   -6.28 KCAL/MOL
REMARK 924 INTRA-LIGAND FREE ENERGY PREDICTED BY IDOCK:    0.33 KCAL/MOL
REMARK 927      BINDING AFFINITY PREDICTED BY RF-SCORE:    0.00 PKD
ROOT
HETATM    1 CL   UNL     1     -14.137  15.830  72.779  1.00  0.00    -0.586 Cl 
HETATM    2  C   UNL     1     -13.378  14.613  71.829  1.00  0.00    -0.360 A  
HETATM    3  C   UNL     1     -12.650  14.970  70.698  1.00  0.00    -0.429 A  
HETATM    4  C   UNL     1     -12.038  13.977  69.921  1.00  0.00    -0.406 A  
HETATM    5  C   UNL     1     -12.162  12.619  70.265  1.00  0.00    -0.347 A  
HETATM    6  C   UNL     1     -12.882  12.283  71.423  1.00  0.00    -0.373 A  
HETATM    7  C   UNL     1     -13.491  13.275  72.198  1.00  0.00    -0.655 A  
ENDROOT
BRANCH   5   8
HETATM    8  C   UNL     1     -11.463  11.547  69.446  1.00  0.00    -0.309 C  
BRANCH   8   9
HETATM    9  S   UNL     1     -11.615   9.952  70.302  1.00  0.00    -0.227 SA 
BRANCH   9  10
HETATM   10  C   UNL     1     -10.187   8.901  69.667  1.00  0.00    -0.206 C  
BRANCH  10  11
HETATM   11  C   UNL     1      -9.722   9.379  68.260  1.00  0.00    -0.162 A  
HETATM   12  C   UNL     1      -8.855  10.136  65.654  1.00  0.00    -0.165 A  
HETATM   13  C   UNL     1      -8.573  10.179  68.062  1.00  0.00    -0.118 A  
HETATM   14  C   UNL     1     -10.424   9.012  67.087  1.00  0.00    -0.333 A  
HETATM   15  C   UNL     1      -8.130  10.527  66.774  1.00  0.00    -0.123 A  
HETATM   16 CL   UNL     1      -8.329  10.583  64.079  1.00  0.00    -0.135 Cl 
HETATM   17 CL   UNL     1      -7.641  10.817  69.372  1.00  0.00    -0.132 Cl 
HETATM   18  C   UNL     1     -10.011   9.395  65.807  1.00  0.00    -0.278 A  
ENDBRANCH  10  11
BRANCH  10  19
HETATM   19  C   UNL     1     -10.494   7.382  69.739  1.00  0.00    -0.229 C  
BRANCH  19  20
HETATM   20  N   UNL     1     -11.069   6.937  70.991  1.00  0.00    -0.254 NA 
HETATM   21  C   UNL     1     -12.094   7.529  71.670  1.00  0.00    -0.311 A  
HETATM   22  N   UNL     1     -11.353   5.735  72.825  1.00  0.00    -0.293 NA 
HETATM   23  C   UNL     1     -12.211   6.807  72.829  1.00  0.00     0.409 A  
HETATM   24  C   UNL     1     -10.699   5.825  71.689  1.00  0.00    -0.256 A  
ENDBRANCH  19  20
ENDBRANCH  10  19
ENDBRANCH   9  10
ENDBRANCH   8   9
ENDBRANCH   5   8
TORSDOF 6
ENDMDL
MODEL      236
REMARK 921   NORMALIZED FREE ENERGY PREDICTED BY IDOCK:   -3.71 KCAL/MOL
REMARK 922        TOTAL FREE ENERGY PREDICTED BY IDOCK:   -5.93 KCAL/MOL
REMARK 923 INTER-LIGAND FREE ENERGY PREDICTED BY IDOCK:   -4.89 KCAL/MOL
REMARK 924 INTRA-LIGAND FREE ENERGY PREDICTED BY IDOCK:   -1.04 KCAL/MOL
REMARK 927      BINDING AFFINITY PREDICTED BY RF-SCORE:    0.00 PKD
ROOT
HETATM    1 CL   UNL     1     -13.032  14.228  65.415  1.00  0.00    -0.371 Cl 
HETATM    2  C   UNL     1     -11.928  12.940  65.130  1.00  0.00    -0.414 A  
HETATM    3  C   UNL     1     -11.244  12.364  66.197  1.00  0.00    -0.364 A  
HETATM    4  C   UNL     1     -10.341  11.319  65.962  1.00  0.00    -0.302 A  
HETATM    5  C   UNL     1     -10.106  10.853  64.656  1.00  0.00    -0.391 A  
HETATM    6  C   UNL     1     -10.823  11.433  63.597  1.00  0.00    -0.459 A  
HETATM    7  C   UNL     1     -11.726  12.475  63.833  1.00  0.00    -0.530 A  
ENDROOT
BRANCH   5   8
HETATM    8  C   UNL     1      -9.157   9.692  64.408  1.00  0.00    -0.229 C  
BRANCH   8   9
HETATM    9  S   UNL     1      -7.796   9.772  65.609  1.00  0.00    -0.119 SA 
BRANCH   9  10
HETATM   10  C   UNL     1      -8.120   8.374  66.830  1.00  0.00    -0.099 C  
BRANCH  10  11
HETATM   11  C   UNL     1      -9.096   8.827  67.955  1.00  0.00    -0.144 A  
HETATM   12  C   UNL     1     -10.963   9.688  69.928  1.00  0.00    -0.252 A  
HETATM   13  C   UNL     1      -8.792   9.866  68.864  1.00  0.00    -0.145 A  
HETATM   14  C   UNL     1     -10.368   8.226  68.114  1.00  0.00    -0.253 A  
HETATM   15  C   UNL     1      -9.725  10.310  69.817  1.00  0.00    -0.183 A  
HETATM   16 CL   UNL     1     -12.096  10.212  71.111  1.00  0.00    -0.451 Cl 
HETATM   17 CL   UNL     1      -7.251  10.653  68.902  1.00  0.00    -0.082 Cl 
HETATM   18  C   UNL     1     -11.281   8.634  69.092  1.00  0.00     0.291 A  
ENDBRANCH  10  11
BRANCH  10  19
HETATM   19  C   UNL     1      -6.807   7.740  67.363  1.00  0.00    -0.069 C  
BRANCH  19  20
HETATM   20  N   UNL     1      -6.987   6.521  68.121  1.00  0.00    -0.074 NA 
HETATM   21  C   UNL     1      -7.576   5.370  67.683  1.00  0.00    -0.088 A  
HETATM   22  N   UNL     1      -6.946   5.128  69.839  1.00  0.00    -0.055 NA 
HETATM   23  C   UNL     1      -7.596   4.546  68.778  1.00  0.00    -0.064 A  
HETATM   24  C   UNL     1      -6.565   6.307  69.401  1.00  0.00    -0.044 A  
ENDBRANCH  19  20
ENDBRANCH  10  19
ENDBRANCH   9  10
ENDBRANCH   8   9
ENDBRANCH   5   8
TORSDOF 6
ENDMDL
MODEL      237
REMARK 921   NORMALIZED FREE ENERGY PREDICTED BY IDOCK:   -3.70 KCAL/MOL
REMARK 922        TOTAL FREE ENERGY PREDICTED BY IDOCK:   -5.92 KCAL/MOL
REMARK 923 INTER-LIGAND FREE ENERGY PREDICTED BY IDOCK:   -5.29 KCAL/MOL
REMARK 924 INTRA-LIGAND FREE ENERGY PREDICTED BY IDOCK:   -0.62 KCAL/MOL
REMARK 927      BINDING AFFINITY PREDICTED BY RF-SCORE:    0.00 PKD
ROOT
HETATM    1 CL   UNL     1     -10.550  16.643  66.216  1.00  0.00    -0.254 Cl 
HETATM    2  C   UNL     1     -10.522  15.066  66.902  1.00  0.00    -0.279 A  
HETATM    3  C   UNL     1      -9.391  14.267  66.757  1.00  0.00    -0.290 A  
HETATM    4  C   UNL     1      -9.373  12.980  67.311  1.00  0.00    -0.220 A  
HETATM    5  C   UNL     1     -10.490  12.480  68.003  1.00  0.00    -0.227 A  
HETATM    6  C   UNL     1     -11.612  13.312  68.157  1.00  0.00    -0.373 A  
HETATM    7  C   UNL     1     -11.629  14.597  67.605  1.00  0.00    -0.383 A  
ENDROOT
BRANCH   5   8
HETATM    8  C   UNL     1     -10.452  11.100  68.638  1.00  0.00    -0.197 C  
BRANCH   8   9
HETATM    9  S   UNL     1      -8.726  10.651  68.981  1.00  0.00    -0.117 SA 
BRANCH   9  10
HETATM   10  C   UNL     1      -8.794   8.926  69.734  1.00  0.00    -0.144 C  
BRANCH  10  11
HETATM   11  C   UNL     1      -9.280   7.877  68.691  1.00  0.00    -0.142 A  
HETATM   12  C   UNL     1     -10.176   5.876  66.873  1.00  0.00    -0.214 A  
HETATM   13  C   UNL     1      -8.482   7.447  67.607  1.00  0.00    -0.120 A  
HETATM   14  C   UNL     1     -10.557   7.276  68.790  1.00  0.00    -0.202 A  
HETATM   15  C   UNL     1      -8.914   6.439  66.728  1.00  0.00    -0.134 A  
HETATM   16 CL   UNL     1     -10.717   4.661  65.783  1.00  0.00    -0.303 Cl 
HETATM   17 CL   UNL     1      -6.935   8.137  67.252  1.00  0.00    -0.074 Cl 
HETATM   18  C   UNL     1     -11.008   6.305  67.890  1.00  0.00    -0.421 A  
ENDBRANCH  10  11
BRANCH  10  19
HETATM   19  C   UNL     1      -9.590   8.895  71.066  1.00  0.00    -0.255 C  
BRANCH  19  20
HETATM   20  N   UNL     1      -8.825   8.477  72.221  1.00  0.00    -0.291 NA 
HETATM   21  C   UNL     1      -7.467   8.362  72.298  1.00  0.00    -0.102 A  
HETATM   22  N   UNL     1      -8.395   7.739  74.261  1.00  0.00    -0.232 NA 
HETATM   23  C   UNL     1      -7.228   7.846  73.545  1.00  0.00    -0.124 A  
HETATM   24  C   UNL     1      -9.336   8.155  73.444  1.00  0.00    -0.197 A  
ENDBRANCH  19  20
ENDBRANCH  10  19
ENDBRANCH   9  10
ENDBRANCH   8   9
ENDBRANCH   5   8
TORSDOF 6
ENDMDL
MODEL      238
REMARK 921   NORMALIZED FREE ENERGY PREDICTED BY IDOCK:   -3.70 KCAL/MOL
REMARK 922        TOTAL FREE ENERGY PREDICTED BY IDOCK:   -5.91 KCAL/MOL
REMARK 923 INTER-LIGAND FREE ENERGY PREDICTED BY IDOCK:   -5.08 KCAL/MOL
REMARK 924 INTRA-LIGAND FREE ENERGY PREDICTED BY IDOCK:   -0.84 KCAL/MOL
REMARK 927      BINDING AFFINITY PREDICTED BY RF-SCORE:    0.00 PKD
ROOT
HETATM    1 CL   UNL     1      -7.960   6.333  71.184  1.00  0.00    -0.114 Cl 
HETATM    2  C   UNL     1      -8.889   7.381  70.185  1.00  0.00    -0.147 A  
HETATM    3  C   UNL     1      -8.941   7.163  68.811  1.00  0.00    -0.128 A  
HETATM    4  C   UNL     1      -9.694   8.022  67.999  1.00  0.00    -0.184 A  
HETATM    5  C   UNL     1     -10.388   9.112  68.554  1.00  0.00    -0.236 A  
HETATM    6  C   UNL     1     -10.340   9.299  69.946  1.00  0.00    -0.241 A  
HETATM    7  C   UNL     1      -9.590   8.441  70.756  1.00  0.00    -0.203 A  
ENDROOT
BRANCH   5   8
HETATM    8  C   UNL     1     -11.236  10.017  67.677  1.00  0.00    -0.024 C  
BRANCH   8   9
HETATM    9  S   UNL     1     -10.877  11.749  68.090  1.00  0.00    -0.233 SA 
BRANCH   9  10
HETATM   10  C   UNL     1     -10.428  12.573  66.457  1.00  0.00    -0.238 C  
BRANCH  10  11
HETATM   11  C   UNL     1      -9.741  11.565  65.490  1.00  0.00    -0.259 A  
HETATM   12  C   UNL     1      -8.581   9.650  63.728  1.00  0.00    -0.208 A  
HETATM   13  C   UNL     1      -8.540  10.891  65.811  1.00  0.00    -0.173 A  
HETATM   14  C   UNL     1     -10.303  11.251  64.229  1.00  0.00    -0.399 A  
HETATM   15  C   UNL     1      -7.985   9.925  64.954  1.00  0.00    -0.138 A  
HETATM   16 CL   UNL     1      -7.889   8.487  62.667  1.00  0.00    -0.132 Cl 
HETATM   17 CL   UNL     1      -7.643  11.214  67.255  1.00  0.00    -0.119 Cl 
HETATM   18  C   UNL     1      -9.728  10.323  63.354  1.00  0.00    -0.243 A  
ENDBRANCH  10  11
BRANCH  10  19
HETATM   19  C   UNL     1      -9.628  13.887  66.659  1.00  0.00    -0.289 C  
BRANCH  19  20
HETATM   20  N   UNL     1     -10.091  14.719  67.749  1.00  0.00    -0.223 NA 
HETATM   21  C   UNL     1     -11.290  15.368  67.824  1.00  0.00    -0.306 A  
HETATM   22  N   UNL     1     -10.063  15.822  69.665  1.00  0.00    -0.281 NA 
HETATM   23  C   UNL     1     -11.226  16.093  68.985  1.00  0.00    -0.347 A  
HETATM   24  C   UNL     1      -9.414  14.968  68.907  1.00  0.00    -0.211 A  
ENDBRANCH  19  20
ENDBRANCH  10  19
ENDBRANCH   9  10
ENDBRANCH   8   9
ENDBRANCH   5   8
TORSDOF 6
ENDMDL
MODEL      239
REMARK 921   NORMALIZED FREE ENERGY PREDICTED BY IDOCK:   -3.68 KCAL/MOL
REMARK 922        TOTAL FREE ENERGY PREDICTED BY IDOCK:   -5.90 KCAL/MOL
REMARK 923 INTER-LIGAND FREE ENERGY PREDICTED BY IDOCK:   -5.22 KCAL/MOL
REMARK 924 INTRA-LIGAND FREE ENERGY PREDICTED BY IDOCK:   -0.68 KCAL/MOL
REMARK 927      BINDING AFFINITY PREDICTED BY RF-SCORE:    0.00 PKD
ROOT
HETATM    1 CL   UNL     1      -9.924   3.626  71.589  1.00  0.00    -0.231 Cl 
HETATM    2  C   UNL     1      -9.683   5.288  71.216  1.00  0.00    -0.166 A  
HETATM    3  C   UNL     1      -8.464   5.894  71.510  1.00  0.00    -0.128 A  
HETATM    4  C   UNL     1      -8.271   7.250  71.212  1.00  0.00    -0.106 A  
HETATM    5  C   UNL     1      -9.300   8.010  70.629  1.00  0.00    -0.162 A  
HETATM    6  C   UNL     1     -10.513   7.373  70.320  1.00  0.00    -0.229 A  
HETATM    7  C   UNL     1     -10.705   6.020  70.616  1.00  0.00    -0.341 A  
ENDROOT
BRANCH   5   8
HETATM    8  C   UNL     1      -9.075   9.469  70.268  1.00  0.00    -0.253 C  
BRANCH   8   9
HETATM    9  S   UNL     1     -10.625  10.169  69.630  1.00  0.00    -0.273 SA 
BRANCH   9  10
HETATM   10  C   UNL     1     -10.235  10.741  67.878  1.00  0.00    -0.176 C  
BRANCH  10  11
HETATM   11  C   UNL     1      -9.135  11.842  67.880  1.00  0.00    -0.183 A  
HETATM   12  C   UNL     1      -7.185  13.918  67.799  1.00  0.00    -0.164 A  
HETATM   13  C   UNL     1      -7.800  11.593  67.487  1.00  0.00    -0.137 A  
HETATM   14  C   UNL     1      -9.425  13.175  68.260  1.00  0.00    -0.210 A  
HETATM   15  C   UNL     1      -6.846  12.624  67.420  1.00  0.00    -0.141 A  
HETATM   16 CL   UNL     1      -6.013  15.175  67.742  1.00  0.00    -0.164 Cl 
HETATM   17 CL   UNL     1      -7.221  10.012  67.090  1.00  0.00    -0.089 Cl 
HETATM   18  C   UNL     1      -8.466  14.193  68.237  1.00  0.00    -0.169 A  
ENDBRANCH  10  11
BRANCH  10  19
HETATM   19  C   UNL     1     -11.512  11.138  67.089  1.00  0.00    -0.081 C  
BRANCH  19  20
HETATM   20  N   UNL     1     -11.267  11.654  65.760  1.00  0.00    -0.275 NA 
HETATM   21  C   UNL     1     -11.814  12.778  65.211  1.00  0.00    -0.403 A  
HETATM   22  N   UNL     1     -10.473  11.769  63.699  1.00  0.00    -0.393 NA 
HETATM   23  C   UNL     1     -11.359  12.795  63.918  1.00  0.00    -0.442 A  
HETATM   24  C   UNL     1     -10.417  11.116  64.838  1.00  0.00    -0.308 A  
ENDBRANCH  19  20
ENDBRANCH  10  19
ENDBRANCH   9  10
ENDBRANCH   8   9
ENDBRANCH   5   8
TORSDOF 6
ENDMDL
MODEL      240
REMARK 921   NORMALIZED FREE ENERGY PREDICTED BY IDOCK:   -3.68 KCAL/MOL
REMARK 922        TOTAL FREE ENERGY PREDICTED BY IDOCK:   -5.89 KCAL/MOL
REMARK 923 INTER-LIGAND FREE ENERGY PREDICTED BY IDOCK:   -5.88 KCAL/MOL
REMARK 924 INTRA-LIGAND FREE ENERGY PREDICTED BY IDOCK:   -0.02 KCAL/MOL
REMARK 927      BINDING AFFINITY PREDICTED BY RF-SCORE:    0.00 PKD
ROOT
HETATM    1 CL   UNL     1     -14.384  14.568  72.362  1.00  0.00    -0.478 Cl 
HETATM    2  C   UNL     1     -13.059  14.713  71.275  1.00  0.00    -0.359 A  
HETATM    3  C   UNL     1     -12.641  13.607  70.540  1.00  0.00    -0.337 A  
HETATM    4  C   UNL     1     -11.558  13.725  69.659  1.00  0.00    -0.343 A  
HETATM    5  C   UNL     1     -10.877  14.947  69.518  1.00  0.00    -0.272 A  
HETATM    6  C   UNL     1     -11.329  16.056  70.252  1.00  0.00    -0.391 A  
HETATM    7  C   UNL     1     -12.412  15.938  71.129  1.00  0.00    -0.417 A  
ENDROOT
BRANCH   5   8
HETATM    8  C   UNL     1      -9.729  15.083  68.532  1.00  0.00    -0.217 C  
BRANCH   8   9
HETATM    9  S   UNL     1      -8.520  13.763  68.843  1.00  0.00     0.230 SA 
BRANCH   9  10
HETATM   10  C   UNL     1      -7.936  13.205  67.141  1.00  0.00    -0.073 C  
BRANCH  10  11
HETATM   11  C   UNL     1      -9.141  12.830  66.229  1.00  0.00    -0.033 A  
HETATM   12  C   UNL     1     -11.271  12.079  64.493  1.00  0.00    -0.332 A  
HETATM   13  C   UNL     1      -9.867  13.788  65.485  1.00  0.00    -0.163 A  
HETATM   14  C   UNL     1      -9.565  11.488  66.080  1.00  0.00    -0.251 A  
HETATM   15  C   UNL     1     -10.898  13.413  64.606  1.00  0.00    -0.405 A  
HETATM   16 CL   UNL     1     -12.550  11.620  63.438  1.00  0.00    -0.492 Cl 
HETATM   17 CL   UNL     1      -9.574  15.489  65.611  1.00  0.00    -0.360 Cl 
HETATM   18  C   UNL     1     -10.620  11.116  65.241  1.00  0.00    -0.303 A  
ENDBRANCH  10  11
BRANCH  10  19
HETATM   19  C   UNL     1      -6.850  12.099  67.223  1.00  0.00    -0.149 C  
BRANCH  19  20
HETATM   20  N   UNL     1      -6.859  11.329  68.449  1.00  0.00    -0.061 NA 
HETATM   21  C   UNL     1      -7.572  10.190  68.688  1.00  0.00    -0.086 A  
HETATM   22  N   UNL     1      -6.412  10.764  70.539  1.00  0.00    -0.323 NA 
HETATM   23  C   UNL     1      -7.329   9.893  70.004  1.00  0.00    -0.156 A  
HETATM   24  C   UNL     1      -6.126  11.600  69.567  1.00  0.00    -0.103 A  
ENDBRANCH  19  20
ENDBRANCH  10  19
ENDBRANCH   9  10
ENDBRANCH   8   9
ENDBRANCH   5   8
TORSDOF 6
ENDMDL
MODEL      241
REMARK 921   NORMALIZED FREE ENERGY PREDICTED BY IDOCK:   -3.68 KCAL/MOL
REMARK 922        TOTAL FREE ENERGY PREDICTED BY IDOCK:   -5.89 KCAL/MOL
REMARK 923 INTER-LIGAND FREE ENERGY PREDICTED BY IDOCK:   -5.37 KCAL/MOL
REMARK 924 INTRA-LIGAND FREE ENERGY PREDICTED BY IDOCK:   -0.52 KCAL/MOL
REMARK 927      BINDING AFFINITY PREDICTED BY RF-SCORE:    0.00 PKD
ROOT
HETATM    1 CL   UNL     1     -12.861   6.646  71.803  1.00  0.00    -0.328 Cl 
HETATM    2  C   UNL     1     -11.895   7.840  71.029  1.00  0.00    -0.272 A  
HETATM    3  C   UNL     1     -10.902   7.453  70.133  1.00  0.00    -0.270 A  
HETATM    4  C   UNL     1     -10.111   8.427  69.508  1.00  0.00    -0.200 A  
HETATM    5  C   UNL     1     -10.300   9.792  69.785  1.00  0.00    -0.274 A  
HETATM    6  C   UNL     1     -11.321  10.161  70.676  1.00  0.00    -0.433 A  
HETATM    7  C   UNL     1     -12.112   9.189  71.298  1.00  0.00    -0.392 A  
ENDROOT
BRANCH   5   8
HETATM    8  C   UNL     1      -9.469  10.848  69.076  1.00  0.00    -0.146 C  
BRANCH   8   9
HETATM    9  S   UNL     1      -8.188  10.026  68.083  1.00  0.00    -0.110 SA 
BRANCH   9  10
HETATM   10  C   UNL     1      -8.072  11.022  66.488  1.00  0.00    -0.161 C  
BRANCH  10  11
HETATM   11  C   UNL     1      -9.347  11.891  66.275  1.00  0.00    -0.234 A  
HETATM   12  C   UNL     1     -11.671  13.457  65.767  1.00  0.00    -0.349 A  
HETATM   13  C   UNL     1      -9.394  13.271  66.578  1.00  0.00    -0.213 A  
HETATM   14  C   UNL     1     -10.535  11.339  65.739  1.00  0.00    -0.310 A  
HETATM   15  C   UNL     1     -10.532  14.048  66.299  1.00  0.00    -0.286 A  
HETATM   16 CL   UNL     1     -13.073  14.401  65.448  1.00  0.00    -0.204 Cl 
HETATM   17 CL   UNL     1      -8.084  14.107  67.337  1.00  0.00    -0.198 Cl 
HETATM   18  C   UNL     1     -11.683  12.101  65.502  1.00  0.00    -0.384 A  
ENDBRANCH  10  11
BRANCH  10  19
HETATM   19  C   UNL     1      -7.710  10.138  65.265  1.00  0.00    -0.144 C  
BRANCH  19  20
HETATM   20  N   UNL     1      -7.822   8.713  65.492  1.00  0.00    -0.095 NA 
HETATM   21  C   UNL     1      -8.974   8.013  65.711  1.00  0.00    -0.102 A  
HETATM   22  N   UNL     1      -7.204   6.613  65.806  1.00  0.00    -0.068 NA 
HETATM   23  C   UNL     1      -8.563   6.730  65.964  1.00  0.00    -0.145 A  
HETATM   24  C   UNL     1      -6.791   7.820  65.492  1.00  0.00    -0.052 A  
ENDBRANCH  19  20
ENDBRANCH  10  19
ENDBRANCH   9  10
ENDBRANCH   8   9
ENDBRANCH   5   8
TORSDOF 6
ENDMDL
MODEL      242
REMARK 921   NORMALIZED FREE ENERGY PREDICTED BY IDOCK:   -3.67 KCAL/MOL
REMARK 922        TOTAL FREE ENERGY PREDICTED BY IDOCK:   -5.89 KCAL/MOL
REMARK 923 INTER-LIGAND FREE ENERGY PREDICTED BY IDOCK:   -4.62 KCAL/MOL
REMARK 924 INTRA-LIGAND FREE ENERGY PREDICTED BY IDOCK:   -1.27 KCAL/MOL
REMARK 927      BINDING AFFINITY PREDICTED BY RF-SCORE:    0.00 PKD
ROOT
HETATM    1 CL   UNL     1     -12.363   8.611  72.357  1.00  0.00    -0.445 Cl 
HETATM    2  C   UNL     1     -11.141   7.685  71.578  1.00  0.00    -0.236 A  
HETATM    3  C   UNL     1      -9.821   8.127  71.593  1.00  0.00    -0.242 A  
HETATM    4  C   UNL     1      -8.828   7.374  70.953  1.00  0.00    -0.148 A  
HETATM    5  C   UNL     1      -9.151   6.181  70.282  1.00  0.00    -0.158 A  
HETATM    6  C   UNL     1     -10.485   5.743  70.298  1.00  0.00    -0.349 A  
HETATM    7  C   UNL     1     -11.476   6.493  70.939  1.00  0.00    -0.408 A  
ENDROOT
BRANCH   5   8
HETATM    8  C   UNL     1      -8.066   5.346  69.623  1.00  0.00    -0.099 C  
BRANCH   8   9
HETATM    9  S   UNL     1      -8.616   4.863  67.961  1.00  0.00    -0.102 SA 
BRANCH   9  10
HETATM   10  C   UNL     1      -8.082   6.268  66.826  1.00  0.00    -0.109 C  
BRANCH  10  11
HETATM   11  C   UNL     1      -8.675   7.628  67.299  1.00  0.00    -0.124 A  
HETATM   12  C   UNL     1      -9.702  10.100  68.271  1.00  0.00    -0.141 A  
HETATM   13  C   UNL     1     -10.063   7.856  67.427  1.00  0.00    -0.226 A  
HETATM   14  C   UNL     1      -7.838   8.714  67.651  1.00  0.00    -0.103 A  
HETATM   15  C   UNL     1     -10.568   9.066  67.935  1.00  0.00    -0.256 A  
HETATM   16 CL   UNL     1     -10.319  11.591  68.868  1.00  0.00    -0.213 Cl 
HETATM   17 CL   UNL     1     -11.251   6.693  66.948  1.00  0.00    -0.368 Cl 
HETATM   18  C   UNL     1      -8.339   9.936  68.113  1.00  0.00    -0.110 A  
ENDBRANCH  10  11
BRANCH  10  19
HETATM   19  C   UNL     1      -8.356   5.955  65.330  1.00  0.00    -0.149 C  
BRANCH  19  20
HETATM   20  N   UNL     1      -8.576   4.556  65.033  1.00  0.00    -0.127 NA 
HETATM   21  C   UNL     1      -7.621   3.587  64.929  1.00  0.00    -0.077 A  
HETATM   22  N   UNL     1      -9.654   2.698  64.509  1.00  0.00    -0.146 NA 
HETATM   23  C   UNL     1      -8.302   2.462  64.543  1.00  0.00    -0.087 A  
HETATM   24  C   UNL     1      -9.789   3.962  64.838  1.00  0.00    -0.197 A  
ENDBRANCH  19  20
ENDBRANCH  10  19
ENDBRANCH   9  10
ENDBRANCH   8   9
ENDBRANCH   5   8
TORSDOF 6
ENDMDL
MODEL      243
REMARK 921   NORMALIZED FREE ENERGY PREDICTED BY IDOCK:   -3.67 KCAL/MOL
REMARK 922        TOTAL FREE ENERGY PREDICTED BY IDOCK:   -5.88 KCAL/MOL
REMARK 923 INTER-LIGAND FREE ENERGY PREDICTED BY IDOCK:   -5.25 KCAL/MOL
REMARK 924 INTRA-LIGAND FREE ENERGY PREDICTED BY IDOCK:   -0.63 KCAL/MOL
REMARK 927      BINDING AFFINITY PREDICTED BY RF-SCORE:    0.00 PKD
ROOT
HETATM    1 CL   UNL     1      -7.468  18.979  67.028  1.00  0.00    -0.224 Cl 
HETATM    2  C   UNL     1      -8.715  17.807  67.208  1.00  0.00    -0.237 A  
HETATM    3  C   UNL     1      -9.078  17.373  68.480  1.00  0.00    -0.273 A  
HETATM    4  C   UNL     1     -10.089  16.413  68.625  1.00  0.00    -0.244 A  
HETATM    5  C   UNL     1     -10.734  15.874  67.498  1.00  0.00    -0.318 A  
HETATM    6  C   UNL     1     -10.367  16.343  66.226  1.00  0.00    -0.337 A  
HETATM    7  C   UNL     1      -9.359  17.302  66.082  1.00  0.00    -0.196 A  
ENDROOT
BRANCH   5   8
HETATM    8  C   UNL     1     -11.859  14.865  67.659  1.00  0.00    -0.244 C  
BRANCH   8   9
HETATM    9  S   UNL     1     -11.339  13.581  68.835  1.00  0.00    -0.307 SA 
BRANCH   9  10
HETATM   10  C   UNL     1     -10.037  12.565  67.928  1.00  0.00    -0.214 C  
BRANCH  10  11
HETATM   11  C   UNL     1     -10.246  11.041  68.169  1.00  0.00    -0.201 A  
HETATM   12  C   UNL     1     -10.529   8.253  68.679  1.00  0.00    -0.168 A  
HETATM   13  C   UNL     1     -10.217  10.088  67.126  1.00  0.00    -0.228 A  
HETATM   14  C   UNL     1     -10.458  10.522  69.469  1.00  0.00    -0.265 A  
HETATM   15  C   UNL     1     -10.327   8.710  67.382  1.00  0.00    -0.353 A  
HETATM   16 CL   UNL     1     -10.689   6.569  68.992  1.00  0.00    -0.289 Cl 
HETATM   17 CL   UNL     1     -10.076  10.530  65.459  1.00  0.00    -0.342 Cl 
HETATM   18  C   UNL     1     -10.614   9.155  69.722  1.00  0.00    -0.240 A  
ENDBRANCH  10  11
BRANCH  10  19
HETATM   19  C   UNL     1      -8.594  13.051  68.230  1.00  0.00    -0.167 C  
BRANCH  19  20
HETATM   20  N   UNL     1      -7.564  12.055  68.030  1.00  0.00    -0.111 NA 
HETATM   21  C   UNL     1      -6.971  11.293  68.995  1.00  0.00    -0.104 A  
HETATM   22  N   UNL     1      -6.063  10.813  66.984  1.00  0.00    -0.062 NA 
HETATM   23  C   UNL     1      -6.004  10.580  68.336  1.00  0.00    -0.043 A  
HETATM   24  C   UNL     1      -7.033  11.685  66.829  1.00  0.00    -0.080 A  
ENDBRANCH  19  20
ENDBRANCH  10  19
ENDBRANCH   9  10
ENDBRANCH   8   9
ENDBRANCH   5   8
TORSDOF 6
ENDMDL
MODEL      244
REMARK 921   NORMALIZED FREE ENERGY PREDICTED BY IDOCK:   -3.66 KCAL/MOL
REMARK 922        TOTAL FREE ENERGY PREDICTED BY IDOCK:   -5.86 KCAL/MOL
REMARK 923 INTER-LIGAND FREE ENERGY PREDICTED BY IDOCK:   -5.32 KCAL/MOL
REMARK 924 INTRA-LIGAND FREE ENERGY PREDICTED BY IDOCK:   -0.54 KCAL/MOL
REMARK 927      BINDING AFFINITY PREDICTED BY RF-SCORE:    0.00 PKD
ROOT
HETATM    1 CL   UNL     1     -11.009  19.768  67.317  1.00  0.00    -0.468 Cl 
HETATM    2  C   UNL     1     -10.242  18.237  67.153  1.00  0.00    -0.373 A  
HETATM    3  C   UNL     1     -10.382  17.515  65.971  1.00  0.00    -0.309 A  
HETATM    4  C   UNL     1      -9.762  16.266  65.841  1.00  0.00    -0.354 A  
HETATM    5  C   UNL     1      -9.008  15.724  66.897  1.00  0.00    -0.266 A  
HETATM    6  C   UNL     1      -8.861  16.480  68.072  1.00  0.00    -0.197 A  
HETATM    7  C   UNL     1      -9.479  17.728  68.201  1.00  0.00    -0.282 A  
ENDROOT
BRANCH   5   8
HETATM    8  C   UNL     1      -8.302  14.388  66.739  1.00  0.00     0.029 C  
BRANCH   8   9
HETATM    9  S   UNL     1      -8.116  13.618  68.374  1.00  0.00    -0.128 SA 
BRANCH   9  10
HETATM   10  C   UNL     1      -9.075  12.000  68.281  1.00  0.00    -0.190 C  
BRANCH  10  11
HETATM   11  C   UNL     1      -9.221  11.518  66.807  1.00  0.00    -0.187 A  
HETATM   12  C   UNL     1      -9.554  10.543  64.151  1.00  0.00    -0.313 A  
HETATM   13  C   UNL     1      -8.119  11.111  66.021  1.00  0.00    -0.064 A  
HETATM   14  C   UNL     1     -10.486  11.441  66.178  1.00  0.00    -0.303 A  
HETATM   15  C   UNL     1      -8.288  10.602  64.721  1.00  0.00    -0.071 A  
HETATM   16 CL   UNL     1      -9.761   9.946  62.552  1.00  0.00    -0.031 Cl 
HETATM   17 CL   UNL     1      -6.483  11.229  66.571  1.00  0.00    -0.130 Cl 
HETATM   18  C   UNL     1     -10.653  10.979  64.868  1.00  0.00    -0.328 A  
ENDBRANCH  10  11
BRANCH  10  19
HETATM   19  C   UNL     1     -10.422  12.067  69.050  1.00  0.00    -0.053 C  
BRANCH  19  20
HETATM   20  N   UNL     1     -10.814  10.833  69.695  1.00  0.00    -0.250 NA 
HETATM   21  C   UNL     1     -12.006  10.581  70.311  1.00  0.00    -0.325 A  
HETATM   22  N   UNL     1     -10.662   8.774  70.486  1.00  0.00    -0.215 NA 
HETATM   23  C   UNL     1     -11.867   9.326  70.846  1.00  0.00    -0.282 A  
HETATM   24  C   UNL     1     -10.063   9.696  69.768  1.00  0.00    -0.233 A  
ENDBRANCH  19  20
ENDBRANCH  10  19
ENDBRANCH   9  10
ENDBRANCH   8   9
ENDBRANCH   5   8
TORSDOF 6
ENDMDL
MODEL      245
REMARK 921   NORMALIZED FREE ENERGY PREDICTED BY IDOCK:   -3.64 KCAL/MOL
REMARK 922        TOTAL FREE ENERGY PREDICTED BY IDOCK:   -5.84 KCAL/MOL
REMARK 923 INTER-LIGAND FREE ENERGY PREDICTED BY IDOCK:   -5.92 KCAL/MOL
REMARK 924 INTRA-LIGAND FREE ENERGY PREDICTED BY IDOCK:    0.08 KCAL/MOL
REMARK 927      BINDING AFFINITY PREDICTED BY RF-SCORE:    0.00 PKD
ROOT
HETATM    1 CL   UNL     1     -12.428  14.859  72.802  1.00  0.00    -0.439 Cl 
HETATM    2  C   UNL     1     -12.257  14.484  71.132  1.00  0.00    -0.345 A  
HETATM    3  C   UNL     1     -12.136  15.512  70.200  1.00  0.00    -0.404 A  
HETATM    4  C   UNL     1     -12.003  15.205  68.840  1.00  0.00    -0.284 A  
HETATM    5  C   UNL     1     -12.002  13.868  68.401  1.00  0.00    -0.391 A  
HETATM    6  C   UNL     1     -12.102  12.847  69.361  1.00  0.00    -0.254 A  
HETATM    7  C   UNL     1     -12.233  13.155  70.719  1.00  0.00    -0.375 A  
ENDROOT
BRANCH   5   8
HETATM    8  C   UNL     1     -11.816  13.537  66.931  1.00  0.00    -0.407 C  
BRANCH   8   9
HETATM    9  S   UNL     1     -10.162  14.075  66.405  1.00  0.00    -0.299 SA 
BRANCH   9  10
HETATM   10  C   UNL     1      -9.015  13.648  67.837  1.00  0.00    -0.195 C  
BRANCH  10  11
HETATM   11  C   UNL     1      -8.062  14.834  68.166  1.00  0.00    -0.134 A  
HETATM   12  C   UNL     1      -6.375  17.071  68.683  1.00  0.00    -0.164 A  
HETATM   13  C   UNL     1      -6.664  14.772  67.967  1.00  0.00    -0.144 A  
HETATM   14  C   UNL     1      -8.557  16.062  68.667  1.00  0.00    -0.206 A  
HETATM   15  C   UNL     1      -5.836  15.886  68.195  1.00  0.00    -0.129 A  
HETATM   16 CL   UNL     1      -5.361  18.427  68.986  1.00  0.00    -0.194 Cl 
HETATM   17 CL   UNL     1      -5.853  13.329  67.463  1.00  0.00    -0.102 Cl 
HETATM   18  C   UNL     1      -7.731  17.157  68.937  1.00  0.00    -0.230 A  
ENDBRANCH  10  11
BRANCH  10  19
HETATM   19  C   UNL     1      -8.279  12.298  67.622  1.00  0.00    -0.166 C  
BRANCH  19  20
HETATM   20  N   UNL     1      -9.073  11.269  66.985  1.00  0.00    -0.160 NA 
HETATM   21  C   UNL     1      -9.854  10.341  67.610  1.00  0.00    -0.171 A  
HETATM   22  N   UNL     1      -9.924  10.013  65.376  1.00  0.00    -0.308 NA 
HETATM   23  C   UNL     1     -10.320   9.537  66.602  1.00  0.00    -0.210 A  
HETATM   24  C   UNL     1      -9.197  11.075  65.640  1.00  0.00    -0.210 A  
ENDBRANCH  19  20
ENDBRANCH  10  19
ENDBRANCH   9  10
ENDBRANCH   8   9
ENDBRANCH   5   8
TORSDOF 6
ENDMDL
MODEL      246
REMARK 921   NORMALIZED FREE ENERGY PREDICTED BY IDOCK:   -3.64 KCAL/MOL
REMARK 922        TOTAL FREE ENERGY PREDICTED BY IDOCK:   -5.84 KCAL/MOL
REMARK 923 INTER-LIGAND FREE ENERGY PREDICTED BY IDOCK:   -5.01 KCAL/MOL
REMARK 924 INTRA-LIGAND FREE ENERGY PREDICTED BY IDOCK:   -0.83 KCAL/MOL
REMARK 927      BINDING AFFINITY PREDICTED BY RF-SCORE:    0.00 PKD
ROOT
HETATM    1 CL   UNL     1     -11.994  13.552  66.938  1.00  0.00    -0.442 Cl 
HETATM    2  C   UNL     1     -11.216  12.021  66.852  1.00  0.00    -0.320 A  
HETATM    3  C   UNL     1     -11.289  11.146  67.933  1.00  0.00    -0.378 A  
HETATM    4  C   UNL     1     -10.649   9.901  67.864  1.00  0.00    -0.303 A  
HETATM    5  C   UNL     1      -9.922   9.529  66.719  1.00  0.00    -0.297 A  
HETATM    6  C   UNL     1      -9.881  10.418  65.632  1.00  0.00    -0.321 A  
HETATM    7  C   UNL     1     -10.521  11.659  65.701  1.00  0.00    -0.314 A  
ENDROOT
BRANCH   5   8
HETATM    8  C   UNL     1      -9.264   8.162  66.631  1.00  0.00    -0.180 C  
BRANCH   8   9
HETATM    9  S   UNL     1     -10.515   6.880  66.934  1.00  0.00    -0.262 SA 
BRANCH   9  10
HETATM   10  C   UNL     1      -9.706   5.658  68.118  1.00  0.00    -0.127 C  
BRANCH  10  11
HETATM   11  C   UNL     1      -9.450   6.309  69.508  1.00  0.00    -0.151 A  
HETATM   12  C   UNL     1      -8.927   7.398  72.088  1.00  0.00    -0.131 A  
HETATM   13  C   UNL     1     -10.494   6.736  70.360  1.00  0.00    -0.206 A  
HETATM   14  C   UNL     1      -8.137   6.491  70.007  1.00  0.00    -0.121 A  
HETATM   15  C   UNL     1     -10.236   7.245  71.645  1.00  0.00    -0.207 A  
HETATM   16 CL   UNL     1      -8.608   8.045  73.650  1.00  0.00    -0.307 Cl 
HETATM   17 CL   UNL     1     -12.159   6.698  69.891  1.00  0.00    -0.142 Cl 
HETATM   18  C   UNL     1      -7.876   7.040  71.266  1.00  0.00    -0.099 A  
ENDBRANCH  10  11
BRANCH  10  19
HETATM   19  C   UNL     1      -8.450   4.985  67.503  1.00  0.00    -0.105 C  
BRANCH  19  20
HETATM   20  N   UNL     1      -8.662   4.369  66.212  1.00  0.00    -0.112 NA 
HETATM   21  C   UNL     1      -9.356   3.220  65.963  1.00  0.00    -0.117 A  
HETATM   22  N   UNL     1      -8.508   4.028  64.032  1.00  0.00    -0.093 NA 
HETATM   23  C   UNL     1      -9.196   2.995  64.620  1.00  0.00    -0.144 A  
HETATM   24  C   UNL     1      -8.226   4.855  65.014  1.00  0.00    -0.129 A  
ENDBRANCH  19  20
ENDBRANCH  10  19
ENDBRANCH   9  10
ENDBRANCH   8   9
ENDBRANCH   5   8
TORSDOF 6
ENDMDL
MODEL      247
REMARK 921   NORMALIZED FREE ENERGY PREDICTED BY IDOCK:   -3.64 KCAL/MOL
REMARK 922        TOTAL FREE ENERGY PREDICTED BY IDOCK:   -5.84 KCAL/MOL
REMARK 923 INTER-LIGAND FREE ENERGY PREDICTED BY IDOCK:   -4.54 KCAL/MOL
REMARK 924 INTRA-LIGAND FREE ENERGY PREDICTED BY IDOCK:   -1.29 KCAL/MOL
REMARK 927      BINDING AFFINITY PREDICTED BY RF-SCORE:    0.00 PKD
ROOT
HETATM    1 CL   UNL     1     -10.512   4.559  66.621  1.00  0.00    -0.137 Cl 
HETATM    2  C   UNL     1     -10.245   6.012  67.502  1.00  0.00    -0.184 A  
HETATM    3  C   UNL     1     -10.628   7.234  66.955  1.00  0.00    -0.415 A  
HETATM    4  C   UNL     1     -10.404   8.417  67.671  1.00  0.00    -0.317 A  
HETATM    5  C   UNL     1      -9.785   8.387  68.933  1.00  0.00    -0.168 A  
HETATM    6  C   UNL     1      -9.427   7.142  69.475  1.00  0.00    -0.151 A  
HETATM    7  C   UNL     1      -9.652   5.961  68.761  1.00  0.00    -0.152 A  
ENDROOT
BRANCH   5   8
HETATM    8  C   UNL     1      -9.580   9.667  69.726  1.00  0.00    -0.219 C  
BRANCH   8   9
HETATM    9  S   UNL     1      -7.853  10.204  69.551  1.00  0.00    -0.170 SA 
BRANCH   9  10
HETATM   10  C   UNL     1      -7.919  11.789  68.534  1.00  0.00    -0.145 C  
BRANCH  10  11
HETATM   11  C   UNL     1      -8.479  11.517  67.107  1.00  0.00    -0.158 A  
HETATM   12  C   UNL     1      -9.398  11.058  64.450  1.00  0.00    -0.195 A  
HETATM   13  C   UNL     1      -9.608  12.188  66.585  1.00  0.00    -0.220 A  
HETATM   14  C   UNL     1      -7.863  10.584  66.238  1.00  0.00    -0.141 A  
HETATM   15  C   UNL     1     -10.042  11.983  65.263  1.00  0.00    -0.289 A  
HETATM   16 CL   UNL     1      -9.943  10.787  62.841  1.00  0.00    -0.300 Cl 
HETATM   17 CL   UNL     1     -10.561  13.285  67.523  1.00  0.00    -0.246 Cl 
HETATM   18  C   UNL     1      -8.320  10.344  64.938  1.00  0.00    -0.165 A  
ENDBRANCH  10  11
BRANCH  10  19
HETATM   19  C   UNL     1      -6.566  12.549  68.538  1.00  0.00    -0.077 C  
BRANCH  19  20
HETATM   20  N   UNL     1      -6.674  13.978  68.744  1.00  0.00    -0.093 NA 
HETATM   21  C   UNL     1      -6.180  14.686  69.801  1.00  0.00    -0.140 A  
HETATM   22  N   UNL     1      -7.271  16.078  68.396  1.00  0.00    -0.122 NA 
HETATM   23  C   UNL     1      -6.614  15.971  69.597  1.00  0.00    -0.185 A  
HETATM   24  C   UNL     1      -7.265  14.865  67.892  1.00  0.00    -0.153 A  
ENDBRANCH  19  20
ENDBRANCH  10  19
ENDBRANCH   9  10
ENDBRANCH   8   9
ENDBRANCH   5   8
TORSDOF 6
ENDMDL
MODEL      248
REMARK 921   NORMALIZED FREE ENERGY PREDICTED BY IDOCK:   -3.63 KCAL/MOL
REMARK 922        TOTAL FREE ENERGY PREDICTED BY IDOCK:   -5.82 KCAL/MOL
REMARK 923 INTER-LIGAND FREE ENERGY PREDICTED BY IDOCK:   -4.44 KCAL/MOL
REMARK 924 INTRA-LIGAND FREE ENERGY PREDICTED BY IDOCK:   -1.38 KCAL/MOL
REMARK 927      BINDING AFFINITY PREDICTED BY RF-SCORE:    0.00 PKD
ROOT
HETATM    1 CL   UNL     1     -12.063  13.954  70.116  1.00  0.00    -0.395 Cl 
HETATM    2  C   UNL     1     -11.712  13.191  68.615  1.00  0.00    -0.326 A  
HETATM    3  C   UNL     1     -11.815  11.807  68.501  1.00  0.00    -0.365 A  
HETATM    4  C   UNL     1     -11.522  11.186  67.280  1.00  0.00    -0.218 A  
HETATM    5  C   UNL     1     -11.112  11.944  66.169  1.00  0.00    -0.374 A  
HETATM    6  C   UNL     1     -11.036  13.340  66.300  1.00  0.00    -0.306 A  
HETATM    7  C   UNL     1     -11.330  13.960  67.519  1.00  0.00    -0.342 A  
ENDROOT
BRANCH   5   8
HETATM    8  C   UNL     1     -10.835  11.273  64.834  1.00  0.00    -0.229 C  
BRANCH   8   9
HETATM    9  S   UNL     1      -9.054  10.941  64.695  1.00  0.00    -0.131 SA 
BRANCH   9  10
HETATM   10  C   UNL     1      -8.676   9.657  66.021  1.00  0.00    -0.138 C  
BRANCH  10  11
HETATM   11  C   UNL     1      -7.948  10.303  67.236  1.00  0.00    -0.107 A  
HETATM   12  C   UNL     1      -6.510  11.439  69.417  1.00  0.00    -0.108 A  
HETATM   13  C   UNL     1      -8.224   9.945  68.575  1.00  0.00    -0.106 A  
HETATM   14  C   UNL     1      -6.940  11.281  67.057  1.00  0.00    -0.126 A  
HETATM   15  C   UNL     1      -7.494  10.484  69.648  1.00  0.00    -0.145 A  
HETATM   16 CL   UNL     1      -5.633  12.119  70.731  1.00  0.00    -0.155 Cl 
HETATM   17 CL   UNL     1      -9.490   8.848  69.008  1.00  0.00    -0.155 Cl 
HETATM   18  C   UNL     1      -6.244  11.854  68.126  1.00  0.00    -0.051 A  
ENDBRANCH  10  11
BRANCH  10  19
HETATM   19  C   UNL     1      -7.947   8.413  65.447  1.00  0.00    -0.122 C  
BRANCH  19  20
HETATM   20  N   UNL     1      -8.099   7.206  66.230  1.00  0.00    -0.113 NA 
HETATM   21  C   UNL     1      -7.161   6.641  67.044  1.00  0.00    -0.076 A  
HETATM   22  N   UNL     1      -9.027   5.368  67.039  1.00  0.00    -0.113 NA 
HETATM   23  C   UNL     1      -7.732   5.475  67.484  1.00  0.00    -0.096 A  
HETATM   24  C   UNL     1      -9.227   6.442  66.309  1.00  0.00    -0.139 A  
ENDBRANCH  19  20
ENDBRANCH  10  19
ENDBRANCH   9  10
ENDBRANCH   8   9
ENDBRANCH   5   8
TORSDOF 6
ENDMDL
MODEL      249
REMARK 921   NORMALIZED FREE ENERGY PREDICTED BY IDOCK:   -3.62 KCAL/MOL
REMARK 922        TOTAL FREE ENERGY PREDICTED BY IDOCK:   -5.82 KCAL/MOL
REMARK 923 INTER-LIGAND FREE ENERGY PREDICTED BY IDOCK:   -4.19 KCAL/MOL
REMARK 924 INTRA-LIGAND FREE ENERGY PREDICTED BY IDOCK:   -1.63 KCAL/MOL
REMARK 927      BINDING AFFINITY PREDICTED BY RF-SCORE:    0.00 PKD
ROOT
HETATM    1 CL   UNL     1      -9.487   3.744  71.579  1.00  0.00    -0.208 Cl 
HETATM    2  C   UNL     1      -9.864   5.420  71.497  1.00  0.00    -0.168 A  
HETATM    3  C   UNL     1      -9.084   6.340  72.193  1.00  0.00    -0.141 A  
HETATM    4  C   UNL     1      -9.396   7.705  72.130  1.00  0.00    -0.188 A  
HETATM    5  C   UNL     1     -10.498   8.156  71.381  1.00  0.00    -0.261 A  
HETATM    6  C   UNL     1     -11.257   7.213  70.669  1.00  0.00    -0.311 A  
HETATM    7  C   UNL     1     -10.944   5.852  70.730  1.00  0.00    -0.343 A  
ENDROOT
BRANCH   5   8
HETATM    8  C   UNL     1     -10.809   9.640  71.281  1.00  0.00    -0.296 C  
BRANCH   8   9
HETATM    9  S   UNL     1     -11.381  10.014  69.598  1.00  0.00    -0.163 SA 
BRANCH   9  10
HETATM   10  C   UNL     1      -9.819  10.349  68.599  1.00  0.00    -0.177 C  
BRANCH  10  11
HETATM   11  C   UNL     1      -8.872   9.113  68.607  1.00  0.00    -0.133 A  
HETATM   12  C   UNL     1      -7.052   6.921  68.575  1.00  0.00    -0.082 A  
HETATM   13  C   UNL     1      -9.130   7.943  67.857  1.00  0.00    -0.131 A  
HETATM   14  C   UNL     1      -7.674   9.106  69.362  1.00  0.00    -0.080 A  
HETATM   15  C   UNL     1      -8.217   6.875  67.819  1.00  0.00    -0.117 A  
HETATM   16 CL   UNL     1      -5.946   5.604  68.550  1.00  0.00    -0.016 Cl 
HETATM   17 CL   UNL     1     -10.589   7.713  66.955  1.00  0.00    -0.421 Cl 
HETATM   18  C   UNL     1      -6.786   8.026  69.362  1.00  0.00    -0.047 A  
ENDBRANCH  10  11
BRANCH  10  19
HETATM   19  C   UNL     1      -9.122  11.671  69.018  1.00  0.00     0.198 C  
BRANCH  19  20
HETATM   20  N   UNL     1      -9.111  12.700  68.002  1.00  0.00    -0.201 NA 
HETATM   21  C   UNL     1      -8.418  13.876  68.042  1.00  0.00    -0.173 A  
HETATM   22  N   UNL     1      -9.630  13.773  66.139  1.00  0.00    -0.253 NA 
HETATM   23  C   UNL     1      -8.801  14.549  66.912  1.00  0.00    -0.234 A  
HETATM   24  C   UNL     1      -9.774  12.653  66.810  1.00  0.00    -0.240 A  
ENDBRANCH  19  20
ENDBRANCH  10  19
ENDBRANCH   9  10
ENDBRANCH   8   9
ENDBRANCH   5   8
TORSDOF 6
ENDMDL
MODEL      250
REMARK 921   NORMALIZED FREE ENERGY PREDICTED BY IDOCK:   -3.62 KCAL/MOL
REMARK 922        TOTAL FREE ENERGY PREDICTED BY IDOCK:   -5.81 KCAL/MOL
REMARK 923 INTER-LIGAND FREE ENERGY PREDICTED BY IDOCK:   -5.69 KCAL/MOL
REMARK 924 INTRA-LIGAND FREE ENERGY PREDICTED BY IDOCK:   -0.12 KCAL/MOL
REMARK 927      BINDING AFFINITY PREDICTED BY RF-SCORE:    0.00 PKD
ROOT
HETATM    1 CL   UNL     1     -12.284  14.185  66.478  1.00  0.00    -0.484 Cl 
HETATM    2  C   UNL     1     -11.577  12.617  66.521  1.00  0.00    -0.381 A  
HETATM    3  C   UNL     1     -11.067  12.056  65.353  1.00  0.00    -0.369 A  
HETATM    4  C   UNL     1     -10.497  10.776  65.389  1.00  0.00    -0.272 A  
HETATM    5  C   UNL     1     -10.446  10.045  66.589  1.00  0.00    -0.244 A  
HETATM    6  C   UNL     1     -10.947  10.640  67.759  1.00  0.00    -0.364 A  
HETATM    7  C   UNL     1     -11.514  11.918  67.723  1.00  0.00    -0.389 A  
ENDROOT
BRANCH   5   8
HETATM    8  C   UNL     1      -9.792   8.675  66.633  1.00  0.00    -0.266 C  
BRANCH   8   9
HETATM    9  S   UNL     1      -8.644   8.610  68.041  1.00  0.00    -0.138 SA 
BRANCH   9  10
HETATM   10  C   UNL     1      -9.131   7.075  69.017  1.00  0.00    -0.135 C  
BRANCH  10  11
HETATM   11  C   UNL     1      -8.474   5.797  68.416  1.00  0.00    -0.110 A  
HETATM   12  C   UNL     1      -7.180   3.527  67.280  1.00  0.00    -0.059 A  
HETATM   13  C   UNL     1      -9.068   5.045  67.377  1.00  0.00    -0.115 A  
HETATM   14  C   UNL     1      -7.219   5.328  68.872  1.00  0.00    -0.062 A  
HETATM   15  C   UNL     1      -8.416   3.944  66.797  1.00  0.00    -0.105 A  
HETATM   16 CL   UNL     1      -6.391   2.164  66.589  1.00  0.00    -0.024 Cl 
HETATM   17 CL   UNL     1     -10.645   5.392  66.755  1.00  0.00    -0.342 Cl 
HETATM   18  C   UNL     1      -6.588   4.205  68.328  1.00  0.00    -0.046 A  
ENDBRANCH  10  11
BRANCH  10  19
HETATM   19  C   UNL     1     -10.667   6.956  69.205  1.00  0.00    -0.234 C  
BRANCH  19  20
HETATM   20  N   UNL     1     -11.190   7.639  70.369  1.00  0.00    -0.264 NA 
HETATM   21  C   UNL     1     -12.278   7.271  71.107  1.00  0.00    -0.340 A  
HETATM   22  N   UNL     1     -11.406   9.181  71.939  1.00  0.00    -0.375 NA 
HETATM   23  C   UNL     1     -12.430   8.270  72.032  1.00  0.00    -0.351 A  
HETATM   24  C   UNL     1     -10.659   8.756  70.945  1.00  0.00    -0.220 A  
ENDBRANCH  19  20
ENDBRANCH  10  19
ENDBRANCH   9  10
ENDBRANCH   8   9
ENDBRANCH   5   8
TORSDOF 6
ENDMDL
MODEL      251
REMARK 921   NORMALIZED FREE ENERGY PREDICTED BY IDOCK:   -3.61 KCAL/MOL
REMARK 922        TOTAL FREE ENERGY PREDICTED BY IDOCK:   -5.80 KCAL/MOL
REMARK 923 INTER-LIGAND FREE ENERGY PREDICTED BY IDOCK:   -4.67 KCAL/MOL
REMARK 924 INTRA-LIGAND FREE ENERGY PREDICTED BY IDOCK:   -1.13 KCAL/MOL
REMARK 927      BINDING AFFINITY PREDICTED BY RF-SCORE:    0.00 PKD
ROOT
HETATM    1 CL   UNL     1     -11.543  15.979  64.284  1.00  0.00    -0.323 Cl 
HETATM    2  C   UNL     1     -11.457  14.524  65.197  1.00  0.00    -0.368 A  
HETATM    3  C   UNL     1     -11.605  13.296  64.559  1.00  0.00    -0.407 A  
HETATM    4  C   UNL     1     -11.540  12.112  65.305  1.00  0.00    -0.376 A  
HETATM    5  C   UNL     1     -11.340  12.149  66.697  1.00  0.00    -0.405 A  
HETATM    6  C   UNL     1     -11.171  13.399  67.316  1.00  0.00    -0.319 A  
HETATM    7  C   UNL     1     -11.233  14.580  66.571  1.00  0.00    -0.344 A  
ENDROOT
BRANCH   5   8
HETATM    8  C   UNL     1     -11.230  10.863  67.498  1.00  0.00    -0.293 C  
BRANCH   8   9
HETATM    9  S   UNL     1     -10.328   9.628  66.516  1.00  0.00    -0.151 SA 
BRANCH   9  10
HETATM   10  C   UNL     1      -8.804   9.191  67.534  1.00  0.00    -0.119 C  
BRANCH  10  11
HETATM   11  C   UNL     1      -8.022  10.471  67.951  1.00  0.00    -0.106 A  
HETATM   12  C   UNL     1      -6.504  12.783  68.634  1.00  0.00    -0.079 A  
HETATM   13  C   UNL     1      -7.538  10.682  69.262  1.00  0.00    -0.138 A  
HETATM   14  C   UNL     1      -7.733  11.496  67.018  1.00  0.00    -0.158 A  
HETATM   15  C   UNL     1      -6.763  11.808  69.591  1.00  0.00    -0.034 A  
HETATM   16 CL   UNL     1      -5.579  14.175  69.041  1.00  0.00    -0.086 Cl 
HETATM   17 CL   UNL     1      -7.876   9.600  70.569  1.00  0.00    -0.183 Cl 
HETATM   18  C   UNL     1      -7.002  12.640  67.353  1.00  0.00    -0.143 A  
ENDBRANCH  10  11
BRANCH  10  19
HETATM   19  C   UNL     1      -7.921   8.119  66.843  1.00  0.00    -0.104 C  
BRANCH  19  20
HETATM   20  N   UNL     1      -8.130   6.766  67.312  1.00  0.00    -0.116 NA 
HETATM   21  C   UNL     1      -7.733   5.618  66.688  1.00  0.00    -0.100 A  
HETATM   22  N   UNL     1      -8.846   5.106  68.586  1.00  0.00    -0.096 NA 
HETATM   23  C   UNL     1      -8.240   4.605  67.460  1.00  0.00    -0.101 A  
HETATM   24  C   UNL     1      -8.738   6.411  68.481  1.00  0.00    -0.121 A  
ENDBRANCH  19  20
ENDBRANCH  10  19
ENDBRANCH   9  10
ENDBRANCH   8   9
ENDBRANCH   5   8
TORSDOF 6
ENDMDL
MODEL      252
REMARK 921   NORMALIZED FREE ENERGY PREDICTED BY IDOCK:   -3.60 KCAL/MOL
REMARK 922        TOTAL FREE ENERGY PREDICTED BY IDOCK:   -5.78 KCAL/MOL
REMARK 923 INTER-LIGAND FREE ENERGY PREDICTED BY IDOCK:   -6.22 KCAL/MOL
REMARK 924 INTRA-LIGAND FREE ENERGY PREDICTED BY IDOCK:    0.44 KCAL/MOL
REMARK 927      BINDING AFFINITY PREDICTED BY RF-SCORE:    0.00 PKD
ROOT
HETATM    1 CL   UNL     1     -10.604  19.066  65.758  1.00  0.00    -0.491 Cl 
HETATM    2  C   UNL     1     -10.479  17.359  65.584  1.00  0.00    -0.165 A  
HETATM    3  C   UNL     1      -9.541  16.654  66.332  1.00  0.00    -0.308 A  
HETATM    4  C   UNL     1      -9.436  15.264  66.184  1.00  0.00    -0.361 A  
HETATM    5  C   UNL     1     -10.260  14.574  65.278  1.00  0.00    -0.431 A  
HETATM    6  C   UNL     1     -11.214  15.303  64.549  1.00  0.00    -0.291 A  
HETATM    7  C   UNL     1     -11.320  16.689  64.699  1.00  0.00     0.039 A  
ENDROOT
BRANCH   5   8
HETATM    8  C   UNL     1     -10.172  13.062  65.149  1.00  0.00    -0.272 C  
BRANCH   8   9
HETATM    9  S   UNL     1     -11.798  12.340  65.518  1.00  0.00    -0.286 SA 
BRANCH   9  10
HETATM   10  C   UNL     1     -11.562  11.353  67.105  1.00  0.00    -0.098 C  
BRANCH  10  11
HETATM   11  C   UNL     1     -11.851  12.230  68.359  1.00  0.00    -0.358 A  
HETATM   12  C   UNL     1     -12.275  13.888  70.636  1.00  0.00    -0.373 A  
HETATM   13  C   UNL     1     -11.998  11.688  69.657  1.00  0.00    -0.324 A  
HETATM   14  C   UNL     1     -11.963  13.638  68.265  1.00  0.00    -0.385 A  
HETATM   15  C   UNL     1     -12.177  12.510  70.783  1.00  0.00    -0.332 A  
HETATM   16 CL   UNL     1     -12.520  14.894  72.010  1.00  0.00    -0.380 Cl 
HETATM   17 CL   UNL     1     -12.000   9.986  69.965  1.00  0.00    -0.193 Cl 
HETATM   18  C   UNL     1     -12.187  14.455  69.378  1.00  0.00    -0.305 A  
ENDBRANCH  10  11
BRANCH  10  19
HETATM   19  C   UNL     1     -10.188  10.633  67.153  1.00  0.00    -0.216 C  
BRANCH  19  20
HETATM   20  N   UNL     1      -9.059  11.496  67.426  1.00  0.00    -0.164 NA 
HETATM   21  C   UNL     1      -7.904  11.577  66.703  1.00  0.00    -0.112 A  
HETATM   22  N   UNL     1      -7.793  12.977  68.472  1.00  0.00    -0.130 NA 
HETATM   23  C   UNL     1      -7.112  12.451  67.401  1.00  0.00    -0.152 A  
HETATM   24  C   UNL     1      -8.974  12.402  68.442  1.00  0.00    -0.133 A  
ENDBRANCH  19  20
ENDBRANCH  10  19
ENDBRANCH   9  10
ENDBRANCH   8   9
ENDBRANCH   5   8
TORSDOF 6
ENDMDL
MODEL      253
REMARK 921   NORMALIZED FREE ENERGY PREDICTED BY IDOCK:   -3.59 KCAL/MOL
REMARK 922        TOTAL FREE ENERGY PREDICTED BY IDOCK:   -5.77 KCAL/MOL
REMARK 923 INTER-LIGAND FREE ENERGY PREDICTED BY IDOCK:   -4.57 KCAL/MOL
REMARK 924 INTRA-LIGAND FREE ENERGY PREDICTED BY IDOCK:   -1.20 KCAL/MOL
REMARK 927      BINDING AFFINITY PREDICTED BY RF-SCORE:    0.00 PKD
ROOT
HETATM    1 CL   UNL     1      -5.212  13.935  71.124  1.00  0.00    -0.133 Cl 
HETATM    2  C   UNL     1      -5.699  12.866  69.867  1.00  0.00    -0.122 A  
HETATM    3  C   UNL     1      -5.523  11.493  70.019  1.00  0.00    -0.094 A  
HETATM    4  C   UNL     1      -5.915  10.624  68.991  1.00  0.00    -0.040 A  
HETATM    5  C   UNL     1      -6.473  11.124  67.801  1.00  0.00    -0.063 A  
HETATM    6  C   UNL     1      -6.662  12.511  67.680  1.00  0.00    -0.136 A  
HETATM    7  C   UNL     1      -6.272  13.377  68.706  1.00  0.00    -0.090 A  
ENDROOT
BRANCH   5   8
HETATM    8  C   UNL     1      -6.934  10.177  66.706  1.00  0.00    -0.091 C  
BRANCH   8   9
HETATM    9  S   UNL     1      -8.505  10.781  66.023  1.00  0.00    -0.170 SA 
BRANCH   9  10
HETATM   10  C   UNL     1      -9.772  10.557  67.399  1.00  0.00    -0.164 C  
BRANCH  10  11
HETATM   11  C   UNL     1      -9.857   9.068  67.845  1.00  0.00    -0.207 A  
HETATM   12  C   UNL     1     -10.131   6.343  68.631  1.00  0.00    -0.158 A  
HETATM   13  C   UNL     1      -9.622   8.650  69.175  1.00  0.00    -0.163 A  
HETATM   14  C   UNL     1     -10.202   8.042  66.932  1.00  0.00    -0.385 A  
HETATM   15  C   UNL     1      -9.786   7.310  69.568  1.00  0.00    -0.163 A  
HETATM   16 CL   UNL     1     -10.307   4.699  69.104  1.00  0.00    -0.048 Cl 
HETATM   17 CL   UNL     1      -9.088   9.733  70.414  1.00  0.00    -0.233 Cl 
HETATM   18  C   UNL     1     -10.321   6.701  67.310  1.00  0.00    -0.296 A  
ENDBRANCH  10  11
BRANCH  10  19
HETATM   19  C   UNL     1     -11.148  11.180  67.042  1.00  0.00    -0.273 C  
BRANCH  19  20
HETATM   20  N   UNL     1     -11.273  12.590  67.344  1.00  0.00    -0.276 NA 
HETATM   21  C   UNL     1     -10.612  13.273  68.324  1.00  0.00    -0.251 A  
HETATM   22  N   UNL     1     -12.012  14.671  67.234  1.00  0.00    -0.356 NA 
HETATM   23  C   UNL     1     -11.130  14.541  68.279  1.00  0.00    -0.261 A  
HETATM   24  C   UNL     1     -12.054  13.484  66.672  1.00  0.00    -0.396 A  
ENDBRANCH  19  20
ENDBRANCH  10  19
ENDBRANCH   9  10
ENDBRANCH   8   9
ENDBRANCH   5   8
TORSDOF 6
ENDMDL
MODEL      254
REMARK 921   NORMALIZED FREE ENERGY PREDICTED BY IDOCK:   -3.58 KCAL/MOL
REMARK 922        TOTAL FREE ENERGY PREDICTED BY IDOCK:   -5.76 KCAL/MOL
REMARK 923 INTER-LIGAND FREE ENERGY PREDICTED BY IDOCK:   -5.12 KCAL/MOL
REMARK 924 INTRA-LIGAND FREE ENERGY PREDICTED BY IDOCK:   -0.64 KCAL/MOL
REMARK 927      BINDING AFFINITY PREDICTED BY RF-SCORE:    0.00 PKD
ROOT
HETATM    1 CL   UNL     1     -13.399  12.437  71.875  1.00  0.00    -0.532 Cl 
HETATM    2  C   UNL     1     -12.807  10.854  71.553  1.00  0.00    -0.454 A  
HETATM    3  C   UNL     1     -13.367   9.760  72.207  1.00  0.00    -0.472 A  
HETATM    4  C   UNL     1     -12.879   8.472  71.948  1.00  0.00    -0.399 A  
HETATM    5  C   UNL     1     -11.820   8.272  71.044  1.00  0.00    -0.276 A  
HETATM    6  C   UNL     1     -11.286   9.389  70.380  1.00  0.00    -0.309 A  
HETATM    7  C   UNL     1     -11.774  10.674  70.637  1.00  0.00    -0.454 A  
ENDROOT
BRANCH   5   8
HETATM    8  C   UNL     1     -11.321   6.871  70.735  1.00  0.00    -0.310 C  
BRANCH   8   9
HETATM    9  S   UNL     1     -10.645   6.841  69.048  1.00  0.00    -0.245 SA 
BRANCH   9  10
HETATM   10  C   UNL     1      -8.784   7.051  69.248  1.00  0.00    -0.136 C  
BRANCH  10  11
HETATM   11  C   UNL     1      -8.165   7.768  68.012  1.00  0.00    -0.123 A  
HETATM   12  C   UNL     1      -7.020   8.972  65.698  1.00  0.00    -0.080 A  
HETATM   13  C   UNL     1      -6.961   8.506  68.076  1.00  0.00    -0.074 A  
HETATM   14  C   UNL     1      -8.775   7.698  66.736  1.00  0.00    -0.139 A  
HETATM   15  C   UNL     1      -6.381   9.074  66.928  1.00  0.00    -0.059 A  
HETATM   16 CL   UNL     1      -6.326   9.688  64.297  1.00  0.00    -0.099 Cl 
HETATM   17 CL   UNL     1      -6.120   8.796  69.560  1.00  0.00    -0.036 Cl 
HETATM   18  C   UNL     1      -8.224   8.302  65.601  1.00  0.00    -0.134 A  
ENDBRANCH  10  11
BRANCH  10  19
HETATM   19  C   UNL     1      -8.076   5.720  69.615  1.00  0.00    -0.104 C  
BRANCH  19  20
HETATM   20  N   UNL     1      -8.479   4.579  68.821  1.00  0.00    -0.084 NA 
HETATM   21  C   UNL     1      -8.122   4.321  67.529  1.00  0.00    -0.099 A  
HETATM   22  N   UNL     1      -9.514   2.704  68.270  1.00  0.00    -0.199 NA 
HETATM   23  C   UNL     1      -8.822   3.193  67.189  1.00  0.00    -0.137 A  
HETATM   24  C   UNL     1      -9.263   3.547  69.246  1.00  0.00    -0.161 A  
ENDBRANCH  19  20
ENDBRANCH  10  19
ENDBRANCH   9  10
ENDBRANCH   8   9
ENDBRANCH   5   8
TORSDOF 6
ENDMDL
MODEL      255
REMARK 921   NORMALIZED FREE ENERGY PREDICTED BY IDOCK:   -3.56 KCAL/MOL
REMARK 922        TOTAL FREE ENERGY PREDICTED BY IDOCK:   -5.73 KCAL/MOL
REMARK 923 INTER-LIGAND FREE ENERGY PREDICTED BY IDOCK:   -4.80 KCAL/MOL
REMARK 924 INTRA-LIGAND FREE ENERGY PREDICTED BY IDOCK:   -0.93 KCAL/MOL
REMARK 927      BINDING AFFINITY PREDICTED BY RF-SCORE:    0.00 PKD
ROOT
HETATM    1 CL   UNL     1      -5.214   9.381  73.116  1.00  0.00    -0.101 Cl 
HETATM    2  C   UNL     1      -5.832   9.310  71.512  1.00  0.00    -0.074 A  
HETATM    3  C   UNL     1      -6.561   8.198  71.100  1.00  0.00    -0.043 A  
HETATM    4  C   UNL     1      -7.058   8.138  69.791  1.00  0.00    -0.060 A  
HETATM    5  C   UNL     1      -6.817   9.184  68.882  1.00  0.00    -0.056 A  
HETATM    6  C   UNL     1      -6.097  10.306  69.327  1.00  0.00    -0.037 A  
HETATM    7  C   UNL     1      -5.604  10.366  70.634  1.00  0.00    -0.088 A  
ENDROOT
BRANCH   5   8
HETATM    8  C   UNL     1      -7.391   9.136  67.477  1.00  0.00    -0.084 C  
BRANCH   8   9
HETATM    9  S   UNL     1      -8.263   7.559  67.246  1.00  0.00    -0.116 SA 
BRANCH   9  10
HETATM   10  C   UNL     1     -10.046   8.023  66.852  1.00  0.00    -0.292 C  
BRANCH  10  11
HETATM   11  C   UNL     1     -10.471   9.313  67.613  1.00  0.00    -0.325 A  
HETATM   12  C   UNL     1     -11.348  11.615  69.044  1.00  0.00    -0.275 A  
HETATM   13  C   UNL     1     -10.753  10.533  66.958  1.00  0.00    -0.250 A  
HETATM   14  C   UNL     1     -10.620   9.324  69.021  1.00  0.00    -0.225 A  
HETATM   15  C   UNL     1     -11.214  11.659  67.661  1.00  0.00    -0.345 A  
HETATM   16 CL   UNL     1     -11.887  12.999  69.910  1.00  0.00    -0.395 Cl 
HETATM   17 CL   UNL     1     -10.529  10.754  65.256  1.00  0.00    -0.317 Cl 
HETATM   18  C   UNL     1     -11.035  10.456  69.729  1.00  0.00    -0.345 A  
ENDBRANCH  10  11
BRANCH  10  19
HETATM   19  C   UNL     1     -11.022   6.833  67.050  1.00  0.00    -0.368 C  
BRANCH  19  20
HETATM   20  N   UNL     1     -10.524   5.774  67.902  1.00  0.00    -0.220 NA 
HETATM   21  C   UNL     1     -10.652   5.694  69.259  1.00  0.00    -0.288 A  
HETATM   22  N   UNL     1      -9.474   3.922  68.501  1.00  0.00    -0.160 NA 
HETATM   23  C   UNL     1      -9.943   4.576  69.614  1.00  0.00    -0.181 A  
HETATM   24  C   UNL     1      -9.866   4.655  67.483  1.00  0.00    -0.153 A  
ENDBRANCH  19  20
ENDBRANCH  10  19
ENDBRANCH   9  10
ENDBRANCH   8   9
ENDBRANCH   5   8
TORSDOF 6
ENDMDL
MODEL      256
REMARK 921   NORMALIZED FREE ENERGY PREDICTED BY IDOCK:   -3.55 KCAL/MOL
REMARK 922        TOTAL FREE ENERGY PREDICTED BY IDOCK:   -5.72 KCAL/MOL
REMARK 923 INTER-LIGAND FREE ENERGY PREDICTED BY IDOCK:   -4.24 KCAL/MOL
REMARK 924 INTRA-LIGAND FREE ENERGY PREDICTED BY IDOCK:   -1.48 KCAL/MOL
REMARK 927      BINDING AFFINITY PREDICTED BY RF-SCORE:    0.00 PKD
ROOT
HETATM    1 CL   UNL     1      -8.705  12.624  68.017  1.00  0.00    -0.183 Cl 
HETATM    2  C   UNL     1      -8.584  10.910  68.087  1.00  0.00    -0.133 A  
HETATM    3  C   UNL     1      -9.666  10.123  67.701  1.00  0.00    -0.187 A  
HETATM    4  C   UNL     1      -9.568   8.726  67.765  1.00  0.00    -0.177 A  
HETATM    5  C   UNL     1      -8.392   8.109  68.227  1.00  0.00    -0.126 A  
HETATM    6  C   UNL     1      -7.305   8.922  68.590  1.00  0.00    -0.077 A  
HETATM    7  C   UNL     1      -7.403  10.316  68.524  1.00  0.00    -0.082 A  
ENDROOT
BRANCH   5   8
HETATM    8  C   UNL     1      -8.273   6.595  68.257  1.00  0.00    -0.114 C  
BRANCH   8   9
HETATM    9  S   UNL     1      -7.495   6.091  69.819  1.00  0.00    -0.082 SA 
BRANCH   9  10
HETATM   10  C   UNL     1      -8.919   5.698  70.988  1.00  0.00    -0.141 C  
BRANCH  10  11
HETATM   11  C   UNL     1      -9.882   6.913  71.127  1.00  0.00    -0.184 A  
HETATM   12  C   UNL     1     -11.655   9.139  71.262  1.00  0.00    -0.331 A  
HETATM   13  C   UNL     1      -9.475   8.157  71.663  1.00  0.00    -0.177 A  
HETATM   14  C   UNL     1     -11.229   6.841  70.698  1.00  0.00    -0.361 A  
HETATM   15  C   UNL     1     -10.342   9.263  71.701  1.00  0.00    -0.300 A  
HETATM   16 CL   UNL     1     -12.726  10.483  71.332  1.00  0.00    -0.508 Cl 
HETATM   17 CL   UNL     1      -7.903   8.416  72.337  1.00  0.00    -0.171 Cl 
HETATM   18  C   UNL     1     -12.108   7.926  70.778  1.00  0.00    -0.101 A  
ENDBRANCH  10  11
BRANCH  10  19
HETATM   19  C   UNL     1      -8.428   5.132  72.347  1.00  0.00    -0.121 C  
BRANCH  19  20
HETATM   20  N   UNL     1      -9.327   4.184  72.970  1.00  0.00    -0.110 NA 
HETATM   21  C   UNL     1      -9.209   2.824  72.959  1.00  0.00    -0.089 A  
HETATM   22  N   UNL     1     -11.085   3.416  74.069  1.00  0.00    -0.138 NA 
HETATM   23  C   UNL     1     -10.337   2.368  73.589  1.00  0.00    -0.122 A  
HETATM   24  C   UNL     1     -10.434   4.496  73.704  1.00  0.00    -0.222 A  
ENDBRANCH  19  20
ENDBRANCH  10  19
ENDBRANCH   9  10
ENDBRANCH   8   9
ENDBRANCH   5   8
TORSDOF 6
ENDMDL
MODEL      257
REMARK 921   NORMALIZED FREE ENERGY PREDICTED BY IDOCK:   -3.54 KCAL/MOL
REMARK 922        TOTAL FREE ENERGY PREDICTED BY IDOCK:   -5.71 KCAL/MOL
REMARK 923 INTER-LIGAND FREE ENERGY PREDICTED BY IDOCK:   -4.97 KCAL/MOL
REMARK 924 INTRA-LIGAND FREE ENERGY PREDICTED BY IDOCK:   -0.74 KCAL/MOL
REMARK 927      BINDING AFFINITY PREDICTED BY RF-SCORE:    0.00 PKD
ROOT
HETATM    1 CL   UNL     1      -7.684   3.442  69.329  1.00  0.00    -0.051 Cl 
HETATM    2  C   UNL     1      -7.565   4.996  68.600  1.00  0.00    -0.078 A  
HETATM    3  C   UNL     1      -7.329   6.116  69.392  1.00  0.00    -0.091 A  
HETATM    4  C   UNL     1      -7.239   7.382  68.798  1.00  0.00    -0.090 A  
HETATM    5  C   UNL     1      -7.397   7.536  67.409  1.00  0.00    -0.099 A  
HETATM    6  C   UNL     1      -7.611   6.389  66.626  1.00  0.00    -0.094 A  
HETATM    7  C   UNL     1      -7.699   5.126  67.220  1.00  0.00    -0.092 A  
ENDROOT
BRANCH   5   8
HETATM    8  C   UNL     1      -7.258   8.903  66.761  1.00  0.00    -0.082 C  
BRANCH   8   9
HETATM    9  S   UNL     1      -7.889  10.167  67.903  1.00  0.00    -0.101 SA 
BRANCH   9  10
HETATM   10  C   UNL     1      -9.766  10.064  67.781  1.00  0.00    -0.150 C  
BRANCH  10  11
HETATM   11  C   UNL     1     -10.349   9.131  68.882  1.00  0.00    -0.232 A  
HETATM   12  C   UNL     1     -11.310   7.428  70.954  1.00  0.00    -0.276 A  
HETATM   13  C   UNL     1     -10.791   7.815  68.618  1.00  0.00     0.052 A  
HETATM   14  C   UNL     1     -10.448   9.553  70.230  1.00  0.00    -0.319 A  
HETATM   15  C   UNL     1     -11.237   6.966  69.645  1.00  0.00    -0.289 A  
HETATM   16 CL   UNL     1     -11.879   6.399  72.209  1.00  0.00    -0.338 Cl 
HETATM   17 CL   UNL     1     -10.850   7.151  67.021  1.00  0.00    -0.432 Cl 
HETATM   18  C   UNL     1     -10.934   8.725  71.248  1.00  0.00    -0.345 A  
ENDBRANCH  10  11
BRANCH  10  19
HETATM   19  C   UNL     1     -10.245   9.712  66.348  1.00  0.00    -0.217 C  
BRANCH  19  20
HETATM   20  N   UNL     1     -10.506  10.854  65.497  1.00  0.00    -0.247 NA 
HETATM   21  C   UNL     1     -10.312  10.924  64.148  1.00  0.00    -0.364 A  
HETATM   22  N   UNL     1     -11.070  12.910  64.912  1.00  0.00    -0.288 NA 
HETATM   23  C   UNL     1     -10.607  12.221  63.818  1.00  0.00    -0.451 A  
HETATM   24  C   UNL     1     -11.025  12.049  65.903  1.00  0.00    -0.298 A  
ENDBRANCH  19  20
ENDBRANCH  10  19
ENDBRANCH   9  10
ENDBRANCH   8   9
ENDBRANCH   5   8
TORSDOF 6
ENDMDL
MODEL      258
REMARK 921   NORMALIZED FREE ENERGY PREDICTED BY IDOCK:   -3.53 KCAL/MOL
REMARK 922        TOTAL FREE ENERGY PREDICTED BY IDOCK:   -5.69 KCAL/MOL
REMARK 923 INTER-LIGAND FREE ENERGY PREDICTED BY IDOCK:   -4.63 KCAL/MOL
REMARK 924 INTRA-LIGAND FREE ENERGY PREDICTED BY IDOCK:   -1.06 KCAL/MOL
REMARK 927      BINDING AFFINITY PREDICTED BY RF-SCORE:    0.00 PKD
ROOT
HETATM    1 CL   UNL     1     -13.502  10.084  72.046  1.00  0.00    -0.487 Cl 
HETATM    2  C   UNL     1     -11.914   9.702  71.507  1.00  0.00    -0.406 A  
HETATM    3  C   UNL     1     -11.205   8.670  72.116  1.00  0.00    -0.438 A  
HETATM    4  C   UNL     1      -9.909   8.365  71.680  1.00  0.00    -0.290 A  
HETATM    5  C   UNL     1      -9.309   9.097  70.641  1.00  0.00    -0.312 A  
HETATM    6  C   UNL     1     -10.051  10.119  70.025  1.00  0.00    -0.241 A  
HETATM    7  C   UNL     1     -11.345  10.422  70.460  1.00  0.00    -0.424 A  
ENDROOT
BRANCH   5   8
HETATM    8  C   UNL     1      -7.919   8.738  70.142  1.00  0.00    -0.107 C  
BRANCH   8   9
HETATM    9  S   UNL     1      -7.445   9.892  68.822  1.00  0.00    -0.082 SA 
BRANCH   9  10
HETATM   10  C   UNL     1      -7.798   8.984  67.209  1.00  0.00    -0.099 C  
BRANCH  10  11
HETATM   11  C   UNL     1      -8.019   7.464  67.459  1.00  0.00    -0.113 A  
HETATM   12  C   UNL     1      -8.351   4.657  67.821  1.00  0.00    -0.103 A  
HETATM   13  C   UNL     1      -9.285   6.844  67.349  1.00  0.00    -0.125 A  
HETATM   14  C   UNL     1      -6.943   6.606  67.792  1.00  0.00    -0.083 A  
HETATM   15  C   UNL     1      -9.443   5.455  67.499  1.00  0.00    -0.129 A  
HETATM   16 CL   UNL     1      -8.546   2.961  68.030  1.00  0.00    -0.104 Cl 
HETATM   17 CL   UNL     1     -10.739   7.734  67.054  1.00  0.00    -0.396 Cl 
HETATM   18  C   UNL     1      -7.105   5.230  67.987  1.00  0.00    -0.066 A  
ENDBRANCH  10  11
BRANCH  10  19
HETATM   19  C   UNL     1      -6.738   9.288  66.117  1.00  0.00    -0.074 C  
BRANCH  19  20
HETATM   20  N   UNL     1      -7.093   8.844  64.787  1.00  0.00    -0.087 NA 
HETATM   21  C   UNL     1      -8.291   9.029  64.160  1.00  0.00    -0.173 A  
HETATM   22  N   UNL     1      -6.908   7.849  62.820  1.00  0.00    -0.083 NA 
HETATM   23  C   UNL     1      -8.176   8.353  62.973  1.00  0.00    -0.143 A  
HETATM   24  C   UNL     1      -6.270   8.187  63.918  1.00  0.00    -0.067 A  
ENDBRANCH  19  20
ENDBRANCH  10  19
ENDBRANCH   9  10
ENDBRANCH   8   9
ENDBRANCH   5   8
TORSDOF 6
ENDMDL
MODEL      259
REMARK 921   NORMALIZED FREE ENERGY PREDICTED BY IDOCK:   -3.52 KCAL/MOL
REMARK 922        TOTAL FREE ENERGY PREDICTED BY IDOCK:   -5.68 KCAL/MOL
REMARK 923 INTER-LIGAND FREE ENERGY PREDICTED BY IDOCK:   -4.61 KCAL/MOL
REMARK 924 INTRA-LIGAND FREE ENERGY PREDICTED BY IDOCK:   -1.07 KCAL/MOL
REMARK 927      BINDING AFFINITY PREDICTED BY RF-SCORE:    0.00 PKD
ROOT
HETATM    1 CL   UNL     1     -10.630  16.879  67.379  1.00  0.00    -0.320 Cl 
HETATM    2  C   UNL     1     -10.832  15.172  67.446  1.00  0.00    -0.302 A  
HETATM    3  C   UNL     1     -10.042  14.414  68.305  1.00  0.00    -0.239 A  
HETATM    4  C   UNL     1     -10.204  13.023  68.354  1.00  0.00    -0.246 A  
HETATM    5  C   UNL     1     -11.149  12.381  67.534  1.00  0.00    -0.313 A  
HETATM    6  C   UNL     1     -11.951  13.167  66.691  1.00  0.00    -0.451 A  
HETATM    7  C   UNL     1     -11.790  14.556  66.644  1.00  0.00    -0.383 A  
ENDROOT
BRANCH   5   8
HETATM    8  C   UNL     1     -11.351  10.877  67.619  1.00  0.00    -0.270 C  
BRANCH   8   9
HETATM    9  S   UNL     1     -10.276  10.065  66.400  1.00  0.00    -0.194 SA 
BRANCH   9  10
HETATM   10  C   UNL     1      -9.252   8.824  67.379  1.00  0.00    -0.136 C  
BRANCH  10  11
HETATM   11  C   UNL     1      -8.271   9.548  68.348  1.00  0.00    -0.113 A  
HETATM   12  C   UNL     1      -6.385  10.844  70.045  1.00  0.00    -0.142 A  
HETATM   13  C   UNL     1      -8.053   9.124  69.678  1.00  0.00    -0.106 A  
HETATM   14  C   UNL     1      -7.519  10.673  67.932  1.00  0.00    -0.090 A  
HETATM   15  C   UNL     1      -7.101   9.745  70.505  1.00  0.00    -0.130 A  
HETATM   16 CL   UNL     1      -5.238  11.623  71.063  1.00  0.00    -0.129 Cl 
HETATM   17 CL   UNL     1      -8.950   7.836  70.408  1.00  0.00    -0.146 Cl 
HETATM   18  C   UNL     1      -6.604  11.322  68.767  1.00  0.00    -0.062 A  
ENDBRANCH  10  11
BRANCH  10  19
HETATM   19  C   UNL     1      -8.564   7.775  66.466  1.00  0.00    -0.143 C  
BRANCH  19  20
HETATM   20  N   UNL     1      -8.862   6.397  66.794  1.00  0.00    -0.121 NA 
HETATM   21  C   UNL     1     -10.096   5.813  66.809  1.00  0.00    -0.196 A  
HETATM   22  N   UNL     1      -8.535   4.307  67.438  1.00  0.00    -0.099 NA 
HETATM   23  C   UNL     1      -9.878   4.541  67.270  1.00  0.00    -0.175 A  
HETATM   24  C   UNL     1      -7.947   5.437  67.115  1.00  0.00    -0.101 A  
ENDBRANCH  19  20
ENDBRANCH  10  19
ENDBRANCH   9  10
ENDBRANCH   8   9
ENDBRANCH   5   8
TORSDOF 6
ENDMDL
MODEL      260
REMARK 921   NORMALIZED FREE ENERGY PREDICTED BY IDOCK:   -3.52 KCAL/MOL
REMARK 922        TOTAL FREE ENERGY PREDICTED BY IDOCK:   -5.68 KCAL/MOL
REMARK 923 INTER-LIGAND FREE ENERGY PREDICTED BY IDOCK:   -4.50 KCAL/MOL
REMARK 924 INTRA-LIGAND FREE ENERGY PREDICTED BY IDOCK:   -1.18 KCAL/MOL
REMARK 927      BINDING AFFINITY PREDICTED BY RF-SCORE:    0.00 PKD
ROOT
HETATM    1 CL   UNL     1      -7.879   2.950  66.438  1.00  0.00    -0.077 Cl 
HETATM    2  C   UNL     1      -7.725   4.634  66.120  1.00  0.00    -0.091 A  
HETATM    3  C   UNL     1      -8.863   5.401  65.885  1.00  0.00    -0.148 A  
HETATM    4  C   UNL     1      -8.736   6.771  65.620  1.00  0.00    -0.086 A  
HETATM    5  C   UNL     1      -7.469   7.379  65.574  1.00  0.00    -0.088 A  
HETATM    6  C   UNL     1      -6.336   6.590  65.835  1.00  0.00    -0.039 A  
HETATM    7  C   UNL     1      -6.464   5.224  66.102  1.00  0.00    -0.040 A  
ENDROOT
BRANCH   5   8
HETATM    8  C   UNL     1      -7.336   8.872  65.326  1.00  0.00    -0.088 C  
BRANCH   8   9
HETATM    9  S   UNL     1      -7.455   9.750  66.913  1.00  0.00    -0.091 SA 
BRANCH   9  10
HETATM   10  C   UNL     1      -9.273  10.205  67.101  1.00  0.00    -0.138 C  
BRANCH  10  11
HETATM   11  C   UNL     1      -9.908   9.481  68.324  1.00  0.00    -0.174 A  
HETATM   12  C   UNL     1     -11.098   8.063  70.490  1.00  0.00    -0.251 A  
HETATM   13  C   UNL     1     -11.022   9.994  69.027  1.00  0.00    -0.212 A  
HETATM   14  C   UNL     1      -9.408   8.241  68.789  1.00  0.00    -0.143 A  
HETATM   15  C   UNL     1     -11.627   9.280  70.075  1.00  0.00    -0.005 A  
HETATM   16 CL   UNL     1     -11.820   7.199  71.790  1.00  0.00    -0.318 Cl 
HETATM   17 CL   UNL     1     -11.713  11.543  68.681  1.00  0.00    -0.372 Cl 
HETATM   18  C   UNL     1      -9.979   7.549  69.862  1.00  0.00    -0.189 A  
ENDBRANCH  10  11
BRANCH  10  19
HETATM   19  C   UNL     1     -10.069  10.015  65.782  1.00  0.00    -0.250 C  
BRANCH  19  20
HETATM   20  N   UNL     1     -10.435  11.244  65.113  1.00  0.00    -0.286 NA 
HETATM   21  C   UNL     1     -11.213  11.362  63.997  1.00  0.00    -0.269 A  
HETATM   22  N   UNL     1     -10.506  13.405  64.649  1.00  0.00    -0.407 NA 
HETATM   23  C   UNL     1     -11.192  12.698  63.692  1.00  0.00    -0.466 A  
HETATM   24  C   UNL     1     -10.087  12.503  65.507  1.00  0.00    -0.265 A  
ENDBRANCH  19  20
ENDBRANCH  10  19
ENDBRANCH   9  10
ENDBRANCH   8   9
ENDBRANCH   5   8
TORSDOF 6
ENDMDL
MODEL      261
REMARK 921   NORMALIZED FREE ENERGY PREDICTED BY IDOCK:   -3.52 KCAL/MOL
REMARK 922        TOTAL FREE ENERGY PREDICTED BY IDOCK:   -5.67 KCAL/MOL
REMARK 923 INTER-LIGAND FREE ENERGY PREDICTED BY IDOCK:   -5.33 KCAL/MOL
REMARK 924 INTRA-LIGAND FREE ENERGY PREDICTED BY IDOCK:   -0.34 KCAL/MOL
REMARK 927      BINDING AFFINITY PREDICTED BY RF-SCORE:    0.00 PKD
ROOT
HETATM    1 CL   UNL     1     -13.542  15.453  72.013  1.00  0.00    -0.534 Cl 
HETATM    2  C   UNL     1     -13.091  13.887  71.461  1.00  0.00    -0.365 A  
HETATM    3  C   UNL     1     -13.437  12.764  72.208  1.00  0.00    -0.591 A  
HETATM    4  C   UNL     1     -13.064  11.489  71.760  1.00  0.00    -0.503 A  
HETATM    5  C   UNL     1     -12.331  11.332  70.570  1.00  0.00    -0.446 A  
HETATM    6  C   UNL     1     -12.012  12.477  69.822  1.00  0.00    -0.359 A  
HETATM    7  C   UNL     1     -12.386  13.748  70.268  1.00  0.00    -0.407 A  
ENDROOT
BRANCH   5   8
HETATM    8  C   UNL     1     -11.962   9.947  70.066  1.00  0.00    -0.009 C  
BRANCH   8   9
HETATM    9  S   UNL     1     -10.579  10.089  68.897  1.00  0.00    -0.228 SA 
BRANCH   9  10
HETATM   10  C   UNL     1      -9.386   8.706  69.358  1.00  0.00    -0.150 C  
BRANCH  10  11
HETATM   11  C   UNL     1      -9.173   7.728  68.165  1.00  0.00    -0.138 A  
HETATM   12  C   UNL     1      -8.773   6.035  65.909  1.00  0.00    -0.154 A  
HETATM   13  C   UNL     1     -10.158   6.806  67.744  1.00  0.00    -0.154 A  
HETATM   14  C   UNL     1      -7.971   7.728  67.417  1.00  0.00    -0.119 A  
HETATM   15  C   UNL     1      -9.971   5.992  66.613  1.00  0.00    -0.211 A  
HETATM   16 CL   UNL     1      -8.531   5.022  64.541  1.00  0.00    -0.139 Cl 
HETATM   17 CL   UNL     1     -11.650   6.579  68.590  1.00  0.00    -0.045 Cl 
HETATM   18  C   UNL     1      -7.765   6.887  66.319  1.00  0.00    -0.094 A  
ENDBRANCH  10  11
BRANCH  10  19
HETATM   19  C   UNL     1      -9.785   7.998  70.680  1.00  0.00    -0.173 C  
BRANCH  19  20
HETATM   20  N   UNL     1      -8.673   7.524  71.475  1.00  0.00    -0.116 NA 
HETATM   21  C   UNL     1      -7.718   6.629  71.086  1.00  0.00    -0.097 A  
HETATM   22  N   UNL     1      -7.348   7.253  73.225  1.00  0.00    -0.072 NA 
HETATM   23  C   UNL     1      -6.948   6.429  72.201  1.00  0.00    -0.073 A  
HETATM   24  C   UNL     1      -8.372   7.922  72.745  1.00  0.00    -0.151 A  
ENDBRANCH  19  20
ENDBRANCH  10  19
ENDBRANCH   9  10
ENDBRANCH   8   9
ENDBRANCH   5   8
TORSDOF 6
ENDMDL
MODEL      262
REMARK 921   NORMALIZED FREE ENERGY PREDICTED BY IDOCK:   -3.51 KCAL/MOL
REMARK 922        TOTAL FREE ENERGY PREDICTED BY IDOCK:   -5.67 KCAL/MOL
REMARK 923 INTER-LIGAND FREE ENERGY PREDICTED BY IDOCK:   -4.92 KCAL/MOL
REMARK 924 INTRA-LIGAND FREE ENERGY PREDICTED BY IDOCK:   -0.75 KCAL/MOL
REMARK 927      BINDING AFFINITY PREDICTED BY RF-SCORE:    0.00 PKD
ROOT
HETATM    1 CL   UNL     1      -9.395  19.753  66.004  1.00  0.00    -0.415 Cl 
HETATM    2  C   UNL     1      -9.371  18.091  66.449  1.00  0.00    -0.255 A  
HETATM    3  C   UNL     1     -10.525  17.492  66.947  1.00  0.00    -0.285 A  
HETATM    4  C   UNL     1     -10.502  16.140  67.315  1.00  0.00    -0.309 A  
HETATM    5  C   UNL     1      -9.323  15.383  67.198  1.00  0.00    -0.225 A  
HETATM    6  C   UNL     1      -8.177  16.002  66.671  1.00  0.00    -0.324 A  
HETATM    7  C   UNL     1      -8.201  17.351  66.303  1.00  0.00    -0.288 A  
ENDROOT
BRANCH   5   8
HETATM    8  C   UNL     1      -9.312  13.907  67.559  1.00  0.00    -0.217 C  
BRANCH   8   9
HETATM    9  S   UNL     1      -7.596  13.309  67.561  1.00  0.00    -0.145 SA 
BRANCH   9  10
HETATM   10  C   UNL     1      -7.672  11.558  66.871  1.00  0.00    -0.157 C  
BRANCH  10  11
HETATM   11  C   UNL     1      -8.600  10.655  67.735  1.00  0.00    -0.123 A  
HETATM   12  C   UNL     1     -10.203   8.934  69.344  1.00  0.00    -0.209 A  
HETATM   13  C   UNL     1      -9.678   9.919  67.192  1.00  0.00    -0.178 A  
HETATM   14  C   UNL     1      -8.396  10.505  69.128  1.00  0.00    -0.154 A  
HETATM   15  C   UNL     1     -10.449   9.048  67.980  1.00  0.00    -0.270 A  
HETATM   16 CL   UNL     1     -11.161   7.888  70.316  1.00  0.00    -0.243 Cl 
HETATM   17 CL   UNL     1     -10.156  10.048  65.534  1.00  0.00    -0.359 Cl 
HETATM   18  C   UNL     1      -9.190   9.674  69.924  1.00  0.00    -0.255 A  
ENDBRANCH  10  11
BRANCH  10  19
HETATM   19  C   UNL     1      -6.261  10.955  66.635  1.00  0.00    -0.113 C  
BRANCH  19  20
HETATM   20  N   UNL     1      -6.178  10.021  65.533  1.00  0.00    -0.084 NA 
HETATM   21  C   UNL     1      -6.115  10.332  64.205  1.00  0.00    -0.121 A  
HETATM   22  N   UNL     1      -6.127   8.088  64.460  1.00  0.00    -0.052 NA 
HETATM   23  C   UNL     1      -6.147   9.124  63.559  1.00  0.00    -0.088 A  
HETATM   24  C   UNL     1      -6.117   8.662  65.641  1.00  0.00    -0.052 A  
ENDBRANCH  19  20
ENDBRANCH  10  19
ENDBRANCH   9  10
ENDBRANCH   8   9
ENDBRANCH   5   8
TORSDOF 6
ENDMDL
MODEL      263
REMARK 921   NORMALIZED FREE ENERGY PREDICTED BY IDOCK:   -3.51 KCAL/MOL
REMARK 922        TOTAL FREE ENERGY PREDICTED BY IDOCK:   -5.67 KCAL/MOL
REMARK 923 INTER-LIGAND FREE ENERGY PREDICTED BY IDOCK:   -5.39 KCAL/MOL
REMARK 924 INTRA-LIGAND FREE ENERGY PREDICTED BY IDOCK:   -0.28 KCAL/MOL
REMARK 927      BINDING AFFINITY PREDICTED BY RF-SCORE:    0.00 PKD
ROOT
HETATM    1 CL   UNL     1     -12.094  15.349  64.399  1.00  0.00    -0.320 Cl 
HETATM    2  C   UNL     1     -11.510  14.098  65.425  1.00  0.00    -0.325 A  
HETATM    3  C   UNL     1     -10.210  13.625  65.269  1.00  0.00    -0.341 A  
HETATM    4  C   UNL     1      -9.737  12.601  66.101  1.00  0.00    -0.253 A  
HETATM    5  C   UNL     1     -10.567  12.036  67.087  1.00  0.00    -0.255 A  
HETATM    6  C   UNL     1     -11.867  12.544  67.241  1.00  0.00    -0.381 A  
HETATM    7  C   UNL     1     -12.337  13.567  66.411  1.00  0.00    -0.413 A  
ENDROOT
BRANCH   5   8
HETATM    8  C   UNL     1     -10.039  10.955  68.015  1.00  0.00    -0.177 C  
BRANCH   8   9
HETATM    9  S   UNL     1     -10.655   9.340  67.456  1.00  0.00    -0.211 SA 
BRANCH   9  10
HETATM   10  C   UNL     1      -9.647   8.062  68.403  1.00  0.00    -0.150 C  
BRANCH  10  11
HETATM   11  C   UNL     1      -8.666   7.309  67.458  1.00  0.00    -0.121 A  
HETATM   12  C   UNL     1      -6.844   6.036  65.675  1.00  0.00    -0.056 A  
HETATM   13  C   UNL     1      -9.088   6.311  66.550  1.00  0.00    -0.153 A  
HETATM   14  C   UNL     1      -7.281   7.605  67.444  1.00  0.00    -0.087 A  
HETATM   15  C   UNL     1      -8.194   5.705  65.650  1.00  0.00    -0.126 A  
HETATM   16 CL   UNL     1      -5.743   5.278  64.593  1.00  0.00    -0.017 Cl 
HETATM   17 CL   UNL     1     -10.718   5.732  66.488  1.00  0.00    -0.321 Cl 
HETATM   18  C   UNL     1      -6.381   6.971  66.581  1.00  0.00    -0.050 A  
ENDBRANCH  10  11
BRANCH  10  19
HETATM   19  C   UNL     1     -10.539   7.119  69.254  1.00  0.00    -0.221 C  
BRANCH  19  20
HETATM   20  N   UNL     1     -10.766   7.561  70.613  1.00  0.00    -0.226 NA 
HETATM   21  C   UNL     1      -9.881   7.491  71.650  1.00  0.00    -0.161 A  
HETATM   22  N   UNL     1     -11.831   8.369  72.375  1.00  0.00    -0.388 NA 
HETATM   23  C   UNL     1     -10.580   7.937  72.741  1.00  0.00    -0.353 A  
HETATM   24  C   UNL     1     -11.902   8.156  71.080  1.00  0.00    -0.279 A  
ENDBRANCH  19  20
ENDBRANCH  10  19
ENDBRANCH   9  10
ENDBRANCH   8   9
ENDBRANCH   5   8
TORSDOF 6
ENDMDL
MODEL      264
REMARK 921   NORMALIZED FREE ENERGY PREDICTED BY IDOCK:   -3.51 KCAL/MOL
REMARK 922        TOTAL FREE ENERGY PREDICTED BY IDOCK:   -5.66 KCAL/MOL
REMARK 923 INTER-LIGAND FREE ENERGY PREDICTED BY IDOCK:   -4.77 KCAL/MOL
REMARK 924 INTRA-LIGAND FREE ENERGY PREDICTED BY IDOCK:   -0.89 KCAL/MOL
REMARK 927      BINDING AFFINITY PREDICTED BY RF-SCORE:    0.00 PKD
ROOT
HETATM    1 CL   UNL     1      -6.417  15.972  68.170  1.00  0.00    -0.122 Cl 
HETATM    2  C   UNL     1      -6.622  14.302  68.526  1.00  0.00    -0.095 A  
HETATM    3  C   UNL     1      -5.916  13.726  69.579  1.00  0.00    -0.107 A  
HETATM    4  C   UNL     1      -6.079  12.364  69.864  1.00  0.00    -0.135 A  
HETATM    5  C   UNL     1      -6.941  11.566  69.090  1.00  0.00    -0.113 A  
HETATM    6  C   UNL     1      -7.660  12.173  68.047  1.00  0.00    -0.123 A  
HETATM    7  C   UNL     1      -7.498  13.533  67.764  1.00  0.00    -0.168 A  
ENDROOT
BRANCH   5   8
HETATM    8  C   UNL     1      -7.148  10.099  69.426  1.00  0.00    -0.085 C  
BRANCH   8   9
HETATM    9  S   UNL     1      -8.898   9.824  69.826  1.00  0.00    -0.225 SA 
BRANCH   9  10
HETATM   10  C   UNL     1      -9.591   8.820  68.390  1.00  0.00    -0.147 C  
BRANCH  10  11
HETATM   11  C   UNL     1      -9.989   9.743  67.201  1.00  0.00    -0.252 A  
HETATM   12  C   UNL     1     -10.601  11.469  65.019  1.00  0.00    -0.297 A  
HETATM   13  C   UNL     1     -10.914  10.804  67.329  1.00  0.00    -0.297 A  
HETATM   14  C   UNL     1      -9.419   9.577  65.916  1.00  0.00    -0.307 A  
HETATM   15  C   UNL     1     -11.193  11.673  66.260  1.00  0.00    -0.332 A  
HETATM   16 CL   UNL     1     -10.961  12.515  63.702  1.00  0.00    -0.492 Cl 
HETATM   17 CL   UNL     1     -11.796  11.105  68.787  1.00  0.00    -0.398 Cl 
HETATM   18  C   UNL     1      -9.729  10.412  64.838  1.00  0.00    -0.372 A  
ENDBRANCH  10  11
BRANCH  10  19
HETATM   19  C   UNL     1     -10.722   7.856  68.836  1.00  0.00    -0.073 C  
BRANCH  19  20
HETATM   20  N   UNL     1     -10.357   6.455  68.846  1.00  0.00    -0.183 NA 
HETATM   21  C   UNL     1     -10.473   5.577  67.808  1.00  0.00    -0.180 A  
HETATM   22  N   UNL     1      -9.658   4.506  69.622  1.00  0.00    -0.182 NA 
HETATM   23  C   UNL     1     -10.095   4.366  68.327  1.00  0.00     0.091 A  
HETATM   24  C   UNL     1      -9.802   5.783  69.896  1.00  0.00    -0.179 A  
ENDBRANCH  19  20
ENDBRANCH  10  19
ENDBRANCH   9  10
ENDBRANCH   8   9
ENDBRANCH   5   8
TORSDOF 6
ENDMDL
MODEL      265
REMARK 921   NORMALIZED FREE ENERGY PREDICTED BY IDOCK:   -3.50 KCAL/MOL
REMARK 922        TOTAL FREE ENERGY PREDICTED BY IDOCK:   -5.65 KCAL/MOL
REMARK 923 INTER-LIGAND FREE ENERGY PREDICTED BY IDOCK:   -5.21 KCAL/MOL
REMARK 924 INTRA-LIGAND FREE ENERGY PREDICTED BY IDOCK:   -0.44 KCAL/MOL
REMARK 927      BINDING AFFINITY PREDICTED BY RF-SCORE:    0.00 PKD
ROOT
HETATM    1 CL   UNL     1     -11.345  16.285  64.214  1.00  0.00    -0.262 Cl 
HETATM    2  C   UNL     1     -10.999  14.688  64.751  1.00  0.00    -0.386 A  
HETATM    3  C   UNL     1     -10.237  14.494  65.900  1.00  0.00    -0.339 A  
HETATM    4  C   UNL     1      -9.950  13.192  66.333  1.00  0.00    -0.282 A  
HETATM    5  C   UNL     1     -10.413  12.077  65.612  1.00  0.00    -0.293 A  
HETATM    6  C   UNL     1     -11.199  12.296  64.469  1.00  0.00    -0.378 A  
HETATM    7  C   UNL     1     -11.486  13.595  64.038  1.00  0.00    -0.303 A  
ENDROOT
BRANCH   5   8
HETATM    8  C   UNL     1     -10.136  10.667  66.106  1.00  0.00    -0.249 C  
BRANCH   8   9
HETATM    9  S   UNL     1      -8.780  10.717  67.314  1.00  0.00    -0.130 SA 
BRANCH   9  10
HETATM   10  C   UNL     1      -9.507  10.043  68.915  1.00  0.00    -0.172 C  
BRANCH  10  11
HETATM   11  C   UNL     1      -8.726   8.786  69.400  1.00  0.00    -0.142 A  
HETATM   12  C   UNL     1      -7.195   6.540  70.253  1.00  0.00    -0.080 A  
HETATM   13  C   UNL     1      -8.915   7.502  68.841  1.00  0.00    -0.134 A  
HETATM   14  C   UNL     1      -7.757   8.872  70.429  1.00  0.00    -0.098 A  
HETATM   15  C   UNL     1      -8.138   6.401  69.241  1.00  0.00    -0.111 A  
HETATM   16 CL   UNL     1      -6.261   5.189  70.763  1.00  0.00    -0.022 Cl 
HETATM   17 CL   UNL     1     -10.124   7.170  67.649  1.00  0.00    -0.208 Cl 
HETATM   18  C   UNL     1      -7.014   7.768  70.861  1.00  0.00    -0.049 A  
ENDBRANCH  10  11
BRANCH  10  19
HETATM   19  C   UNL     1     -11.041   9.825  68.821  1.00  0.00    -0.095 C  
BRANCH  19  20
HETATM   20  N   UNL     1     -11.824  10.625  69.738  1.00  0.00    -0.297 NA 
HETATM   21  C   UNL     1     -12.103  11.956  69.623  1.00  0.00    -0.239 A  
HETATM   22  N   UNL     1     -13.012  11.152  71.527  1.00  0.00    -0.452 NA 
HETATM   23  C   UNL     1     -12.784  12.274  70.769  1.00  0.00    -0.126 A  
HETATM   24  C   UNL     1     -12.446  10.170  70.864  1.00  0.00    -0.360 A  
ENDBRANCH  19  20
ENDBRANCH  10  19
ENDBRANCH   9  10
ENDBRANCH   8   9
ENDBRANCH   5   8
TORSDOF 6
ENDMDL
MODEL      266
REMARK 921   NORMALIZED FREE ENERGY PREDICTED BY IDOCK:   -3.50 KCAL/MOL
REMARK 922        TOTAL FREE ENERGY PREDICTED BY IDOCK:   -5.65 KCAL/MOL
REMARK 923 INTER-LIGAND FREE ENERGY PREDICTED BY IDOCK:   -4.95 KCAL/MOL
REMARK 924 INTRA-LIGAND FREE ENERGY PREDICTED BY IDOCK:   -0.70 KCAL/MOL
REMARK 927      BINDING AFFINITY PREDICTED BY RF-SCORE:    0.00 PKD
ROOT
HETATM    1 CL   UNL     1     -12.718  14.828  70.437  1.00  0.00    -0.387 Cl 
HETATM    2  C   UNL     1     -11.842  13.537  69.711  1.00  0.00    -0.329 A  
HETATM    3  C   UNL     1     -10.881  13.811  68.742  1.00  0.00    -0.281 A  
HETATM    4  C   UNL     1     -10.174  12.758  68.147  1.00  0.00    -0.241 A  
HETATM    5  C   UNL     1     -10.432  11.424  68.508  1.00  0.00    -0.223 A  
HETATM    6  C   UNL     1     -11.391  11.172  69.503  1.00  0.00    -0.359 A  
HETATM    7  C   UNL     1     -12.095  12.223  70.098  1.00  0.00    -0.364 A  
ENDROOT
BRANCH   5   8
HETATM    8  C   UNL     1      -9.635  10.287  67.891  1.00  0.00    -0.145 C  
BRANCH   8   9
HETATM    9  S   UNL     1     -10.487   8.717  68.223  1.00  0.00    -0.149 SA 
BRANCH   9  10
HETATM   10  C   UNL     1      -9.342   7.755  69.368  1.00  0.00    -0.152 C  
BRANCH  10  11
HETATM   11  C   UNL     1      -8.257   6.985  68.559  1.00  0.00    -0.124 A  
HETATM   12  C   UNL     1      -6.348   5.479  67.074  1.00  0.00    -0.039 A  
HETATM   13  C   UNL     1      -6.980   6.680  69.083  1.00  0.00    -0.078 A  
HETATM   14  C   UNL     1      -8.507   6.523  67.244  1.00  0.00    -0.112 A  
HETATM   15  C   UNL     1      -6.050   5.912  68.361  1.00  0.00    -0.021 A  
HETATM   16 CL   UNL     1      -5.202   4.561  66.179  1.00  0.00    -0.008 Cl 
HETATM   17 CL   UNL     1      -6.445   7.246  70.628  1.00  0.00    -0.042 Cl 
HETATM   18  C   UNL     1      -7.566   5.798  66.505  1.00  0.00    -0.091 A  
ENDBRANCH  10  11
BRANCH  10  19
HETATM   19  C   UNL     1     -10.122   6.864  70.370  1.00  0.00    -0.187 C  
BRANCH  19  20
HETATM   20  N   UNL     1     -11.219   7.524  71.044  1.00  0.00    -0.258 NA 
HETATM   21  C   UNL     1     -11.140   8.647  71.817  1.00  0.00    -0.326 A  
HETATM   22  N   UNL     1     -13.273   7.903  71.771  1.00  0.00    -0.337 NA 
HETATM   23  C   UNL     1     -12.408   8.826  72.306  1.00  0.00    -0.378 A  
HETATM   24  C   UNL     1     -12.530   7.150  70.991  1.00  0.00    -0.316 A  
ENDBRANCH  19  20
ENDBRANCH  10  19
ENDBRANCH   9  10
ENDBRANCH   8   9
ENDBRANCH   5   8
TORSDOF 6
ENDMDL
MODEL      267
REMARK 921   NORMALIZED FREE ENERGY PREDICTED BY IDOCK:   -3.49 KCAL/MOL
REMARK 922        TOTAL FREE ENERGY PREDICTED BY IDOCK:   -5.63 KCAL/MOL
REMARK 923 INTER-LIGAND FREE ENERGY PREDICTED BY IDOCK:   -4.96 KCAL/MOL
REMARK 924 INTRA-LIGAND FREE ENERGY PREDICTED BY IDOCK:   -0.67 KCAL/MOL
REMARK 927      BINDING AFFINITY PREDICTED BY RF-SCORE:    0.00 PKD
ROOT
HETATM    1 CL   UNL     1      -6.552  15.843  69.334  1.00  0.00    -0.163 Cl 
HETATM    2  C   UNL     1      -7.067  14.408  68.536  1.00  0.00    -0.109 A  
HETATM    3  C   UNL     1      -6.664  13.165  69.018  1.00  0.00    -0.103 A  
HETATM    4  C   UNL     1      -7.079  11.998  68.363  1.00  0.00    -0.084 A  
HETATM    5  C   UNL     1      -7.889  12.067  67.216  1.00  0.00    -0.170 A  
HETATM    6  C   UNL     1      -8.302  13.330  66.761  1.00  0.00     0.078 A  
HETATM    7  C   UNL     1      -7.889  14.495  67.416  1.00  0.00    -0.221 A  
ENDROOT
BRANCH   5   8
HETATM    8  C   UNL     1      -8.371  10.799  66.532  1.00  0.00    -0.146 C  
BRANCH   8   9
HETATM    9  S   UNL     1     -10.123  10.992  66.090  1.00  0.00    -0.245 SA 
BRANCH   9  10
HETATM   10  C   UNL     1     -11.078  10.730  67.691  1.00  0.00    -0.319 C  
BRANCH  10  11
HETATM   11  C   UNL     1     -11.515  12.089  68.313  1.00  0.00    -0.361 A  
HETATM   12  C   UNL     1     -12.199  14.612  69.446  1.00  0.00    -0.235 A  
HETATM   13  C   UNL     1     -12.087  12.195  69.601  1.00  0.00    -0.218 A  
HETATM   14  C   UNL     1     -11.339  13.309  67.617  1.00  0.00    -0.328 A  
HETATM   15  C   UNL     1     -12.396  13.443  70.171  1.00  0.00    -0.322 A  
HETATM   16 CL   UNL     1     -12.600  16.138  70.130  1.00  0.00     0.205 Cl 
HETATM   17 CL   UNL     1     -12.479  10.814  70.567  1.00  0.00    -0.428 Cl 
HETATM   18  C   UNL     1     -11.688  14.549  68.163  1.00  0.00    -0.369 A  
ENDBRANCH  10  11
BRANCH  10  19
HETATM   19  C   UNL     1     -10.324   9.805  68.684  1.00  0.00    -0.201 C  
BRANCH  19  20
HETATM   20  N   UNL     1     -10.664   8.402  68.582  1.00  0.00    -0.102 NA 
HETATM   21  C   UNL     1     -10.959   7.559  69.614  1.00  0.00    -0.153 A  
HETATM   22  N   UNL     1     -11.019   6.421  67.665  1.00  0.00    -0.342 NA 
HETATM   23  C   UNL     1     -11.114   6.329  69.032  1.00  0.00    -0.378 A  
HETATM   24  C   UNL     1     -10.776   7.689  67.423  1.00  0.00    -0.248 A  
ENDBRANCH  19  20
ENDBRANCH  10  19
ENDBRANCH   9  10
ENDBRANCH   8   9
ENDBRANCH   5   8
TORSDOF 6
ENDMDL
MODEL      268
REMARK 921   NORMALIZED FREE ENERGY PREDICTED BY IDOCK:   -3.48 KCAL/MOL
REMARK 922        TOTAL FREE ENERGY PREDICTED BY IDOCK:   -5.63 KCAL/MOL
REMARK 923 INTER-LIGAND FREE ENERGY PREDICTED BY IDOCK:   -5.15 KCAL/MOL
REMARK 924 INTRA-LIGAND FREE ENERGY PREDICTED BY IDOCK:   -0.48 KCAL/MOL
REMARK 927      BINDING AFFINITY PREDICTED BY RF-SCORE:    0.00 PKD
ROOT
HETATM    1 CL   UNL     1      -8.359   1.857  66.729  1.00  0.00    -0.083 Cl 
HETATM    2  C   UNL     1      -8.478   3.554  66.475  1.00  0.00    -0.108 A  
HETATM    3  C   UNL     1      -9.366   4.308  67.238  1.00  0.00    -0.186 A  
HETATM    4  C   UNL     1      -9.466   5.689  67.026  1.00  0.00    -0.132 A  
HETATM    5  C   UNL     1      -8.689   6.323  66.040  1.00  0.00    -0.155 A  
HETATM    6  C   UNL     1      -7.784   5.547  65.297  1.00  0.00    -0.090 A  
HETATM    7  C   UNL     1      -7.683   4.168  65.511  1.00  0.00    -0.086 A  
ENDROOT
BRANCH   5   8
HETATM    8  C   UNL     1      -8.769   7.827  65.840  1.00  0.00    -0.149 C  
BRANCH   8   9
HETATM    9  S   UNL     1     -10.083   8.497  66.901  1.00  0.00    -0.310 SA 
BRANCH   9  10
HETATM   10  C   UNL     1      -9.193   9.443  68.266  1.00  0.00    -0.130 C  
BRANCH  10  11
HETATM   11  C   UNL     1      -9.502   8.832  69.665  1.00  0.00    -0.170 A  
HETATM   12  C   UNL     1     -10.167   7.782  72.228  1.00  0.00    -0.228 A  
HETATM   13  C   UNL     1      -8.655   9.007  70.782  1.00  0.00    -0.217 A  
HETATM   14  C   UNL     1     -10.677   8.077  69.897  1.00  0.00    -0.242 A  
HETATM   15  C   UNL     1      -8.999   8.513  72.053  1.00  0.00    -0.301 A  
HETATM   16 CL   UNL     1     -10.578   7.155  73.776  1.00  0.00    -0.387 Cl 
HETATM   17 CL   UNL     1      -7.124   9.806  70.680  1.00  0.00    -0.127 Cl 
HETATM   18  C   UNL     1     -10.999   7.546  71.150  1.00  0.00    -0.264 A  
ENDBRANCH  10  11
BRANCH  10  19
HETATM   19  C   UNL     1      -9.445  10.972  68.185  1.00  0.00    -0.172 C  
BRANCH  19  20
HETATM   20  N   UNL     1     -10.310  11.388  67.103  1.00  0.00    -0.206 NA 
HETATM   21  C   UNL     1      -9.989  11.436  65.777  1.00  0.00    -0.230 A  
HETATM   22  N   UNL     1     -12.105  12.169  66.073  1.00  0.00    -0.586 NA 
HETATM   23  C   UNL     1     -11.090  11.980  65.167  1.00  0.00    -0.318 A  
HETATM   24  C   UNL     1     -11.613  11.776  67.226  1.00  0.00    -0.269 A  
ENDBRANCH  19  20
ENDBRANCH  10  19
ENDBRANCH   9  10
ENDBRANCH   8   9
ENDBRANCH   5   8
TORSDOF 6
ENDMDL
MODEL      269
REMARK 921   NORMALIZED FREE ENERGY PREDICTED BY IDOCK:   -3.48 KCAL/MOL
REMARK 922        TOTAL FREE ENERGY PREDICTED BY IDOCK:   -5.62 KCAL/MOL
REMARK 923 INTER-LIGAND FREE ENERGY PREDICTED BY IDOCK:   -5.17 KCAL/MOL
REMARK 924 INTRA-LIGAND FREE ENERGY PREDICTED BY IDOCK:   -0.46 KCAL/MOL
REMARK 927      BINDING AFFINITY PREDICTED BY RF-SCORE:    0.00 PKD
ROOT
HETATM    1 CL   UNL     1      -5.826   3.715  67.621  1.00  0.00    -0.022 Cl 
HETATM    2  C   UNL     1      -6.361   5.310  67.260  1.00  0.00    -0.036 A  
HETATM    3  C   UNL     1      -7.247   5.521  66.206  1.00  0.00    -0.077 A  
HETATM    4  C   UNL     1      -7.677   6.821  65.910  1.00  0.00    -0.094 A  
HETATM    5  C   UNL     1      -7.215   7.919  66.657  1.00  0.00    -0.084 A  
HETATM    6  C   UNL     1      -6.339   7.680  67.729  1.00  0.00    -0.050 A  
HETATM    7  C   UNL     1      -5.912   6.382  68.026  1.00  0.00    -0.020 A  
ENDROOT
BRANCH   5   8
HETATM    8  C   UNL     1      -7.714   9.323  66.359  1.00  0.00    -0.093 C  
BRANCH   8   9
HETATM    9  S   UNL     1      -9.434   9.230  65.781  1.00  0.00    -0.254 SA 
BRANCH   9  10
HETATM   10  C   UNL     1     -10.426  10.293  66.979  1.00  0.00    -0.244 C  
BRANCH  10  11
HETATM   11  C   UNL     1     -10.722  11.695  66.371  1.00  0.00    -0.316 A  
HETATM   12  C   UNL     1     -11.145  14.279  65.247  1.00  0.00    -0.335 A  
HETATM   13  C   UNL     1     -11.359  12.727  67.098  1.00  0.00    -0.314 A  
HETATM   14  C   UNL     1     -10.343  12.021  65.047  1.00  0.00    -0.318 A  
HETATM   15  C   UNL     1     -11.540  14.010  66.552  1.00  0.00    -0.389 A  
HETATM   16 CL   UNL     1     -11.389  15.840  64.568  1.00  0.00    -0.396 Cl 
HETATM   17 CL   UNL     1     -11.991  12.496  68.692  1.00  0.00    -0.325 Cl 
HETATM   18  C   UNL     1     -10.563  13.283  64.485  1.00  0.00    -0.437 A  
ENDBRANCH  10  11
BRANCH  10  19
HETATM   19  C   UNL     1      -9.782  10.348  68.390  1.00  0.00    -0.158 C  
BRANCH  19  20
HETATM   20  N   UNL     1     -10.337   9.415  69.347  1.00  0.00    -0.204 NA 
HETATM   21  C   UNL     1     -10.684   9.685  70.639  1.00  0.00    -0.322 A  
HETATM   22  N   UNL     1     -11.053   7.502  70.194  1.00  0.00    -0.255 NA 
HETATM   23  C   UNL     1     -11.064   8.476  71.162  1.00  0.00    -0.260 A  
HETATM   24  C   UNL     1     -10.637   8.106  69.104  1.00  0.00    -0.166 A  
ENDBRANCH  19  20
ENDBRANCH  10  19
ENDBRANCH   9  10
ENDBRANCH   8   9
ENDBRANCH   5   8
TORSDOF 6
ENDMDL
MODEL      270
REMARK 921   NORMALIZED FREE ENERGY PREDICTED BY IDOCK:   -3.47 KCAL/MOL
REMARK 922        TOTAL FREE ENERGY PREDICTED BY IDOCK:   -5.61 KCAL/MOL
REMARK 923 INTER-LIGAND FREE ENERGY PREDICTED BY IDOCK:   -4.79 KCAL/MOL
REMARK 924 INTRA-LIGAND FREE ENERGY PREDICTED BY IDOCK:   -0.82 KCAL/MOL
REMARK 927      BINDING AFFINITY PREDICTED BY RF-SCORE:    0.00 PKD
ROOT
HETATM    1 CL   UNL     1     -13.383  11.971  71.828  1.00  0.00    -0.444 Cl 
HETATM    2  C   UNL     1     -12.711  10.443  71.414  1.00  0.00    -0.446 A  
HETATM    3  C   UNL     1     -13.358   9.274  71.805  1.00  0.00    -0.477 A  
HETATM    4  C   UNL     1     -12.806   8.029  71.473  1.00  0.00    -0.331 A  
HETATM    5  C   UNL     1     -11.597   7.947  70.759  1.00  0.00    -0.258 A  
HETATM    6  C   UNL     1     -10.974   9.139  70.355  1.00  0.00    -0.290 A  
HETATM    7  C   UNL     1     -11.526  10.381  70.686  1.00  0.00    -0.438 A  
ENDROOT
BRANCH   5   8
HETATM    8  C   UNL     1     -11.022   6.597  70.364  1.00  0.00    -0.290 C  
BRANCH   8   9
HETATM    9  S   UNL     1     -11.125   6.413  68.560  1.00  0.00    -0.217 SA 
BRANCH   9  10
HETATM   10  C   UNL     1      -9.346   6.473  67.945  1.00  0.00    -0.111 C  
BRANCH  10  11
HETATM   11  C   UNL     1      -9.222   5.848  66.524  1.00  0.00    -0.154 A  
HETATM   12  C   UNL     1      -8.963   4.599  63.977  1.00  0.00    -0.117 A  
HETATM   13  C   UNL     1      -8.293   6.306  65.563  1.00  0.00    -0.147 A  
HETATM   14  C   UNL     1     -10.031   4.757  66.125  1.00  0.00    -0.261 A  
HETATM   15  C   UNL     1      -8.145   5.670  64.318  1.00  0.00    -0.127 A  
HETATM   16 CL   UNL     1      -8.802   3.836  62.444  1.00  0.00    -0.085 Cl 
HETATM   17 CL   UNL     1      -7.289   7.692  65.818  1.00  0.00    -0.069 Cl 
HETATM   18  C   UNL     1      -9.918   4.152  64.869  1.00  0.00    -0.208 A  
ENDBRANCH  10  11
BRANCH  10  19
HETATM   19  C   UNL     1      -8.345   5.884  68.974  1.00  0.00    -0.106 C  
BRANCH  19  20
HETATM   20  N   UNL     1      -7.181   6.706  69.228  1.00  0.00    -0.087 NA 
HETATM   21  C   UNL     1      -5.916   6.488  68.766  1.00  0.00    -0.022 A  
HETATM   22  N   UNL     1      -5.942   8.334  70.067  1.00  0.00    -0.025 NA 
HETATM   23  C   UNL     1      -5.155   7.469  69.347  1.00  0.00    -0.015 A  
HETATM   24  C   UNL     1      -7.163   7.863  69.951  1.00  0.00    -0.066 A  
ENDBRANCH  19  20
ENDBRANCH  10  19
ENDBRANCH   9  10
ENDBRANCH   8   9
ENDBRANCH   5   8
TORSDOF 6
ENDMDL
MODEL      271
REMARK 921   NORMALIZED FREE ENERGY PREDICTED BY IDOCK:   -3.47 KCAL/MOL
REMARK 922        TOTAL FREE ENERGY PREDICTED BY IDOCK:   -5.60 KCAL/MOL
REMARK 923 INTER-LIGAND FREE ENERGY PREDICTED BY IDOCK:   -4.87 KCAL/MOL
REMARK 924 INTRA-LIGAND FREE ENERGY PREDICTED BY IDOCK:   -0.73 KCAL/MOL
REMARK 927      BINDING AFFINITY PREDICTED BY RF-SCORE:    0.00 PKD
ROOT
HETATM    1 CL   UNL     1     -13.479  15.459  71.286  1.00  0.00    -0.577 Cl 
HETATM    2  C   UNL     1     -12.203  15.040  70.211  1.00  0.00    -0.340 A  
HETATM    3  C   UNL     1     -12.088  13.733  69.748  1.00  0.00    -0.400 A  
HETATM    4  C   UNL     1     -11.044  13.392  68.877  1.00  0.00    -0.307 A  
HETATM    5  C   UNL     1     -10.101  14.355  68.475  1.00  0.00    -0.244 A  
HETATM    6  C   UNL     1     -10.250  15.673  68.937  1.00  0.00    -0.214 A  
HETATM    7  C   UNL     1     -11.293  16.013  69.804  1.00  0.00    -0.331 A  
ENDROOT
BRANCH   5   8
HETATM    8  C   UNL     1      -8.995  13.993  67.499  1.00  0.00    -0.195 C  
BRANCH   8   9
HETATM    9  S   UNL     1      -8.044  12.598  68.170  1.00  0.00    -0.171 SA 
BRANCH   9  10
HETATM   10  C   UNL     1      -7.976  11.323  66.786  1.00  0.00    -0.159 C  
BRANCH  10  11
HETATM   11  C   UNL     1      -9.220  11.437  65.857  1.00  0.00    -0.231 A  
HETATM   12  C   UNL     1     -11.477  11.765  64.150  1.00  0.00    -0.327 A  
HETATM   13  C   UNL     1     -10.525  11.092  66.275  1.00  0.00    -0.259 A  
HETATM   14  C   UNL     1      -9.108  11.920  64.530  1.00  0.00     0.447 A  
HETATM   15  C   UNL     1     -11.642  11.283  65.443  1.00  0.00     0.282 A  
HETATM   16 CL   UNL     1     -12.839  11.975  63.120  1.00  0.00    -0.435 Cl 
HETATM   17 CL   UNL     1     -10.856  10.386  67.820  1.00  0.00    -0.323 Cl 
HETATM   18  C   UNL     1     -10.212  12.067  63.684  1.00  0.00    -0.470 A  
ENDBRANCH  10  11
BRANCH  10  19
HETATM   19  C   UNL     1      -7.726   9.886  67.319  1.00  0.00    -0.095 C  
BRANCH  19  20
HETATM   20  N   UNL     1      -7.743   8.852  66.306  1.00  0.00    -0.097 NA 
HETATM   21  C   UNL     1      -6.919   8.763  65.222  1.00  0.00    -0.076 A  
HETATM   22  N   UNL     1      -8.396   7.055  65.196  1.00  0.00    -0.112 NA 
HETATM   23  C   UNL     1      -7.380   7.682  64.517  1.00  0.00    -0.086 A  
HETATM   24  C   UNL     1      -8.572   7.769  66.285  1.00  0.00    -0.150 A  
ENDBRANCH  19  20
ENDBRANCH  10  19
ENDBRANCH   9  10
ENDBRANCH   8   9
ENDBRANCH   5   8
TORSDOF 6
ENDMDL
MODEL      272
REMARK 921   NORMALIZED FREE ENERGY PREDICTED BY IDOCK:   -3.46 KCAL/MOL
REMARK 922        TOTAL FREE ENERGY PREDICTED BY IDOCK:   -5.60 KCAL/MOL
REMARK 923 INTER-LIGAND FREE ENERGY PREDICTED BY IDOCK:   -4.43 KCAL/MOL
REMARK 924 INTRA-LIGAND FREE ENERGY PREDICTED BY IDOCK:   -1.16 KCAL/MOL
REMARK 927      BINDING AFFINITY PREDICTED BY RF-SCORE:    0.00 PKD
ROOT
HETATM    1 CL   UNL     1      -5.130   6.831  68.317  1.00  0.00    -0.010 Cl 
HETATM    2  C   UNL     1      -6.388   7.923  68.744  1.00  0.00    -0.044 A  
HETATM    3  C   UNL     1      -7.704   7.638  68.388  1.00  0.00    -0.119 A  
HETATM    4  C   UNL     1      -8.727   8.532  68.731  1.00  0.00    -0.139 A  
HETATM    5  C   UNL     1      -8.438   9.723  69.421  1.00  0.00    -0.161 A  
HETATM    6  C   UNL     1      -7.107   9.980  69.789  1.00  0.00    -0.119 A  
HETATM    7  C   UNL     1      -6.087   9.087  69.448  1.00  0.00    -0.040 A  
ENDROOT
BRANCH   5   8
HETATM    8  C   UNL     1      -9.554  10.671  69.828  1.00  0.00     0.186 C  
BRANCH   8   9
HETATM    9  S   UNL     1     -10.898  10.563  68.610  1.00  0.00    -0.255 SA 
BRANCH   9  10
HETATM   10  C   UNL     1     -10.528  11.896  67.332  1.00  0.00    -0.217 C  
BRANCH  10  11
HETATM   11  C   UNL     1      -9.566  12.975  67.909  1.00  0.00    -0.215 A  
HETATM   12  C   UNL     1      -7.867  15.034  68.904  1.00  0.00    -0.162 A  
HETATM   13  C   UNL     1      -8.178  12.988  67.642  1.00  0.00    -0.171 A  
HETATM   14  C   UNL     1     -10.043  14.028  68.726  1.00  0.00    -0.183 A  
HETATM   15  C   UNL     1      -7.346  14.020  68.108  1.00  0.00    -0.128 A  
HETATM   16 CL   UNL     1      -6.846  16.285  69.498  1.00  0.00    -0.211 Cl 
HETATM   17 CL   UNL     1      -7.385  11.732  66.753  1.00  0.00    -0.099 Cl 
HETATM   18  C   UNL     1      -9.210  15.032  69.230  1.00  0.00    -0.159 A  
ENDBRANCH  10  11
BRANCH  10  19
HETATM   19  C   UNL     1     -11.818  12.485  66.702  1.00  0.00    -0.352 C  
BRANCH  19  20
HETATM   20  N   UNL     1     -11.825  12.524  65.256  1.00  0.00    -0.394 NA 
HETATM   21  C   UNL     1     -11.120  11.710  64.417  1.00  0.00    -0.317 A  
HETATM   22  N   UNL     1     -12.294  13.213  63.207  1.00  0.00    -0.720 NA 
HETATM   23  C   UNL     1     -11.376  12.193  63.160  1.00  0.00    -0.181 A  
HETATM   24  C   UNL     1     -12.567  13.370  64.483  1.00  0.00    -0.226 A  
ENDBRANCH  19  20
ENDBRANCH  10  19
ENDBRANCH   9  10
ENDBRANCH   8   9
ENDBRANCH   5   8
TORSDOF 6
ENDMDL
MODEL      273
REMARK 921   NORMALIZED FREE ENERGY PREDICTED BY IDOCK:   -3.45 KCAL/MOL
REMARK 922        TOTAL FREE ENERGY PREDICTED BY IDOCK:   -5.59 KCAL/MOL
REMARK 923 INTER-LIGAND FREE ENERGY PREDICTED BY IDOCK:   -4.91 KCAL/MOL
REMARK 924 INTRA-LIGAND FREE ENERGY PREDICTED BY IDOCK:   -0.67 KCAL/MOL
REMARK 927      BINDING AFFINITY PREDICTED BY RF-SCORE:    0.00 PKD
ROOT
HETATM    1 CL   UNL     1     -10.159  17.624  66.282  1.00  0.00    -0.344 Cl 
HETATM    2  C   UNL     1     -10.606  15.990  65.983  1.00  0.00    -0.316 A  
HETATM    3  C   UNL     1      -9.972  15.273  64.972  1.00  0.00    -0.159 A  
HETATM    4  C   UNL     1     -10.341  13.944  64.725  1.00  0.00    -0.419 A  
HETATM    5  C   UNL     1     -11.355  13.328  65.480  1.00  0.00    -0.315 A  
HETATM    6  C   UNL     1     -11.965  14.063  66.510  1.00  0.00    -0.470 A  
HETATM    7  C   UNL     1     -11.595  15.389  66.757  1.00  0.00     0.044 A  
ENDROOT
BRANCH   5   8
HETATM    8  C   UNL     1     -11.726  11.875  65.238  1.00  0.00    -0.169 C  
BRANCH   8   9
HETATM    9  S   UNL     1     -10.205  10.889  65.106  1.00  0.00    -0.293 SA 
BRANCH   9  10
HETATM   10  C   UNL     1      -9.923  10.167  66.823  1.00  0.00    -0.211 C  
BRANCH  10  11
HETATM   11  C   UNL     1     -10.551  11.073  67.922  1.00  0.00    -0.244 A  
HETATM   12  C   UNL     1     -11.794  12.749  69.861  1.00  0.00    -0.301 A  
HETATM   13  C   UNL     1      -9.941  12.265  68.375  1.00  0.00    -0.209 A  
HETATM   14  C   UNL     1     -11.795  10.755  68.519  1.00  0.00    -0.168 A  
HETATM   15  C   UNL     1     -10.569  13.106  69.310  1.00  0.00     0.099 A  
HETATM   16 CL   UNL     1     -12.553  13.764  71.024  1.00  0.00    -0.431 Cl 
HETATM   17 CL   UNL     1      -8.373  12.772  67.849  1.00  0.00    -0.160 Cl 
HETATM   18  C   UNL     1     -12.401  11.567  69.483  1.00  0.00    -0.190 A  
ENDBRANCH  10  11
BRANCH  10  19
HETATM   19  C   UNL     1      -8.432   9.819  67.079  1.00  0.00    -0.117 C  
BRANCH  19  20
HETATM   20  N   UNL     1      -8.214   8.746  68.025  1.00  0.00    -0.117 NA 
HETATM   21  C   UNL     1      -7.801   8.875  69.320  1.00  0.00    -0.096 A  
HETATM   22  N   UNL     1      -8.054   6.688  68.818  1.00  0.00    -0.118 NA 
HETATM   23  C   UNL     1      -7.649   7.590  69.771  1.00  0.00    -0.094 A  
HETATM   24  C   UNL     1      -8.416   7.418  67.788  1.00  0.00    -0.118 A  
ENDBRANCH  19  20
ENDBRANCH  10  19
ENDBRANCH   9  10
ENDBRANCH   8   9
ENDBRANCH   5   8
TORSDOF 6
ENDMDL
MODEL      274
REMARK 921   NORMALIZED FREE ENERGY PREDICTED BY IDOCK:   -3.45 KCAL/MOL
REMARK 922        TOTAL FREE ENERGY PREDICTED BY IDOCK:   -5.58 KCAL/MOL
REMARK 923 INTER-LIGAND FREE ENERGY PREDICTED BY IDOCK:   -5.92 KCAL/MOL
REMARK 924 INTRA-LIGAND FREE ENERGY PREDICTED BY IDOCK:    0.34 KCAL/MOL
REMARK 927      BINDING AFFINITY PREDICTED BY RF-SCORE:    0.00 PKD
ROOT
HETATM    1 CL   UNL     1      -9.868   5.353  71.412  1.00  0.00    -0.212 Cl 
HETATM    2  C   UNL     1      -9.413   6.865  70.729  1.00  0.00    -0.165 A  
HETATM    3  C   UNL     1      -9.204   6.970  69.356  1.00  0.00    -0.147 A  
HETATM    4  C   UNL     1      -8.827   8.201  68.802  1.00  0.00    -0.138 A  
HETATM    5  C   UNL     1      -8.646   9.331  69.619  1.00  0.00    -0.151 A  
HETATM    6  C   UNL     1      -8.885   9.208  70.998  1.00  0.00    -0.267 A  
HETATM    7  C   UNL     1      -9.262   7.980  71.550  1.00  0.00    -0.188 A  
ENDROOT
BRANCH   5   8
HETATM    8  C   UNL     1      -8.278  10.674  69.011  1.00  0.00    -0.151 C  
BRANCH   8   9
HETATM    9  S   UNL     1      -9.194  10.893  67.458  1.00  0.00    -0.148 SA 
BRANCH   9  10
HETATM   10  C   UNL     1      -9.604  12.730  67.370  1.00  0.00    -0.199 C  
BRANCH  10  11
HETATM   11  C   UNL     1     -10.703  13.109  68.407  1.00  0.00    -0.270 A  
HETATM   12  C   UNL     1     -12.625  13.836  70.380  1.00  0.00    -0.256 A  
HETATM   13  C   UNL     1     -11.602  12.164  68.952  1.00  0.00    -0.324 A  
HETATM   14  C   UNL     1     -10.845  14.436  68.879  1.00  0.00    -0.266 A  
HETATM   15  C   UNL     1     -12.530  12.518  69.947  1.00  0.00     0.018 A  
HETATM   16 CL   UNL     1     -13.777  14.276  71.578  1.00  0.00    -0.434 Cl 
HETATM   17 CL   UNL     1     -11.659  10.516  68.429  1.00  0.00    -0.285 Cl 
HETATM   18  C   UNL     1     -11.798  14.800  69.835  1.00  0.00    -0.364 A  
ENDBRANCH  10  11
BRANCH  10  19
HETATM   19  C   UNL     1      -9.925  13.195  65.925  1.00  0.00    -0.269 C  
BRANCH  19  20
HETATM   20  N   UNL     1     -10.019  14.629  65.755  1.00  0.00    -0.323 NA 
HETATM   21  C   UNL     1     -11.105  15.326  65.312  1.00  0.00    -0.376 A  
HETATM   22  N   UNL     1      -9.399  16.751  65.709  1.00  0.00    -0.523 NA 
HETATM   23  C   UNL     1     -10.680  16.626  65.231  1.00  0.00    -0.204 A  
HETATM   24  C   UNL     1      -9.039  15.533  66.044  1.00  0.00    -0.281 A  
ENDBRANCH  19  20
ENDBRANCH  10  19
ENDBRANCH   9  10
ENDBRANCH   8   9
ENDBRANCH   5   8
TORSDOF 6
ENDMDL
MODEL      275
REMARK 921   NORMALIZED FREE ENERGY PREDICTED BY IDOCK:   -3.42 KCAL/MOL
REMARK 922        TOTAL FREE ENERGY PREDICTED BY IDOCK:   -5.54 KCAL/MOL
REMARK 923 INTER-LIGAND FREE ENERGY PREDICTED BY IDOCK:   -4.50 KCAL/MOL
REMARK 924 INTRA-LIGAND FREE ENERGY PREDICTED BY IDOCK:   -1.04 KCAL/MOL
REMARK 927      BINDING AFFINITY PREDICTED BY RF-SCORE:    0.00 PKD
ROOT
HETATM    1 CL   UNL     1     -13.173  10.598  71.113  1.00  0.00    -0.386 Cl 
HETATM    2  C   UNL     1     -11.695   9.720  71.051  1.00  0.00    -0.370 A  
HETATM    3  C   UNL     1     -10.824   9.905  69.980  1.00  0.00    -0.339 A  
HETATM    4  C   UNL     1      -9.624   9.183  69.928  1.00  0.00    -0.206 A  
HETATM    5  C   UNL     1      -9.294   8.263  70.939  1.00  0.00    -0.187 A  
HETATM    6  C   UNL     1     -10.177   8.109  72.020  1.00  0.00    -0.316 A  
HETATM    7  C   UNL     1     -11.373   8.831  72.073  1.00  0.00    -0.441 A  
ENDROOT
BRANCH   5   8
HETATM    8  C   UNL     1      -7.973   7.513  70.900  1.00  0.00    -0.096 C  
BRANCH   8   9
HETATM    9  S   UNL     1      -7.919   6.337  72.284  1.00  0.00    -0.104 SA 
BRANCH   9  10
HETATM   10  C   UNL     1      -8.757   4.774  71.650  1.00  0.00    -0.122 C  
BRANCH  10  11
HETATM   11  C   UNL     1      -8.953   4.829  70.107  1.00  0.00    -0.143 A  
HETATM   12  C   UNL     1      -9.400   4.848  67.293  1.00  0.00    -0.131 A  
HETATM   13  C   UNL     1      -7.945   4.450  69.191  1.00  0.00    -0.068 A  
HETATM   14  C   UNL     1     -10.178   5.248  69.533  1.00  0.00    -0.338 A  
HETATM   15  C   UNL     1      -8.176   4.432  67.805  1.00  0.00    -0.098 A  
HETATM   16 CL   UNL     1      -9.677   4.851  65.596  1.00  0.00    -0.175 Cl 
HETATM   17 CL   UNL     1      -6.347   4.011  69.689  1.00  0.00    -0.028 Cl 
HETATM   18  C   UNL     1     -10.396   5.274  68.152  1.00  0.00    -0.181 A  
ENDBRANCH  10  11
BRANCH  10  19
HETATM   19  C   UNL     1     -10.057   4.443  72.431  1.00  0.00    -0.181 C  
BRANCH  19  20
HETATM   20  N   UNL     1     -10.006   3.220  73.203  1.00  0.00    -0.124 NA 
HETATM   21  C   UNL     1     -11.073   2.478  73.622  1.00  0.00    -0.220 A  
HETATM   22  N   UNL     1      -9.157   1.541  74.364  1.00  0.00    -0.057 NA 
HETATM   23  C   UNL     1     -10.528   1.481  74.389  1.00  0.00    -0.116 A  
HETATM   24  C   UNL     1      -8.873   2.583  73.617  1.00  0.00    -0.074 A  
ENDBRANCH  19  20
ENDBRANCH  10  19
ENDBRANCH   9  10
ENDBRANCH   8   9
ENDBRANCH   5   8
TORSDOF 6
ENDMDL
MODEL      276
REMARK 921   NORMALIZED FREE ENERGY PREDICTED BY IDOCK:   -3.41 KCAL/MOL
REMARK 922        TOTAL FREE ENERGY PREDICTED BY IDOCK:   -5.53 KCAL/MOL
REMARK 923 INTER-LIGAND FREE ENERGY PREDICTED BY IDOCK:   -4.09 KCAL/MOL
REMARK 924 INTRA-LIGAND FREE ENERGY PREDICTED BY IDOCK:   -1.44 KCAL/MOL
REMARK 927      BINDING AFFINITY PREDICTED BY RF-SCORE:    0.00 PKD
ROOT
HETATM    1 CL   UNL     1     -10.183   2.323  73.955  1.00  0.00    -0.160 Cl 
HETATM    2  C   UNL     1      -9.169   3.313  72.981  1.00  0.00    -0.090 A  
HETATM    3  C   UNL     1      -8.435   4.341  73.566  1.00  0.00    -0.093 A  
HETATM    4  C   UNL     1      -7.614   5.151  72.770  1.00  0.00    -0.097 A  
HETATM    5  C   UNL     1      -7.532   4.945  71.381  1.00  0.00    -0.078 A  
HETATM    6  C   UNL     1      -8.264   3.888  70.815  1.00  0.00    -0.077 A  
HETATM    7  C   UNL     1      -9.081   3.079  71.611  1.00  0.00    -0.163 A  
ENDROOT
BRANCH   5   8
HETATM    8  C   UNL     1      -6.610   5.798  70.526  1.00  0.00    -0.044 C  
BRANCH   8   9
HETATM    9  S   UNL     1      -7.102   5.641  68.784  1.00  0.00    -0.074 SA 
BRANCH   9  10
HETATM   10  C   UNL     1      -8.181   7.143  68.428  1.00  0.00    -0.125 C  
BRANCH  10  11
HETATM   11  C   UNL     1      -9.457   7.141  69.321  1.00  0.00    -0.152 A  
HETATM   12  C   UNL     1     -11.856   7.172  70.856  1.00  0.00    -0.339 A  
HETATM   13  C   UNL     1      -9.614   7.993  70.437  1.00  0.00    -0.174 A  
HETATM   14  C   UNL     1     -10.551   6.288  69.041  1.00  0.00    -0.322 A  
HETATM   15  C   UNL     1     -10.809   8.029  71.176  1.00  0.00    -0.267 A  
HETATM   16 CL   UNL     1     -13.310   7.196  71.774  1.00  0.00    -0.392 Cl 
HETATM   17 CL   UNL     1      -8.352   9.032  71.005  1.00  0.00    -0.229 Cl 
HETATM   18  C   UNL     1     -11.725   6.288  69.802  1.00  0.00    -0.157 A  
ENDBRANCH  10  11
BRANCH  10  19
HETATM   19  C   UNL     1      -8.480   7.310  66.915  1.00  0.00    -0.119 C  
BRANCH  19  20
HETATM   20  N   UNL     1      -8.836   8.653  66.511  1.00  0.00    -0.131 NA 
HETATM   21  C   UNL     1      -7.974   9.658  66.181  1.00  0.00    -0.108 A  
HETATM   22  N   UNL     1     -10.101  10.410  66.061  1.00  0.00    -0.240 NA 
HETATM   23  C   UNL     1      -8.774  10.751  65.967  1.00  0.00    -0.183 A  
HETATM   24  C   UNL     1     -10.105   9.131  66.361  1.00  0.00    -0.274 A  
ENDBRANCH  19  20
ENDBRANCH  10  19
ENDBRANCH   9  10
ENDBRANCH   8   9
ENDBRANCH   5   8
TORSDOF 6
ENDMDL
MODEL      277
REMARK 921   NORMALIZED FREE ENERGY PREDICTED BY IDOCK:   -3.38 KCAL/MOL
REMARK 922        TOTAL FREE ENERGY PREDICTED BY IDOCK:   -5.49 KCAL/MOL
REMARK 923 INTER-LIGAND FREE ENERGY PREDICTED BY IDOCK:   -3.82 KCAL/MOL
REMARK 924 INTRA-LIGAND FREE ENERGY PREDICTED BY IDOCK:   -1.67 KCAL/MOL
REMARK 927      BINDING AFFINITY PREDICTED BY RF-SCORE:    0.00 PKD
ROOT
HETATM    1 CL   UNL     1      -8.874  13.096  67.093  1.00  0.00    -0.216 Cl 
HETATM    2  C   UNL     1      -8.623  11.409  66.867  1.00  0.00    -0.154 A  
HETATM    3  C   UNL     1      -9.700  10.584  66.557  1.00  0.00    -0.237 A  
HETATM    4  C   UNL     1      -9.494   9.209  66.380  1.00  0.00    -0.288 A  
HETATM    5  C   UNL     1      -8.212   8.650  66.524  1.00  0.00    -0.107 A  
HETATM    6  C   UNL     1      -7.136   9.505  66.815  1.00  0.00    -0.086 A  
HETATM    7  C   UNL     1      -7.342  10.877  66.990  1.00  0.00    -0.118 A  
ENDROOT
BRANCH   5   8
HETATM    8  C   UNL     1      -7.984   7.166  66.291  1.00  0.00    -0.110 C  
BRANCH   8   9
HETATM    9  S   UNL     1      -6.889   6.522  67.591  1.00  0.00    -0.079 SA 
BRANCH   9  10
HETATM   10  C   UNL     1      -8.027   6.034  69.010  1.00  0.00    -0.104 C  
BRANCH  10  11
HETATM   11  C   UNL     1      -8.944   7.221  69.428  1.00  0.00    -0.139 A  
HETATM   12  C   UNL     1     -10.595   9.369  70.308  1.00  0.00    -0.250 A  
HETATM   13  C   UNL     1     -10.334   7.244  69.170  1.00  0.00    -0.205 A  
HETATM   14  C   UNL     1      -8.429   8.345  70.118  1.00  0.00    -0.126 A  
HETATM   15  C   UNL     1     -11.152   8.290  69.631  1.00  0.00    -0.009 A  
HETATM   16 CL   UNL     1     -11.590  10.663  70.850  1.00  0.00    -0.384 Cl 
HETATM   17 CL   UNL     1     -11.135   6.018  68.250  1.00  0.00    -0.351 Cl 
HETATM   18  C   UNL     1      -9.233   9.409  70.537  1.00  0.00    -0.314 A  
ENDBRANCH  10  11
BRANCH  10  19
HETATM   19  C   UNL     1      -7.252   5.399  70.196  1.00  0.00    -0.067 C  
BRANCH  19  20
HETATM   20  N   UNL     1      -7.994   4.407  70.943  1.00  0.00    -0.067 NA 
HETATM   21  C   UNL     1      -7.681   3.917  72.179  1.00  0.00    -0.071 A  
HETATM   22  N   UNL     1      -9.544   2.899  71.408  1.00  0.00    -0.147 NA 
HETATM   23  C   UNL     1      -8.615   2.943  72.419  1.00  0.00    -0.074 A  
HETATM   24  C   UNL     1      -9.158   3.814  70.548  1.00  0.00    -0.119 A  
ENDBRANCH  19  20
ENDBRANCH  10  19
ENDBRANCH   9  10
ENDBRANCH   8   9
ENDBRANCH   5   8
TORSDOF 6
ENDMDL
MODEL      278
REMARK 921   NORMALIZED FREE ENERGY PREDICTED BY IDOCK:   -3.37 KCAL/MOL
REMARK 922        TOTAL FREE ENERGY PREDICTED BY IDOCK:   -5.48 KCAL/MOL
REMARK 923 INTER-LIGAND FREE ENERGY PREDICTED BY IDOCK:   -4.70 KCAL/MOL
REMARK 924 INTRA-LIGAND FREE ENERGY PREDICTED BY IDOCK:   -0.77 KCAL/MOL
REMARK 927      BINDING AFFINITY PREDICTED BY RF-SCORE:    0.00 PKD
ROOT
HETATM    1 CL   UNL     1     -12.414  14.018  66.934  1.00  0.00    -0.316 Cl 
HETATM    2  C   UNL     1     -11.518  12.582  66.627  1.00  0.00    -0.359 A  
HETATM    3  C   UNL     1     -10.952  12.374  65.372  1.00  0.00    -0.335 A  
HETATM    4  C   UNL     1     -10.228  11.201  65.122  1.00  0.00    -0.347 A  
HETATM    5  C   UNL     1     -10.076  10.223  66.121  1.00  0.00    -0.307 A  
HETATM    6  C   UNL     1     -10.636  10.465  67.387  1.00  0.00    -0.321 A  
HETATM    7  C   UNL     1     -11.356  11.636  67.637  1.00  0.00    -0.362 A  
ENDROOT
BRANCH   5   8
HETATM    8  C   UNL     1      -9.256   8.971  65.860  1.00  0.00    -0.230 C  
BRANCH   8   9
HETATM    9  S   UNL     1      -8.081   8.735  67.226  1.00  0.00    -0.101 SA 
BRANCH   9  10
HETATM   10  C   UNL     1      -8.397   6.992  67.866  1.00  0.00    -0.118 C  
BRANCH  10  11
HETATM   11  C   UNL     1      -8.745   6.021  66.700  1.00  0.00    -0.123 A  
HETATM   12  C   UNL     1      -9.418   4.162  64.649  1.00  0.00    -0.168 A  
HETATM   13  C   UNL     1      -7.775   5.522  65.801  1.00  0.00    -0.088 A  
HETATM   14  C   UNL     1     -10.069   5.564  66.491  1.00  0.00    -0.241 A  
HETATM   15  C   UNL     1      -8.103   4.582  64.808  1.00  0.00    -0.101 A  
HETATM   16 CL   UNL     1      -9.827   3.032  63.418  1.00  0.00    -0.110 Cl 
HETATM   17 CL   UNL     1      -6.124   6.041  65.823  1.00  0.00    -0.028 Cl 
HETATM   18  C   UNL     1     -10.406   4.664  65.475  1.00  0.00    -0.225 A  
ENDBRANCH  10  11
BRANCH  10  19
HETATM   19  C   UNL     1      -9.427   6.967  69.026  1.00  0.00    -0.137 C  
BRANCH  19  20
HETATM   20  N   UNL     1      -9.055   6.134  70.150  1.00  0.00    -0.151 NA 
HETATM   21  C   UNL     1      -7.788   5.784  70.518  1.00  0.00    -0.100 A  
HETATM   22  N   UNL     1      -9.279   4.815  71.911  1.00  0.00    -0.134 NA 
HETATM   23  C   UNL     1      -7.953   4.919  71.569  1.00  0.00    -0.110 A  
HETATM   24  C   UNL     1      -9.915   5.583  71.054  1.00  0.00    -0.194 A  
ENDBRANCH  19  20
ENDBRANCH  10  19
ENDBRANCH   9  10
ENDBRANCH   8   9
ENDBRANCH   5   8
TORSDOF 6
ENDMDL
MODEL      279
REMARK 921   NORMALIZED FREE ENERGY PREDICTED BY IDOCK:   -3.31 KCAL/MOL
REMARK 922        TOTAL FREE ENERGY PREDICTED BY IDOCK:   -5.40 KCAL/MOL
REMARK 923 INTER-LIGAND FREE ENERGY PREDICTED BY IDOCK:   -5.08 KCAL/MOL
REMARK 924 INTRA-LIGAND FREE ENERGY PREDICTED BY IDOCK:   -0.32 KCAL/MOL
REMARK 927      BINDING AFFINITY PREDICTED BY RF-SCORE:    0.00 PKD
ROOT
HETATM    1 CL   UNL     1      -5.243  13.850  70.649  1.00  0.00    -0.107 Cl 
HETATM    2  C   UNL     1      -6.063  12.511  69.946  1.00  0.00    -0.130 A  
HETATM    3  C   UNL     1      -6.149  11.309  70.643  1.00  0.00     0.009 A  
HETATM    4  C   UNL     1      -6.812  10.217  70.066  1.00  0.00    -0.137 A  
HETATM    5  C   UNL     1      -7.381  10.318  68.784  1.00  0.00    -0.086 A  
HETATM    6  C   UNL     1      -7.301  11.547  68.109  1.00  0.00    -0.094 A  
HETATM    7  C   UNL     1      -6.641  12.637  68.686  1.00  0.00    -0.083 A  
ENDROOT
BRANCH   5   8
HETATM    8  C   UNL     1      -8.134   9.146  68.178  1.00  0.00    -0.104 C  
BRANCH   8   9
HETATM    9  S   UNL     1      -9.595   9.771  67.297  1.00  0.00    -0.162 SA 
BRANCH   9  10
HETATM   10  C   UNL     1     -10.736  10.449  68.632  1.00  0.00    -0.218 C  
BRANCH  10  11
HETATM   11  C   UNL     1     -10.787  12.004  68.590  1.00  0.00    -0.273 A  
HETATM   12  C   UNL     1     -10.762  14.853  68.537  1.00  0.00    -0.245 A  
HETATM   13  C   UNL     1     -11.557  12.772  69.493  1.00  0.00    -0.276 A  
HETATM   14  C   UNL     1     -10.036  12.742  67.643  1.00  0.00    -0.220 A  
HETATM   15  C   UNL     1     -11.521  14.177  69.485  1.00  0.00    -0.334 A  
HETATM   16 CL   UNL     1     -10.736  16.572  68.508  1.00  0.00    -0.318 Cl 
HETATM   17 CL   UNL     1     -12.623  12.058  70.655  1.00  0.00    -0.305 Cl 
HETATM   18  C   UNL     1     -10.034  14.140  67.603  1.00  0.00    -0.233 A  
ENDBRANCH  10  11
BRANCH  10  19
HETATM   19  C   UNL     1     -10.408   9.874  70.037  1.00  0.00    -0.272 C  
BRANCH  19  20
HETATM   20  N   UNL     1     -11.197   8.723  70.420  1.00  0.00    -0.247 NA 
HETATM   21  C   UNL     1     -12.352   8.734  71.147  1.00  0.00    -0.219 A  
HETATM   22  N   UNL     1     -11.786   6.604  70.653  1.00  0.00    -0.397 NA 
HETATM   23  C   UNL     1     -12.665   7.413  71.332  1.00  0.00    -0.369 A  
HETATM   24  C   UNL     1     -10.930   7.427  70.089  1.00  0.00    -0.255 A  
ENDBRANCH  19  20
ENDBRANCH  10  19
ENDBRANCH   9  10
ENDBRANCH   8   9
ENDBRANCH   5   8
TORSDOF 6
ENDMDL
MODEL      280
REMARK 921   NORMALIZED FREE ENERGY PREDICTED BY IDOCK:   -3.31 KCAL/MOL
REMARK 922        TOTAL FREE ENERGY PREDICTED BY IDOCK:   -5.39 KCAL/MOL
REMARK 923 INTER-LIGAND FREE ENERGY PREDICTED BY IDOCK:   -4.88 KCAL/MOL
REMARK 924 INTRA-LIGAND FREE ENERGY PREDICTED BY IDOCK:   -0.51 KCAL/MOL
REMARK 927      BINDING AFFINITY PREDICTED BY RF-SCORE:    0.00 PKD
ROOT
HETATM    1 CL   UNL     1     -13.307  12.220  71.551  1.00  0.00    -0.261 Cl 
HETATM    2  C   UNL     1     -12.609  10.649  71.620  1.00  0.00    -0.377 A  
HETATM    3  C   UNL     1     -13.191   9.666  72.415  1.00  0.00    -0.413 A  
HETATM    4  C   UNL     1     -12.617   8.389  72.475  1.00  0.00    -0.311 A  
HETATM    5  C   UNL     1     -11.450   8.092  71.750  1.00  0.00    -0.324 A  
HETATM    6  C   UNL     1     -10.891   9.092  70.937  1.00  0.00    -0.345 A  
HETATM    7  C   UNL     1     -11.466  10.366  70.876  1.00  0.00    -0.385 A  
ENDROOT
BRANCH   5   8
HETATM    8  C   UNL     1     -10.852   6.695  71.784  1.00  0.00    -0.233 C  
BRANCH   8   9
HETATM    9  S   UNL     1     -10.933   5.974  70.119  1.00  0.00    -0.355 SA 
BRANCH   9  10
HETATM   10  C   UNL     1      -9.159   5.974  69.484  1.00  0.00    -0.137 C  
BRANCH  10  11
HETATM   11  C   UNL     1      -9.103   5.592  67.976  1.00  0.00    -0.110 A  
HETATM   12  C   UNL     1      -9.032   4.778  65.247  1.00  0.00    -0.151 A  
HETATM   13  C   UNL     1      -7.918   5.662  67.210  1.00  0.00    -0.102 A  
HETATM   14  C   UNL     1     -10.251   5.126  67.290  1.00  0.00    -0.239 A  
HETATM   15  C   UNL     1      -7.877   5.232  65.872  1.00  0.00    -0.103 A  
HETATM   16 CL   UNL     1      -8.991   4.276  63.602  1.00  0.00    -0.134 Cl 
HETATM   17 CL   UNL     1      -6.437   6.303  67.835  1.00  0.00    -0.050 Cl 
HETATM   18  C   UNL     1     -10.224   4.741  65.946  1.00  0.00    -0.286 A  
ENDBRANCH  10  11
BRANCH  10  19
HETATM   19  C   UNL     1      -8.213   5.128  70.377  1.00  0.00    -0.098 C  
BRANCH  19  20
HETATM   20  N   UNL     1      -8.759   3.859  70.809  1.00  0.00    -0.071 NA 
HETATM   21  C   UNL     1      -9.177   2.838  70.005  1.00  0.00    -0.135 A  
HETATM   22  N   UNL     1      -9.514   2.288  72.170  1.00  0.00    -0.096 NA 
HETATM   23  C   UNL     1      -9.696   1.905  70.864  1.00  0.00    -0.066 A  
HETATM   24  C   UNL     1      -8.920   3.458  72.103  1.00  0.00    -0.099 A  
ENDBRANCH  19  20
ENDBRANCH  10  19
ENDBRANCH   9  10
ENDBRANCH   8   9
ENDBRANCH   5   8
TORSDOF 6
ENDMDL
MODEL      281
REMARK 921   NORMALIZED FREE ENERGY PREDICTED BY IDOCK:   -3.30 KCAL/MOL
REMARK 922        TOTAL FREE ENERGY PREDICTED BY IDOCK:   -5.37 KCAL/MOL
REMARK 923 INTER-LIGAND FREE ENERGY PREDICTED BY IDOCK:   -4.19 KCAL/MOL
REMARK 924 INTRA-LIGAND FREE ENERGY PREDICTED BY IDOCK:   -1.18 KCAL/MOL
REMARK 927      BINDING AFFINITY PREDICTED BY RF-SCORE:    0.00 PKD
ROOT
HETATM    1 CL   UNL     1      -8.533   7.187  66.720  1.00  0.00    -0.118 Cl 
HETATM    2  C   UNL     1      -9.314   8.650  67.176  1.00  0.00    -0.151 A  
HETATM    3  C   UNL     1      -9.700   9.563  66.198  1.00  0.00    -0.324 A  
HETATM    4  C   UNL     1     -10.331  10.758  66.572  1.00  0.00    -0.300 A  
HETATM    5  C   UNL     1     -10.567  11.052  67.926  1.00  0.00    -0.244 A  
HETATM    6  C   UNL     1     -10.189  10.107  68.894  1.00  0.00    -0.213 A  
HETATM    7  C   UNL     1      -9.562   8.914  68.521  1.00  0.00    -0.165 A  
ENDROOT
BRANCH   5   8
HETATM    8  C   UNL     1     -11.288  12.328  68.326  1.00  0.00    -0.289 C  
BRANCH   8   9
HETATM    9  S   UNL     1     -10.695  13.695  67.286  1.00  0.00    -0.281 SA 
BRANCH   9  10
HETATM   10  C   UNL     1      -8.911  13.991  67.813  1.00  0.00    -0.187 C  
BRANCH  10  11
HETATM   11  C   UNL     1      -8.636  15.507  68.039  1.00  0.00    -0.155 A  
HETATM   12  C   UNL     1      -8.089  18.286  68.340  1.00  0.00    -0.307 A  
HETATM   13  C   UNL     1      -7.756  15.988  69.034  1.00  0.00    -0.216 A  
HETATM   14  C   UNL     1      -9.249  16.496  67.231  1.00  0.00    -0.224 A  
HETATM   15  C   UNL     1      -7.463  17.357  69.162  1.00  0.00    -0.117 A  
HETATM   16 CL   UNL     1      -7.753  19.964  68.511  1.00  0.00    -0.312 Cl 
HETATM   17 CL   UNL     1      -6.992  14.949  70.188  1.00  0.00    -0.103 Cl 
HETATM   18  C   UNL     1      -8.995  17.862  67.386  1.00  0.00    -0.245 A  
ENDBRANCH  10  11
BRANCH  10  19
HETATM   19  C   UNL     1      -7.893  13.309  66.860  1.00  0.00     0.223 C  
BRANCH  19  20
HETATM   20  N   UNL     1      -7.177  12.191  67.436  1.00  0.00    -0.136 NA 
HETATM   21  C   UNL     1      -7.048  11.906  68.765  1.00  0.00    -0.111 A  
HETATM   22  N   UNL     1      -5.912  10.381  67.546  1.00  0.00    -0.052 NA 
HETATM   23  C   UNL     1      -6.212  10.821  68.812  1.00  0.00    -0.040 A  
HETATM   24  C   UNL     1      -6.533  11.211  66.739  1.00  0.00    -0.127 A  
ENDBRANCH  19  20
ENDBRANCH  10  19
ENDBRANCH   9  10
ENDBRANCH   8   9
ENDBRANCH   5   8
TORSDOF 6
ENDMDL
MODEL      282
REMARK 921   NORMALIZED FREE ENERGY PREDICTED BY IDOCK:   -3.29 KCAL/MOL
REMARK 922        TOTAL FREE ENERGY PREDICTED BY IDOCK:   -5.36 KCAL/MOL
REMARK 923 INTER-LIGAND FREE ENERGY PREDICTED BY IDOCK:   -4.53 KCAL/MOL
REMARK 924 INTRA-LIGAND FREE ENERGY PREDICTED BY IDOCK:   -0.83 KCAL/MOL
REMARK 927      BINDING AFFINITY PREDICTED BY RF-SCORE:    0.00 PKD
ROOT
HETATM    1 CL   UNL     1      -6.585   7.536  73.506  1.00  0.00    -0.065 Cl 
HETATM    2  C   UNL     1      -6.903   8.455  72.086  1.00  0.00    -0.086 A  
HETATM    3  C   UNL     1      -8.218   8.704  71.702  1.00  0.00    -0.199 A  
HETATM    4  C   UNL     1      -8.475   9.446  70.543  1.00  0.00    -0.251 A  
HETATM    5  C   UNL     1      -7.419   9.934  69.752  1.00  0.00    -0.140 A  
HETATM    6  C   UNL     1      -6.100   9.690  70.171  1.00  0.00    -0.053 A  
HETATM    7  C   UNL     1      -5.844   8.950  71.329  1.00  0.00    -0.050 A  
ENDROOT
BRANCH   5   8
HETATM    8  C   UNL     1      -7.700  10.774  68.518  1.00  0.00    -0.118 C  
BRANCH   8   9
HETATM    9  S   UNL     1      -8.399   9.709  67.223  1.00  0.00    -0.113 SA 
BRANCH   9  10
HETATM   10  C   UNL     1     -10.249  10.068  67.220  1.00  0.00    -0.222 C  
BRANCH  10  11
HETATM   11  C   UNL     1     -10.526  11.587  67.418  1.00  0.00    -0.240 A  
HETATM   12  C   UNL     1     -11.145  14.339  67.816  1.00  0.00    -0.280 A  
HETATM   13  C   UNL     1     -10.486  12.519  66.356  1.00  0.00    -0.247 A  
HETATM   14  C   UNL     1     -10.858  12.117  68.688  1.00  0.00    -0.268 A  
HETATM   15  C   UNL     1     -10.821  13.871  66.548  1.00  0.00    -0.295 A  
HETATM   16 CL   UNL     1     -11.530  15.998  68.058  1.00  0.00    -0.264 Cl 
HETATM   17 CL   UNL     1      -9.998  12.090  64.753  1.00  0.00    -0.265 Cl 
HETATM   18  C   UNL     1     -11.147  13.470  68.891  1.00  0.00    -0.305 A  
ENDBRANCH  10  11
BRANCH  10  19
HETATM   19  C   UNL     1     -11.027   9.159  68.208  1.00  0.00     0.046 C  
BRANCH  19  20
HETATM   20  N   UNL     1     -10.781   7.741  68.051  1.00  0.00    -0.123 NA 
HETATM   21  C   UNL     1     -10.764   7.044  66.878  1.00  0.00    -0.306 A  
HETATM   22  N   UNL     1     -10.398   5.635  68.605  1.00  0.00    -0.201 NA 
HETATM   23  C   UNL     1     -10.589   5.736  67.249  1.00  0.00    -0.279 A  
HETATM   24  C   UNL     1     -10.492   6.865  69.056  1.00  0.00    -0.208 A  
ENDBRANCH  19  20
ENDBRANCH  10  19
ENDBRANCH   9  10
ENDBRANCH   8   9
ENDBRANCH   5   8
TORSDOF 6
ENDMDL
MODEL      283
REMARK 921   NORMALIZED FREE ENERGY PREDICTED BY IDOCK:   -3.27 KCAL/MOL
REMARK 922        TOTAL FREE ENERGY PREDICTED BY IDOCK:   -5.34 KCAL/MOL
REMARK 923 INTER-LIGAND FREE ENERGY PREDICTED BY IDOCK:   -4.77 KCAL/MOL
REMARK 924 INTRA-LIGAND FREE ENERGY PREDICTED BY IDOCK:   -0.57 KCAL/MOL
REMARK 927      BINDING AFFINITY PREDICTED BY RF-SCORE:    0.00 PKD
ROOT
HETATM    1 CL   UNL     1      -7.921   8.249  68.395  1.00  0.00    -0.117 Cl 
HETATM    2  C   UNL     1      -7.486   9.912  68.341  1.00  0.00    -0.082 A  
HETATM    3  C   UNL     1      -7.017  10.467  67.153  1.00  0.00    -0.089 A  
HETATM    4  C   UNL     1      -6.657  11.821  67.113  1.00  0.00    -0.143 A  
HETATM    5  C   UNL     1      -6.752  12.624  68.263  1.00  0.00    -0.081 A  
HETATM    6  C   UNL     1      -7.249  12.049  69.444  1.00  0.00     0.152 A  
HETATM    7  C   UNL     1      -7.610  10.698  69.484  1.00  0.00    -0.128 A  
ENDROOT
BRANCH   5   8
HETATM    8  C   UNL     1      -6.400  14.101  68.206  1.00  0.00    -0.118 C  
BRANCH   8   9
HETATM    9  S   UNL     1      -7.609  15.037  69.188  1.00  0.00    -0.187 SA 
BRANCH   9  10
HETATM   10  C   UNL     1      -8.532  16.119  67.953  1.00  0.00    -0.163 C  
BRANCH  10  11
HETATM   11  C   UNL     1      -9.479  15.266  67.058  1.00  0.00    -0.235 A  
HETATM   12  C   UNL     1     -11.115  13.640  65.386  1.00  0.00    -0.298 A  
HETATM   13  C   UNL     1     -10.217  15.811  65.984  1.00  0.00    -0.333 A  
HETATM   14  C   UNL     1      -9.633  13.874  67.266  1.00  0.00    -0.243 A  
HETATM   15  C   UNL     1     -11.001  15.003  65.142  1.00  0.00    -0.417 A  
HETATM   16 CL   UNL     1     -12.093  12.653  64.373  1.00  0.00    -0.454 Cl 
HETATM   17 CL   UNL     1     -10.246  17.506  65.634  1.00  0.00    -0.171 Cl 
HETATM   18  C   UNL     1     -10.448  13.075  66.457  1.00  0.00    -0.284 A  
ENDBRANCH  10  11
BRANCH  10  19
HETATM   19  C   UNL     1      -7.578  17.041  67.148  1.00  0.00    -0.174 C  
BRANCH  19  20
HETATM   20  N   UNL     1      -7.301  18.318  67.770  1.00  0.00    -0.214 NA 
HETATM   21  C   UNL     1      -6.525  18.535  68.872  1.00  0.00    -0.242 A  
HETATM   22  N   UNL     1      -7.392  20.494  68.156  1.00  0.00    -0.166 NA 
HETATM   23  C   UNL     1      -6.646  19.875  69.129  1.00  0.00    -0.333 A  
HETATM   24  C   UNL     1      -7.748  19.532  67.335  1.00  0.00    -0.251 A  
ENDBRANCH  19  20
ENDBRANCH  10  19
ENDBRANCH   9  10
ENDBRANCH   8   9
ENDBRANCH   5   8
TORSDOF 6
ENDMDL
MODEL      284
REMARK 921   NORMALIZED FREE ENERGY PREDICTED BY IDOCK:   -3.25 KCAL/MOL
REMARK 922        TOTAL FREE ENERGY PREDICTED BY IDOCK:   -5.31 KCAL/MOL
REMARK 923 INTER-LIGAND FREE ENERGY PREDICTED BY IDOCK:   -4.70 KCAL/MOL
REMARK 924 INTRA-LIGAND FREE ENERGY PREDICTED BY IDOCK:   -0.61 KCAL/MOL
REMARK 927      BINDING AFFINITY PREDICTED BY RF-SCORE:    0.00 PKD
ROOT
HETATM    1 CL   UNL     1      -5.890   9.368  67.358  1.00  0.00    -0.045 Cl 
HETATM    2  C   UNL     1      -6.345  10.927  67.925  1.00  0.00    -0.057 A  
HETATM    3  C   UNL     1      -6.586  11.952  67.015  1.00  0.00    -0.128 A  
HETATM    4  C   UNL     1      -6.951  13.223  67.479  1.00  0.00    -0.152 A  
HETATM    5  C   UNL     1      -7.064  13.480  68.856  1.00  0.00    -0.093 A  
HETATM    6  C   UNL     1      -6.837  12.426  69.756  1.00  0.00     0.233 A  
HETATM    7  C   UNL     1      -6.476  11.157  69.293  1.00  0.00    -0.088 A  
ENDROOT
BRANCH   5   8
HETATM    8  C   UNL     1      -7.498  14.848  69.355  1.00  0.00    -0.174 C  
BRANCH   8   9
HETATM    9  S   UNL     1      -9.267  14.794  69.769  1.00  0.00     0.470 SA 
BRANCH   9  10
HETATM   10  C   UNL     1     -10.164  14.612  68.123  1.00  0.00    -0.231 C  
BRANCH  10  11
HETATM   11  C   UNL     1     -10.252  15.977  67.379  1.00  0.00    -0.273 A  
HETATM   12  C   UNL     1     -10.515  18.498  66.079  1.00  0.00    -0.400 A  
HETATM   13  C   UNL     1     -10.405  16.079  65.977  1.00  0.00    -0.351 A  
HETATM   14  C   UNL     1     -10.204  17.205  68.082  1.00  0.00    -0.332 A  
HETATM   15  C   UNL     1     -10.565  17.322  65.341  1.00  0.00    -0.083 A  
HETATM   16 CL   UNL     1     -10.684  20.022  65.299  1.00  0.00    -0.243 Cl 
HETATM   17 CL   UNL     1     -10.380  14.701  64.931  1.00  0.00    -0.428 Cl 
HETATM   18  C   UNL     1     -10.316  18.446  67.445  1.00  0.00    -0.415 A  
ENDBRANCH  10  11
BRANCH  10  19
HETATM   19  C   UNL     1     -11.532  13.895  68.272  1.00  0.00    -0.311 C  
BRANCH  19  20
HETATM   20  N   UNL     1     -12.126  13.989  69.588  1.00  0.00    -0.340 NA 
HETATM   21  C   UNL     1     -12.321  12.963  70.467  1.00  0.00    -0.283 A  
HETATM   22  N   UNL     1     -13.125  14.882  71.347  1.00  0.00    -0.342 NA 
HETATM   23  C   UNL     1     -12.995  13.525  71.520  1.00  0.00    -0.355 A  
HETATM   24  C   UNL     1     -12.565  15.134  70.186  1.00  0.00    -0.279 A  
ENDBRANCH  19  20
ENDBRANCH  10  19
ENDBRANCH   9  10
ENDBRANCH   8   9
ENDBRANCH   5   8
TORSDOF 6
ENDMDL
MODEL      285
REMARK 921   NORMALIZED FREE ENERGY PREDICTED BY IDOCK:   -3.22 KCAL/MOL
REMARK 922        TOTAL FREE ENERGY PREDICTED BY IDOCK:   -5.27 KCAL/MOL
REMARK 923 INTER-LIGAND FREE ENERGY PREDICTED BY IDOCK:   -5.03 KCAL/MOL
REMARK 924 INTRA-LIGAND FREE ENERGY PREDICTED BY IDOCK:   -0.24 KCAL/MOL
REMARK 927      BINDING AFFINITY PREDICTED BY RF-SCORE:    0.00 PKD
ROOT
HETATM    1 CL   UNL     1      -5.859  18.811  68.895  1.00  0.00    -0.213 Cl 
HETATM    2  C   UNL     1      -6.329  17.158  68.839  1.00  0.00    -0.186 A  
HETATM    3  C   UNL     1      -6.133  16.344  69.951  1.00  0.00    -0.187 A  
HETATM    4  C   UNL     1      -6.511  14.996  69.902  1.00  0.00    -0.169 A  
HETATM    5  C   UNL     1      -7.075  14.450  68.735  1.00  0.00    -0.114 A  
HETATM    6  C   UNL     1      -7.284  15.294  67.633  1.00  0.00    -0.204 A  
HETATM    7  C   UNL     1      -6.908  16.640  67.683  1.00  0.00    -0.162 A  
ENDROOT
BRANCH   5   8
HETATM    8  C   UNL     1      -7.521  12.998  68.698  1.00  0.00    -0.093 C  
BRANCH   8   9
HETATM    9  S   UNL     1      -9.132  12.893  67.864  1.00  0.00    -0.208 SA 
BRANCH   9  10
HETATM   10  C   UNL     1      -9.550  11.058  67.804  1.00  0.00    -0.170 C  
BRANCH  10  11
HETATM   11  C   UNL     1     -10.398  10.634  69.039  1.00  0.00    -0.237 A  
HETATM   12  C   UNL     1     -11.969   9.753  71.245  1.00  0.00    -0.386 A  
HETATM   13  C   UNL     1     -11.583  11.303  69.421  1.00  0.00    -0.321 A  
HETATM   14  C   UNL     1     -10.030   9.527  69.842  1.00  0.00    -0.259 A  
HETATM   15  C   UNL     1     -12.373  10.849  70.492  1.00  0.00    -0.463 A  
HETATM   16 CL   UNL     1     -12.921   9.211  72.571  1.00  0.00    -0.456 Cl 
HETATM   17 CL   UNL     1     -12.143  12.738  68.635  1.00  0.00    -0.245 Cl 
HETATM   18  C   UNL     1     -10.791   9.101  70.935  1.00  0.00    -0.345 A  
ENDBRANCH  10  11
BRANCH  10  19
HETATM   19  C   UNL     1      -8.294  10.174  67.578  1.00  0.00    -0.118 C  
BRANCH  19  20
HETATM   20  N   UNL     1      -8.010   9.866  66.193  1.00  0.00    -0.107 NA 
HETATM   21  C   UNL     1      -8.329   8.713  65.534  1.00  0.00    -0.150 A  
HETATM   22  N   UNL     1      -7.215  10.100  64.143  1.00  0.00    -0.130 NA 
HETATM   23  C   UNL     1      -7.773   8.854  64.289  1.00  0.00    -0.122 A  
HETATM   24  C   UNL     1      -7.400  10.696  65.299  1.00  0.00     0.015 A  
ENDBRANCH  19  20
ENDBRANCH  10  19
ENDBRANCH   9  10
ENDBRANCH   8   9
ENDBRANCH   5   8
TORSDOF 6
ENDMDL
MODEL      286
REMARK 921   NORMALIZED FREE ENERGY PREDICTED BY IDOCK:   -3.22 KCAL/MOL
REMARK 922        TOTAL FREE ENERGY PREDICTED BY IDOCK:   -5.27 KCAL/MOL
REMARK 923 INTER-LIGAND FREE ENERGY PREDICTED BY IDOCK:   -4.96 KCAL/MOL
REMARK 924 INTRA-LIGAND FREE ENERGY PREDICTED BY IDOCK:   -0.31 KCAL/MOL
REMARK 927      BINDING AFFINITY PREDICTED BY RF-SCORE:    0.00 PKD
ROOT
HETATM    1 CL   UNL     1     -10.664   2.526  73.212  1.00  0.00    -0.257 Cl 
HETATM    2  C   UNL     1     -10.298   3.723  72.031  1.00  0.00    -0.013 A  
HETATM    3  C   UNL     1     -10.698   5.041  72.235  1.00  0.00    -0.246 A  
HETATM    4  C   UNL     1     -10.405   6.013  71.269  1.00  0.00    -0.266 A  
HETATM    5  C   UNL     1      -9.722   5.670  70.088  1.00  0.00    -0.228 A  
HETATM    6  C   UNL     1      -9.309   4.339  69.915  1.00  0.00    -0.232 A  
HETATM    7  C   UNL     1      -9.600   3.369  70.880  1.00  0.00    -0.239 A  
ENDROOT
BRANCH   5   8
HETATM    8  C   UNL     1      -9.369   6.733  69.062  1.00  0.00    -0.134 C  
BRANCH   8   9
HETATM    9  S   UNL     1     -10.031   8.333  69.613  1.00  0.00    -0.197 SA 
BRANCH   9  10
HETATM   10  C   UNL     1      -8.814   9.625  68.984  1.00  0.00    -0.147 C  
BRANCH  10  11
HETATM   11  C   UNL     1      -9.531  10.975  68.688  1.00  0.00    -0.197 A  
HETATM   12  C   UNL     1     -10.892  13.394  68.045  1.00  0.00    -0.247 A  
HETATM   13  C   UNL     1      -8.831  12.176  68.431  1.00  0.00    -0.143 A  
HETATM   14  C   UNL     1     -10.943  11.064  68.637  1.00  0.00    -0.271 A  
HETATM   15  C   UNL     1      -9.503  13.361  68.085  1.00  0.00    -0.218 A  
HETATM   16 CL   UNL     1     -11.717  14.849  67.647  1.00  0.00    -0.363 Cl 
HETATM   17 CL   UNL     1      -7.110  12.298  68.549  1.00  0.00    -0.093 Cl 
HETATM   18  C   UNL     1     -11.616  12.253  68.338  1.00  0.00    -0.377 A  
ENDBRANCH  10  11
BRANCH  10  19
HETATM   19  C   UNL     1      -7.956   9.102  67.801  1.00  0.00    -0.101 C  
BRANCH  19  20
HETATM   20  N   UNL     1      -8.394   9.541  66.494  1.00  0.00    -0.118 NA 
HETATM   21  C   UNL     1      -7.671  10.274  65.597  1.00  0.00    -0.148 A  
HETATM   22  N   UNL     1      -9.730   9.871  64.763  1.00  0.00    -0.292 NA 
HETATM   23  C   UNL     1      -8.536  10.519  64.563  1.00  0.00    -0.159 A  
HETATM   24  C   UNL     1      -9.602   9.266  65.922  1.00  0.00    -0.275 A  
ENDBRANCH  19  20
ENDBRANCH  10  19
ENDBRANCH   9  10
ENDBRANCH   8   9
ENDBRANCH   5   8
TORSDOF 6
ENDMDL
MODEL      287
REMARK 921   NORMALIZED FREE ENERGY PREDICTED BY IDOCK:   -3.21 KCAL/MOL
REMARK 922        TOTAL FREE ENERGY PREDICTED BY IDOCK:   -5.26 KCAL/MOL
REMARK 923 INTER-LIGAND FREE ENERGY PREDICTED BY IDOCK:   -4.65 KCAL/MOL
REMARK 924 INTRA-LIGAND FREE ENERGY PREDICTED BY IDOCK:   -0.61 KCAL/MOL
REMARK 927      BINDING AFFINITY PREDICTED BY RF-SCORE:    0.00 PKD
ROOT
HETATM    1 CL   UNL     1      -8.585   3.366  71.901  1.00  0.00    -0.096 Cl 
HETATM    2  C   UNL     1      -8.441   4.894  71.123  1.00  0.00    -0.118 A  
HETATM    3  C   UNL     1      -9.302   5.932  71.471  1.00  0.00    -0.160 A  
HETATM    4  C   UNL     1      -9.188   7.174  70.832  1.00  0.00    -0.152 A  
HETATM    5  C   UNL     1      -8.221   7.382  69.833  1.00  0.00    -0.132 A  
HETATM    6  C   UNL     1      -7.349   6.328  69.514  1.00  0.00    -0.084 A  
HETATM    7  C   UNL     1      -7.462   5.089  70.153  1.00  0.00    -0.059 A  
ENDROOT
BRANCH   5   8
HETATM    8  C   UNL     1      -8.072   8.741  69.171  1.00  0.00    -0.118 C  
BRANCH   8   9
HETATM    9  S   UNL     1      -9.610   9.682  69.397  1.00  0.00    -0.204 SA 
BRANCH   9  10
HETATM   10  C   UNL     1     -10.650   9.321  67.869  1.00  0.00    -0.231 C  
BRANCH  10  11
HETATM   11  C   UNL     1     -10.219   7.984  67.200  1.00  0.00    -0.362 A  
HETATM   12  C   UNL     1      -9.402   5.492  66.085  1.00  0.00    -0.157 A  
HETATM   13  C   UNL     1      -9.145   7.894  66.285  1.00  0.00    -0.179 A  
HETATM   14  C   UNL     1     -10.877   6.765  67.494  1.00  0.00    -0.388 A  
HETATM   15  C   UNL     1      -8.724   6.660  65.759  1.00  0.00    -0.126 A  
HETATM   16 CL   UNL     1      -8.906   3.985  65.423  1.00  0.00    -0.119 Cl 
HETATM   17 CL   UNL     1      -8.283   9.283  65.717  1.00  0.00    -0.114 Cl 
HETATM   18  C   UNL     1     -10.490   5.542  66.937  1.00  0.00    -0.348 A  
ENDBRANCH  10  11
BRANCH  10  19
HETATM   19  C   UNL     1     -10.695  10.523  66.888  1.00  0.00    -0.219 C  
BRANCH  19  20
HETATM   20  N   UNL     1     -10.815  11.819  67.520  1.00  0.00    -0.227 NA 
HETATM   21  C   UNL     1      -9.974  12.882  67.361  1.00  0.00    -0.217 A  
HETATM   22  N   UNL     1     -11.602  13.414  68.834  1.00  0.00    -0.291 NA 
HETATM   23  C   UNL     1     -10.443  13.834  68.229  1.00  0.00    -0.248 A  
HETATM   24  C   UNL     1     -11.815  12.206  68.364  1.00  0.00    -0.303 A  
ENDBRANCH  19  20
ENDBRANCH  10  19
ENDBRANCH   9  10
ENDBRANCH   8   9
ENDBRANCH   5   8
TORSDOF 6
ENDMDL
MODEL      288
REMARK 921   NORMALIZED FREE ENERGY PREDICTED BY IDOCK:   -3.21 KCAL/MOL
REMARK 922        TOTAL FREE ENERGY PREDICTED BY IDOCK:   -5.25 KCAL/MOL
REMARK 923 INTER-LIGAND FREE ENERGY PREDICTED BY IDOCK:   -3.61 KCAL/MOL
REMARK 924 INTRA-LIGAND FREE ENERGY PREDICTED BY IDOCK:   -1.65 KCAL/MOL
REMARK 927      BINDING AFFINITY PREDICTED BY RF-SCORE:    0.00 PKD
ROOT
HETATM    1 CL   UNL     1      -7.364  13.295  68.358  1.00  0.00    -0.105 Cl 
HETATM    2  C   UNL     1      -7.686  11.926  67.367  1.00  0.00    -0.158 A  
HETATM    3  C   UNL     1      -8.994  11.642  66.982  1.00  0.00    -0.182 A  
HETATM    4  C   UNL     1      -9.255  10.523  66.180  1.00  0.00    -0.197 A  
HETATM    5  C   UNL     1      -8.213   9.675  65.768  1.00  0.00    -0.120 A  
HETATM    6  C   UNL     1      -6.899   9.993  66.150  1.00  0.00    -0.102 A  
HETATM    7  C   UNL     1      -6.638  11.111  66.948  1.00  0.00    -0.124 A  
ENDROOT
BRANCH   5   8
HETATM    8  C   UNL     1      -8.493   8.486  64.865  1.00  0.00    -0.147 C  
BRANCH   8   9
HETATM    9  S   UNL     1      -7.289   7.173  65.220  1.00  0.00    -0.085 SA 
BRANCH   9  10
HETATM   10  C   UNL     1      -8.132   6.039  66.466  1.00  0.00    -0.109 C  
BRANCH  10  11
HETATM   11  C   UNL     1      -8.604   6.834  67.718  1.00  0.00    -0.121 A  
HETATM   12  C   UNL     1      -9.415   8.204  70.081  1.00  0.00    -0.167 A  
HETATM   13  C   UNL     1      -9.967   7.064  68.014  1.00  0.00    -0.154 A  
HETATM   14  C   UNL     1      -7.677   7.357  68.652  1.00  0.00    -0.120 A  
HETATM   15  C   UNL     1     -10.367   7.713  69.195  1.00  0.00    -0.217 A  
HETATM   16 CL   UNL     1      -9.901   9.022  71.514  1.00  0.00    -0.385 Cl 
HETATM   17 CL   UNL     1     -11.246   6.598  66.946  1.00  0.00    -0.368 Cl 
HETATM   18  C   UNL     1      -8.070   8.044  69.805  1.00  0.00    -0.115 A  
ENDBRANCH  10  11
BRANCH  10  19
HETATM   19  C   UNL     1      -7.272   4.793  66.806  1.00  0.00    -0.080 C  
BRANCH  19  20
HETATM   20  N   UNL     1      -7.920   3.825  67.665  1.00  0.00    -0.085 NA 
HETATM   21  C   UNL     1      -9.081   3.156  67.406  1.00  0.00    -0.176 A  
HETATM   22  N   UNL     1      -8.307   2.572  69.446  1.00  0.00    -0.050 NA 
HETATM   23  C   UNL     1      -9.335   2.436  68.544  1.00  0.00    -0.192 A  
HETATM   24  C   UNL     1      -7.456   3.393  68.874  1.00  0.00    -0.049 A  
ENDBRANCH  19  20
ENDBRANCH  10  19
ENDBRANCH   9  10
ENDBRANCH   8   9
ENDBRANCH   5   8
TORSDOF 6
ENDMDL
MODEL      289
REMARK 921   NORMALIZED FREE ENERGY PREDICTED BY IDOCK:   -3.18 KCAL/MOL
REMARK 922        TOTAL FREE ENERGY PREDICTED BY IDOCK:   -5.22 KCAL/MOL
REMARK 923 INTER-LIGAND FREE ENERGY PREDICTED BY IDOCK:   -5.08 KCAL/MOL
REMARK 924 INTRA-LIGAND FREE ENERGY PREDICTED BY IDOCK:   -0.14 KCAL/MOL
REMARK 927      BINDING AFFINITY PREDICTED BY RF-SCORE:    0.00 PKD
ROOT
HETATM    1 CL   UNL     1     -12.433  14.781  64.191  1.00  0.00    -0.345 Cl 
HETATM    2  C   UNL     1     -11.578  13.464  64.892  1.00  0.00    -0.330 A  
HETATM    3  C   UNL     1     -10.453  12.950  64.253  1.00  0.00    -0.430 A  
HETATM    4  C   UNL     1      -9.762  11.872  64.823  1.00  0.00    -0.143 A  
HETATM    5  C   UNL     1     -10.199  11.294  66.028  1.00  0.00    -0.295 A  
HETATM    6  C   UNL     1     -11.323  11.843  66.666  1.00  0.00    -0.400 A  
HETATM    7  C   UNL     1     -12.012  12.919  66.098  1.00  0.00    -0.491 A  
ENDROOT
BRANCH   5   8
HETATM    8  C   UNL     1      -9.424  10.152  66.664  1.00  0.00    -0.170 C  
BRANCH   8   9
HETATM    9  S   UNL     1     -10.521   8.715  66.837  1.00  0.00    -0.199 SA 
BRANCH   9  10
HETATM   10  C   UNL     1      -9.451   7.352  67.578  1.00  0.00    -0.138 C  
BRANCH  10  11
HETATM   11  C   UNL     1      -9.325   7.516  69.122  1.00  0.00    -0.147 A  
HETATM   12  C   UNL     1      -9.201   7.868  71.946  1.00  0.00    -0.154 A  
HETATM   13  C   UNL     1      -8.310   8.288  69.731  1.00  0.00    -0.123 A  
HETATM   14  C   UNL     1     -10.247   6.906  70.006  1.00  0.00    -0.211 A  
HETATM   15  C   UNL     1      -8.268   8.486  71.122  1.00  0.00    -0.172 A  
HETATM   16 CL   UNL     1      -9.136   8.088  73.650  1.00  0.00    -0.329 Cl 
HETATM   17 CL   UNL     1      -7.028   9.025  68.832  1.00  0.00    -0.064 Cl 
HETATM   18  C   UNL     1     -10.180   7.064  71.394  1.00  0.00    -0.208 A  
ENDBRANCH  10  11
BRANCH  10  19
HETATM   19  C   UNL     1      -8.087   7.212  66.853  1.00  0.00    -0.116 C  
BRANCH  19  20
HETATM   20  N   UNL     1      -8.167   6.689  65.506  1.00  0.00    -0.134 NA 
HETATM   21  C   UNL     1      -8.567   5.435  65.143  1.00  0.00    -0.149 A  
HETATM   22  N   UNL     1      -7.974   6.605  63.304  1.00  0.00    -0.106 NA 
HETATM   23  C   UNL     1      -8.381   5.385  63.786  1.00  0.00    -0.102 A  
HETATM   24  C   UNL     1      -7.883   7.378  64.363  1.00  0.00    -0.127 A  
ENDBRANCH  19  20
ENDBRANCH  10  19
ENDBRANCH   9  10
ENDBRANCH   8   9
ENDBRANCH   5   8
TORSDOF 6
ENDMDL
MODEL      290
REMARK 921   NORMALIZED FREE ENERGY PREDICTED BY IDOCK:   -3.17 KCAL/MOL
REMARK 922        TOTAL FREE ENERGY PREDICTED BY IDOCK:   -5.21 KCAL/MOL
REMARK 923 INTER-LIGAND FREE ENERGY PREDICTED BY IDOCK:   -3.63 KCAL/MOL
REMARK 924 INTRA-LIGAND FREE ENERGY PREDICTED BY IDOCK:   -1.58 KCAL/MOL
REMARK 927      BINDING AFFINITY PREDICTED BY RF-SCORE:    0.00 PKD
ROOT
HETATM    1 CL   UNL     1     -11.690  11.704  69.194  1.00  0.00    -0.355 Cl 
HETATM    2  C   UNL     1     -10.957  11.178  67.730  1.00  0.00    -0.262 A  
HETATM    3  C   UNL     1     -10.880   9.818  67.443  1.00  0.00    -0.265 A  
HETATM    4  C   UNL     1     -10.277   9.391  66.252  1.00  0.00    -0.284 A  
HETATM    5  C   UNL     1      -9.736  10.321  65.347  1.00  0.00    -0.340 A  
HETATM    6  C   UNL     1      -9.844  11.690  65.646  1.00  0.00    -0.270 A  
HETATM    7  C   UNL     1     -10.448  12.115  66.834  1.00  0.00    -0.250 A  
ENDROOT
BRANCH   5   8
HETATM    8  C   UNL     1      -9.119   9.859  64.038  1.00  0.00    -0.259 C  
BRANCH   8   9
HETATM    9  S   UNL     1      -7.310   9.858  64.202  1.00  0.00    -0.133 SA 
BRANCH   9  10
HETATM   10  C   UNL     1      -6.958   9.129  65.903  1.00  0.00    -0.088 C  
BRANCH  10  11
HETATM   11  C   UNL     1      -6.770  10.250  66.966  1.00  0.00    -0.079 A  
HETATM   12  C   UNL     1      -6.306  12.300  68.889  1.00  0.00    -0.084 A  
HETATM   13  C   UNL     1      -7.089  10.074  68.332  1.00  0.00    -0.072 A  
HETATM   14  C   UNL     1      -6.241  11.516  66.617  1.00  0.00    -0.113 A  
HETATM   15  C   UNL     1      -6.832  11.076  69.284  1.00  0.00    -0.110 A  
HETATM   16 CL   UNL     1      -6.014  13.536  70.049  1.00  0.00    -0.136 Cl 
HETATM   17 CL   UNL     1      -7.843   8.640  68.939  1.00  0.00    -0.103 Cl 
HETATM   18  C   UNL     1      -6.026  12.531  67.555  1.00  0.00    -0.152 A  
ENDBRANCH  10  11
BRANCH  10  19
HETATM   19  C   UNL     1      -5.800   8.096  65.874  1.00  0.00    -0.037 C  
BRANCH  19  20
HETATM   20  N   UNL     1      -6.177   6.751  66.251  1.00  0.00    -0.043 NA 
HETATM   21  C   UNL     1      -6.984   5.905  65.546  1.00  0.00    -0.064 A  
HETATM   22  N   UNL     1      -6.337   4.912  67.469  1.00  0.00    -0.039 NA 
HETATM   23  C   UNL     1      -7.119   4.800  66.346  1.00  0.00    -0.075 A  
HETATM   24  C   UNL     1      -5.759   6.087  67.367  1.00  0.00    -0.016 A  
ENDBRANCH  19  20
ENDBRANCH  10  19
ENDBRANCH   9  10
ENDBRANCH   8   9
ENDBRANCH   5   8
TORSDOF 6
ENDMDL
MODEL      291
REMARK 921   NORMALIZED FREE ENERGY PREDICTED BY IDOCK:   -3.17 KCAL/MOL
REMARK 922        TOTAL FREE ENERGY PREDICTED BY IDOCK:   -5.21 KCAL/MOL
REMARK 923 INTER-LIGAND FREE ENERGY PREDICTED BY IDOCK:   -4.36 KCAL/MOL
REMARK 924 INTRA-LIGAND FREE ENERGY PREDICTED BY IDOCK:   -0.84 KCAL/MOL
REMARK 927      BINDING AFFINITY PREDICTED BY RF-SCORE:    0.00 PKD
ROOT
HETATM    1 CL   UNL     1      -6.339  15.354  68.146  1.00  0.00    -0.118 Cl 
HETATM    2  C   UNL     1      -6.634  13.725  68.614  1.00  0.00    -0.096 A  
HETATM    3  C   UNL     1      -5.986  13.197  69.727  1.00  0.00    -0.127 A  
HETATM    4  C   UNL     1      -6.223  11.868  70.104  1.00  0.00    -0.087 A  
HETATM    5  C   UNL     1      -7.098  11.056  69.362  1.00  0.00    -0.128 A  
HETATM    6  C   UNL     1      -7.758  11.617  68.255  1.00  0.00    -0.128 A  
HETATM    7  C   UNL     1      -7.523  12.944  67.881  1.00  0.00    -0.131 A  
ENDROOT
BRANCH   5   8
HETATM    8  C   UNL     1      -7.385   9.628  69.796  1.00  0.00    -0.104 C  
BRANCH   8   9
HETATM    9  S   UNL     1      -9.183   9.378  69.864  1.00  0.00    -0.224 SA 
BRANCH   9  10
HETATM   10  C   UNL     1      -9.536   7.940  68.701  1.00  0.00    -0.149 C  
BRANCH  10  11
HETATM   11  C   UNL     1      -9.348   8.362  67.214  1.00  0.00    -0.181 A  
HETATM   12  C   UNL     1      -8.887   9.159  64.518  1.00  0.00    -0.125 A  
HETATM   13  C   UNL     1     -10.049   9.439  66.627  1.00  0.00    -0.262 A  
HETATM   14  C   UNL     1      -8.433   7.690  66.367  1.00  0.00    -0.137 A  
HETATM   15  C   UNL     1      -9.799   9.850  65.306  1.00  0.00    -0.373 A  
HETATM   16 CL   UNL     1      -8.598   9.644  62.894  1.00  0.00    -0.185 Cl 
HETATM   17 CL   UNL     1     -11.284  10.317  67.463  1.00  0.00    -0.303 Cl 
HETATM   18  C   UNL     1      -8.216   8.068  65.038  1.00  0.00    -0.144 A  
ENDBRANCH  10  11
BRANCH  10  19
HETATM   19  C   UNL     1     -10.906   7.270  68.990  1.00  0.00    -0.113 C  
BRANCH  19  20
HETATM   20  N   UNL     1     -11.148   6.959  70.382  1.00  0.00    -0.279 NA 
HETATM   21  C   UNL     1     -10.425   6.103  71.162  1.00  0.00    -0.230 A  
HETATM   22  N   UNL     1     -12.139   6.958  72.359  1.00  0.00    -0.153 NA 
HETATM   23  C   UNL     1     -11.092   6.070  72.359  1.00  0.00    -0.277 A  
HETATM   24  C   UNL     1     -12.128   7.500  71.162  1.00  0.00    -0.307 A  
ENDBRANCH  19  20
ENDBRANCH  10  19
ENDBRANCH   9  10
ENDBRANCH   8   9
ENDBRANCH   5   8
TORSDOF 6
ENDMDL
MODEL      292
REMARK 921   NORMALIZED FREE ENERGY PREDICTED BY IDOCK:   -3.15 KCAL/MOL
REMARK 922        TOTAL FREE ENERGY PREDICTED BY IDOCK:   -5.18 KCAL/MOL
REMARK 923 INTER-LIGAND FREE ENERGY PREDICTED BY IDOCK:   -5.68 KCAL/MOL
REMARK 924 INTRA-LIGAND FREE ENERGY PREDICTED BY IDOCK:    0.51 KCAL/MOL
REMARK 927      BINDING AFFINITY PREDICTED BY RF-SCORE:    0.00 PKD
ROOT
HETATM    1 CL   UNL     1     -13.220  12.438  71.590  1.00  0.00    -0.453 Cl 
HETATM    2  C   UNL     1     -12.842  10.760  71.560  1.00  0.00    -0.462 A  
HETATM    3  C   UNL     1     -13.749   9.837  72.073  1.00  0.00    -0.351 A  
HETATM    4  C   UNL     1     -13.437   8.471  72.053  1.00  0.00    -0.409 A  
HETATM    5  C   UNL     1     -12.211   8.021  71.533  1.00  0.00    -0.328 A  
HETATM    6  C   UNL     1     -11.320   8.968  71.001  1.00  0.00    -0.362 A  
HETATM    7  C   UNL     1     -11.633  10.331  71.019  1.00  0.00    -0.430 A  
ENDROOT
BRANCH   5   8
HETATM    8  C   UNL     1     -11.892   6.536  71.476  1.00  0.00    -0.333 C  
BRANCH   8   9
HETATM    9  S   UNL     1     -11.118   6.157  69.877  1.00  0.00    -0.413 SA 
BRANCH   9  10
HETATM   10  C   UNL     1      -9.306   6.633  70.069  1.00  0.00    -0.158 C  
BRANCH  10  11
HETATM   11  C   UNL     1      -8.914   7.766  69.075  1.00  0.00    -0.145 A  
HETATM   12  C   UNL     1      -8.216   9.919  67.345  1.00  0.00    -0.118 A  
HETATM   13  C   UNL     1      -9.654   8.049  67.904  1.00  0.00    -0.155 A  
HETATM   14  C   UNL     1      -7.793   8.598  69.309  1.00  0.00    -0.101 A  
HETATM   15  C   UNL     1      -9.326   9.130  67.067  1.00  0.00    -0.188 A  
HETATM   16 CL   UNL     1      -7.797  11.226  66.309  1.00  0.00    -0.116 Cl 
HETATM   17 CL   UNL     1     -10.993   7.082  67.388  1.00  0.00    -0.359 Cl 
HETATM   18  C   UNL     1      -7.437   9.645  68.454  1.00  0.00    -0.080 A  
ENDBRANCH  10  11
BRANCH  10  19
HETATM   19  C   UNL     1      -8.362   5.402  70.013  1.00  0.00    -0.107 C  
BRANCH  19  20
HETATM   20  N   UNL     1      -8.698   4.427  68.998  1.00  0.00    -0.083 NA 
HETATM   21  C   UNL     1      -9.455   3.303  69.168  1.00  0.00    -0.119 A  
HETATM   22  N   UNL     1      -8.726   3.413  67.033  1.00  0.00    -0.114 NA 
HETATM   23  C   UNL     1      -9.407   2.660  67.959  1.00  0.00    -0.202 A  
HETATM   24  C   UNL     1      -8.336   4.485  67.684  1.00  0.00    -0.099 A  
ENDBRANCH  19  20
ENDBRANCH  10  19
ENDBRANCH   9  10
ENDBRANCH   8   9
ENDBRANCH   5   8
TORSDOF 6
ENDMDL
MODEL      293
REMARK 921   NORMALIZED FREE ENERGY PREDICTED BY IDOCK:   -3.13 KCAL/MOL
REMARK 922        TOTAL FREE ENERGY PREDICTED BY IDOCK:   -5.15 KCAL/MOL
REMARK 923 INTER-LIGAND FREE ENERGY PREDICTED BY IDOCK:   -5.27 KCAL/MOL
REMARK 924 INTRA-LIGAND FREE ENERGY PREDICTED BY IDOCK:    0.12 KCAL/MOL
REMARK 927      BINDING AFFINITY PREDICTED BY RF-SCORE:    0.00 PKD
ROOT
HETATM    1 CL   UNL     1     -11.513  10.303  67.847  1.00  0.00    -0.196 Cl 
HETATM    2  C   UNL     1     -11.212  11.745  66.958  1.00  0.00    -0.322 A  
HETATM    3  C   UNL     1     -10.234  11.757  65.968  1.00  0.00    -0.265 A  
HETATM    4  C   UNL     1      -9.986  12.934  65.250  1.00  0.00    -0.192 A  
HETATM    5  C   UNL     1     -10.707  14.110  65.526  1.00  0.00    -0.330 A  
HETATM    6  C   UNL     1     -11.705  14.068  66.514  1.00  0.00    -0.412 A  
HETATM    7  C   UNL     1     -11.953  12.893  67.229  1.00  0.00    -0.371 A  
ENDROOT
BRANCH   5   8
HETATM    8  C   UNL     1     -10.465  15.374  64.718  1.00  0.00    -0.153 C  
BRANCH   8   9
HETATM    9  S   UNL     1     -10.290  16.780  65.855  1.00  0.00    -0.271 SA 
BRANCH   9  10
HETATM   10  C   UNL     1      -8.435  17.033  66.062  1.00  0.00    -0.136 C  
BRANCH  10  11
HETATM   11  C   UNL     1      -7.898  16.258  67.301  1.00  0.00    -0.203 A  
HETATM   12  C   UNL     1      -6.915  14.737  69.500  1.00  0.00    -0.176 A  
HETATM   13  C   UNL     1      -8.629  16.133  68.504  1.00  0.00    -0.202 A  
HETATM   14  C   UNL     1      -6.640  15.609  67.277  1.00  0.00    -0.131 A  
HETATM   15  C   UNL     1      -8.157  15.358  69.577  1.00  0.00    -0.207 A  
HETATM   16 CL   UNL     1      -6.323  13.810  70.822  1.00  0.00     0.010 Cl 
HETATM   17 CL   UNL     1     -10.138  16.937  68.770  1.00  0.00    -0.277 Cl 
HETATM   18  C   UNL     1      -6.146  14.876  68.360  1.00  0.00    -0.103 A  
ENDBRANCH  10  11
BRANCH  10  19
HETATM   19  C   UNL     1      -8.039  18.533  66.046  1.00  0.00    -0.088 C  
BRANCH  19  20
HETATM   20  N   UNL     1      -7.458  19.020  67.279  1.00  0.00    -0.227 NA 
HETATM   21  C   UNL     1      -8.133  19.523  68.353  1.00  0.00    -0.342 A  
HETATM   22  N   UNL     1      -5.911  19.604  68.747  1.00  0.00    -0.222 NA 
HETATM   23  C   UNL     1      -7.156  19.935  69.222  1.00  0.00    -0.246 A  
HETATM   24  C   UNL     1      -6.129  19.028  67.587  1.00  0.00    -0.209 A  
ENDBRANCH  19  20
ENDBRANCH  10  19
ENDBRANCH   9  10
ENDBRANCH   8   9
ENDBRANCH   5   8
TORSDOF 6
ENDMDL
MODEL      294
REMARK 921   NORMALIZED FREE ENERGY PREDICTED BY IDOCK:   -3.12 KCAL/MOL
REMARK 922        TOTAL FREE ENERGY PREDICTED BY IDOCK:   -5.14 KCAL/MOL
REMARK 923 INTER-LIGAND FREE ENERGY PREDICTED BY IDOCK:   -5.24 KCAL/MOL
REMARK 924 INTRA-LIGAND FREE ENERGY PREDICTED BY IDOCK:    0.11 KCAL/MOL
REMARK 927      BINDING AFFINITY PREDICTED BY RF-SCORE:    0.00 PKD
ROOT
HETATM    1 CL   UNL     1     -12.274  14.203  67.067  1.00  0.00    -0.441 Cl 
HETATM    2  C   UNL     1     -11.554  12.655  66.861  1.00  0.00    -0.373 A  
HETATM    3  C   UNL     1     -11.465  11.783  67.942  1.00  0.00    -0.387 A  
HETATM    4  C   UNL     1     -10.872  10.524  67.774  1.00  0.00    -0.347 A  
HETATM    5  C   UNL     1     -10.353  10.136  66.526  1.00  0.00    -0.270 A  
HETATM    6  C   UNL     1     -10.473  11.023  65.444  1.00  0.00    -0.306 A  
HETATM    7  C   UNL     1     -11.067  12.278  65.612  1.00  0.00    -0.357 A  
ENDROOT
BRANCH   5   8
HETATM    8  C   UNL     1      -9.747   8.755  66.336  1.00  0.00    -0.265 C  
BRANCH   8   9
HETATM    9  S   UNL     1      -8.064   8.747  67.019  1.00  0.00    -0.099 SA 
BRANCH   9  10
HETATM   10  C   UNL     1      -7.695   6.945  67.426  1.00  0.00    -0.110 C  
BRANCH  10  11
HETATM   11  C   UNL     1      -8.480   5.985  66.484  1.00  0.00    -0.115 A  
HETATM   12  C   UNL     1      -9.914   4.316  64.676  1.00  0.00    -0.128 A  
HETATM   13  C   UNL     1      -9.776   5.507  66.783  1.00  0.00    -0.155 A  
HETATM   14  C   UNL     1      -7.935   5.553  65.251  1.00  0.00    -0.112 A  
HETATM   15  C   UNL     1     -10.494   4.708  65.876  1.00  0.00    -0.305 A  
HETATM   16 CL   UNL     1     -10.781   3.317  63.577  1.00  0.00    -0.255 Cl 
HETATM   17 CL   UNL     1     -10.571   5.834  68.284  1.00  0.00    -0.283 Cl 
HETATM   18  C   UNL     1      -8.629   4.720  64.368  1.00  0.00    -0.145 A  
ENDBRANCH  10  11
BRANCH  10  19
HETATM   19  C   UNL     1      -7.884   6.630  68.934  1.00  0.00    -0.111 C  
BRANCH  19  20
HETATM   20  N   UNL     1      -7.582   7.728  69.826  1.00  0.00    -0.089 NA 
HETATM   21  C   UNL     1      -6.347   8.251  70.084  1.00  0.00    -0.035 A  
HETATM   22  N   UNL     1      -7.901   9.330  71.317  1.00  0.00    -0.338 NA 
HETATM   23  C   UNL     1      -6.560   9.196  71.053  1.00  0.00    -0.086 A  
HETATM   24  C   UNL     1      -8.492   8.451  70.540  1.00  0.00    -0.132 A  
ENDBRANCH  19  20
ENDBRANCH  10  19
ENDBRANCH   9  10
ENDBRANCH   8   9
ENDBRANCH   5   8
TORSDOF 6
ENDMDL
MODEL      295
REMARK 921   NORMALIZED FREE ENERGY PREDICTED BY IDOCK:   -3.10 KCAL/MOL
REMARK 922        TOTAL FREE ENERGY PREDICTED BY IDOCK:   -5.11 KCAL/MOL
REMARK 923 INTER-LIGAND FREE ENERGY PREDICTED BY IDOCK:   -4.77 KCAL/MOL
REMARK 924 INTRA-LIGAND FREE ENERGY PREDICTED BY IDOCK:   -0.33 KCAL/MOL
REMARK 927      BINDING AFFINITY PREDICTED BY RF-SCORE:    0.00 PKD
ROOT
HETATM    1 CL   UNL     1      -8.493  12.362  67.225  1.00  0.00    -0.176 Cl 
HETATM    2  C   UNL     1      -8.233  10.791  67.875  1.00  0.00    -0.113 A  
HETATM    3  C   UNL     1      -8.146   9.694  67.022  1.00  0.00    -0.113 A  
HETATM    4  C   UNL     1      -7.941   8.414  67.553  1.00  0.00    -0.106 A  
HETATM    5  C   UNL     1      -7.833   8.221  68.942  1.00  0.00    -0.111 A  
HETATM    6  C   UNL     1      -7.902   9.345  69.782  1.00  0.00    -0.115 A  
HETATM    7  C   UNL     1      -8.105  10.622  69.251  1.00  0.00    -0.133 A  
ENDROOT
BRANCH   5   8
HETATM    8  C   UNL     1      -7.569   6.838  69.513  1.00  0.00    -0.099 C  
BRANCH   8   9
HETATM    9  S   UNL     1      -8.718   6.535  70.888  1.00  0.00    -0.135 SA 
BRANCH   9  10
HETATM   10  C   UNL     1     -10.245   5.758  70.106  1.00  0.00    -0.236 C  
BRANCH  10  11
HETATM   11  C   UNL     1      -9.850   4.726  69.009  1.00  0.00    -0.239 A  
HETATM   12  C   UNL     1      -9.011   2.853  67.033  1.00  0.00    -0.157 A  
HETATM   13  C   UNL     1     -10.095   4.937  67.634  1.00  0.00    -0.116 A  
HETATM   14  C   UNL     1      -9.195   3.514  69.338  1.00  0.00    -0.227 A  
HETATM   15  C   UNL     1      -9.654   4.026  66.657  1.00  0.00    -0.228 A  
HETATM   16 CL   UNL     1      -8.493   1.725  65.843  1.00  0.00    -0.099 Cl 
HETATM   17 CL   UNL     1     -10.976   6.302  67.039  1.00  0.00    -0.449 Cl 
HETATM   18  C   UNL     1      -8.796   2.585  68.372  1.00  0.00    -0.154 A  
ENDBRANCH  10  11
BRANCH  10  19
HETATM   19  C   UNL     1     -11.267   6.821  69.622  1.00  0.00    -0.292 C  
BRANCH  19  20
HETATM   20  N   UNL     1     -11.649   7.795  70.623  1.00  0.00    -0.259 NA 
HETATM   21  C   UNL     1     -11.576   9.153  70.505  1.00  0.00    -0.197 A  
HETATM   22  N   UNL     1     -12.347   8.608  72.557  1.00  0.00    -0.367 NA 
HETATM   23  C   UNL     1     -11.953   9.633  71.732  1.00  0.00    -0.347 A  
HETATM   24  C   UNL     1     -12.179   7.514  71.848  1.00  0.00    -0.306 A  
ENDBRANCH  19  20
ENDBRANCH  10  19
ENDBRANCH   9  10
ENDBRANCH   8   9
ENDBRANCH   5   8
TORSDOF 6
ENDMDL
MODEL      296
REMARK 921   NORMALIZED FREE ENERGY PREDICTED BY IDOCK:   -3.06 KCAL/MOL
REMARK 922        TOTAL FREE ENERGY PREDICTED BY IDOCK:   -5.06 KCAL/MOL
REMARK 923 INTER-LIGAND FREE ENERGY PREDICTED BY IDOCK:   -3.95 KCAL/MOL
REMARK 924 INTRA-LIGAND FREE ENERGY PREDICTED BY IDOCK:   -1.11 KCAL/MOL
REMARK 927      BINDING AFFINITY PREDICTED BY RF-SCORE:    0.00 PKD
ROOT
HETATM    1 CL   UNL     1     -10.256  11.651  64.372  1.00  0.00    -0.322 Cl 
HETATM    2  C   UNL     1      -9.043  10.524  64.840  1.00  0.00    -0.205 A  
HETATM    3  C   UNL     1      -8.365  10.696  66.043  1.00  0.00    -0.160 A  
HETATM    4  C   UNL     1      -7.373   9.781  66.419  1.00  0.00    -0.095 A  
HETATM    5  C   UNL     1      -7.045   8.695  65.589  1.00  0.00    -0.083 A  
HETATM    6  C   UNL     1      -7.758   8.528  64.390  1.00  0.00    -0.128 A  
HETATM    7  C   UNL     1      -8.749   9.441  64.016  1.00  0.00    -0.225 A  
ENDROOT
BRANCH   5   8
HETATM    8  C   UNL     1      -5.997   7.681  66.018  1.00  0.00    -0.038 C  
BRANCH   8   9
HETATM    9  S   UNL     1      -6.437   7.032  67.657  1.00  0.00    -0.052 SA 
BRANCH   9  10
HETATM   10  C   UNL     1      -8.103   6.184  67.432  1.00  0.00    -0.109 C  
BRANCH  10  11
HETATM   11  C   UNL     1      -8.997   6.361  68.694  1.00  0.00    -0.125 A  
HETATM   12  C   UNL     1     -10.605   6.573  71.037  1.00  0.00    -0.231 A  
HETATM   13  C   UNL     1     -10.392   6.581  68.622  1.00  0.00    -0.191 A  
HETATM   14  C   UNL     1      -8.454   6.289  70.000  1.00  0.00    -0.134 A  
HETATM   15  C   UNL     1     -11.188   6.656  69.778  1.00  0.00    -0.413 A  
HETATM   16 CL   UNL     1     -11.573   6.690  72.454  1.00  0.00    -0.300 Cl 
HETATM   17 CL   UNL     1     -11.227   6.806  67.123  1.00  0.00    -0.404 Cl 
HETATM   18  C   UNL     1      -9.237   6.408  71.152  1.00  0.00    -0.159 A  
ENDBRANCH  10  11
BRANCH  10  19
HETATM   19  C   UNL     1      -7.957   4.708  66.975  1.00  0.00    -0.102 C  
BRANCH  19  20
HETATM   20  N   UNL     1      -8.080   4.500  65.548  1.00  0.00    -0.108 NA 
HETATM   21  C   UNL     1      -7.295   3.695  64.773  1.00  0.00    -0.068 A  
HETATM   22  N   UNL     1      -8.828   4.735  63.480  1.00  0.00    -0.131 NA 
HETATM   23  C   UNL     1      -7.734   3.904  63.492  1.00  0.00    -0.074 A  
HETATM   24  C   UNL     1      -9.029   5.053  64.739  1.00  0.00    -0.094 A  
ENDBRANCH  19  20
ENDBRANCH  10  19
ENDBRANCH   9  10
ENDBRANCH   8   9
ENDBRANCH   5   8
TORSDOF 6
ENDMDL
MODEL      297
REMARK 921   NORMALIZED FREE ENERGY PREDICTED BY IDOCK:   -3.06 KCAL/MOL
REMARK 922        TOTAL FREE ENERGY PREDICTED BY IDOCK:   -5.06 KCAL/MOL
REMARK 923 INTER-LIGAND FREE ENERGY PREDICTED BY IDOCK:   -5.82 KCAL/MOL
REMARK 924 INTRA-LIGAND FREE ENERGY PREDICTED BY IDOCK:    0.76 KCAL/MOL
REMARK 927      BINDING AFFINITY PREDICTED BY RF-SCORE:    0.00 PKD
ROOT
HETATM    1 CL   UNL     1     -10.731  18.900  65.811  1.00  0.00    -0.446 Cl 
HETATM    2  C   UNL     1     -10.135  17.312  66.092  1.00  0.00    -0.302 A  
HETATM    3  C   UNL     1     -10.571  16.257  65.295  1.00  0.00    -0.357 A  
HETATM    4  C   UNL     1     -10.089  14.962  65.529  1.00  0.00    -0.400 A  
HETATM    5  C   UNL     1      -9.177  14.712  66.570  1.00  0.00    -0.294 A  
HETATM    6  C   UNL     1      -8.733  15.795  67.347  1.00  0.00    -0.199 A  
HETATM    7  C   UNL     1      -9.213  17.087  67.112  1.00  0.00    -0.242 A  
ENDROOT
BRANCH   5   8
HETATM    8  C   UNL     1      -8.625  13.315  66.796  1.00  0.00    -0.026 C  
BRANCH   8   9
HETATM    9  S   UNL     1      -9.418  12.593  68.262  1.00  0.00    -0.172 SA 
BRANCH   9  10
HETATM   10  C   UNL     1      -8.847  10.799  68.311  1.00  0.00    -0.139 C  
BRANCH  10  11
HETATM   11  C   UNL     1      -9.421  10.062  69.557  1.00  0.00    -0.245 A  
HETATM   12  C   UNL     1     -10.433   8.607  71.787  1.00  0.00    -0.324 A  
HETATM   13  C   UNL     1     -10.794  10.076  69.892  1.00  0.00    -0.285 A  
HETATM   14  C   UNL     1      -8.586   9.309  70.418  1.00  0.00    -0.250 A  
HETATM   15  C   UNL     1     -11.296   9.334  70.975  1.00  0.00    -0.390 A  
HETATM   16 CL   UNL     1     -11.042   7.720  73.129  1.00  0.00    -0.429 Cl 
HETATM   17 CL   UNL     1     -11.958  11.020  69.028  1.00  0.00    -0.396 Cl 
HETATM   18  C   UNL     1      -9.077   8.607  71.524  1.00  0.00    -0.308 A  
ENDBRANCH  10  11
BRANCH  10  19
HETATM   19  C   UNL     1      -7.308  10.665  68.162  1.00  0.00    -0.088 C  
BRANCH  19  20
HETATM   20  N   UNL     1      -6.540  11.255  69.238  1.00  0.00    -0.088 NA 
HETATM   21  C   UNL     1      -5.577  10.638  69.983  1.00  0.00    -0.060 A  
HETATM   22  N   UNL     1      -5.862  12.756  70.713  1.00  0.00    -0.255 NA 
HETATM   23  C   UNL     1      -5.216  11.563  70.928  1.00  0.00    -0.131 A  
HETATM   24  C   UNL     1      -6.631  12.546  69.670  1.00  0.00     0.002 A  
ENDBRANCH  19  20
ENDBRANCH  10  19
ENDBRANCH   9  10
ENDBRANCH   8   9
ENDBRANCH   5   8
TORSDOF 6
ENDMDL
MODEL      298
REMARK 921   NORMALIZED FREE ENERGY PREDICTED BY IDOCK:   -3.06 KCAL/MOL
REMARK 922        TOTAL FREE ENERGY PREDICTED BY IDOCK:   -5.05 KCAL/MOL
REMARK 923 INTER-LIGAND FREE ENERGY PREDICTED BY IDOCK:   -4.52 KCAL/MOL
REMARK 924 INTRA-LIGAND FREE ENERGY PREDICTED BY IDOCK:   -0.54 KCAL/MOL
REMARK 927      BINDING AFFINITY PREDICTED BY RF-SCORE:    0.00 PKD
ROOT
HETATM    1 CL   UNL     1     -10.747  19.555  66.054  1.00  0.00    -0.557 Cl 
HETATM    2  C   UNL     1      -9.880  18.133  66.486  1.00  0.00    -0.362 A  
HETATM    3  C   UNL     1      -8.518  18.043  66.213  1.00  0.00    -0.214 A  
HETATM    4  C   UNL     1      -7.814  16.882  66.560  1.00  0.00    -0.330 A  
HETATM    5  C   UNL     1      -8.471  15.799  67.170  1.00  0.00    -0.235 A  
HETATM    6  C   UNL     1      -9.841  15.921  67.456  1.00  0.00    -0.230 A  
HETATM    7  C   UNL     1     -10.542  17.080  67.111  1.00  0.00    -0.245 A  
ENDROOT
BRANCH   5   8
HETATM    8  C   UNL     1      -7.698  14.558  67.582  1.00  0.00    -0.179 C  
BRANCH   8   9
HETATM    9  S   UNL     1      -8.601  13.084  67.024  1.00  0.00    -0.116 SA 
BRANCH   9  10
HETATM   10  C   UNL     1      -7.539  11.617  67.540  1.00  0.00    -0.128 C  
BRANCH  10  11
HETATM   11  C   UNL     1      -7.621  10.468  66.492  1.00  0.00    -0.128 A  
HETATM   12  C   UNL     1      -7.872   8.325  64.631  1.00  0.00    -0.132 A  
HETATM   13  C   UNL     1      -6.615   9.485  66.350  1.00  0.00    -0.071 A  
HETATM   14  C   UNL     1      -8.737  10.334  65.630  1.00  0.00    -0.176 A  
HETATM   15  C   UNL     1      -6.754   8.412  65.452  1.00  0.00    -0.056 A  
HETATM   16 CL   UNL     1      -8.032   7.028  63.514  1.00  0.00    -0.108 Cl 
HETATM   17 CL   UNL     1      -5.129   9.533  67.235  1.00  0.00    -0.035 Cl 
HETATM   18  C   UNL     1      -8.856   9.293  64.704  1.00  0.00    -0.218 A  
ENDBRANCH  10  11
BRANCH  10  19
HETATM   19  C   UNL     1      -7.833  11.157  68.993  1.00  0.00    -0.103 C  
BRANCH  19  20
HETATM   20  N   UNL     1      -9.026  10.352  69.145  1.00  0.00    -0.178 NA 
HETATM   21  C   UNL     1     -10.315  10.802  69.151  1.00  0.00    -0.217 A  
HETATM   22  N   UNL     1     -10.289   8.567  69.474  1.00  0.00    -0.215 NA 
HETATM   23  C   UNL     1     -11.074   9.692  69.418  1.00  0.00    -0.139 A  
HETATM   24  C   UNL     1      -9.062   8.995  69.276  1.00  0.00    -0.145 A  
ENDBRANCH  19  20
ENDBRANCH  10  19
ENDBRANCH   9  10
ENDBRANCH   8   9
ENDBRANCH   5   8
TORSDOF 6
ENDMDL
MODEL      299
REMARK 921   NORMALIZED FREE ENERGY PREDICTED BY IDOCK:   -3.05 KCAL/MOL
REMARK 922        TOTAL FREE ENERGY PREDICTED BY IDOCK:   -5.04 KCAL/MOL
REMARK 923 INTER-LIGAND FREE ENERGY PREDICTED BY IDOCK:   -5.14 KCAL/MOL
REMARK 924 INTRA-LIGAND FREE ENERGY PREDICTED BY IDOCK:    0.09 KCAL/MOL
REMARK 927      BINDING AFFINITY PREDICTED BY RF-SCORE:    0.00 PKD
ROOT
HETATM    1 CL   UNL     1      -7.253   4.843  65.784  1.00  0.00    -0.074 Cl 
HETATM    2  C   UNL     1      -8.137   5.779  66.925  1.00  0.00    -0.102 A  
HETATM    3  C   UNL     1      -7.539   6.152  68.126  1.00  0.00    -0.098 A  
HETATM    4  C   UNL     1      -8.262   6.909  69.058  1.00  0.00    -0.125 A  
HETATM    5  C   UNL     1      -9.591   7.286  68.800  1.00  0.00    -0.142 A  
HETATM    6  C   UNL     1     -10.167   6.918  67.572  1.00  0.00    -0.249 A  
HETATM    7  C   UNL     1      -9.445   6.164  66.642  1.00  0.00    -0.173 A  
ENDROOT
BRANCH   5   8
HETATM    8  C   UNL     1     -10.359   8.142  69.793  1.00  0.00    -0.216 C  
BRANCH   8   9
HETATM    9  S   UNL     1      -9.587   9.784  69.884  1.00  0.00    -0.230 SA 
BRANCH   9  10
HETATM   10  C   UNL     1     -10.238  10.729  68.391  1.00  0.00    -0.175 C  
BRANCH  10  11
HETATM   11  C   UNL     1      -9.375  11.994  68.108  1.00  0.00    -0.199 A  
HETATM   12  C   UNL     1      -7.782  14.322  67.711  1.00  0.00    -0.163 A  
HETATM   13  C   UNL     1      -9.889  13.147  67.472  1.00  0.00    -0.216 A  
HETATM   14  C   UNL     1      -8.016  12.063  68.500  1.00  0.00    -0.132 A  
HETATM   15  C   UNL     1      -9.111  14.306  67.304  1.00  0.00    -0.221 A  
HETATM   16 CL   UNL     1      -6.820  15.730  67.483  1.00  0.00    -0.199 Cl 
HETATM   17 CL   UNL     1     -11.492  13.223  66.826  1.00  0.00    -0.364 Cl 
HETATM   18  C   UNL     1      -7.226  13.198  68.292  1.00  0.00    -0.107 A  
ENDBRANCH  10  11
BRANCH  10  19
HETATM   19  C   UNL     1     -11.758  11.023  68.494  1.00  0.00    -0.278 C  
BRANCH  19  20
HETATM   20  N   UNL     1     -12.211  11.420  69.810  1.00  0.00    -0.288 NA 
HETATM   21  C   UNL     1     -12.764  10.609  70.759  1.00  0.00    -0.378 A  
HETATM   22  N   UNL     1     -12.698  12.734  71.521  1.00  0.00    -0.287 NA 
HETATM   23  C   UNL     1     -13.114  11.452  71.782  1.00  0.00    -0.418 A  
HETATM   24  C   UNL     1     -12.131  12.676  70.337  1.00  0.00    -0.300 A  
ENDBRANCH  19  20
ENDBRANCH  10  19
ENDBRANCH   9  10
ENDBRANCH   8   9
ENDBRANCH   5   8
TORSDOF 6
ENDMDL
MODEL      300
REMARK 921   NORMALIZED FREE ENERGY PREDICTED BY IDOCK:   -3.03 KCAL/MOL
REMARK 922        TOTAL FREE ENERGY PREDICTED BY IDOCK:   -5.02 KCAL/MOL
REMARK 923 INTER-LIGAND FREE ENERGY PREDICTED BY IDOCK:   -4.64 KCAL/MOL
REMARK 924 INTRA-LIGAND FREE ENERGY PREDICTED BY IDOCK:   -0.38 KCAL/MOL
REMARK 927      BINDING AFFINITY PREDICTED BY RF-SCORE:    0.00 PKD
ROOT
HETATM    1 CL   UNL     1      -6.012   8.136  68.211  1.00  0.00    -0.040 Cl 
HETATM    2  C   UNL     1      -6.125   9.838  68.434  1.00  0.00    -0.046 A  
HETATM    3  C   UNL     1      -6.156  10.681  67.326  1.00  0.00    -0.055 A  
HETATM    4  C   UNL     1      -6.242  12.067  67.510  1.00  0.00    -0.113 A  
HETATM    5  C   UNL     1      -6.284  12.620  68.802  1.00  0.00    -0.075 A  
HETATM    6  C   UNL     1      -6.274  11.749  69.904  1.00  0.00    -0.141 A  
HETATM    7  C   UNL     1      -6.190  10.365  69.721  1.00  0.00    -0.067 A  
ENDROOT
BRANCH   5   8
HETATM    8  C   UNL     1      -6.419  14.120  68.998  1.00  0.00    -0.099 C  
BRANCH   8   9
HETATM    9  S   UNL     1      -8.151  14.516  69.377  1.00  0.00     0.196 SA 
BRANCH   9  10
HETATM   10  C   UNL     1      -8.925  15.010  67.733  1.00  0.00    -0.179 C  
BRANCH  10  11
HETATM   11  C   UNL     1      -9.052  16.558  67.615  1.00  0.00    -0.199 A  
HETATM   12  C   UNL     1      -9.380  19.373  67.327  1.00  0.00    -0.314 A  
HETATM   13  C   UNL     1      -8.043  17.370  67.051  1.00  0.00    -0.216 A  
HETATM   14  C   UNL     1     -10.214  17.238  68.054  1.00  0.00    -0.332 A  
HETATM   15  C   UNL     1      -8.218  18.754  66.882  1.00  0.00    -0.272 A  
HETATM   16 CL   UNL     1      -9.587  21.071  67.144  1.00  0.00    -0.392 Cl 
HETATM   17 CL   UNL     1      -6.508  16.744  66.553  1.00  0.00    -0.188 Cl 
HETATM   18  C   UNL     1     -10.372  18.622  67.929  1.00  0.00    -0.442 A  
ENDBRANCH  10  11
BRANCH  10  19
HETATM   19  C   UNL     1     -10.252  14.254  67.455  1.00  0.00    -0.247 C  
BRANCH  19  20
HETATM   20  N   UNL     1     -10.961  13.816  68.638  1.00  0.00    -0.257 NA 
HETATM   21  C   UNL     1     -11.516  14.616  69.595  1.00  0.00    -0.289 A  
HETATM   22  N   UNL     1     -11.814  12.446  70.150  1.00  0.00    -0.305 NA 
HETATM   23  C   UNL     1     -11.982  13.749  70.549  1.00  0.00    -0.296 A  
HETATM   24  C   UNL     1     -11.221  12.521  68.979  1.00  0.00    -0.268 A  
ENDBRANCH  19  20
ENDBRANCH  10  19
ENDBRANCH   9  10
ENDBRANCH   8   9
ENDBRANCH   5   8
TORSDOF 6
ENDMDL
MODEL      301
REMARK 921   NORMALIZED FREE ENERGY PREDICTED BY IDOCK:   -3.02 KCAL/MOL
REMARK 922        TOTAL FREE ENERGY PREDICTED BY IDOCK:   -5.00 KCAL/MOL
REMARK 923 INTER-LIGAND FREE ENERGY PREDICTED BY IDOCK:   -4.83 KCAL/MOL
REMARK 924 INTRA-LIGAND FREE ENERGY PREDICTED BY IDOCK:   -0.17 KCAL/MOL
REMARK 927      BINDING AFFINITY PREDICTED BY RF-SCORE:    0.00 PKD
ROOT
HETATM    1 CL   UNL     1      -7.272   4.757  67.727  1.00  0.00    -0.065 Cl 
HETATM    2  C   UNL     1      -8.371   5.516  68.812  1.00  0.00    -0.102 A  
HETATM    3  C   UNL     1      -7.889   6.364  69.805  1.00  0.00    -0.114 A  
HETATM    4  C   UNL     1      -8.785   6.976  70.692  1.00  0.00    -0.149 A  
HETATM    5  C   UNL     1     -10.167   6.734  70.598  1.00  0.00    -0.216 A  
HETATM    6  C   UNL     1     -10.633   5.893  69.574  1.00  0.00    -0.378 A  
HETATM    7  C   UNL     1      -9.738   5.283  68.688  1.00  0.00    -0.199 A  
ENDROOT
BRANCH   5   8
HETATM    8  C   UNL     1     -11.140   7.431  71.534  1.00  0.00    -0.239 C  
BRANCH   8   9
HETATM    9  S   UNL     1     -10.858   9.224  71.455  1.00  0.00    -0.363 SA 
BRANCH   9  10
HETATM   10  C   UNL     1     -11.251   9.718  69.680  1.00  0.00    -0.178 C  
BRANCH  10  11
HETATM   11  C   UNL     1      -9.995  10.303  68.970  1.00  0.00    -0.223 A  
HETATM   12  C   UNL     1      -7.668  11.429  67.773  1.00  0.00    -0.115 A  
HETATM   13  C   UNL     1     -10.078  11.181  67.865  1.00  0.00    -0.176 A  
HETATM   14  C   UNL     1      -8.686   9.997  69.415  1.00  0.00    -0.195 A  
HETATM   15  C   UNL     1      -8.930  11.759  67.295  1.00  0.00    -0.172 A  
HETATM   16 CL   UNL     1      -6.261  12.115  67.061  1.00  0.00    -0.144 Cl 
HETATM   17 CL   UNL     1     -11.578  11.593  67.108  1.00  0.00    -0.341 Cl 
HETATM   18  C   UNL     1      -7.540  10.535  68.820  1.00  0.00    -0.101 A  
ENDBRANCH  10  11
BRANCH  10  19
HETATM   19  C   UNL     1     -12.502  10.631  69.585  1.00  0.00    -0.052 C  
BRANCH  19  20
HETATM   20  N   UNL     1     -12.570  11.675  70.585  1.00  0.00    -0.270 NA 
HETATM   21  C   UNL     1     -13.036  11.549  71.862  1.00  0.00    -0.387 A  
HETATM   22  N   UNL     1     -12.412  13.687  71.488  1.00  0.00    -0.290 NA 
HETATM   23  C   UNL     1     -12.988  12.817  72.381  1.00  0.00    -0.061 A  
HETATM   24  C   UNL     1     -12.144  12.962  70.426  1.00  0.00    -0.306 A  
ENDBRANCH  19  20
ENDBRANCH  10  19
ENDBRANCH   9  10
ENDBRANCH   8   9
ENDBRANCH   5   8
TORSDOF 6
ENDMDL
MODEL      302
REMARK 921   NORMALIZED FREE ENERGY PREDICTED BY IDOCK:   -3.00 KCAL/MOL
REMARK 922        TOTAL FREE ENERGY PREDICTED BY IDOCK:   -4.97 KCAL/MOL
REMARK 923 INTER-LIGAND FREE ENERGY PREDICTED BY IDOCK:   -4.63 KCAL/MOL
REMARK 924 INTRA-LIGAND FREE ENERGY PREDICTED BY IDOCK:   -0.35 KCAL/MOL
REMARK 927      BINDING AFFINITY PREDICTED BY RF-SCORE:    0.00 PKD
ROOT
HETATM    1 CL   UNL     1      -9.615  20.581  67.281  1.00  0.00    -0.584 Cl 
HETATM    2  C   UNL     1      -9.108  18.958  67.538  1.00  0.00    -0.280 A  
HETATM    3  C   UNL     1      -8.196  18.371  66.665  1.00  0.00    -0.283 A  
HETATM    4  C   UNL     1      -7.788  17.046  66.872  1.00  0.00    -0.249 A  
HETATM    5  C   UNL     1      -8.301  16.296  67.945  1.00  0.00    -0.170 A  
HETATM    6  C   UNL     1      -9.203  16.916  68.826  1.00  0.00    -0.260 A  
HETATM    7  C   UNL     1      -9.607  18.238  68.621  1.00  0.00    -0.351 A  
ENDROOT
BRANCH   5   8
HETATM    8  C   UNL     1      -7.827  14.874  68.191  1.00  0.00    -0.122 C  
BRANCH   8   9
HETATM    9  S   UNL     1      -8.775  13.741  67.134  1.00  0.00    -0.200 SA 
BRANCH   9  10
HETATM   10  C   UNL     1      -7.952  12.059  67.333  1.00  0.00    -0.165 C  
BRANCH  10  11
HETATM   11  C   UNL     1      -8.226  11.150  66.099  1.00  0.00    -0.128 A  
HETATM   12  C   UNL     1      -8.665   9.567  63.771  1.00  0.00    -0.217 A  
HETATM   13  C   UNL     1      -9.527  10.881  65.618  1.00  0.00    -0.215 A  
HETATM   14  C   UNL     1      -7.167  10.556  65.371  1.00  0.00    -0.077 A  
HETATM   15  C   UNL     1      -9.741  10.124  64.452  1.00  0.00    -0.345 A  
HETATM   16 CL   UNL     1      -8.926   8.620  62.360  1.00  0.00    -0.031 Cl 
HETATM   17 CL   UNL     1     -10.956  11.426  66.428  1.00  0.00    -0.333 Cl 
HETATM   18  C   UNL     1      -7.379   9.765  64.237  1.00  0.00    -0.129 A  
ENDBRANCH  10  11
BRANCH  10  19
HETATM   19  C   UNL     1      -8.301  11.388  68.689  1.00  0.00    -0.136 C  
BRANCH  19  20
HETATM   20  N   UNL     1      -7.635  10.127  68.931  1.00  0.00    -0.084 NA 
HETATM   21  C   UNL     1      -8.186   8.882  68.821  1.00  0.00    -0.115 A  
HETATM   22  N   UNL     1      -6.041   8.706  69.506  1.00  0.00    -0.033 NA 
HETATM   23  C   UNL     1      -7.203   8.024  69.241  1.00  0.00    -0.076 A  
HETATM   24  C   UNL     1      -6.326   9.969  69.282  1.00  0.00    -0.045 A  
ENDBRANCH  19  20
ENDBRANCH  10  19
ENDBRANCH   9  10
ENDBRANCH   8   9
ENDBRANCH   5   8
TORSDOF 6
ENDMDL
MODEL      303
REMARK 921   NORMALIZED FREE ENERGY PREDICTED BY IDOCK:   -2.99 KCAL/MOL
REMARK 922        TOTAL FREE ENERGY PREDICTED BY IDOCK:   -4.96 KCAL/MOL
REMARK 923 INTER-LIGAND FREE ENERGY PREDICTED BY IDOCK:   -4.63 KCAL/MOL
REMARK 924 INTRA-LIGAND FREE ENERGY PREDICTED BY IDOCK:   -0.34 KCAL/MOL
REMARK 927      BINDING AFFINITY PREDICTED BY RF-SCORE:    0.00 PKD
ROOT
HETATM    1 CL   UNL     1      -6.991   7.165  73.182  1.00  0.00    -0.072 Cl 
HETATM    2  C   UNL     1      -7.106   8.355  71.945  1.00  0.00    -0.092 A  
HETATM    3  C   UNL     1      -8.320   8.562  71.295  1.00  0.00    -0.193 A  
HETATM    4  C   UNL     1      -8.411   9.528  70.283  1.00  0.00    -0.221 A  
HETATM    5  C   UNL     1      -7.285  10.282  69.906  1.00  0.00    -0.162 A  
HETATM    6  C   UNL     1      -6.077  10.071  70.591  1.00  0.00    -0.101 A  
HETATM    7  C   UNL     1      -5.987   9.109  71.602  1.00  0.00    -0.072 A  
ENDROOT
BRANCH   5   8
HETATM    8  C   UNL     1      -7.396  11.356  68.837  1.00  0.00    -0.114 C  
BRANCH   8   9
HETATM    9  S   UNL     1      -7.984  10.599  67.294  1.00  0.00    -0.118 SA 
BRANCH   9  10
HETATM   10  C   UNL     1      -9.143  11.867  66.521  1.00  0.00    -0.211 C  
BRANCH  10  11
HETATM   11  C   UNL     1     -10.048  12.531  67.600  1.00  0.00    -0.217 A  
HETATM   12  C   UNL     1     -11.602  13.778  69.636  1.00  0.00    -0.281 A  
HETATM   13  C   UNL     1     -10.982  11.804  68.372  1.00  0.00    -0.231 A  
HETATM   14  C   UNL     1      -9.963  13.916  67.883  1.00  0.00    -0.242 A  
HETATM   15  C   UNL     1     -11.727  12.414  69.396  1.00  0.00    -0.384 A  
HETATM   16 CL   UNL     1     -12.531  14.532  70.872  1.00  0.00    -0.389 Cl 
HETATM   17 CL   UNL     1     -11.311  10.126  68.107  1.00  0.00    -0.251 Cl 
HETATM   18  C   UNL     1     -10.736  14.535  68.871  1.00  0.00    -0.259 A  
ENDBRANCH  10  11
BRANCH  10  19
HETATM   19  C   UNL     1      -9.933  11.287  65.317  1.00  0.00    -0.253 C  
BRANCH  19  20
HETATM   20  N   UNL     1      -9.170  10.408  64.458  1.00  0.00    -0.223 NA 
HETATM   21  C   UNL     1      -8.568  10.744  63.280  1.00  0.00    -0.107 A  
HETATM   22  N   UNL     1      -8.251   8.546  63.696  1.00  0.00    -0.155 NA 
HETATM   23  C   UNL     1      -8.060   9.566  62.796  1.00  0.00    -0.137 A  
HETATM   24  C   UNL     1      -8.898   9.093  64.701  1.00  0.00    -0.142 A  
ENDBRANCH  19  20
ENDBRANCH  10  19
ENDBRANCH   9  10
ENDBRANCH   8   9
ENDBRANCH   5   8
TORSDOF 6
ENDMDL
MODEL      304
REMARK 921   NORMALIZED FREE ENERGY PREDICTED BY IDOCK:   -2.96 KCAL/MOL
REMARK 922        TOTAL FREE ENERGY PREDICTED BY IDOCK:   -4.92 KCAL/MOL
REMARK 923 INTER-LIGAND FREE ENERGY PREDICTED BY IDOCK:   -4.14 KCAL/MOL
REMARK 924 INTRA-LIGAND FREE ENERGY PREDICTED BY IDOCK:   -0.78 KCAL/MOL
REMARK 927      BINDING AFFINITY PREDICTED BY RF-SCORE:    0.00 PKD
ROOT
HETATM    1 CL   UNL     1     -12.133  13.890  66.970  1.00  0.00    -0.464 Cl 
HETATM    2  C   UNL     1     -10.707  12.946  67.154  1.00  0.00    -0.253 A  
HETATM    3  C   UNL     1     -10.271  12.591  68.428  1.00  0.00    -0.230 A  
HETATM    4  C   UNL     1      -9.106  11.827  68.577  1.00  0.00    -0.144 A  
HETATM    5  C   UNL     1      -8.363  11.424  67.454  1.00  0.00    -0.144 A  
HETATM    6  C   UNL     1      -8.833  11.774  66.177  1.00  0.00    -0.107 A  
HETATM    7  C   UNL     1      -9.997  12.535  66.029  1.00  0.00    -0.269 A  
ENDROOT
BRANCH   5   8
HETATM    8  C   UNL     1      -7.122  10.562  67.615  1.00  0.00    -0.084 C  
BRANCH   8   9
HETATM    9  S   UNL     1      -6.904  10.160  69.374  1.00  0.00    -0.081 SA 
BRANCH   9  10
HETATM   10  C   UNL     1      -7.668   8.454  69.599  1.00  0.00    -0.095 C  
BRANCH  10  11
HETATM   11  C   UNL     1      -9.040   8.546  70.329  1.00  0.00    -0.158 A  
HETATM   12  C   UNL     1     -11.569   8.821  71.612  1.00  0.00    -0.320 A  
HETATM   13  C   UNL     1      -9.159   8.589  71.737  1.00  0.00    -0.235 A  
HETATM   14  C   UNL     1     -10.257   8.613  69.608  1.00  0.00    -0.208 A  
HETATM   15  C   UNL     1     -10.404   8.755  72.368  1.00  0.00    -0.224 A  
HETATM   16 CL   UNL     1     -13.096   8.998  72.383  1.00  0.00    -0.484 Cl 
HETATM   17 CL   UNL     1      -7.802   8.413  72.796  1.00  0.00    -0.172 Cl 
HETATM   18  C   UNL     1     -11.502   8.732  70.235  1.00  0.00    -0.102 A  
ENDBRANCH  10  11
BRANCH  10  19
HETATM   19  C   UNL     1      -6.683   7.447  70.249  1.00  0.00    -0.047 C  
BRANCH  19  20
HETATM   20  N   UNL     1      -7.110   6.065  70.204  1.00  0.00    -0.069 NA 
HETATM   21  C   UNL     1      -7.278   5.230  71.271  1.00  0.00    -0.077 A  
HETATM   22  N   UNL     1      -7.717   4.114  69.357  1.00  0.00    -0.054 NA 
HETATM   23  C   UNL     1      -7.592   4.015  70.721  1.00  0.00    -0.047 A  
HETATM   24  C   UNL     1      -7.448   5.370  69.080  1.00  0.00    -0.074 A  
ENDBRANCH  19  20
ENDBRANCH  10  19
ENDBRANCH   9  10
ENDBRANCH   8   9
ENDBRANCH   5   8
TORSDOF 6
ENDMDL
MODEL      305
REMARK 921   NORMALIZED FREE ENERGY PREDICTED BY IDOCK:   -2.94 KCAL/MOL
REMARK 922        TOTAL FREE ENERGY PREDICTED BY IDOCK:   -4.90 KCAL/MOL
REMARK 923 INTER-LIGAND FREE ENERGY PREDICTED BY IDOCK:   -5.58 KCAL/MOL
REMARK 924 INTRA-LIGAND FREE ENERGY PREDICTED BY IDOCK:    0.68 KCAL/MOL
REMARK 927      BINDING AFFINITY PREDICTED BY RF-SCORE:    0.00 PKD
ROOT
HETATM    1 CL   UNL     1      -7.526   8.604  66.177  1.00  0.00    -0.085 Cl 
HETATM    2  C   UNL     1      -8.638   9.669  66.943  1.00  0.00    -0.128 A  
HETATM    3  C   UNL     1      -8.421  11.044  66.904  1.00  0.00    -0.139 A  
HETATM    4  C   UNL     1      -9.325  11.909  67.534  1.00  0.00    -0.177 A  
HETATM    5  C   UNL     1     -10.444  11.404  68.219  1.00  0.00    -0.221 A  
HETATM    6  C   UNL     1     -10.656  10.015  68.227  1.00  0.00    -0.264 A  
HETATM    7  C   UNL     1      -9.754   9.152  67.596  1.00  0.00    -0.198 A  
ENDROOT
BRANCH   5   8
HETATM    8  C   UNL     1     -11.445  12.346  68.867  1.00  0.00    -0.307 C  
BRANCH   8   9
HETATM    9  S   UNL     1     -10.682  13.985  69.053  1.00  0.00    -0.169 SA 
BRANCH   9  10
HETATM   10  C   UNL     1     -10.230  14.531  67.308  1.00  0.00    -0.255 C  
BRANCH  10  11
HETATM   11  C   UNL     1      -9.026  15.518  67.323  1.00  0.00    -0.216 A  
HETATM   12  C   UNL     1      -6.808  17.303  67.232  1.00  0.00    -0.167 A  
HETATM   13  C   UNL     1      -7.862  15.297  68.093  1.00  0.00    -0.120 A  
HETATM   14  C   UNL     1      -9.027  16.695  66.536  1.00  0.00    -0.310 A  
HETATM   15  C   UNL     1      -6.756  16.163  68.025  1.00  0.00    -0.143 A  
HETATM   16 CL   UNL     1      -5.466  18.377  67.166  1.00  0.00    -0.137 Cl 
HETATM   17 CL   UNL     1      -7.709  13.974  69.198  1.00  0.00    -0.003 Cl 
HETATM   18  C   UNL     1      -7.947  17.583  66.501  1.00  0.00    -0.309 A  
ENDBRANCH  10  11
BRANCH  10  19
HETATM   19  C   UNL     1     -11.458  15.058  66.517  1.00  0.00    -0.239 C  
BRANCH  19  20
HETATM   20  N   UNL     1     -11.940  14.169  65.483  1.00  0.00    -0.375 NA 
HETATM   21  C   UNL     1     -12.032  14.447  64.149  1.00  0.00    -0.346 A  
HETATM   22  N   UNL     1     -12.810  12.364  64.546  1.00  0.00    -0.764 NA 
HETATM   23  C   UNL     1     -12.629  13.342  63.600  1.00  0.00    -0.088 A  
HETATM   24  C   UNL     1     -12.357  12.883  65.665  1.00  0.00    -0.423 A  
ENDBRANCH  19  20
ENDBRANCH  10  19
ENDBRANCH   9  10
ENDBRANCH   8   9
ENDBRANCH   5   8
TORSDOF 6
ENDMDL
MODEL      306
REMARK 921   NORMALIZED FREE ENERGY PREDICTED BY IDOCK:   -2.89 KCAL/MOL
REMARK 922        TOTAL FREE ENERGY PREDICTED BY IDOCK:   -4.83 KCAL/MOL
REMARK 923 INTER-LIGAND FREE ENERGY PREDICTED BY IDOCK:   -3.16 KCAL/MOL
REMARK 924 INTRA-LIGAND FREE ENERGY PREDICTED BY IDOCK:   -1.67 KCAL/MOL
REMARK 927      BINDING AFFINITY PREDICTED BY RF-SCORE:    0.00 PKD
ROOT
HETATM    1 CL   UNL     1     -10.947  10.459  70.510  1.00  0.00    -0.336 Cl 
HETATM    2  C   UNL     1     -10.180  10.194  68.993  1.00  0.00    -0.206 A  
HETATM    3  C   UNL     1     -10.951   9.936  67.863  1.00  0.00    -0.281 A  
HETATM    4  C   UNL     1     -10.324   9.714  66.629  1.00  0.00    -0.279 A  
HETATM    5  C   UNL     1      -8.922   9.737  66.521  1.00  0.00    -0.172 A  
HETATM    6  C   UNL     1      -8.165  10.022  67.670  1.00  0.00    -0.114 A  
HETATM    7  C   UNL     1      -8.792  10.245  68.900  1.00  0.00    -0.157 A  
ENDROOT
BRANCH   5   8
HETATM    8  C   UNL     1      -8.247   9.538  65.175  1.00  0.00    -0.133 C  
BRANCH   8   9
HETATM    9  S   UNL     1      -6.840   8.407  65.379  1.00  0.00    -0.067 SA 
BRANCH   9  10
HETATM   10  C   UNL     1      -7.590   6.760  65.903  1.00  0.00    -0.087 C  
BRANCH  10  11
HETATM   11  C   UNL     1      -7.439   6.538  67.437  1.00  0.00    -0.092 A  
HETATM   12  C   UNL     1      -7.100   6.031  70.220  1.00  0.00    -0.074 A  
HETATM   13  C   UNL     1      -8.542   6.310  68.291  1.00  0.00    -0.117 A  
HETATM   14  C   UNL     1      -6.168   6.530  68.060  1.00  0.00    -0.032 A  
HETATM   15  C   UNL     1      -8.371   6.031  69.658  1.00  0.00    -0.119 A  
HETATM   16 CL   UNL     1      -6.890   5.715  71.897  1.00  0.00    -0.065 Cl 
HETATM   17 CL   UNL     1     -10.181   6.385  67.742  1.00  0.00    -0.169 Cl 
HETATM   18  C   UNL     1      -5.998   6.298  69.429  1.00  0.00    -0.021 A  
ENDBRANCH  10  11
BRANCH  10  19
HETATM   19  C   UNL     1      -7.067   5.575  65.048  1.00  0.00    -0.061 C  
BRANCH  19  20
HETATM   20  N   UNL     1      -8.003   4.482  64.889  1.00  0.00    -0.096 NA 
HETATM   21  C   UNL     1      -9.261   4.559  64.363  1.00  0.00    -0.127 A  
HETATM   22  N   UNL     1      -8.840   2.440  65.024  1.00  0.00    -0.114 NA 
HETATM   23  C   UNL     1      -9.782   3.300  64.514  1.00  0.00    -0.162 A  
HETATM   24  C   UNL     1      -7.770   3.178  65.212  1.00  0.00    -0.081 A  
ENDBRANCH  19  20
ENDBRANCH  10  19
ENDBRANCH   9  10
ENDBRANCH   8   9
ENDBRANCH   5   8
TORSDOF 6
ENDMDL
MODEL      307
REMARK 921   NORMALIZED FREE ENERGY PREDICTED BY IDOCK:   -2.86 KCAL/MOL
REMARK 922        TOTAL FREE ENERGY PREDICTED BY IDOCK:   -4.79 KCAL/MOL
REMARK 923 INTER-LIGAND FREE ENERGY PREDICTED BY IDOCK:   -3.99 KCAL/MOL
REMARK 924 INTRA-LIGAND FREE ENERGY PREDICTED BY IDOCK:   -0.80 KCAL/MOL
REMARK 927      BINDING AFFINITY PREDICTED BY RF-SCORE:    0.00 PKD
ROOT
HETATM    1 CL   UNL     1     -10.351  19.394  68.844  1.00  0.00    -0.329 Cl 
HETATM    2  C   UNL     1      -9.459  18.037  68.277  1.00  0.00    -0.302 A  
HETATM    3  C   UNL     1      -9.425  17.751  66.915  1.00  0.00    -0.271 A  
HETATM    4  C   UNL     1      -8.703  16.641  66.455  1.00  0.00    -0.345 A  
HETATM    5  C   UNL     1      -8.021  15.804  67.356  1.00  0.00    -0.194 A  
HETATM    6  C   UNL     1      -8.050  16.125  68.723  1.00  0.00    -0.218 A  
HETATM    7  C   UNL     1      -8.769  17.233  69.181  1.00  0.00     0.035 A  
ENDROOT
BRANCH   5   8
HETATM    8  C   UNL     1      -7.205  14.626  66.851  1.00  0.00     0.640 C  
BRANCH   8   9
HETATM    9  S   UNL     1      -8.007  13.082  67.374  1.00  0.00    -0.151 SA 
BRANCH   9  10
HETATM   10  C   UNL     1      -9.769  13.182  66.717  1.00  0.00    -0.246 C  
BRANCH  10  11
HETATM   11  C   UNL     1     -10.760  13.624  67.834  1.00  0.00    -0.257 A  
HETATM   12  C   UNL     1     -12.493  14.517  69.911  1.00  0.00    -0.252 A  
HETATM   13  C   UNL     1     -11.152  12.773  68.893  1.00  0.00    -0.262 A  
HETATM   14  C   UNL     1     -11.311  14.928  67.859  1.00  0.00    -0.340 A  
HETATM   15  C   UNL     1     -11.983  13.224  69.933  1.00  0.00    -0.400 A  
HETATM   16 CL   UNL     1     -13.531  15.064  71.169  1.00  0.00    -0.484 Cl 
HETATM   17 CL   UNL     1     -10.674  11.113  68.985  1.00  0.00    -0.245 Cl 
HETATM   18  C   UNL     1     -12.175  15.365  68.868  1.00  0.00    -0.118 A  
ENDBRANCH  10  11
BRANCH  10  19
HETATM   19  C   UNL     1     -10.199  11.886  65.980  1.00  0.00    -0.229 C  
BRANCH  19  20
HETATM   20  N   UNL     1      -9.291  11.448  64.942  1.00  0.00    -0.169 NA 
HETATM   21  C   UNL     1      -8.288  10.531  65.073  1.00  0.00    -0.140 A  
HETATM   22  N   UNL     1      -8.307  11.341  62.965  1.00  0.00     0.124 NA 
HETATM   23  C   UNL     1      -7.654  10.527  63.858  1.00  0.00     0.073 A  
HETATM   24  C   UNL     1      -9.306  11.860  63.642  1.00  0.00     0.093 A  
ENDBRANCH  19  20
ENDBRANCH  10  19
ENDBRANCH   9  10
ENDBRANCH   8   9
ENDBRANCH   5   8
TORSDOF 6
ENDMDL
MODEL      308
REMARK 921   NORMALIZED FREE ENERGY PREDICTED BY IDOCK:   -2.86 KCAL/MOL
REMARK 922        TOTAL FREE ENERGY PREDICTED BY IDOCK:   -4.78 KCAL/MOL
REMARK 923 INTER-LIGAND FREE ENERGY PREDICTED BY IDOCK:   -4.32 KCAL/MOL
REMARK 924 INTRA-LIGAND FREE ENERGY PREDICTED BY IDOCK:   -0.46 KCAL/MOL
REMARK 927      BINDING AFFINITY PREDICTED BY RF-SCORE:    0.00 PKD
ROOT
HETATM    1 CL   UNL     1      -9.435  10.787  63.835  1.00  0.00    -0.281 Cl 
HETATM    2  C   UNL     1      -9.608  10.303  65.476  1.00  0.00    -0.242 A  
HETATM    3  C   UNL     1     -10.320  11.106  66.363  1.00  0.00    -0.300 A  
HETATM    4  C   UNL     1     -10.455  10.713  67.702  1.00  0.00    -0.267 A  
HETATM    5  C   UNL     1      -9.868   9.522  68.164  1.00  0.00    -0.177 A  
HETATM    6  C   UNL     1      -9.173   8.717  67.247  1.00  0.00    -0.167 A  
HETATM    7  C   UNL     1      -9.040   9.108  65.911  1.00  0.00    -0.256 A  
ENDROOT
BRANCH   5   8
HETATM    8  C   UNL     1     -10.050   9.078  69.606  1.00  0.00    -0.197 C  
BRANCH   8   9
HETATM    9  S   UNL     1      -8.883   7.733  69.964  1.00  0.00    -0.142 SA 
BRANCH   9  10
HETATM   10  C   UNL     1      -9.798   6.570  71.130  1.00  0.00    -0.182 C  
BRANCH  10  11
HETATM   11  C   UNL     1      -8.803   5.781  72.030  1.00  0.00    -0.138 A  
HETATM   12  C   UNL     1      -6.991   4.244  73.602  1.00  0.00    -0.061 A  
HETATM   13  C   UNL     1      -9.085   5.444  73.374  1.00  0.00    -0.129 A  
HETATM   14  C   UNL     1      -7.554   5.335  71.535  1.00  0.00    -0.102 A  
HETATM   15  C   UNL     1      -8.204   4.660  74.139  1.00  0.00    -0.100 A  
HETATM   16 CL   UNL     1      -5.900   3.306  74.544  1.00  0.00    -0.010 Cl 
HETATM   17 CL   UNL     1     -10.509   5.986  74.194  1.00  0.00    -0.282 Cl 
HETATM   18  C   UNL     1      -6.654   4.594  72.308  1.00  0.00    -0.038 A  
ENDBRANCH  10  11
BRANCH  10  19
HETATM   19  C   UNL     1     -10.814   5.665  70.383  1.00  0.00    -0.256 C  
BRANCH  19  20
HETATM   20  N   UNL     1     -10.460   5.358  69.013  1.00  0.00    -0.209 NA 
HETATM   21  C   UNL     1      -9.603   4.382  68.594  1.00  0.00    -0.149 A  
HETATM   22  N   UNL     1     -10.382   5.527  66.810  1.00  0.00    -0.241 NA 
HETATM   23  C   UNL     1      -9.521   4.545  67.236  1.00  0.00    -0.162 A  
HETATM   24  C   UNL     1     -10.955   5.977  67.903  1.00  0.00    -0.237 A  
ENDBRANCH  19  20
ENDBRANCH  10  19
ENDBRANCH   9  10
ENDBRANCH   8   9
ENDBRANCH   5   8
TORSDOF 6
ENDMDL
MODEL      309
REMARK 921   NORMALIZED FREE ENERGY PREDICTED BY IDOCK:   -2.79 KCAL/MOL
REMARK 922        TOTAL FREE ENERGY PREDICTED BY IDOCK:   -4.69 KCAL/MOL
REMARK 923 INTER-LIGAND FREE ENERGY PREDICTED BY IDOCK:   -4.77 KCAL/MOL
REMARK 924 INTRA-LIGAND FREE ENERGY PREDICTED BY IDOCK:    0.08 KCAL/MOL
REMARK 927      BINDING AFFINITY PREDICTED BY RF-SCORE:    0.00 PKD
ROOT
HETATM    1 CL   UNL     1     -12.093  14.068  66.861  1.00  0.00    -0.471 Cl 
HETATM    2  C   UNL     1     -11.410  12.509  66.615  1.00  0.00    -0.334 A  
HETATM    3  C   UNL     1     -11.422  11.576  67.649  1.00  0.00    -0.357 A  
HETATM    4  C   UNL     1     -10.859  10.309  67.448  1.00  0.00    -0.336 A  
HETATM    5  C   UNL     1     -10.270   9.971  66.217  1.00  0.00    -0.285 A  
HETATM    6  C   UNL     1     -10.289  10.919  65.181  1.00  0.00    -0.344 A  
HETATM    7  C   UNL     1     -10.852  12.183  65.381  1.00  0.00    -0.335 A  
ENDROOT
BRANCH   5   8
HETATM    8  C   UNL     1      -9.697   8.582  65.989  1.00  0.00    -0.125 C  
BRANCH   8   9
HETATM    9  S   UNL     1      -8.192   8.389  66.988  1.00  0.00    -0.107 SA 
BRANCH   9  10
HETATM   10  C   UNL     1      -8.211   6.603  67.586  1.00  0.00    -0.122 C  
BRANCH  10  11
HETATM   11  C   UNL     1      -8.932   5.676  66.564  1.00  0.00    -0.126 A  
HETATM   12  C   UNL     1     -10.208   4.051  64.603  1.00  0.00    -0.214 A  
HETATM   13  C   UNL     1     -10.336   5.516  66.530  1.00  0.00    -0.256 A  
HETATM   14  C   UNL     1      -8.208   4.952  65.586  1.00  0.00    -0.115 A  
HETATM   15  C   UNL     1     -10.966   4.738  65.543  1.00  0.00     0.004 A  
HETATM   16 CL   UNL     1     -10.975   3.077  63.411  1.00  0.00    -0.211 Cl 
HETATM   17 CL   UNL     1     -11.387   6.232  67.703  1.00  0.00    -0.211 Cl 
HETATM   18  C   UNL     1      -8.829   4.140  64.632  1.00  0.00    -0.136 A  
ENDBRANCH  10  11
BRANCH  10  19
HETATM   19  C   UNL     1      -8.752   6.471  69.035  1.00  0.00    -0.128 C  
BRANCH  19  20
HETATM   20  N   UNL     1      -8.725   5.128  69.573  1.00  0.00    -0.098 NA 
HETATM   21  C   UNL     1      -9.782   4.440  70.096  1.00  0.00    -0.218 A  
HETATM   22  N   UNL     1      -7.912   3.181  70.235  1.00  0.00    -0.043 NA 
HETATM   23  C   UNL     1      -9.245   3.266  70.556  1.00  0.00    -0.143 A  
HETATM   24  C   UNL     1      -7.636   4.307  69.617  1.00  0.00    -0.054 A  
ENDBRANCH  19  20
ENDBRANCH  10  19
ENDBRANCH   9  10
ENDBRANCH   8   9
ENDBRANCH   5   8
TORSDOF 6
ENDMDL
MODEL      310
REMARK 921   NORMALIZED FREE ENERGY PREDICTED BY IDOCK:   -2.79 KCAL/MOL
REMARK 922        TOTAL FREE ENERGY PREDICTED BY IDOCK:   -4.69 KCAL/MOL
REMARK 923 INTER-LIGAND FREE ENERGY PREDICTED BY IDOCK:   -5.33 KCAL/MOL
REMARK 924 INTRA-LIGAND FREE ENERGY PREDICTED BY IDOCK:    0.65 KCAL/MOL
REMARK 927      BINDING AFFINITY PREDICTED BY RF-SCORE:    0.00 PKD
ROOT
HETATM    1 CL   UNL     1     -14.353  15.120  71.977  1.00  0.00    -0.636 Cl 
HETATM    2  C   UNL     1     -13.023  14.855  70.918  1.00  0.00    -0.380 A  
HETATM    3  C   UNL     1     -12.282  15.938  70.453  1.00  0.00    -0.292 A  
HETATM    4  C   UNL     1     -11.203  15.720  69.586  1.00  0.00    -0.319 A  
HETATM    5  C   UNL     1     -10.867  14.420  69.168  1.00  0.00    -0.275 A  
HETATM    6  C   UNL     1     -11.615  13.341  69.668  1.00  0.00    -0.329 A  
HETATM    7  C   UNL     1     -12.690  13.558  70.535  1.00  0.00    -0.227 A  
ENDROOT
BRANCH   5   8
HETATM    8  C   UNL     1      -9.672  14.183  68.261  1.00  0.00    -0.227 C  
BRANCH   8   9
HETATM    9  S   UNL     1     -10.217  13.273  66.786  1.00  0.00    -0.258 SA 
BRANCH   9  10
HETATM   10  C   UNL     1     -10.582  11.524  67.381  1.00  0.00    -0.214 C  
BRANCH  10  11
HETATM   11  C   UNL     1      -9.374  10.934  68.165  1.00  0.00    -0.165 A  
HETATM   12  C   UNL     1      -7.203   9.912  69.701  1.00  0.00    -0.108 A  
HETATM   13  C   UNL     1      -8.031  11.248  67.855  1.00  0.00    -0.118 A  
HETATM   14  C   UNL     1      -9.562  10.057  69.260  1.00  0.00    -0.227 A  
HETATM   15  C   UNL     1      -6.962  10.767  68.632  1.00  0.00    -0.070 A  
HETATM   16 CL   UNL     1      -5.896   9.300  70.637  1.00  0.00    -0.040 Cl 
HETATM   17 CL   UNL     1      -7.587  12.216  66.492  1.00  0.00     0.156 Cl 
HETATM   18  C   UNL     1      -8.498   9.540  70.007  1.00  0.00    -0.210 A  
ENDBRANCH  10  11
BRANCH  10  19
HETATM   19  C   UNL     1     -11.090  10.605  66.237  1.00  0.00     0.154 C  
BRANCH  19  20
HETATM   20  N   UNL     1     -10.558  10.916  64.928  1.00  0.00    -0.277 NA 
HETATM   21  C   UNL     1      -9.464  10.351  64.339  1.00  0.00    -0.287 A  
HETATM   22  N   UNL     1     -10.331  11.928  62.974  1.00  0.00    -0.266 NA 
HETATM   23  C   UNL     1      -9.306  11.034  63.161  1.00  0.00    -0.329 A  
HETATM   24  C   UNL     1     -11.085  11.812  64.044  1.00  0.00    -0.390 A  
ENDBRANCH  19  20
ENDBRANCH  10  19
ENDBRANCH   9  10
ENDBRANCH   8   9
ENDBRANCH   5   8
TORSDOF 6
ENDMDL
MODEL      311
REMARK 921   NORMALIZED FREE ENERGY PREDICTED BY IDOCK:   -2.79 KCAL/MOL
REMARK 922        TOTAL FREE ENERGY PREDICTED BY IDOCK:   -4.68 KCAL/MOL
REMARK 923 INTER-LIGAND FREE ENERGY PREDICTED BY IDOCK:   -3.77 KCAL/MOL
REMARK 924 INTRA-LIGAND FREE ENERGY PREDICTED BY IDOCK:   -0.92 KCAL/MOL
REMARK 927      BINDING AFFINITY PREDICTED BY RF-SCORE:    0.00 PKD
ROOT
HETATM    1 CL   UNL     1      -9.922  11.308  63.158  1.00  0.00    -0.387 Cl 
HETATM    2  C   UNL     1      -9.164  10.486  64.465  1.00  0.00    -0.240 A  
HETATM    3  C   UNL     1      -7.920   9.888  64.280  1.00  0.00    -0.146 A  
HETATM    4  C   UNL     1      -7.308   9.213  65.344  1.00  0.00    -0.089 A  
HETATM    5  C   UNL     1      -7.941   9.121  66.596  1.00  0.00    -0.104 A  
HETATM    6  C   UNL     1      -9.185   9.750  66.767  1.00  0.00    -0.179 A  
HETATM    7  C   UNL     1      -9.795  10.425  65.705  1.00  0.00    -0.300 A  
ENDROOT
BRANCH   5   8
HETATM    8  C   UNL     1      -7.256   8.424  67.760  1.00  0.00    -0.088 C  
BRANCH   8   9
HETATM    9  S   UNL     1      -8.016   8.979  69.314  1.00  0.00    -0.099 SA 
BRANCH   9  10
HETATM   10  C   UNL     1      -8.735   7.428  70.105  1.00  0.00    -0.143 C  
BRANCH  10  11
HETATM   11  C   UNL     1      -8.878   6.281  69.062  1.00  0.00    -0.124 A  
HETATM   12  C   UNL     1      -9.251   4.160  67.198  1.00  0.00    -0.157 A  
HETATM   13  C   UNL     1      -8.036   5.147  69.049  1.00  0.00    -0.085 A  
HETATM   14  C   UNL     1      -9.890   6.306  68.072  1.00  0.00    -0.128 A  
HETATM   15  C   UNL     1      -8.239   4.087  68.147  1.00  0.00    -0.095 A  
HETATM   16 CL   UNL     1      -9.487   2.876  66.077  1.00  0.00    -0.042 Cl 
HETATM   17 CL   UNL     1      -6.677   4.978  70.107  1.00  0.00    -0.036 Cl 
HETATM   18  C   UNL     1     -10.066   5.275  67.144  1.00  0.00    -0.239 A  
ENDBRANCH  10  11
BRANCH  10  19
HETATM   19  C   UNL     1     -10.039   7.719  70.895  1.00  0.00    -0.187 C  
BRANCH  19  20
HETATM   20  N   UNL     1      -9.972   7.421  72.309  1.00  0.00    -0.165 NA 
HETATM   21  C   UNL     1      -9.324   8.151  73.264  1.00  0.00    -0.238 A  
HETATM   22  N   UNL     1     -10.262   6.326  74.208  1.00  0.00    -0.330 NA 
HETATM   23  C   UNL     1      -9.463   7.424  74.417  1.00  0.00     0.068 A  
HETATM   24  C   UNL     1     -10.576   6.369  72.933  1.00  0.00    -0.235 A  
ENDBRANCH  19  20
ENDBRANCH  10  19
ENDBRANCH   9  10
ENDBRANCH   8   9
ENDBRANCH   5   8
TORSDOF 6
ENDMDL
MODEL      312
REMARK 921   NORMALIZED FREE ENERGY PREDICTED BY IDOCK:   -2.76 KCAL/MOL
REMARK 922        TOTAL FREE ENERGY PREDICTED BY IDOCK:   -4.65 KCAL/MOL
REMARK 923 INTER-LIGAND FREE ENERGY PREDICTED BY IDOCK:   -3.85 KCAL/MOL
REMARK 924 INTRA-LIGAND FREE ENERGY PREDICTED BY IDOCK:   -0.80 KCAL/MOL
REMARK 927      BINDING AFFINITY PREDICTED BY RF-SCORE:    0.00 PKD
ROOT
HETATM    1 CL   UNL     1     -10.648  20.348  67.783  1.00  0.00    -0.233 Cl 
HETATM    2  C   UNL     1     -10.198  18.759  68.263  1.00  0.00    -0.375 A  
HETATM    3  C   UNL     1      -8.854  18.398  68.289  1.00  0.00    -0.323 A  
HETATM    4  C   UNL     1      -8.490  17.101  68.674  1.00  0.00    -0.258 A  
HETATM    5  C   UNL     1      -9.468  16.153  69.023  1.00  0.00    -0.246 A  
HETATM    6  C   UNL     1     -10.817  16.546  69.011  1.00  0.00    -0.329 A  
HETATM    7  C   UNL     1     -11.180  17.841  68.629  1.00  0.00     0.704 A  
ENDROOT
BRANCH   5   8
HETATM    8  C   UNL     1      -9.069  14.760  69.480  1.00  0.00     0.127 C  
BRANCH   8   9
HETATM    9  S   UNL     1     -10.514  13.665  69.377  1.00  0.00     0.340 SA 
BRANCH   9  10
HETATM   10  C   UNL     1      -9.963  12.201  68.327  1.00  0.00    -0.212 C  
BRANCH  10  11
HETATM   11  C   UNL     1     -10.673  12.206  66.941  1.00  0.00    -0.271 A  
HETATM   12  C   UNL     1     -12.068  12.165  64.458  1.00  0.00    -0.334 A  
HETATM   13  C   UNL     1     -10.194  11.474  65.831  1.00  0.00    -0.244 A  
HETATM   14  C   UNL     1     -11.865  12.939  66.725  1.00  0.00    -0.452 A  
HETATM   15  C   UNL     1     -10.899  11.431  64.616  1.00  0.00    -0.359 A  
HETATM   16 CL   UNL     1     -12.919  12.135  62.964  1.00  0.00    -0.104 Cl 
HETATM   17 CL   UNL     1      -8.700  10.601  65.860  1.00  0.00    -0.176 Cl 
HETATM   18  C   UNL     1     -12.544  12.934  65.503  1.00  0.00    -0.359 A  
ENDBRANCH  10  11
BRANCH  10  19
HETATM   19  C   UNL     1     -10.085  10.852  69.084  1.00  0.00    -0.177 C  
BRANCH  19  20
HETATM   20  N   UNL     1      -8.864  10.078  69.147  1.00  0.00    -0.157 NA 
HETATM   21  C   UNL     1      -7.608  10.559  69.380  1.00  0.00    -0.145 A  
HETATM   22  N   UNL     1      -7.516   8.328  69.039  1.00  0.00    -0.089 NA 
HETATM   23  C   UNL     1      -6.784   9.471  69.247  1.00  0.00    -0.049 A  
HETATM   24  C   UNL     1      -8.769   8.724  69.013  1.00  0.00    -0.133 A  
ENDBRANCH  19  20
ENDBRANCH  10  19
ENDBRANCH   9  10
ENDBRANCH   8   9
ENDBRANCH   5   8
TORSDOF 6
ENDMDL
MODEL      313
REMARK 921   NORMALIZED FREE ENERGY PREDICTED BY IDOCK:   -2.56 KCAL/MOL
REMARK 922        TOTAL FREE ENERGY PREDICTED BY IDOCK:   -4.38 KCAL/MOL
REMARK 923 INTER-LIGAND FREE ENERGY PREDICTED BY IDOCK:   -4.18 KCAL/MOL
REMARK 924 INTRA-LIGAND FREE ENERGY PREDICTED BY IDOCK:   -0.20 KCAL/MOL
REMARK 927      BINDING AFFINITY PREDICTED BY RF-SCORE:    0.00 PKD
ROOT
HETATM    1 CL   UNL     1     -10.330  11.627  64.359  1.00  0.00    -0.335 Cl 
HETATM    2  C   UNL     1      -9.210  10.562  65.114  1.00  0.00    -0.205 A  
HETATM    3  C   UNL     1      -8.632  10.913  66.331  1.00  0.00    -0.160 A  
HETATM    4  C   UNL     1      -7.715  10.047  66.941  1.00  0.00    -0.096 A  
HETATM    5  C   UNL     1      -7.361   8.830  66.332  1.00  0.00    -0.084 A  
HETATM    6  C   UNL     1      -7.973   8.486  65.115  1.00  0.00    -0.130 A  
HETATM    7  C   UNL     1      -8.889   9.350  64.507  1.00  0.00    -0.235 A  
ENDROOT
BRANCH   5   8
HETATM    8  C   UNL     1      -6.398   7.874  67.015  1.00  0.00    -0.055 C  
BRANCH   8   9
HETATM    9  S   UNL     1      -6.936   7.615  68.731  1.00  0.00    -0.072 SA 
BRANCH   9  10
HETATM   10  C   UNL     1      -8.526   6.613  68.614  1.00  0.00    -0.122 C  
BRANCH  10  11
HETATM   11  C   UNL     1      -9.667   7.272  69.443  1.00  0.00    -0.161 A  
HETATM   12  C   UNL     1     -11.671   8.547  71.016  1.00  0.00    -0.275 A  
HETATM   13  C   UNL     1     -10.487   6.544  70.334  1.00  0.00    -0.212 A  
HETATM   14  C   UNL     1      -9.930   8.661  69.361  1.00  0.00    -0.197 A  
HETATM   15  C   UNL     1     -11.456   7.178  71.131  1.00  0.00    -0.322 A  
HETATM   16 CL   UNL     1     -12.873   9.322  71.971  1.00  0.00    -0.463 Cl 
HETATM   17 CL   UNL     1     -10.394   4.824  70.498  1.00  0.00    -0.252 Cl 
HETATM   18  C   UNL     1     -10.924   9.288  70.120  1.00  0.00    -0.278 A  
ENDBRANCH  10  11
BRANCH  10  19
HETATM   19  C   UNL     1      -8.304   5.112  68.943  1.00  0.00    -0.087 C  
BRANCH  19  20
HETATM   20  N   UNL     1      -8.141   4.255  67.789  1.00  0.00    -0.094 NA 
HETATM   21  C   UNL     1      -7.218   3.261  67.638  1.00  0.00    -0.054 A  
HETATM   22  N   UNL     1      -8.464   3.432  65.762  1.00  0.00    -0.106 NA 
HETATM   23  C   UNL     1      -7.394   2.808  66.356  1.00  0.00    -0.067 A  
HETATM   24  C   UNL     1      -8.910   4.278  66.663  1.00  0.00    -0.116 A  
ENDBRANCH  19  20
ENDBRANCH  10  19
ENDBRANCH   9  10
ENDBRANCH   8   9
ENDBRANCH   5   8
TORSDOF 6
ENDMDL
MODEL      314
REMARK 921   NORMALIZED FREE ENERGY PREDICTED BY IDOCK:   -2.51 KCAL/MOL
REMARK 922        TOTAL FREE ENERGY PREDICTED BY IDOCK:   -4.31 KCAL/MOL
REMARK 923 INTER-LIGAND FREE ENERGY PREDICTED BY IDOCK:   -3.72 KCAL/MOL
REMARK 924 INTRA-LIGAND FREE ENERGY PREDICTED BY IDOCK:   -0.59 KCAL/MOL
REMARK 927      BINDING AFFINITY PREDICTED BY RF-SCORE:    0.00 PKD
ROOT
HETATM    1 CL   UNL     1      -5.133  11.366  72.642  1.00  0.00     0.270 Cl 
HETATM    2  C   UNL     1      -5.475  10.790  71.058  1.00  0.00    -0.081 A  
HETATM    3  C   UNL     1      -5.728  11.695  70.031  1.00  0.00    -0.128 A  
HETATM    4  C   UNL     1      -6.013  11.224  68.742  1.00  0.00    -0.043 A  
HETATM    5  C   UNL     1      -6.058   9.844  68.476  1.00  0.00    -0.045 A  
HETATM    6  C   UNL     1      -5.778   8.949  69.521  1.00  0.00    -0.034 A  
HETATM    7  C   UNL     1      -5.492   9.420  70.807  1.00  0.00    -0.039 A  
ENDROOT
BRANCH   5   8
HETATM    8  C   UNL     1      -6.327   9.336  67.069  1.00  0.00    -0.066 C  
BRANCH   8   9
HETATM    9  S   UNL     1      -7.037  10.683  66.078  1.00  0.00    -0.103 SA 
BRANCH   9  10
HETATM   10  C   UNL     1      -8.904  10.451  66.179  1.00  0.00    -0.158 C  
BRANCH  10  11
HETATM   11  C   UNL     1      -9.272   8.955  66.400  1.00  0.00    -0.240 A  
HETATM   12  C   UNL     1      -9.988   6.213  66.691  1.00  0.00    -0.158 A  
HETATM   13  C   UNL     1     -10.225   8.532  67.355  1.00  0.00    -0.261 A  
HETATM   14  C   UNL     1      -8.678   7.927  65.629  1.00  0.00    -0.145 A  
HETATM   15  C   UNL     1     -10.599   7.183  67.477  1.00  0.00    -0.348 A  
HETATM   16 CL   UNL     1     -10.425   4.557  66.856  1.00  0.00    -0.068 Cl 
HETATM   17 CL   UNL     1     -10.984   9.621  68.465  1.00  0.00    -0.198 Cl 
HETATM   18  C   UNL     1      -9.015   6.578  65.779  1.00  0.00    -0.060 A  
ENDBRANCH  10  11
BRANCH  10  19
HETATM   19  C   UNL     1      -9.645  11.105  64.982  1.00  0.00    -0.239 C  
BRANCH  19  20
HETATM   20  N   UNL     1     -10.500  12.219  65.334  1.00  0.00    -0.262 NA 
HETATM   21  C   UNL     1     -10.689  12.737  66.583  1.00  0.00    -0.261 A  
HETATM   22  N   UNL     1     -11.972  13.852  65.096  1.00  0.00    -0.365 NA 
HETATM   23  C   UNL     1     -11.648  13.702  66.422  1.00  0.00    -0.350 A  
HETATM   24  C   UNL     1     -11.241  12.963  64.463  1.00  0.00    -0.336 A  
ENDBRANCH  19  20
ENDBRANCH  10  19
ENDBRANCH   9  10
ENDBRANCH   8   9
ENDBRANCH   5   8
TORSDOF 6
ENDMDL
MODEL      315
REMARK 921   NORMALIZED FREE ENERGY PREDICTED BY IDOCK:   -2.48 KCAL/MOL
REMARK 922        TOTAL FREE ENERGY PREDICTED BY IDOCK:   -4.28 KCAL/MOL
REMARK 923 INTER-LIGAND FREE ENERGY PREDICTED BY IDOCK:   -3.50 KCAL/MOL
REMARK 924 INTRA-LIGAND FREE ENERGY PREDICTED BY IDOCK:   -0.78 KCAL/MOL
REMARK 927      BINDING AFFINITY PREDICTED BY RF-SCORE:    0.00 PKD
ROOT
HETATM    1 CL   UNL     1     -11.674   8.180  72.474  1.00  0.00    -0.460 Cl 
HETATM    2  C   UNL     1     -10.542   7.057  71.829  1.00  0.00    -0.210 A  
HETATM    3  C   UNL     1      -9.196   7.156  72.171  1.00  0.00    -0.144 A  
HETATM    4  C   UNL     1      -8.275   6.244  71.640  1.00  0.00    -0.118 A  
HETATM    5  C   UNL     1      -8.691   5.235  70.754  1.00  0.00    -0.140 A  
HETATM    6  C   UNL     1     -10.058   5.139  70.441  1.00  0.00    -0.333 A  
HETATM    7  C   UNL     1     -10.977   6.049  70.973  1.00  0.00    -0.350 A  
ENDROOT
BRANCH   5   8
HETATM    8  C   UNL     1      -7.697   4.222  70.212  1.00  0.00    -0.045 C  
BRANCH   8   9
HETATM    9  S   UNL     1      -7.997   3.988  68.436  1.00  0.00    -0.072 SA 
BRANCH   9  10
HETATM   10  C   UNL     1      -7.091   5.401  67.582  1.00  0.00    -0.067 C  
BRANCH  10  11
HETATM   11  C   UNL     1      -7.908   6.724  67.668  1.00  0.00    -0.112 A  
HETATM   12  C   UNL     1      -9.382   9.146  67.946  1.00  0.00    -0.137 A  
HETATM   13  C   UNL     1      -9.273   6.808  67.312  1.00  0.00    -0.133 A  
HETATM   14  C   UNL     1      -7.320   7.925  68.136  1.00  0.00    -0.099 A  
HETATM   15  C   UNL     1     -10.007   7.996  67.478  1.00  0.00    -0.253 A  
HETATM   16 CL   UNL     1     -10.272  10.607  68.126  1.00  0.00    -0.183 Cl 
HETATM   17 CL   UNL     1     -10.142   5.482  66.621  1.00  0.00    -0.213 Cl 
HETATM   18  C   UNL     1      -8.036   9.119  68.259  1.00  0.00    -0.104 A  
ENDBRANCH  10  11
BRANCH  10  19
HETATM   19  C   UNL     1      -6.651   5.034  66.140  1.00  0.00    -0.048 C  
BRANCH  19  20
HETATM   20  N   UNL     1      -6.558   6.156  65.230  1.00  0.00    -0.042 NA 
HETATM   21  C   UNL     1      -7.581   6.712  64.518  1.00  0.00    -0.103 A  
HETATM   22  N   UNL     1      -5.648   7.776  64.030  1.00  0.00    -0.044 NA 
HETATM   23  C   UNL     1      -6.986   7.669  63.737  1.00  0.00    -0.060 A  
HETATM   24  C   UNL     1      -5.428   6.869  64.955  1.00  0.00    -0.028 A  
ENDBRANCH  19  20
ENDBRANCH  10  19
ENDBRANCH   9  10
ENDBRANCH   8   9
ENDBRANCH   5   8
TORSDOF 6
ENDMDL
MODEL      316
REMARK 921   NORMALIZED FREE ENERGY PREDICTED BY IDOCK:   -2.46 KCAL/MOL
REMARK 922        TOTAL FREE ENERGY PREDICTED BY IDOCK:   -4.24 KCAL/MOL
REMARK 923 INTER-LIGAND FREE ENERGY PREDICTED BY IDOCK:   -3.84 KCAL/MOL
REMARK 924 INTRA-LIGAND FREE ENERGY PREDICTED BY IDOCK:   -0.40 KCAL/MOL
REMARK 927      BINDING AFFINITY PREDICTED BY RF-SCORE:    0.00 PKD
ROOT
HETATM    1 CL   UNL     1     -10.673  18.134  65.732  1.00  0.00    -0.255 Cl 
HETATM    2  C   UNL     1      -9.865  16.937  66.666  1.00  0.00    -0.287 A  
HETATM    3  C   UNL     1      -9.023  16.022  66.040  1.00  0.00    -0.345 A  
HETATM    4  C   UNL     1      -8.370  15.043  66.802  1.00  0.00    -0.189 A  
HETATM    5  C   UNL     1      -8.566  14.966  68.192  1.00  0.00    -0.159 A  
HETATM    6  C   UNL     1      -9.402  15.913  68.805  1.00  0.00    -0.220 A  
HETATM    7  C   UNL     1     -10.052  16.891  68.045  1.00  0.00    -0.293 A  
ENDROOT
BRANCH   5   8
HETATM    8  C   UNL     1      -7.825  13.930  69.021  1.00  0.00     0.062 C  
BRANCH   8   9
HETATM    9  S   UNL     1      -7.318  12.559  67.943  1.00  0.00    -0.131 SA 
BRANCH   9  10
HETATM   10  C   UNL     1      -8.446  11.120  68.395  1.00  0.00    -0.151 C  
BRANCH  10  11
HETATM   11  C   UNL     1      -7.841   9.764  67.926  1.00  0.00    -0.090 A  
HETATM   12  C   UNL     1      -6.757   7.316  66.952  1.00  0.00    -0.064 A  
HETATM   13  C   UNL     1      -8.400   8.513  68.273  1.00  0.00    -0.124 A  
HETATM   14  C   UNL     1      -6.695   9.715  67.096  1.00  0.00    -0.075 A  
HETATM   15  C   UNL     1      -7.882   7.308  67.768  1.00  0.00    -0.114 A  
HETATM   16 CL   UNL     1      -6.105   5.841  66.354  1.00  0.00    -0.028 Cl 
HETATM   17 CL   UNL     1      -9.736   8.355  69.361  1.00  0.00    -0.175 Cl 
HETATM   18  C   UNL     1      -6.150   8.515  66.629  1.00  0.00    -0.057 A  
ENDBRANCH  10  11
BRANCH  10  19
HETATM   19  C   UNL     1      -9.908  11.345  67.925  1.00  0.00    -0.179 C  
BRANCH  19  20
HETATM   20  N   UNL     1     -10.112  11.228  66.497  1.00  0.00    -0.211 NA 
HETATM   21  C   UNL     1     -10.179  12.253  65.598  1.00  0.00    -0.261 A  
HETATM   22  N   UNL     1     -10.492  10.286  64.533  1.00  0.00     0.024 NA 
HETATM   23  C   UNL     1     -10.476  11.654  64.402  1.00  0.00    -0.322 A  
HETATM   24  C   UNL     1     -10.239  10.061  65.802  1.00  0.00    -0.200 A  
ENDBRANCH  19  20
ENDBRANCH  10  19
ENDBRANCH   9  10
ENDBRANCH   8   9
ENDBRANCH   5   8
TORSDOF 6
ENDMDL
MODEL      317
REMARK 921   NORMALIZED FREE ENERGY PREDICTED BY IDOCK:   -2.46 KCAL/MOL
REMARK 922        TOTAL FREE ENERGY PREDICTED BY IDOCK:   -4.24 KCAL/MOL
REMARK 923 INTER-LIGAND FREE ENERGY PREDICTED BY IDOCK:   -3.86 KCAL/MOL
REMARK 924 INTRA-LIGAND FREE ENERGY PREDICTED BY IDOCK:   -0.38 KCAL/MOL
REMARK 927      BINDING AFFINITY PREDICTED BY RF-SCORE:    0.00 PKD
ROOT
HETATM    1 CL   UNL     1     -11.744   8.185  72.617  1.00  0.00    -0.459 Cl 
HETATM    2  C   UNL     1     -10.834   7.074  71.671  1.00  0.00    -0.223 A  
HETATM    3  C   UNL     1      -9.505   6.814  71.995  1.00  0.00    -0.144 A  
HETATM    4  C   UNL     1      -8.764   5.913  71.219  1.00  0.00    -0.132 A  
HETATM    5  C   UNL     1      -9.343   5.276  70.107  1.00  0.00    -0.202 A  
HETATM    6  C   UNL     1     -10.691   5.537  69.811  1.00  0.00    -0.355 A  
HETATM    7  C   UNL     1     -11.431   6.435  70.587  1.00  0.00    -0.426 A  
ENDROOT
BRANCH   5   8
HETATM    8  C   UNL     1      -8.549   4.269  69.292  1.00  0.00    -0.081 C  
BRANCH   8   9
HETATM    9  S   UNL     1      -9.021   4.417  67.543  1.00  0.00    -0.121 SA 
BRANCH   9  10
HETATM   10  C   UNL     1      -7.521   5.160  66.679  1.00  0.00    -0.087 C  
BRANCH  10  11
HETATM   11  C   UNL     1      -7.806   6.619  66.217  1.00  0.00    -0.105 A  
HETATM   12  C   UNL     1      -8.422   9.249  65.309  1.00  0.00    -0.154 A  
HETATM   13  C   UNL     1      -6.901   7.365  65.428  1.00  0.00    -0.048 A  
HETATM   14  C   UNL     1      -9.015   7.277  66.550  1.00  0.00    -0.175 A  
HETATM   15  C   UNL     1      -7.218   8.651  64.956  1.00  0.00    -0.084 A  
HETATM   16 CL   UNL     1      -8.803  10.832  64.755  1.00  0.00    -0.187 Cl 
HETATM   17 CL   UNL     1      -5.328   6.781  65.004  1.00  0.00    -0.026 Cl 
HETATM   18  C   UNL     1      -9.314   8.573  66.121  1.00  0.00    -0.279 A  
ENDBRANCH  10  11
BRANCH  10  19
HETATM   19  C   UNL     1      -6.977   4.244  65.550  1.00  0.00    -0.059 C  
BRANCH  19  20
HETATM   20  N   UNL     1      -7.950   3.334  64.985  1.00  0.00    -0.082 NA 
HETATM   21  C   UNL     1      -8.813   3.599  63.961  1.00  0.00    -0.103 A  
HETATM   22  N   UNL     1      -9.154   1.499  64.717  1.00  0.00    -0.120 NA 
HETATM   23  C   UNL     1      -9.589   2.475  63.854  1.00  0.00    -0.133 A  
HETATM   24  C   UNL     1      -8.146   2.039  65.365  1.00  0.00    -0.080 A  
ENDBRANCH  19  20
ENDBRANCH  10  19
ENDBRANCH   9  10
ENDBRANCH   8   9
ENDBRANCH   5   8
TORSDOF 6
ENDMDL
MODEL      318
REMARK 921   NORMALIZED FREE ENERGY PREDICTED BY IDOCK:   -2.42 KCAL/MOL
REMARK 922        TOTAL FREE ENERGY PREDICTED BY IDOCK:   -4.19 KCAL/MOL
REMARK 923 INTER-LIGAND FREE ENERGY PREDICTED BY IDOCK:   -3.87 KCAL/MOL
REMARK 924 INTRA-LIGAND FREE ENERGY PREDICTED BY IDOCK:   -0.32 KCAL/MOL
REMARK 927      BINDING AFFINITY PREDICTED BY RF-SCORE:    0.00 PKD
ROOT
HETATM    1 CL   UNL     1     -10.803   7.690  73.252  1.00  0.00    -0.440 Cl 
HETATM    2  C   UNL     1      -9.847   7.730  71.823  1.00  0.00    -0.167 A  
HETATM    3  C   UNL     1      -9.326   8.940  71.371  1.00  0.00    -0.338 A  
HETATM    4  C   UNL     1      -8.552   8.971  70.203  1.00  0.00    -0.169 A  
HETATM    5  C   UNL     1      -8.305   7.796  69.473  1.00  0.00    -0.129 A  
HETATM    6  C   UNL     1      -8.822   6.583  69.959  1.00  0.00    -0.144 A  
HETATM    7  C   UNL     1      -9.592   6.551  71.125  1.00  0.00    -0.181 A  
ENDROOT
BRANCH   5   8
HETATM    8  C   UNL     1      -7.432   7.826  68.230  1.00  0.00    -0.104 C  
BRANCH   8   9
HETATM    9  S   UNL     1      -7.764   6.342  67.235  1.00  0.00    -0.101 SA 
BRANCH   9  10
HETATM   10  C   UNL     1      -7.904   6.949  65.457  1.00  0.00    -0.112 C  
BRANCH  10  11
HETATM   11  C   UNL     1      -8.521   8.378  65.399  1.00  0.00    -0.193 A  
HETATM   12  C   UNL     1      -9.551  11.033  65.350  1.00  0.00    -0.225 A  
HETATM   13  C   UNL     1      -9.736   8.716  66.037  1.00  0.00    -0.168 A  
HETATM   14  C   UNL     1      -7.874   9.433  64.712  1.00  0.00    -0.118 A  
HETATM   15  C   UNL     1     -10.228  10.033  66.037  1.00  0.00    -0.277 A  
HETATM   16 CL   UNL     1     -10.164  12.640  65.327  1.00  0.00    -0.302 Cl 
HETATM   17 CL   UNL     1     -10.729   7.547  66.837  1.00  0.00    -0.398 Cl 
HETATM   18  C   UNL     1      -8.384  10.734  64.671  1.00  0.00     0.021 A  
ENDBRANCH  10  11
BRANCH  10  19
HETATM   19  C   UNL     1      -8.620   5.924  64.538  1.00  0.00     0.065 C  
BRANCH  19  20
HETATM   20  N   UNL     1      -8.815   4.615  65.125  1.00  0.00    -0.142 NA 
HETATM   21  C   UNL     1      -9.861   4.223  65.909  1.00  0.00    -0.223 A  
HETATM   22  N   UNL     1      -8.397   2.517  65.686  1.00  0.00    -0.088 NA 
HETATM   23  C   UNL     1      -9.551   2.945  66.296  1.00  0.00     0.151 A  
HETATM   24  C   UNL     1      -7.993   3.538  64.964  1.00  0.00    -0.090 A  
ENDBRANCH  19  20
ENDBRANCH  10  19
ENDBRANCH   9  10
ENDBRANCH   8   9
ENDBRANCH   5   8
TORSDOF 6
ENDMDL
MODEL      319
REMARK 921   NORMALIZED FREE ENERGY PREDICTED BY IDOCK:   -2.40 KCAL/MOL
REMARK 922        TOTAL FREE ENERGY PREDICTED BY IDOCK:   -4.17 KCAL/MOL
REMARK 923 INTER-LIGAND FREE ENERGY PREDICTED BY IDOCK:   -4.09 KCAL/MOL
REMARK 924 INTRA-LIGAND FREE ENERGY PREDICTED BY IDOCK:   -0.08 KCAL/MOL
REMARK 927      BINDING AFFINITY PREDICTED BY RF-SCORE:    0.00 PKD
ROOT
HETATM    1 CL   UNL     1      -6.296   4.821  66.390  1.00  0.00    -0.036 Cl 
HETATM    2  C   UNL     1      -6.967   5.417  67.858  1.00  0.00    -0.065 A  
HETATM    3  C   UNL     1      -6.211   6.252  68.676  1.00  0.00    -0.036 A  
HETATM    4  C   UNL     1      -6.756   6.731  69.874  1.00  0.00    -0.049 A  
HETATM    5  C   UNL     1      -8.057   6.369  70.267  1.00  0.00    -0.120 A  
HETATM    6  C   UNL     1      -8.810   5.544  69.415  1.00  0.00    -0.114 A  
HETATM    7  C   UNL     1      -8.266   5.068  68.219  1.00  0.00    -0.089 A  
ENDROOT
BRANCH   5   8
HETATM    8  C   UNL     1      -8.661   6.923  71.546  1.00  0.00    -0.122 C  
BRANCH   8   9
HETATM    9  S   UNL     1      -8.800   8.729  71.403  1.00  0.00    -0.215 SA 
BRANCH   9  10
HETATM   10  C   UNL     1      -9.201   9.062  69.593  1.00  0.00    -0.159 C  
BRANCH  10  11
HETATM   11  C   UNL     1      -8.582  10.410  69.120  1.00  0.00    -0.169 A  
HETATM   12  C   UNL     1      -7.465  12.920  68.366  1.00  0.00    -0.124 A  
HETATM   13  C   UNL     1      -9.164  11.209  68.111  1.00  0.00    -0.166 A  
HETATM   14  C   UNL     1      -7.396  10.922  69.701  1.00  0.00    -0.068 A  
HETATM   15  C   UNL     1      -8.629  12.461  67.760  1.00  0.00    -0.172 A  
HETATM   16 CL   UNL     1      -6.794  14.439  67.921  1.00  0.00    -0.157 Cl 
HETATM   17 CL   UNL     1     -10.553  10.710  67.207  1.00  0.00    -0.292 Cl 
HETATM   18  C   UNL     1      -6.836  12.146  69.323  1.00  0.00    -0.052 A  
ENDBRANCH  10  11
BRANCH  10  19
HETATM   19  C   UNL     1     -10.718   8.933  69.292  1.00  0.00    -0.162 C  
BRANCH  19  20
HETATM   20  N   UNL     1     -11.589   9.370  70.362  1.00  0.00    -0.232 NA 
HETATM   21  C   UNL     1     -12.271   8.570  71.233  1.00  0.00    -0.277 A  
HETATM   22  N   UNL     1     -12.739  10.737  71.665  1.00  0.00    -0.424 NA 
HETATM   23  C   UNL     1     -13.023   9.432  71.987  1.00  0.00    -0.423 A  
HETATM   24  C   UNL     1     -11.849  10.665  70.702  1.00  0.00    -0.363 A  
ENDBRANCH  19  20
ENDBRANCH  10  19
ENDBRANCH   9  10
ENDBRANCH   8   9
ENDBRANCH   5   8
TORSDOF 6
ENDMDL
MODEL      320
REMARK 921   NORMALIZED FREE ENERGY PREDICTED BY IDOCK:   -2.35 KCAL/MOL
REMARK 922        TOTAL FREE ENERGY PREDICTED BY IDOCK:   -4.10 KCAL/MOL
REMARK 923 INTER-LIGAND FREE ENERGY PREDICTED BY IDOCK:   -3.89 KCAL/MOL
REMARK 924 INTRA-LIGAND FREE ENERGY PREDICTED BY IDOCK:   -0.21 KCAL/MOL
REMARK 927      BINDING AFFINITY PREDICTED BY RF-SCORE:    0.00 PKD
ROOT
HETATM    1 CL   UNL     1      -6.671   8.559  72.349  1.00  0.00    -0.102 Cl 
HETATM    2  C   UNL     1      -6.844   9.147  70.742  1.00  0.00    -0.087 A  
HETATM    3  C   UNL     1      -7.364   8.316  69.753  1.00  0.00    -0.065 A  
HETATM    4  C   UNL     1      -7.499   8.795  68.443  1.00  0.00    -0.091 A  
HETATM    5  C   UNL     1      -7.103  10.103  68.112  1.00  0.00    -0.079 A  
HETATM    6  C   UNL     1      -6.603  10.931  69.130  1.00  0.00    -0.069 A  
HETATM    7  C   UNL     1      -6.470  10.453  70.438  1.00  0.00    -0.125 A  
ENDROOT
BRANCH   5   8
HETATM    8  C   UNL     1      -7.288  10.633  66.700  1.00  0.00    -0.129 C  
BRANCH   8   9
HETATM    9  S   UNL     1      -7.484   9.232  65.561  1.00  0.00    -0.091 SA 
BRANCH   9  10
HETATM   10  C   UNL     1      -9.343   8.992  65.371  1.00  0.00    -0.144 C  
BRANCH  10  11
HETATM   11  C   UNL     1     -10.108  10.324  65.625  1.00  0.00    -0.341 A  
HETATM   12  C   UNL     1     -11.407  12.821  66.066  1.00  0.00    -0.321 A  
HETATM   13  C   UNL     1     -10.695  10.647  66.869  1.00  0.00    -0.237 A  
HETATM   14  C   UNL     1     -10.240  11.304  64.611  1.00  0.00    -0.357 A  
HETATM   15  C   UNL     1     -11.309  11.892  67.095  1.00  0.00    -0.393 A  
HETATM   16 CL   UNL     1     -12.180  14.334  66.332  1.00  0.00    -0.454 Cl 
HETATM   17 CL   UNL     1     -10.734   9.542  68.200  1.00  0.00    -0.267 Cl 
HETATM   18  C   UNL     1     -10.891  12.524  64.819  1.00  0.00    -0.332 A  
ENDBRANCH  10  11
BRANCH  10  19
HETATM   19  C   UNL     1      -9.873   7.800  66.211  1.00  0.00    -0.041 C  
BRANCH  19  20
HETATM   20  N   UNL     1      -9.180   6.548  65.992  1.00  0.00    -0.099 NA 
HETATM   21  C   UNL     1      -9.004   5.914  64.796  1.00  0.00     0.279 A  
HETATM   22  N   UNL     1      -8.086   4.682  66.451  1.00  0.00    -0.103 NA 
HETATM   23  C   UNL     1      -8.381   4.735  65.111  1.00  0.00    -0.129 A  
HETATM   24  C   UNL     1      -8.555   5.804  66.949  1.00  0.00    -0.111 A  
ENDBRANCH  19  20
ENDBRANCH  10  19
ENDBRANCH   9  10
ENDBRANCH   8   9
ENDBRANCH   5   8
TORSDOF 6
ENDMDL
MODEL      321
REMARK 921   NORMALIZED FREE ENERGY PREDICTED BY IDOCK:   -2.29 KCAL/MOL
REMARK 922        TOTAL FREE ENERGY PREDICTED BY IDOCK:   -4.01 KCAL/MOL
REMARK 923 INTER-LIGAND FREE ENERGY PREDICTED BY IDOCK:   -4.28 KCAL/MOL
REMARK 924 INTRA-LIGAND FREE ENERGY PREDICTED BY IDOCK:    0.27 KCAL/MOL
REMARK 927      BINDING AFFINITY PREDICTED BY RF-SCORE:    0.00 PKD
ROOT
HETATM    1 CL   UNL     1     -10.727  10.126  69.393  1.00  0.00    -0.241 Cl 
HETATM    2  C   UNL     1     -10.532  11.093  67.983  1.00  0.00    -0.188 A  
HETATM    3  C   UNL     1      -9.331  11.059  67.281  1.00  0.00    -0.167 A  
HETATM    4  C   UNL     1      -9.171  11.852  66.137  1.00  0.00    -0.204 A  
HETATM    5  C   UNL     1     -10.208  12.693  65.695  1.00  0.00    -0.290 A  
HETATM    6  C   UNL     1     -11.420  12.694  66.407  1.00  0.00    -0.409 A  
HETATM    7  C   UNL     1     -11.579  11.901  67.547  1.00  0.00    -0.374 A  
ENDROOT
BRANCH   5   8
HETATM    8  C   UNL     1     -10.048  13.520  64.431  1.00  0.00    -0.018 C  
BRANCH   8   9
HETATM    9  S   UNL     1     -10.223  15.280  64.848  1.00  0.00    -0.008 SA 
BRANCH   9  10
HETATM   10  C   UNL     1      -9.751  15.416  66.666  1.00  0.00    -0.253 C  
BRANCH  10  11
HETATM   11  C   UNL     1     -10.081  16.830  67.227  1.00  0.00    -0.281 A  
HETATM   12  C   UNL     1     -10.578  19.456  68.214  1.00  0.00    -0.195 A  
HETATM   13  C   UNL     1     -10.292  17.080  68.603  1.00  0.00    -0.351 A  
HETATM   14  C   UNL     1     -10.168  17.960  66.378  1.00  0.00    -0.372 A  
HETATM   15  C   UNL     1     -10.507  18.381  69.091  1.00  0.00     0.194 A  
HETATM   16 CL   UNL     1     -10.867  21.045  68.807  1.00  0.00     0.759 Cl 
HETATM   17 CL   UNL     1     -10.333  15.820  69.787  1.00  0.00    -0.292 Cl 
HETATM   18  C   UNL     1     -10.427  19.248  66.856  1.00  0.00    -0.547 A  
ENDBRANCH  10  11
BRANCH  10  19
HETATM   19  C   UNL     1      -8.289  14.967  66.932  1.00  0.00    -0.177 C  
BRANCH  19  20
HETATM   20  N   UNL     1      -7.432  15.989  67.491  1.00  0.00    -0.145 NA 
HETATM   21  C   UNL     1      -7.006  16.076  68.785  1.00  0.00    -0.139 A  
HETATM   22  N   UNL     1      -6.212  17.830  67.605  1.00  0.00    -0.157 NA 
HETATM   23  C   UNL     1      -6.306  17.253  68.848  1.00  0.00    -0.199 A  
HETATM   24  C   UNL     1      -6.876  17.029  66.804  1.00  0.00    -0.230 A  
ENDBRANCH  19  20
ENDBRANCH  10  19
ENDBRANCH   9  10
ENDBRANCH   8   9
ENDBRANCH   5   8
TORSDOF 6
ENDMDL
MODEL      322
REMARK 921   NORMALIZED FREE ENERGY PREDICTED BY IDOCK:   -2.09 KCAL/MOL
REMARK 922        TOTAL FREE ENERGY PREDICTED BY IDOCK:   -3.74 KCAL/MOL
REMARK 923 INTER-LIGAND FREE ENERGY PREDICTED BY IDOCK:   -2.81 KCAL/MOL
REMARK 924 INTRA-LIGAND FREE ENERGY PREDICTED BY IDOCK:   -0.93 KCAL/MOL
REMARK 927      BINDING AFFINITY PREDICTED BY RF-SCORE:    0.00 PKD
ROOT
HETATM    1 CL   UNL     1     -10.119  13.686  68.077  1.00  0.00    -0.243 Cl 
HETATM    2  C   UNL     1      -9.413  12.211  67.540  1.00  0.00    -0.180 A  
HETATM    3  C   UNL     1     -10.160  11.037  67.563  1.00  0.00    -0.208 A  
HETATM    4  C   UNL     1      -9.581   9.836  67.132  1.00  0.00    -0.211 A  
HETATM    5  C   UNL     1      -8.248   9.800  66.687  1.00  0.00    -0.120 A  
HETATM    6  C   UNL     1      -7.520  11.001  66.652  1.00  0.00    -0.146 A  
HETATM    7  C   UNL     1      -8.098  12.199  67.080  1.00  0.00    -0.175 A  
ENDROOT
BRANCH   5   8
HETATM    8  C   UNL     1      -7.636   8.504  66.182  1.00  0.00    -0.089 C  
BRANCH   8   9
HETATM    9  S   UNL     1      -8.853   7.167  66.351  1.00  0.00    -0.148 SA 
BRANCH   9  10
HETATM   10  C   UNL     1      -7.974   5.803  67.306  1.00  0.00    -0.102 C  
BRANCH  10  11
HETATM   11  C   UNL     1      -8.112   6.014  68.842  1.00  0.00    -0.104 A  
HETATM   12  C   UNL     1      -8.246   6.413  71.660  1.00  0.00    -0.117 A  
HETATM   13  C   UNL     1      -8.635   5.028  69.709  1.00  0.00    -0.088 A  
HETATM   14  C   UNL     1      -7.695   7.217  69.462  1.00  0.00    -0.113 A  
HETATM   15  C   UNL     1      -8.673   5.214  71.102  1.00  0.00    -0.139 A  
HETATM   16 CL   UNL     1      -8.315   6.653  73.362  1.00  0.00    -0.123 Cl 
HETATM   17 CL   UNL     1      -9.295   3.534  69.136  1.00  0.00    -0.231 Cl 
HETATM   18  C   UNL     1      -7.774   7.423  70.843  1.00  0.00    -0.088 A  
ENDBRANCH  10  11
BRANCH  10  19
HETATM   19  C   UNL     1      -6.508   5.602  66.835  1.00  0.00    -0.047 C  
BRANCH  19  20
HETATM   20  N   UNL     1      -6.366   4.893  65.582  1.00  0.00    -0.034 NA 
HETATM   21  C   UNL     1      -5.993   5.428  64.382  1.00  0.00    -0.022 A  
HETATM   22  N   UNL     1      -6.424   3.225  64.131  1.00  0.00    -0.030 NA 
HETATM   23  C   UNL     1      -6.096   4.394  63.489  1.00  0.00    -0.018 A  
HETATM   24  C   UNL     1      -6.551   3.554  65.396  1.00  0.00    -0.036 A  
ENDBRANCH  19  20
ENDBRANCH  10  19
ENDBRANCH   9  10
ENDBRANCH   8   9
ENDBRANCH   5   8
TORSDOF 6
ENDMDL
MODEL      323
REMARK 921   NORMALIZED FREE ENERGY PREDICTED BY IDOCK:   -2.07 KCAL/MOL
REMARK 922        TOTAL FREE ENERGY PREDICTED BY IDOCK:   -3.72 KCAL/MOL
REMARK 923 INTER-LIGAND FREE ENERGY PREDICTED BY IDOCK:   -3.62 KCAL/MOL
REMARK 924 INTRA-LIGAND FREE ENERGY PREDICTED BY IDOCK:   -0.10 KCAL/MOL
REMARK 927      BINDING AFFINITY PREDICTED BY RF-SCORE:    0.00 PKD
ROOT
HETATM    1 CL   UNL     1      -9.980  19.397  66.223  1.00  0.00    -0.473 Cl 
HETATM    2  C   UNL     1      -9.918  17.702  66.509  1.00  0.00    -0.332 A  
HETATM    3  C   UNL     1     -11.090  16.951  66.479  1.00  0.00     0.337 A  
HETATM    4  C   UNL     1     -11.039  15.572  66.718  1.00  0.00    -0.206 A  
HETATM    5  C   UNL     1      -9.817  14.936  67.002  1.00  0.00    -0.239 A  
HETATM    6  C   UNL     1      -8.644  15.709  67.006  1.00  0.00    -0.253 A  
HETATM    7  C   UNL     1      -8.696  17.086  66.765  1.00  0.00    -0.272 A  
ENDROOT
BRANCH   5   8
HETATM    8  C   UNL     1      -9.759  13.434  67.221  1.00  0.00    -0.232 C  
BRANCH   8   9
HETATM    9  S   UNL     1      -8.305  13.038  68.236  1.00  0.00    -0.135 SA 
BRANCH   9  10
HETATM   10  C   UNL     1      -7.793  11.299  67.725  1.00  0.00    -0.115 C  
BRANCH  10  11
HETATM   11  C   UNL     1      -8.838  10.246  68.195  1.00  0.00    -0.123 A  
HETATM   12  C   UNL     1     -10.663   8.262  69.117  1.00  0.00    -0.101 A  
HETATM   13  C   UNL     1      -9.528   9.397  67.300  1.00  0.00    -0.133 A  
HETATM   14  C   UNL     1      -9.140  10.067  69.567  1.00  0.00    -0.236 A  
HETATM   15  C   UNL     1     -10.406   8.399  67.758  1.00  0.00    -0.297 A  
HETATM   16 CL   UNL     1     -11.757   7.059  69.678  1.00  0.00    -0.061 Cl 
HETATM   17 CL   UNL     1      -9.378   9.530  65.582  1.00  0.00    -0.280 Cl 
HETATM   18  C   UNL     1     -10.047   9.105  70.023  1.00  0.00    -0.230 A  
ENDBRANCH  10  11
BRANCH  10  19
HETATM   19  C   UNL     1      -6.337  10.964  68.148  1.00  0.00    -0.057 C  
BRANCH  19  20
HETATM   20  N   UNL     1      -6.143   9.616  68.637  1.00  0.00    -0.043 NA 
HETATM   21  C   UNL     1      -6.201   8.468  67.900  1.00  0.00    -0.056 A  
HETATM   22  N   UNL     1      -5.800   7.963  70.065  1.00  0.00    -0.023 NA 
HETATM   23  C   UNL     1      -6.049   7.456  68.812  1.00  0.00    -0.027 A  
HETATM   24  C   UNL     1      -5.834   9.268  69.919  1.00  0.00    -0.035 A  
ENDBRANCH  19  20
ENDBRANCH  10  19
ENDBRANCH   9  10
ENDBRANCH   8   9
ENDBRANCH   5   8
TORSDOF 6
ENDMDL
MODEL      324
REMARK 921   NORMALIZED FREE ENERGY PREDICTED BY IDOCK:   -1.92 KCAL/MOL
REMARK 922        TOTAL FREE ENERGY PREDICTED BY IDOCK:   -3.51 KCAL/MOL
REMARK 923 INTER-LIGAND FREE ENERGY PREDICTED BY IDOCK:   -2.70 KCAL/MOL
REMARK 924 INTRA-LIGAND FREE ENERGY PREDICTED BY IDOCK:   -0.81 KCAL/MOL
REMARK 927      BINDING AFFINITY PREDICTED BY RF-SCORE:    0.00 PKD
ROOT
HETATM    1 CL   UNL     1      -5.125  10.917  74.119  1.00  0.00     0.130 Cl 
HETATM    2  C   UNL     1      -5.587   9.806  72.889  1.00  0.00     0.249 A  
HETATM    3  C   UNL     1      -5.457  10.163  71.550  1.00  0.00    -0.016 A  
HETATM    4  C   UNL     1      -5.839   9.260  70.549  1.00  0.00    -0.044 A  
HETATM    5  C   UNL     1      -6.366   7.999  70.882  1.00  0.00    -0.037 A  
HETATM    6  C   UNL     1      -6.467   7.652  72.239  1.00  0.00    -0.055 A  
HETATM    7  C   UNL     1      -6.084   8.553  73.237  1.00  0.00    -0.103 A  
ENDROOT
BRANCH   5   8
HETATM    8  C   UNL     1      -6.741   7.006  69.795  1.00  0.00    -0.049 C  
BRANCH   8   9
HETATM    9  S   UNL     1      -6.132   7.617  68.196  1.00  0.00    -0.041 SA 
BRANCH   9  10
HETATM   10  C   UNL     1      -7.528   7.303  66.972  1.00  0.00    -0.105 C  
BRANCH  10  11
HETATM   11  C   UNL     1      -8.485   8.527  66.886  1.00  0.00    -0.113 A  
HETATM   12  C   UNL     1     -10.325  10.694  66.690  1.00  0.00    -0.241 A  
HETATM   13  C   UNL     1      -8.257   9.621  66.020  1.00  0.00    -0.119 A  
HETATM   14  C   UNL     1      -9.664   8.599  67.667  1.00  0.00    -0.201 A  
HETATM   15  C   UNL     1      -9.180  10.675  65.903  1.00  0.00    -0.209 A  
HETATM   16 CL   UNL     1     -11.443  11.995  66.567  1.00  0.00    -0.414 Cl 
HETATM   17 CL   UNL     1      -6.823   9.773  65.063  1.00  0.00    -0.108 Cl 
HETATM   18  C   UNL     1     -10.562   9.668  67.586  1.00  0.00    -0.334 A  
ENDBRANCH  10  11
BRANCH  10  19
HETATM   19  C   UNL     1      -8.258   5.959  67.241  1.00  0.00    -0.105 C  
BRANCH  19  20
HETATM   20  N   UNL     1      -8.766   5.297  66.058  1.00  0.00    -0.132 NA 
HETATM   21  C   UNL     1      -8.310   5.452  64.781  1.00  0.00    -0.145 A  
HETATM   22  N   UNL     1     -10.056   4.019  64.797  1.00  0.00    -0.212 NA 
HETATM   23  C   UNL     1      -9.160   4.702  64.011  1.00  0.00    -0.088 A  
HETATM   24  C   UNL     1      -9.773   4.377  66.029  1.00  0.00    -0.213 A  
ENDBRANCH  19  20
ENDBRANCH  10  19
ENDBRANCH   9  10
ENDBRANCH   8   9
ENDBRANCH   5   8
TORSDOF 6
ENDMDL
MODEL      325
REMARK 921   NORMALIZED FREE ENERGY PREDICTED BY IDOCK:   -1.88 KCAL/MOL
REMARK 922        TOTAL FREE ENERGY PREDICTED BY IDOCK:   -3.47 KCAL/MOL
REMARK 923 INTER-LIGAND FREE ENERGY PREDICTED BY IDOCK:   -2.70 KCAL/MOL
REMARK 924 INTRA-LIGAND FREE ENERGY PREDICTED BY IDOCK:   -0.77 KCAL/MOL
REMARK 927      BINDING AFFINITY PREDICTED BY RF-SCORE:    0.00 PKD
ROOT
HETATM    1 CL   UNL     1      -5.130  11.427  72.594  1.00  0.00     0.270 Cl 
HETATM    2  C   UNL     1      -5.428  10.226  71.399  1.00  0.00    -0.025 A  
HETATM    3  C   UNL     1      -5.645  10.604  70.077  1.00  0.00    -0.060 A  
HETATM    4  C   UNL     1      -5.893   9.625  69.106  1.00  0.00    -0.035 A  
HETATM    5  C   UNL     1      -5.939   8.263  69.453  1.00  0.00    -0.037 A  
HETATM    6  C   UNL     1      -5.695   7.904  70.789  1.00  0.00    -0.030 A  
HETATM    7  C   UNL     1      -5.445   8.881  71.758  1.00  0.00    -0.052 A  
ENDROOT
BRANCH   5   8
HETATM    8  C   UNL     1      -6.169   7.201  68.392  1.00  0.00    -0.035 C  
BRANCH   8   9
HETATM    9  S   UNL     1      -6.534   8.013  66.808  1.00  0.00    -0.057 SA 
BRANCH   9  10
HETATM   10  C   UNL     1      -8.319   7.562  66.411  1.00  0.00    -0.126 C  
BRANCH  10  11
HETATM   11  C   UNL     1      -8.436   6.076  65.963  1.00  0.00    -0.139 A  
HETATM   12  C   UNL     1      -8.618   3.391  65.029  1.00  0.00    -0.107 A  
HETATM   13  C   UNL     1      -9.648   5.351  66.015  1.00  0.00    -0.131 A  
HETATM   14  C   UNL     1      -7.320   5.371  65.450  1.00  0.00    -0.069 A  
HETATM   15  C   UNL     1      -9.744   4.037  65.527  1.00  0.00    -0.194 A  
HETATM   16 CL   UNL     1      -8.726   1.773  64.454  1.00  0.00    -0.090 Cl 
HETATM   17 CL   UNL     1     -11.096   6.000  66.705  1.00  0.00    -0.314 Cl 
HETATM   18  C   UNL     1      -7.402   4.047  65.006  1.00  0.00    -0.072 A  
ENDBRANCH  10  11
BRANCH  10  19
HETATM   19  C   UNL     1      -8.976   8.564  65.425  1.00  0.00    -0.099 C  
BRANCH  19  20
HETATM   20  N   UNL     1      -9.777   9.595  66.050  1.00  0.00    -0.245 NA 
HETATM   21  C   UNL     1     -10.266  10.720  65.451  1.00  0.00    -0.276 A  
HETATM   22  N   UNL     1     -10.848  10.706  67.633  1.00  0.00    -0.270 NA 
HETATM   23  C   UNL     1     -10.870  11.422  66.461  1.00  0.00    -0.283 A  
HETATM   24  C   UNL     1     -10.207   9.596  67.344  1.00  0.00    -0.227 A  
ENDBRANCH  19  20
ENDBRANCH  10  19
ENDBRANCH   9  10
ENDBRANCH   8   9
ENDBRANCH   5   8
TORSDOF 6
ENDMDL
MODEL      326
REMARK 921   NORMALIZED FREE ENERGY PREDICTED BY IDOCK:   -1.78 KCAL/MOL
REMARK 922        TOTAL FREE ENERGY PREDICTED BY IDOCK:   -3.32 KCAL/MOL
REMARK 923 INTER-LIGAND FREE ENERGY PREDICTED BY IDOCK:   -2.79 KCAL/MOL
REMARK 924 INTRA-LIGAND FREE ENERGY PREDICTED BY IDOCK:   -0.53 KCAL/MOL
REMARK 927      BINDING AFFINITY PREDICTED BY RF-SCORE:    0.00 PKD
ROOT
HETATM    1 CL   UNL     1      -5.126  11.444  72.573  1.00  0.00     0.232 Cl 
HETATM    2  C   UNL     1      -5.563  10.490  71.210  1.00  0.00     0.005 A  
HETATM    3  C   UNL     1      -5.822  11.106  69.988  1.00  0.00    -0.112 A  
HETATM    4  C   UNL     1      -6.183  10.328  68.881  1.00  0.00    -0.047 A  
HETATM    5  C   UNL     1      -6.300   8.931  68.991  1.00  0.00    -0.044 A  
HETATM    6  C   UNL     1      -6.013   8.329  70.227  1.00  0.00    -0.028 A  
HETATM    7  C   UNL     1      -5.650   9.106  71.332  1.00  0.00    -0.055 A  
ENDROOT
BRANCH   5   8
HETATM    8  C   UNL     1      -6.653   8.085  67.779  1.00  0.00    -0.057 C  
BRANCH   8   9
HETATM    9  S   UNL     1      -7.115   9.181  66.405  1.00  0.00    -0.085 SA 
BRANCH   9  10
HETATM   10  C   UNL     1      -8.900   8.744  65.991  1.00  0.00    -0.175 C  
BRANCH  10  11
HETATM   11  C   UNL     1      -9.164   7.222  66.186  1.00  0.00    -0.136 A  
HETATM   12  C   UNL     1      -9.608   4.448  66.656  1.00  0.00    -0.198 A  
HETATM   13  C   UNL     1      -8.493   6.225  65.441  1.00  0.00    -0.129 A  
HETATM   14  C   UNL     1     -10.089   6.751  67.149  1.00  0.00    -0.249 A  
HETATM   15  C   UNL     1      -8.691   4.857  65.695  1.00  0.00    -0.135 A  
HETATM   16 CL   UNL     1      -9.871   2.774  66.950  1.00  0.00     0.351 Cl 
HETATM   17 CL   UNL     1      -7.406   6.597  64.148  1.00  0.00    -0.071 Cl 
HETATM   18  C   UNL     1     -10.322   5.391  67.372  1.00  0.00    -0.258 A  
ENDBRANCH  10  11
BRANCH  10  19
HETATM   19  C   UNL     1      -9.330   9.278  64.599  1.00  0.00     0.050 C  
BRANCH  19  20
HETATM   20  N   UNL     1     -10.042  10.538  64.626  1.00  0.00    -0.346 NA 
HETATM   21  C   UNL     1     -10.328  11.333  63.554  1.00  0.00    -0.408 A  
HETATM   22  N   UNL     1     -11.092  12.303  65.445  1.00  0.00    -0.302 NA 
HETATM   23  C   UNL     1     -10.921  12.446  64.090  1.00  0.00    -0.367 A  
HETATM   24  C   UNL     1     -10.578  11.128  65.732  1.00  0.00    -0.227 A  
ENDBRANCH  19  20
ENDBRANCH  10  19
ENDBRANCH   9  10
ENDBRANCH   8   9
ENDBRANCH   5   8
TORSDOF 6
ENDMDL
MODEL      327
REMARK 921   NORMALIZED FREE ENERGY PREDICTED BY IDOCK:   -1.71 KCAL/MOL
REMARK 922        TOTAL FREE ENERGY PREDICTED BY IDOCK:   -3.23 KCAL/MOL
REMARK 923 INTER-LIGAND FREE ENERGY PREDICTED BY IDOCK:   -3.89 KCAL/MOL
REMARK 924 INTRA-LIGAND FREE ENERGY PREDICTED BY IDOCK:    0.66 KCAL/MOL
REMARK 927      BINDING AFFINITY PREDICTED BY RF-SCORE:    0.00 PKD
ROOT
HETATM    1 CL   UNL     1     -12.227  12.186  66.789  1.00  0.00     0.056 Cl 
HETATM    2  C   UNL     1     -11.660  13.766  66.414  1.00  0.00    -0.360 A  
HETATM    3  C   UNL     1     -11.870  14.293  65.142  1.00  0.00    -0.384 A  
HETATM    4  C   UNL     1     -11.402  15.578  64.836  1.00  0.00    -0.339 A  
HETATM    5  C   UNL     1     -10.711  16.338  65.796  1.00  0.00    -0.264 A  
HETATM    6  C   UNL     1     -10.531  15.796  67.080  1.00  0.00    -0.309 A  
HETATM    7  C   UNL     1     -11.000  14.514  67.385  1.00  0.00    -0.306 A  
ENDROOT
BRANCH   5   8
HETATM    8  C   UNL     1     -10.241  17.747  65.475  1.00  0.00     0.150 C  
BRANCH   8   9
HETATM    9  S   UNL     1      -9.753  18.576  67.017  1.00  0.00    -0.325 SA 
BRANCH   9  10
HETATM   10  C   UNL     1      -8.160  17.731  67.561  1.00  0.00    -0.223 C  
BRANCH  10  11
HETATM   11  C   UNL     1      -7.425  18.568  68.649  1.00  0.00    -0.323 A  
HETATM   12  C   UNL     1      -6.082  20.193  70.565  1.00  0.00    -0.344 A  
HETATM   13  C   UNL     1      -6.131  18.247  69.119  1.00  0.00    -0.234 A  
HETATM   14  C   UNL     1      -8.016  19.722  69.216  1.00  0.00    -0.008 A  
HETATM   15  C   UNL     1      -5.458  19.067  70.042  1.00  0.00    -0.239 A  
HETATM   16 CL   UNL     1      -5.270  21.183  71.713  1.00  0.00     0.015 Cl 
HETATM   17 CL   UNL     1      -5.285  16.820  68.629  1.00  0.00    -0.121 Cl 
HETATM   18  C   UNL     1      -7.367  20.514  70.169  1.00  0.00     1.093 A  
ENDBRANCH  10  11
BRANCH  10  19
HETATM   19  C   UNL     1      -7.258  17.342  66.359  1.00  0.00    -0.298 C  
BRANCH  19  20
HETATM   20  N   UNL     1      -6.740  18.462  65.602  1.00  0.00    -0.393 NA 
HETATM   21  C   UNL     1      -5.548  18.513  64.939  1.00  0.00    -0.187 A  
HETATM   22  N   UNL     1      -6.615  20.493  64.737  1.00  0.00    -0.297 NA 
HETATM   23  C   UNL     1      -5.463  19.796  64.465  1.00  0.00    -0.189 A  
HETATM   24  C   UNL     1      -7.377  19.651  65.398  1.00  0.00    -0.067 A  
ENDBRANCH  19  20
ENDBRANCH  10  19
ENDBRANCH   9  10
ENDBRANCH   8   9
ENDBRANCH   5   8
TORSDOF 6
ENDMDL
MODEL      328
REMARK 921   NORMALIZED FREE ENERGY PREDICTED BY IDOCK:   -0.99 KCAL/MOL
REMARK 922        TOTAL FREE ENERGY PREDICTED BY IDOCK:   -2.25 KCAL/MOL
REMARK 923 INTER-LIGAND FREE ENERGY PREDICTED BY IDOCK:   -3.81 KCAL/MOL
REMARK 924 INTRA-LIGAND FREE ENERGY PREDICTED BY IDOCK:    1.56 KCAL/MOL
REMARK 927      BINDING AFFINITY PREDICTED BY RF-SCORE:    0.00 PKD
ROOT
HETATM    1 CL   UNL     1      -6.720   8.921  67.506  1.00  0.00    -0.065 Cl 
HETATM    2  C   UNL     1      -7.359  10.509  67.684  1.00  0.00    -0.087 A  
HETATM    3  C   UNL     1      -7.995  11.123  66.609  1.00  0.00    -0.159 A  
HETATM    4  C   UNL     1      -8.509  12.419  66.754  1.00  0.00    -0.095 A  
HETATM    5  C   UNL     1      -8.379  13.112  67.970  1.00  0.00    -0.162 A  
HETATM    6  C   UNL     1      -7.753  12.464  69.048  1.00  0.00     0.170 A  
HETATM    7  C   UNL     1      -7.242  11.170  68.904  1.00  0.00    -0.106 A  
ENDROOT
BRANCH   5   8
HETATM    8  C   UNL     1      -8.973  14.500  68.137  1.00  0.00    -0.182 C  
BRANCH   8   9
HETATM    9  S   UNL     1      -9.765  14.998  66.579  1.00  0.00    -0.283 SA 
BRANCH   9  10
HETATM   10  C   UNL     1     -11.573  15.302  67.008  1.00  0.00    -0.095 C  
BRANCH  10  11
HETATM   11  C   UNL     1     -11.978  14.541  68.305  1.00  0.00    -0.303 A  
HETATM   12  C   UNL     1     -12.633  13.211  70.738  1.00  0.00    -0.260 A  
HETATM   13  C   UNL     1     -11.856  13.140  68.442  1.00  0.00    -0.351 A  
HETATM   14  C   UNL     1     -12.476  15.228  69.438  1.00  0.00    -0.072 A  
HETATM   15  C   UNL     1     -12.152  12.489  69.652  1.00  0.00    -0.272 A  
HETATM   16 CL   UNL     1     -13.020  12.413  72.211  1.00  0.00    -0.326 Cl 
HETATM   17 CL   UNL     1     -11.368  12.111  67.139  1.00  0.00    -0.368 Cl 
HETATM   18  C   UNL     1     -12.814  14.577  70.629  1.00  0.00    -0.399 A  
ENDBRANCH  10  11
BRANCH  10  19
HETATM   19  C   UNL     1     -12.518  15.032  65.807  1.00  0.00     0.375 C  
BRANCH  19  20
HETATM   20  N   UNL     1     -12.048  14.025  64.879  1.00  0.00    -0.398 NA 
HETATM   21  C   UNL     1     -12.475  12.731  64.798  1.00  0.00    -0.472 A  
HETATM   22  N   UNL     1     -10.844  13.090  63.278  1.00  0.00     0.106 NA 
HETATM   23  C   UNL     1     -11.675  12.156  63.846  1.00  0.00    -0.458 A  
HETATM   24  C   UNL     1     -11.114  14.213  63.903  1.00  0.00     0.449 A  
ENDBRANCH  19  20
ENDBRANCH  10  19
ENDBRANCH   9  10
ENDBRANCH   8   9
ENDBRANCH   5   8
TORSDOF 6
ENDMDL
MODEL      329
REMARK 921   NORMALIZED FREE ENERGY PREDICTED BY IDOCK:   -0.91 KCAL/MOL
REMARK 922        TOTAL FREE ENERGY PREDICTED BY IDOCK:   -2.15 KCAL/MOL
REMARK 923 INTER-LIGAND FREE ENERGY PREDICTED BY IDOCK:   -1.59 KCAL/MOL
REMARK 924 INTRA-LIGAND FREE ENERGY PREDICTED BY IDOCK:   -0.56 KCAL/MOL
REMARK 927      BINDING AFFINITY PREDICTED BY RF-SCORE:    0.00 PKD
ROOT
HETATM    1 CL   UNL     1      -7.425  20.483  68.159  1.00  0.00    -0.169 Cl 
HETATM    2  C   UNL     1      -7.678  18.791  68.339  1.00  0.00    -0.315 A  
HETATM    3  C   UNL     1      -7.342  17.926  67.301  1.00  0.00    -0.209 A  
HETATM    4  C   UNL     1      -7.555  16.549  67.446  1.00  0.00    -0.175 A  
HETATM    5  C   UNL     1      -8.117  16.030  68.626  1.00  0.00    -0.187 A  
HETATM    6  C   UNL     1      -8.427  16.918  69.669  1.00  0.00     0.743 A  
HETATM    7  C   UNL     1      -8.213  18.292  69.524  1.00  0.00     0.598 A  
ENDROOT
BRANCH   5   8
HETATM    8  C   UNL     1      -8.309  14.532  68.798  1.00  0.00    -0.149 C  
BRANCH   8   9
HETATM    9  S   UNL     1      -7.785  13.689  67.276  1.00  0.00     0.011 SA 
BRANCH   9  10
HETATM   10  C   UNL     1      -8.424  11.924  67.434  1.00  0.00    -0.166 C  
BRANCH  10  11
HETATM   11  C   UNL     1      -7.568  10.939  66.585  1.00  0.00    -0.139 A  
HETATM   12  C   UNL     1      -6.083   9.051  65.054  1.00  0.00    -0.064 A  
HETATM   13  C   UNL     1      -6.243  10.586  66.923  1.00  0.00    -0.066 A  
HETATM   14  C   UNL     1      -8.091  10.321  65.422  1.00  0.00    -0.147 A  
HETATM   15  C   UNL     1      -5.521   9.631  66.184  1.00  0.00    -0.047 A  
HETATM   16 CL   UNL     1      -5.194   7.902  64.133  1.00  0.00    -0.036 Cl 
HETATM   17 CL   UNL     1      -5.390  11.310  68.243  1.00  0.00    -0.039 Cl 
HETATM   18  C   UNL     1      -7.359   9.406  64.659  1.00  0.00    -0.104 A  
ENDBRANCH  10  11
BRANCH  10  19
HETATM   19  C   UNL     1      -9.948  11.821  67.160  1.00  0.00    -0.203 C  
BRANCH  19  20
HETATM   20  N   UNL     1     -10.713  11.188  68.213  1.00  0.00    -0.183 NA 
HETATM   21  C   UNL     1     -12.068  11.231  68.372  1.00  0.00    -0.040 A  
HETATM   22  N   UNL     1     -11.143  10.047  70.058  1.00  0.00    -0.275 NA 
HETATM   23  C   UNL     1     -12.305  10.573  69.550  1.00  0.00     0.002 A  
HETATM   24  C   UNL     1     -10.205  10.411  69.212  1.00  0.00    -0.230 A  
ENDBRANCH  19  20
ENDBRANCH  10  19
ENDBRANCH   9  10
ENDBRANCH   8   9
ENDBRANCH   5   8
TORSDOF 6
ENDMDL
MODEL      330
REMARK 921   NORMALIZED FREE ENERGY PREDICTED BY IDOCK:   -0.02 KCAL/MOL
REMARK 922        TOTAL FREE ENERGY PREDICTED BY IDOCK:   -0.95 KCAL/MOL
REMARK 923 INTER-LIGAND FREE ENERGY PREDICTED BY IDOCK:   -2.39 KCAL/MOL
REMARK 924 INTRA-LIGAND FREE ENERGY PREDICTED BY IDOCK:    1.44 KCAL/MOL
REMARK 927      BINDING AFFINITY PREDICTED BY RF-SCORE:    0.00 PKD
ROOT
HETATM    1 CL   UNL     1     -12.316  12.110  66.805  1.00  0.00     0.333 Cl 
HETATM    2  C   UNL     1     -11.765  13.670  66.335  1.00  0.00    -0.373 A  
HETATM    3  C   UNL     1     -11.925  14.093  65.018  1.00  0.00    -0.412 A  
HETATM    4  C   UNL     1     -11.469  15.362  64.635  1.00  0.00    -0.339 A  
HETATM    5  C   UNL     1     -10.839  16.209  65.563  1.00  0.00    -0.280 A  
HETATM    6  C   UNL     1     -10.708  15.771  66.891  1.00  0.00    -0.299 A  
HETATM    7  C   UNL     1     -11.165  14.505  67.273  1.00  0.00    -0.341 A  
ENDROOT
BRANCH   5   8
HETATM    8  C   UNL     1     -10.383  17.600  65.155  1.00  0.00     0.623 C  
BRANCH   8   9
HETATM    9  S   UNL     1     -10.091  18.591  66.650  1.00  0.00    -0.411 SA 
BRANCH   9  10
HETATM   10  C   UNL     1      -8.766  17.665  67.617  1.00  0.00    -0.232 C  
BRANCH  10  11
HETATM   11  C   UNL     1      -7.872  18.649  68.428  1.00  0.00    -0.344 A  
HETATM   12  C   UNL     1      -6.178  20.355  69.956  1.00  0.00    -0.253 A  
HETATM   13  C   UNL     1      -8.386  19.503  69.430  1.00  0.00     0.148 A  
HETATM   14  C   UNL     1      -6.475  18.724  68.214  1.00  0.00    -0.235 A  
HETATM   15  C   UNL     1      -7.545  20.322  70.203  1.00  0.00     0.849 A  
HETATM   16 CL   UNL     1      -5.150  21.375  70.883  1.00  0.00     0.015 Cl 
HETATM   17 CL   UNL     1     -10.077  19.637  69.768  1.00  0.00    -0.082 Cl 
HETATM   18  C   UNL     1      -5.641  19.572  68.951  1.00  0.00    -0.228 A  
ENDBRANCH  10  11
BRANCH  10  19
HETATM   19  C   UNL     1      -7.960  16.685  66.723  1.00  0.00    -0.249 C  
BRANCH  19  20
HETATM   20  N   UNL     1      -7.186  15.700  67.448  1.00  0.00    -0.191 NA 
HETATM   21  C   UNL     1      -5.862  15.415  67.272  1.00  0.00     0.255 A  
HETATM   22  N   UNL     1      -6.726  14.061  68.860  1.00  0.00    -0.099 NA 
HETATM   23  C   UNL     1      -5.615  14.359  68.110  1.00  0.00    -0.124 A  
HETATM   24  C   UNL     1      -7.648  14.907  68.458  1.00  0.00    -0.121 A  
ENDBRANCH  19  20
ENDBRANCH  10  19
ENDBRANCH   9  10
ENDBRANCH   8   9
ENDBRANCH   5   8
TORSDOF 6
ENDMDL
MODEL      331
REMARK 921   NORMALIZED FREE ENERGY PREDICTED BY IDOCK:    1.58 KCAL/MOL
REMARK 922        TOTAL FREE ENERGY PREDICTED BY IDOCK:    1.22 KCAL/MOL
REMARK 923 INTER-LIGAND FREE ENERGY PREDICTED BY IDOCK:   -0.52 KCAL/MOL
REMARK 924 INTRA-LIGAND FREE ENERGY PREDICTED BY IDOCK:    1.74 KCAL/MOL
REMARK 927      BINDING AFFINITY PREDICTED BY RF-SCORE:    0.00 PKD
ROOT
HETATM    1 CL   UNL     1      -7.437  20.479  68.162  1.00  0.00    -0.169 Cl 
HETATM    2  C   UNL     1      -7.855  18.814  68.276  1.00  0.00    -0.305 A  
HETATM    3  C   UNL     1      -7.565  17.953  67.222  1.00  0.00    -0.217 A  
HETATM    4  C   UNL     1      -7.912  16.599  67.314  1.00  0.00    -0.193 A  
HETATM    5  C   UNL     1      -8.564  16.100  68.456  1.00  0.00    -0.202 A  
HETATM    6  C   UNL     1      -8.827  16.983  69.517  1.00  0.00     0.492 A  
HETATM    7  C   UNL     1      -8.479  18.334  69.425  1.00  0.00     0.431 A  
ENDROOT
BRANCH   5   8
HETATM    8  C   UNL     1      -8.903  14.624  68.570  1.00  0.00    -0.182 C  
BRANCH   8   9
HETATM    9  S   UNL     1      -8.381  13.775  67.051  1.00  0.00    -0.011 SA 
BRANCH   9  10
HETATM   10  C   UNL     1      -9.251  12.104  67.084  1.00  0.00    -0.193 C  
BRANCH  10  11
HETATM   11  C   UNL     1      -8.446  11.038  66.284  1.00  0.00    -0.165 A  
HETATM   12  C   UNL     1      -7.068   9.010  64.833  1.00  0.00    -0.091 A  
HETATM   13  C   UNL     1      -7.215  10.509  66.733  1.00  0.00    -0.114 A  
HETATM   14  C   UNL     1      -8.926  10.520  65.056  1.00  0.00    -0.223 A  
HETATM   15  C   UNL     1      -6.551   9.488  66.031  1.00  0.00    -0.077 A  
HETATM   16 CL   UNL     1      -6.245   7.779  63.959  1.00  0.00    -0.056 Cl 
HETATM   17 CL   UNL     1      -6.411  11.087  68.152  1.00  0.00    -0.056 Cl 
HETATM   18  C   UNL     1      -8.245   9.536  64.333  1.00  0.00    -0.148 A  
ENDBRANCH  10  11
BRANCH  10  19
HETATM   19  C   UNL     1     -10.741  12.206  66.662  1.00  0.00    -0.246 C  
BRANCH  19  20
HETATM   20  N   UNL     1     -11.366  13.480  66.946  1.00  0.00    -0.315 NA 
HETATM   21  C   UNL     1     -12.512  13.682  67.659  1.00  0.00     0.215 A  
HETATM   22  N   UNL     1     -11.724  15.662  66.910  1.00  0.00     0.190 NA 
HETATM   23  C   UNL     1     -12.748  15.029  67.571  1.00  0.00     1.431 A  
HETATM   24  C   UNL     1     -10.892  14.703  66.571  1.00  0.00    -0.315 A  
ENDBRANCH  19  20
ENDBRANCH  10  19
ENDBRANCH   9  10
ENDBRANCH   8   9
ENDBRANCH   5   8
TORSDOF 6
ENDMDL
MODEL      332
REMARK 921   NORMALIZED FREE ENERGY PREDICTED BY IDOCK:    5.93 KCAL/MOL
REMARK 922        TOTAL FREE ENERGY PREDICTED BY IDOCK:    7.09 KCAL/MOL
REMARK 923 INTER-LIGAND FREE ENERGY PREDICTED BY IDOCK:    7.21 KCAL/MOL
REMARK 924 INTRA-LIGAND FREE ENERGY PREDICTED BY IDOCK:   -0.12 KCAL/MOL
REMARK 927      BINDING AFFINITY PREDICTED BY RF-SCORE:    0.00 PKD
ROOT
HETATM    1 CL   UNL     1      -6.409  10.014  71.547  1.00  0.00     0.241 Cl 
HETATM    2  C   UNL     1      -6.385  10.976  70.121  1.00  0.00    -0.147 A  
HETATM    3  C   UNL     1      -6.462  10.366  68.872  1.00  0.00    -0.052 A  
HETATM    4  C   UNL     1      -6.435  11.151  67.712  1.00  0.00    -0.063 A  
HETATM    5  C   UNL     1      -6.319  12.550  67.793  1.00  0.00    -0.121 A  
HETATM    6  C   UNL     1      -6.265  13.146  69.064  1.00  0.00    -0.094 A  
HETATM    7  C   UNL     1      -6.294  12.362  70.222  1.00  0.00     0.141 A  
ENDROOT
BRANCH   5   8
HETATM    8  C   UNL     1      -6.332  13.402  66.536  1.00  0.00     2.683 C  
BRANCH   8   9
HETATM    9  S   UNL     1      -8.046  13.590  65.963  1.00  0.00     2.419 SA 
BRANCH   9  10
HETATM   10  C   UNL     1      -8.569  15.319  66.497  1.00  0.00    -0.229 C  
BRANCH  10  11
HETATM   11  C   UNL     1      -7.685  15.835  67.671  1.00  0.00    -0.174 A  
HETATM   12  C   UNL     1      -6.165  16.840  69.860  1.00  0.00    -0.149 A  
HETATM   13  C   UNL     1      -6.545  16.646  67.474  1.00  0.00    -0.154 A  
HETATM   14  C   UNL     1      -7.998  15.531  69.018  1.00  0.00    -0.205 A  
HETATM   15  C   UNL     1      -5.813  17.166  68.556  1.00  0.00    -0.142 A  
HETATM   16 CL   UNL     1      -5.256  17.453  71.185  1.00  0.00    -0.211 Cl 
HETATM   17 CL   UNL     1      -5.938  17.041  65.902  1.00  0.00     0.367 Cl 
HETATM   18  C   UNL     1      -7.244  16.009  70.095  1.00  0.00     0.610 A  
ENDBRANCH  10  11
BRANCH  10  19
HETATM   19  C   UNL     1     -10.093  15.416  66.775  1.00  0.00    -0.262 C  
BRANCH  19  20
HETATM   20  N   UNL     1     -10.864  16.034  65.718  1.00  0.00    -0.275 NA 
HETATM   21  C   UNL     1     -11.389  15.410  64.623  1.00  0.00    -0.355 A  
HETATM   22  N   UNL     1     -11.855  17.618  64.536  1.00  0.00     1.526 NA 
HETATM   23  C   UNL     1     -11.942  16.417  63.876  1.00  0.00     1.236 A  
HETATM   24  C   UNL     1     -11.226  17.348  65.657  1.00  0.00     0.621 A  
ENDBRANCH  19  20
ENDBRANCH  10  19
ENDBRANCH   9  10
ENDBRANCH   8   9
ENDBRANCH   5   8
TORSDOF 6
ENDMDL
MODEL      333
REMARK 921   NORMALIZED FREE ENERGY PREDICTED BY IDOCK:   10.47 KCAL/MOL
REMARK 922        TOTAL FREE ENERGY PREDICTED BY IDOCK:   13.22 KCAL/MOL
REMARK 923 INTER-LIGAND FREE ENERGY PREDICTED BY IDOCK:   12.04 KCAL/MOL
REMARK 924 INTRA-LIGAND FREE ENERGY PREDICTED BY IDOCK:    1.19 KCAL/MOL
REMARK 927      BINDING AFFINITY PREDICTED BY RF-SCORE:    0.00 PKD
ROOT
HETATM    1 CL   UNL     1     -11.972  18.544  64.177  1.00  0.00     6.940 Cl 
HETATM    2  C   UNL     1     -11.697  17.202  65.218  1.00  0.00     1.770 A  
HETATM    3  C   UNL     1     -10.489  16.514  65.156  1.00  0.00    -0.169 A  
HETATM    4  C   UNL     1     -10.268  15.418  66.001  1.00  0.00    -0.343 A  
HETATM    5  C   UNL     1     -11.261  14.995  66.903  1.00  0.00    -0.323 A  
HETATM    6  C   UNL     1     -12.464  15.718  66.964  1.00  0.00     1.834 A  
HETATM    7  C   UNL     1     -12.682  16.813  66.123  1.00  0.00     5.452 A  
ENDROOT
BRANCH   5   8
HETATM    8  C   UNL     1     -11.004  13.832  67.846  1.00  0.00    -0.253 C  
BRANCH   8   9
HETATM    9  S   UNL     1      -9.333  13.183  67.548  1.00  0.00    -0.217 SA 
BRANCH   9  10
HETATM   10  C   UNL     1      -9.580  11.570  66.607  1.00  0.00    -0.197 C  
BRANCH  10  11
HETATM   11  C   UNL     1      -8.475  10.535  66.969  1.00  0.00    -0.128 A  
HETATM   12  C   UNL     1      -6.527   8.594  67.713  1.00  0.00    -0.061 A  
HETATM   13  C   UNL     1      -7.221  10.907  67.505  1.00  0.00    -0.095 A  
HETATM   14  C   UNL     1      -8.681   9.145  66.797  1.00  0.00    -0.138 A  
HETATM   15  C   UNL     1      -6.272   9.947  67.899  1.00  0.00    -0.051 A  
HETATM   16 CL   UNL     1      -5.358   7.418  68.170  1.00  0.00    -0.024 Cl 
HETATM   17 CL   UNL     1      -6.736  12.558  67.692  1.00  0.00    -0.120 Cl 
HETATM   18  C   UNL     1      -7.721   8.189  67.146  1.00  0.00    -0.097 A  
ENDBRANCH  10  11
BRANCH  10  19
HETATM   19  C   UNL     1      -9.746  11.796  65.081  1.00  0.00    -0.203 C  
BRANCH  19  20
HETATM   20  N   UNL     1     -11.013  12.375  64.687  1.00  0.00    -0.292 NA 
HETATM   21  C   UNL     1     -12.156  12.412  65.433  1.00  0.00    -0.365 A  
HETATM   22  N   UNL     1     -12.533  13.357  63.416  1.00  0.00    -0.739 NA 
HETATM   23  C   UNL     1     -13.098  12.966  64.605  1.00  0.00     0.054 A  
HETATM   24  C   UNL     1     -11.268  13.012  63.509  1.00  0.00    -0.198 A  
ENDBRANCH  19  20
ENDBRANCH  10  19
ENDBRANCH   9  10
ENDBRANCH   8   9
ENDBRANCH   5   8
TORSDOF 6
ENDMDL
MODEL      334
REMARK 921   NORMALIZED FREE ENERGY PREDICTED BY IDOCK:   12.48 KCAL/MOL
REMARK 922        TOTAL FREE ENERGY PREDICTED BY IDOCK:   15.93 KCAL/MOL
REMARK 923 INTER-LIGAND FREE ENERGY PREDICTED BY IDOCK:    5.74 KCAL/MOL
REMARK 924 INTRA-LIGAND FREE ENERGY PREDICTED BY IDOCK:   10.19 KCAL/MOL
REMARK 927      BINDING AFFINITY PREDICTED BY RF-SCORE:    0.00 PKD
ROOT
HETATM    1 CL   UNL     1     -11.089  18.701  70.414  1.00  0.00     2.824 Cl 
HETATM    2  C   UNL     1     -10.816  17.562  69.154  1.00  0.00     0.222 A  
HETATM    3  C   UNL     1     -11.264  17.835  67.865  1.00  0.00     0.267 A  
HETATM    4  C   UNL     1     -11.046  16.904  66.841  1.00  0.00     0.244 A  
HETATM    5  C   UNL     1     -10.390  15.688  67.103  1.00  0.00    -0.285 A  
HETATM    6  C   UNL     1      -9.927  15.443  68.406  1.00  0.00    -0.215 A  
HETATM    7  C   UNL     1     -10.143  16.374  69.427  1.00  0.00    -0.243 A  
ENDROOT
BRANCH   5   8
HETATM    8  C   UNL     1     -10.119  14.698  65.983  1.00  0.00    -0.311 C  
BRANCH   8   9
HETATM    9  S   UNL     1      -9.036  13.379  66.606  1.00  0.00    -0.109 SA 
BRANCH   9  10
HETATM   10  C   UNL     1      -9.101  13.519  68.484  1.00  0.00    -0.092 C  
BRANCH  10  11
HETATM   11  C   UNL     1      -8.086  14.580  69.002  1.00  0.00    -0.085 A  
HETATM   12  C   UNL     1      -6.322  16.588  69.987  1.00  0.00    -0.015 A  
HETATM   13  C   UNL     1      -7.188  15.263  68.151  1.00  0.00    -0.120 A  
HETATM   14  C   UNL     1      -8.025  14.935  70.371  1.00  0.00     0.955 A  
HETATM   15  C   UNL     1      -6.339  16.274  68.633  1.00  0.00    -0.124 A  
HETATM   16 CL   UNL     1      -5.266  17.807  70.584  1.00  0.00    -0.269 Cl 
HETATM   17 CL   UNL     1      -7.034  14.898  66.467  1.00  0.00     1.484 Cl 
HETATM   18  C   UNL     1      -7.149  15.909  70.862  1.00  0.00     2.016 A  
ENDBRANCH  10  11
BRANCH  10  19
HETATM   19  C   UNL     1      -8.973  12.140  69.184  1.00  0.00     0.597 C  
BRANCH  19  20
HETATM   20  N   UNL     1      -9.766  11.084  68.592  1.00  0.00    -0.190 NA 
HETATM   21  C   UNL     1      -9.592   9.741  68.767  1.00  0.00    -0.154 A  
HETATM   22  N   UNL     1     -11.305  10.106  67.341  1.00  0.00    -0.188 NA 
HETATM   23  C   UNL     1     -10.512   9.156  67.937  1.00  0.00    -0.237 A  
HETATM   24  C   UNL     1     -10.848  11.257  67.779  1.00  0.00    -0.235 A  
ENDBRANCH  19  20
ENDBRANCH  10  19
ENDBRANCH   9  10
ENDBRANCH   8   9
ENDBRANCH   5   8
TORSDOF 6
ENDMDL
MODEL      335
REMARK 921   NORMALIZED FREE ENERGY PREDICTED BY IDOCK:   14.03 KCAL/MOL
REMARK 922        TOTAL FREE ENERGY PREDICTED BY IDOCK:   18.02 KCAL/MOL
REMARK 923 INTER-LIGAND FREE ENERGY PREDICTED BY IDOCK:   12.64 KCAL/MOL
REMARK 924 INTRA-LIGAND FREE ENERGY PREDICTED BY IDOCK:    5.38 KCAL/MOL
REMARK 927      BINDING AFFINITY PREDICTED BY RF-SCORE:    0.00 PKD
ROOT
HETATM    1 CL   UNL     1     -11.972  18.544  64.177  1.00  0.00     6.940 Cl 
HETATM    2  C   UNL     1     -11.697  17.202  65.218  1.00  0.00     1.770 A  
HETATM    3  C   UNL     1     -10.489  16.514  65.156  1.00  0.00    -0.169 A  
HETATM    4  C   UNL     1     -10.268  15.418  66.001  1.00  0.00    -0.343 A  
HETATM    5  C   UNL     1     -11.261  14.995  66.903  1.00  0.00    -0.323 A  
HETATM    6  C   UNL     1     -12.464  15.718  66.964  1.00  0.00     1.834 A  
HETATM    7  C   UNL     1     -12.682  16.813  66.123  1.00  0.00     5.452 A  
ENDROOT
BRANCH   5   8
HETATM    8  C   UNL     1     -11.004  13.832  67.846  1.00  0.00    -0.253 C  
BRANCH   8   9
HETATM    9  S   UNL     1      -9.333  13.183  67.548  1.00  0.00    -0.217 SA 
BRANCH   9  10
HETATM   10  C   UNL     1      -9.580  11.570  66.607  1.00  0.00    -0.197 C  
BRANCH  10  11
HETATM   11  C   UNL     1      -8.475  10.535  66.969  1.00  0.00    -0.128 A  
HETATM   12  C   UNL     1      -6.532   8.584  67.702  1.00  0.00    -0.057 A  
HETATM   13  C   UNL     1      -7.282  10.889  67.639  1.00  0.00    -0.093 A  
HETATM   14  C   UNL     1      -8.620   9.161  66.659  1.00  0.00    -0.135 A  
HETATM   15  C   UNL     1      -6.338   9.922  68.026  1.00  0.00    -0.055 A  
HETATM   16 CL   UNL     1      -5.367   7.402  68.151  1.00  0.00    -0.024 Cl 
HETATM   17 CL   UNL     1      -6.868  12.528  68.011  1.00  0.00    -0.082 Cl 
HETATM   18  C   UNL     1      -7.662   8.203  67.003  1.00  0.00    -0.096 A  
ENDBRANCH  10  11
BRANCH  10  19
HETATM   19  C   UNL     1      -9.746  11.796  65.081  1.00  0.00    -0.203 C  
BRANCH  19  20
HETATM   20  N   UNL     1      -9.091  10.812  64.247  1.00  0.00    -0.203 NA 
HETATM   21  C   UNL     1      -8.100   9.954  64.627  1.00  0.00    -0.152 A  
HETATM   22  N   UNL     1      -8.561   9.659  62.436  1.00  0.00    -0.180 NA 
HETATM   23  C   UNL     1      -7.744   9.296  63.478  1.00  0.00    -0.119 A  
HETATM   24  C   UNL     1      -9.381  10.553  62.939  1.00  0.00    -0.326 A  
ENDBRANCH  19  20
ENDBRANCH  10  19
ENDBRANCH   9  10
ENDBRANCH   8   9
ENDBRANCH   5   8
TORSDOF 6
ENDMDL
MODEL      336
REMARK 921   NORMALIZED FREE ENERGY PREDICTED BY IDOCK:   15.13 KCAL/MOL
REMARK 922        TOTAL FREE ENERGY PREDICTED BY IDOCK:   19.51 KCAL/MOL
REMARK 923 INTER-LIGAND FREE ENERGY PREDICTED BY IDOCK:    6.28 KCAL/MOL
REMARK 924 INTRA-LIGAND FREE ENERGY PREDICTED BY IDOCK:   13.23 KCAL/MOL
REMARK 927      BINDING AFFINITY PREDICTED BY RF-SCORE:    0.00 PKD
ROOT
HETATM    1 CL   UNL     1     -13.781  13.126  65.575  1.00  0.00     1.736 Cl 
HETATM    2  C   UNL     1     -12.503  14.242  65.860  1.00  0.00    -0.383 A  
HETATM    3  C   UNL     1     -11.395  14.256  65.016  1.00  0.00    -0.365 A  
HETATM    4  C   UNL     1     -10.352  15.162  65.253  1.00  0.00    -0.425 A  
HETATM    5  C   UNL     1     -10.405  16.050  66.343  1.00  0.00    -0.312 A  
HETATM    6  C   UNL     1     -11.542  16.033  67.167  1.00  0.00     0.377 A  
HETATM    7  C   UNL     1     -12.583  15.130  66.929  1.00  0.00     1.135 A  
ENDROOT
BRANCH   5   8
HETATM    8  C   UNL     1      -9.292  17.058  66.573  1.00  0.00    -0.269 C  
BRANCH   8   9
HETATM    9  S   UNL     1      -7.840  16.196  67.244  1.00  0.00    -0.197 SA 
BRANCH   9  10
HETATM   10  C   UNL     1      -8.481  15.187  68.699  1.00  0.00    -0.170 C  
BRANCH  10  11
HETATM   11  C   UNL     1      -9.229  13.912  68.212  1.00  0.00    -0.207 A  
HETATM   12  C   UNL     1     -10.673  11.649  67.257  1.00  0.00    -0.238 A  
HETATM   13  C   UNL     1      -9.892  13.028  69.093  1.00  0.00     0.456 A  
HETATM   14  C   UNL     1      -9.302  13.579  66.837  1.00  0.00    -0.255 A  
HETATM   15  C   UNL     1     -10.630  11.929  68.618  1.00  0.00    -0.259 A  
HETATM   16 CL   UNL     1     -11.553  10.291  66.676  1.00  0.00     0.905 Cl 
HETATM   17 CL   UNL     1      -9.831  13.200  70.813  1.00  0.00     5.528 Cl 
HETATM   18  C   UNL     1      -9.997  12.461  66.366  1.00  0.00    -0.254 A  
ENDBRANCH  10  11
BRANCH  10  19
HETATM   19  C   UNL     1      -9.301  16.047  69.698  1.00  0.00    -0.040 C  
BRANCH  19  20
HETATM   20  N   UNL     1      -9.699  17.345  69.197  1.00  0.00    -0.170 NA 
HETATM   21  C   UNL     1      -9.052  18.529  69.402  1.00  0.00     0.365 A  
HETATM   22  N   UNL     1     -10.918  18.885  68.181  1.00  0.00     0.020 NA 
HETATM   23  C   UNL     1      -9.855  19.474  68.819  1.00  0.00    -0.451 A  
HETATM   24  C   UNL     1     -10.779  17.597  68.403  1.00  0.00    -0.242 A  
ENDBRANCH  19  20
ENDBRANCH  10  19
ENDBRANCH   9  10
ENDBRANCH   8   9
ENDBRANCH   5   8
TORSDOF 6
ENDMDL
MODEL      337
REMARK 921   NORMALIZED FREE ENERGY PREDICTED BY IDOCK:   42.64 KCAL/MOL
REMARK 922        TOTAL FREE ENERGY PREDICTED BY IDOCK:   56.68 KCAL/MOL
REMARK 923 INTER-LIGAND FREE ENERGY PREDICTED BY IDOCK:   38.73 KCAL/MOL
REMARK 924 INTRA-LIGAND FREE ENERGY PREDICTED BY IDOCK:   17.95 KCAL/MOL
REMARK 927      BINDING AFFINITY PREDICTED BY RF-SCORE:    0.00 PKD
ROOT
HETATM    1 CL   UNL     1      -9.250  18.742  71.527  1.00  0.00     5.980 Cl 
HETATM    2  C   UNL     1      -9.318  17.539  70.300  1.00  0.00     2.525 A  
HETATM    3  C   UNL     1      -9.695  17.890  69.006  1.00  0.00    -0.197 A  
HETATM    4  C   UNL     1      -9.756  16.908  68.009  1.00  0.00    -0.256 A  
HETATM    5  C   UNL     1      -9.453  15.566  68.302  1.00  0.00    -0.200 A  
HETATM    6  C   UNL     1      -9.053  15.239  69.608  1.00  0.00    -0.130 A  
HETATM    7  C   UNL     1      -8.990  16.220  70.603  1.00  0.00     2.825 A  
ENDROOT
BRANCH   5   8
HETATM    8  C   UNL     1      -9.480  14.511  67.210  1.00  0.00    -0.217 C  
BRANCH   8   9
HETATM    9  S   UNL     1      -9.139  12.886  67.946  1.00  0.00    -0.208 SA 
BRANCH   9  10
HETATM   10  C   UNL     1      -9.668  13.029  69.749  1.00  0.00     1.993 C  
BRANCH  10  11
HETATM   11  C   UNL     1      -8.540  13.660  70.616  1.00  0.00     4.996 A  
HETATM   12  C   UNL     1      -6.453  14.705  72.251  1.00  0.00     1.291 A  
HETATM   13  C   UNL     1      -8.786  14.654  71.590  1.00  0.00     5.233 A  
HETATM   14  C   UNL     1      -7.191  13.248  70.486  1.00  0.00     2.070 A  
HETATM   15  C   UNL     1      -7.761  15.147  72.417  1.00  0.00     6.062 A  
HETATM   16 CL   UNL     1      -5.193  15.325  73.243  1.00  0.00     0.368 Cl 
HETATM   17 CL   UNL     1     -10.345  15.364  71.829  1.00  0.00     0.879 Cl 
HETATM   18  C   UNL     1      -6.162  13.770  71.275  1.00  0.00     0.282 A  
ENDBRANCH  10  11
BRANCH  10  19
HETATM   19  C   UNL     1     -10.212  11.689  70.312  1.00  0.00     2.184 C  
BRANCH  19  20
HETATM   20  N   UNL     1     -10.967  10.894  69.367  1.00  0.00    -0.237 NA 
HETATM   21  C   UNL     1     -10.799   9.565  69.106  1.00  0.00    -0.173 A  
HETATM   22  N   UNL     1     -12.429  10.401  67.784  1.00  0.00     2.289 NA 
HETATM   23  C   UNL     1     -11.669   9.296  68.082  1.00  0.00     1.615 A  
HETATM   24  C   UNL     1     -12.001  11.340  68.597  1.00  0.00    -0.243 A  
ENDBRANCH  19  20
ENDBRANCH  10  19
ENDBRANCH   9  10
ENDBRANCH   8   9
ENDBRANCH   5   8
TORSDOF 6
ENDMDL
