MODEL        1
REMARK 921   NORMALIZED FREE ENERGY PREDICTED BY IDOCK:   -6.91 KCAL/MOL
REMARK 922        TOTAL FREE ENERGY PREDICTED BY IDOCK:   -8.44 KCAL/MOL
REMARK 923 INTER-LIGAND FREE ENERGY PREDICTED BY IDOCK:   -8.12 KCAL/MOL
REMARK 924 INTRA-LIGAND FREE ENERGY PREDICTED BY IDOCK:   -0.32 KCAL/MOL
REMARK 927      BINDING AFFINITY PREDICTED BY RF-SCORE:    0.00 PKD
ROOT
HETATM    1  N   UNL     1     -11.446   9.838  69.648  1.00  0.00    -0.433 NA 
HETATM    2  H2  UNL     1     -12.330   9.831  70.156  1.00  0.00     0.000 HD 
HETATM    3  C   UNL     1     -11.526  10.803  68.636  1.00  0.00    -0.295 A  
HETATM    4  H1  UNL     1     -11.198   8.876  69.418  1.00  0.00     0.000 HD 
HETATM    5  C   UNL     1     -11.865  12.123  68.951  1.00  0.00    -0.358 A  
HETATM    6  C   UNL     1     -11.853  13.119  67.969  1.00  0.00    -0.398 A  
HETATM    7  C   UNL     1     -11.441  12.802  66.672  1.00  0.00    -0.350 A  
HETATM    8  C   UNL     1     -11.030  11.506  66.360  1.00  0.00    -0.336 A  
HETATM    9  C   UNL     1     -11.055  10.517  67.351  1.00  0.00    -0.322 A  
ENDROOT
BRANCH   7  10
HETATM   10  S   UNL     1     -11.470  14.062  65.419  1.00  0.00    -0.327 S  
HETATM   11  O   UNL     1     -10.486  13.757  64.405  1.00  0.00    -0.422 OA 
HETATM   12  O   UNL     1     -12.861  14.265  65.066  1.00  0.00    -0.674 OA 
BRANCH  10  13
HETATM   13  N   UNL     1     -11.008  15.454  66.209  1.00  0.00    -0.311 N  
HETATM   14  H   UNL     1     -10.785  15.392  67.203  1.00  0.00     0.000 HD 
HETATM   15  C   UNL     1     -10.908  16.704  65.585  1.00  0.00    -0.137 C  
HETATM   16  O   UNL     1     -11.146  16.883  64.402  1.00  0.00    -1.128 OA 
BRANCH  15  17
HETATM   17  C   UNL     1     -10.445  17.825  66.441  1.00  0.00    -0.297 A  
HETATM   18  C   UNL     1     -10.427  19.104  65.866  1.00  0.00    -0.500 A  
HETATM   19  C   UNL     1     -10.017  20.208  66.612  1.00  0.00    -0.595 A  
HETATM   20  C   UNL     1      -9.631  20.043  67.940  1.00  0.00    -0.488 A  
HETATM   21  C   UNL     1      -9.645  18.773  68.520  1.00  0.00    -0.413 A  
HETATM   22  C   UNL     1     -10.045  17.659  67.772  1.00  0.00    -0.338 A  
ENDBRANCH  15  17
ENDBRANCH  10  13
ENDBRANCH   7  10
TORSDOF 3
ENDMDL
MODEL        2
REMARK 921   NORMALIZED FREE ENERGY PREDICTED BY IDOCK:   -6.85 KCAL/MOL
REMARK 922        TOTAL FREE ENERGY PREDICTED BY IDOCK:   -8.37 KCAL/MOL
REMARK 923 INTER-LIGAND FREE ENERGY PREDICTED BY IDOCK:   -8.06 KCAL/MOL
REMARK 924 INTRA-LIGAND FREE ENERGY PREDICTED BY IDOCK:   -0.32 KCAL/MOL
REMARK 927      BINDING AFFINITY PREDICTED BY RF-SCORE:    0.00 PKD
ROOT
HETATM    1  N   UNL     1     -11.362   9.669  69.506  1.00  0.00    -0.434 NA 
HETATM    2  H2  UNL     1     -10.468   9.178  69.501  1.00  0.00     0.000 HD 
HETATM    3  C   UNL     1     -11.301  10.708  68.568  1.00  0.00    -0.284 A  
HETATM    4  H1  UNL     1     -11.616   9.869  70.473  1.00  0.00     0.000 HD 
HETATM    5  C   UNL     1     -10.954  10.435  67.241  1.00  0.00    -0.306 A  
HETATM    6  C   UNL     1     -10.984  11.443  66.272  1.00  0.00    -0.303 A  
HETATM    7  C   UNL     1     -11.422  12.723  66.623  1.00  0.00    -0.350 A  
HETATM    8  C   UNL     1     -11.839  12.992  67.926  1.00  0.00    -0.389 A  
HETATM    9  C   UNL     1     -11.797  11.975  68.888  1.00  0.00    -0.356 A  
ENDROOT
BRANCH   7  10
HETATM   10  S   UNL     1     -11.415  14.009  65.397  1.00  0.00    -0.327 S  
HETATM   11  O   UNL     1     -10.451  13.691  64.368  1.00  0.00    -0.432 OA 
HETATM   12  O   UNL     1     -12.801  14.269  65.059  1.00  0.00    -0.674 OA 
BRANCH  10  13
HETATM   13  N   UNL     1     -10.898  15.367  66.211  1.00  0.00    -0.313 N  
HETATM   14  H   UNL     1     -10.651  15.272  67.196  1.00  0.00     0.000 HD 
HETATM   15  C   UNL     1     -10.784  16.631  65.619  1.00  0.00    -0.214 C  
HETATM   16  O   UNL     1     -11.050  16.849  64.448  1.00  0.00    -1.128 OA 
BRANCH  15  17
HETATM   17  C   UNL     1     -10.271  17.716  66.492  1.00  0.00    -0.355 A  
HETATM   18  C   UNL     1     -10.460  19.035  66.052  1.00  0.00    -0.530 A  
HETATM   19  C   UNL     1     -10.018  20.107  66.825  1.00  0.00    -0.604 A  
HETATM   20  C   UNL     1      -9.390  19.870  68.046  1.00  0.00    -0.431 A  
HETATM   21  C   UNL     1      -9.196  18.561  68.491  1.00  0.00    -0.360 A  
HETATM   22  C   UNL     1      -9.630  17.480  67.714  1.00  0.00    -0.269 A  
ENDBRANCH  15  17
ENDBRANCH  10  13
ENDBRANCH   7  10
TORSDOF 3
ENDMDL
MODEL        3
REMARK 921   NORMALIZED FREE ENERGY PREDICTED BY IDOCK:   -6.78 KCAL/MOL
REMARK 922        TOTAL FREE ENERGY PREDICTED BY IDOCK:   -8.29 KCAL/MOL
REMARK 923 INTER-LIGAND FREE ENERGY PREDICTED BY IDOCK:   -8.10 KCAL/MOL
REMARK 924 INTRA-LIGAND FREE ENERGY PREDICTED BY IDOCK:   -0.19 KCAL/MOL
REMARK 927      BINDING AFFINITY PREDICTED BY RF-SCORE:    0.00 PKD
ROOT
HETATM    1  N   UNL     1     -12.650  11.379  62.941  1.00  0.00    -0.847 NA 
HETATM    2  H2  UNL     1     -13.516  11.752  62.550  1.00  0.00     0.000 HD 
HETATM    3  C   UNL     1     -12.111  12.334  63.813  1.00  0.00    -0.532 A  
HETATM    4  H1  UNL     1     -12.086  11.008  62.178  1.00  0.00     0.000 HD 
HETATM    5  C   UNL     1     -12.886  12.844  64.860  1.00  0.00    -0.370 A  
HETATM    6  C   UNL     1     -12.333  13.722  65.797  1.00  0.00    -0.523 A  
HETATM    7  C   UNL     1     -10.976  14.048  65.719  1.00  0.00    -0.294 A  
HETATM    8  C   UNL     1     -10.174  13.491  64.723  1.00  0.00    -0.355 A  
HETATM    9  C   UNL     1     -10.743  12.618  63.787  1.00  0.00    -0.454 A  
ENDROOT
BRANCH   7  10
HETATM   10  S   UNL     1     -10.290  15.199  66.887  1.00  0.00    -0.277 S  
HETATM   11  O   UNL     1      -8.878  14.935  67.052  1.00  0.00    -0.205 OA 
HETATM   12  O   UNL     1     -10.759  16.514  66.498  1.00  0.00    -0.260 OA 
BRANCH  10  13
HETATM   13  N   UNL     1     -11.067  14.860  68.320  1.00  0.00    -0.270 N  
HETATM   14  H   UNL     1     -11.526  13.954  68.417  1.00  0.00     0.000 HD 
HETATM   15  C   UNL     1     -11.126  15.749  69.400  1.00  0.00    -0.314 C  
HETATM   16  O   UNL     1     -10.606  16.854  69.389  1.00  0.00    -0.337 OA 
BRANCH  15  17
HETATM   17  C   UNL     1     -11.832  15.260  70.611  1.00  0.00    -0.376 A  
HETATM   18  C   UNL     1     -11.807  16.086  71.744  1.00  0.00    -0.599 A  
HETATM   19  C   UNL     1     -12.459  15.700  72.914  1.00  0.00    -0.544 A  
HETATM   20  C   UNL     1     -13.147  14.489  72.957  1.00  0.00    -0.611 A  
HETATM   21  C   UNL     1     -13.176  13.660  71.834  1.00  0.00    -0.497 A  
HETATM   22  C   UNL     1     -12.513  14.038  70.660  1.00  0.00    -0.435 A  
ENDBRANCH  15  17
ENDBRANCH  10  13
ENDBRANCH   7  10
TORSDOF 3
ENDMDL
MODEL        4
REMARK 921   NORMALIZED FREE ENERGY PREDICTED BY IDOCK:   -6.76 KCAL/MOL
REMARK 922        TOTAL FREE ENERGY PREDICTED BY IDOCK:   -8.27 KCAL/MOL
REMARK 923 INTER-LIGAND FREE ENERGY PREDICTED BY IDOCK:   -8.37 KCAL/MOL
REMARK 924 INTRA-LIGAND FREE ENERGY PREDICTED BY IDOCK:    0.11 KCAL/MOL
REMARK 927      BINDING AFFINITY PREDICTED BY RF-SCORE:    0.00 PKD
ROOT
HETATM    1  N   UNL     1     -11.421  16.453  63.624  1.00  0.00    -1.178 NA 
HETATM    2  H2  UNL     1     -12.294  16.980  63.670  1.00  0.00     0.000 HD 
HETATM    3  C   UNL     1     -11.384  15.562  64.704  1.00  0.00    -0.357 A  
HETATM    4  H1  UNL     1     -10.655  17.111  63.478  1.00  0.00     0.000 HD 
HETATM    5  C   UNL     1     -12.434  14.660  64.905  1.00  0.00    -0.266 A  
HETATM    6  C   UNL     1     -12.368  13.698  65.918  1.00  0.00    -0.516 A  
HETATM    7  C   UNL     1     -11.214  13.601  66.700  1.00  0.00    -0.313 A  
HETATM    8  C   UNL     1     -10.130  14.447  66.466  1.00  0.00    -0.281 A  
HETATM    9  C   UNL     1     -10.213  15.410  65.452  1.00  0.00    -0.408 A  
ENDROOT
BRANCH   7  10
HETATM   10  S   UNL     1     -11.155  12.406  68.015  1.00  0.00    -0.265 S  
HETATM   11  O   UNL     1     -11.927  11.241  67.643  1.00  0.00    -0.634 OA 
HETATM   12  O   UNL     1      -9.763  12.281  68.400  1.00  0.00    -0.213 OA 
BRANCH  10  13
HETATM   13  N   UNL     1     -11.903  13.154  69.301  1.00  0.00    -0.320 N  
HETATM   14  H   UNL     1     -12.739  12.719  69.691  1.00  0.00     0.000 HD 
HETATM   15  C   UNL     1     -11.448  14.347  69.877  1.00  0.00    -0.260 C  
HETATM   16  O   UNL     1     -10.455  14.943  69.489  1.00  0.00    -0.237 OA 
BRANCH  15  17
HETATM   17  C   UNL     1     -12.222  14.846  71.040  1.00  0.00    -0.379 A  
HETATM   18  C   UNL     1     -11.491  15.344  72.129  1.00  0.00    -0.525 A  
HETATM   19  C   UNL     1     -12.149  15.843  73.252  1.00  0.00    -0.601 A  
HETATM   20  C   UNL     1     -13.541  15.855  73.292  1.00  0.00    -0.512 A  
HETATM   21  C   UNL     1     -14.277  15.361  72.213  1.00  0.00    -0.639 A  
HETATM   22  C   UNL     1     -13.621  14.848  71.087  1.00  0.00    -0.467 A  
ENDBRANCH  15  17
ENDBRANCH  10  13
ENDBRANCH   7  10
TORSDOF 3
ENDMDL
MODEL        5
REMARK 921   NORMALIZED FREE ENERGY PREDICTED BY IDOCK:   -6.60 KCAL/MOL
REMARK 922        TOTAL FREE ENERGY PREDICTED BY IDOCK:   -8.08 KCAL/MOL
REMARK 923 INTER-LIGAND FREE ENERGY PREDICTED BY IDOCK:   -7.95 KCAL/MOL
REMARK 924 INTRA-LIGAND FREE ENERGY PREDICTED BY IDOCK:   -0.14 KCAL/MOL
REMARK 927      BINDING AFFINITY PREDICTED BY RF-SCORE:    0.00 PKD
ROOT
HETATM    1  N   UNL     1     -12.449  14.006  63.249  1.00  0.00    -1.112 NA 
HETATM    2  H2  UNL     1     -11.792  14.165  62.485  1.00  0.00     0.000 HD 
HETATM    3  C   UNL     1     -11.718  13.744  64.414  1.00  0.00    -0.408 A  
HETATM    4  H1  UNL     1     -13.159  13.346  62.931  1.00  0.00     0.000 HD 
HETATM    5  C   UNL     1     -10.746  14.650  64.851  1.00  0.00    -0.447 A  
HETATM    6  C   UNL     1     -10.077  14.453  66.063  1.00  0.00    -0.338 A  
HETATM    7  C   UNL     1     -10.427  13.371  66.875  1.00  0.00    -0.273 A  
HETATM    8  C   UNL     1     -11.446  12.500  66.487  1.00  0.00    -0.418 A  
HETATM    9  C   UNL     1     -12.101  12.705  65.267  1.00  0.00    -0.519 A  
ENDROOT
BRANCH   7  10
HETATM   10  S   UNL     1      -9.544  13.103  68.393  1.00  0.00    -0.139 S  
HETATM   11  O   UNL     1      -9.531  11.690  68.701  1.00  0.00    -0.186 OA 
HETATM   12  O   UNL     1      -8.305  13.851  68.291  1.00  0.00    -0.151 OA 
BRANCH  10  13
HETATM   13  N   UNL     1     -10.442  13.894  69.551  1.00  0.00    -0.422 N  
HETATM   14  H   UNL     1     -10.153  14.833  69.827  1.00  0.00     0.000 HD 
HETATM   15  C   UNL     1     -11.573  13.343  70.167  1.00  0.00    -0.100 C  
HETATM   16  O   UNL     1     -12.004  12.231  69.905  1.00  0.00    -0.324 OA 
BRANCH  15  17
HETATM   17  C   UNL     1     -12.268  14.210  71.150  1.00  0.00    -0.435 A  
HETATM   18  C   UNL     1     -11.519  15.241  71.736  1.00  0.00    -0.494 A  
HETATM   19  C   UNL     1     -12.107  16.106  72.658  1.00  0.00    -0.652 A  
HETATM   20  C   UNL     1     -13.450  15.951  72.995  1.00  0.00    -0.653 A  
HETATM   21  C   UNL     1     -14.203  14.927  72.417  1.00  0.00    -0.494 A  
HETATM   22  C   UNL     1     -13.614  14.049  71.498  1.00  0.00    -0.382 A  
ENDBRANCH  15  17
ENDBRANCH  10  13
ENDBRANCH   7  10
TORSDOF 3
ENDMDL
MODEL        6
REMARK 921   NORMALIZED FREE ENERGY PREDICTED BY IDOCK:   -6.56 KCAL/MOL
REMARK 922        TOTAL FREE ENERGY PREDICTED BY IDOCK:   -8.03 KCAL/MOL
REMARK 923 INTER-LIGAND FREE ENERGY PREDICTED BY IDOCK:   -7.99 KCAL/MOL
REMARK 924 INTRA-LIGAND FREE ENERGY PREDICTED BY IDOCK:   -0.04 KCAL/MOL
REMARK 927      BINDING AFFINITY PREDICTED BY RF-SCORE:    0.00 PKD
ROOT
HETATM    1  N   UNL     1      -9.469   8.486  65.771  1.00  0.00    -0.431 NA 
HETATM    2  H2  UNL     1      -8.553   8.536  65.325  1.00  0.00     0.000 HD 
HETATM    3  C   UNL     1      -9.977   9.786  65.884  1.00  0.00    -0.275 A  
HETATM    4  H1  UNL     1      -9.393   7.893  66.598  1.00  0.00     0.000 HD 
HETATM    5  C   UNL     1     -10.082  10.600  64.751  1.00  0.00    -0.412 A  
HETATM    6  C   UNL     1     -10.678  11.862  64.829  1.00  0.00    -0.356 A  
HETATM    7  C   UNL     1     -11.227  12.291  66.040  1.00  0.00    -0.332 A  
HETATM    8  C   UNL     1     -11.194  11.462  67.161  1.00  0.00    -0.363 A  
HETATM    9  C   UNL     1     -10.588  10.203  67.071  1.00  0.00    -0.290 A  
ENDROOT
BRANCH   7  10
HETATM   10  S   UNL     1     -11.943  13.914  66.142  1.00  0.00    -0.447 S  
HETATM   11  O   UNL     1     -10.912  14.910  65.957  1.00  0.00    -0.323 OA 
HETATM   12  O   UNL     1     -13.123  13.902  65.299  1.00  0.00    -0.777 OA 
BRANCH  10  13
HETATM   13  N   UNL     1     -12.518  14.025  67.702  1.00  0.00    -0.445 N  
HETATM   14  H   UNL     1     -13.513  13.865  67.861  1.00  0.00     0.000 HD 
HETATM   15  C   UNL     1     -11.712  14.326  68.807  1.00  0.00    -0.343 C  
HETATM   16  O   UNL     1     -10.511  14.529  68.725  1.00  0.00    -0.235 OA 
BRANCH  15  17
HETATM   17  C   UNL     1     -12.393  14.346  70.125  1.00  0.00    -0.406 A  
HETATM   18  C   UNL     1     -12.559  13.116  70.778  1.00  0.00    -0.338 A  
HETATM   19  C   UNL     1     -13.177  13.056  72.026  1.00  0.00    -0.543 A  
HETATM   20  C   UNL     1     -13.627  14.226  72.633  1.00  0.00    -0.601 A  
HETATM   21  C   UNL     1     -13.468  15.455  71.990  1.00  0.00    -0.564 A  
HETATM   22  C   UNL     1     -12.857  15.519  70.732  1.00  0.00    -0.513 A  
ENDBRANCH  15  17
ENDBRANCH  10  13
ENDBRANCH   7  10
TORSDOF 3
ENDMDL
MODEL        7
REMARK 921   NORMALIZED FREE ENERGY PREDICTED BY IDOCK:   -6.47 KCAL/MOL
REMARK 922        TOTAL FREE ENERGY PREDICTED BY IDOCK:   -7.93 KCAL/MOL
REMARK 923 INTER-LIGAND FREE ENERGY PREDICTED BY IDOCK:   -7.57 KCAL/MOL
REMARK 924 INTRA-LIGAND FREE ENERGY PREDICTED BY IDOCK:   -0.36 KCAL/MOL
REMARK 927      BINDING AFFINITY PREDICTED BY RF-SCORE:    0.00 PKD
ROOT
HETATM    1  N   UNL     1     -12.573  11.007  71.438  1.00  0.00    -0.399 NA 
HETATM    2  H2  UNL     1     -13.401  11.412  71.876  1.00  0.00     0.000 HD 
HETATM    3  C   UNL     1     -12.322  11.696  70.244  1.00  0.00    -0.258 A  
HETATM    4  H1  UNL     1     -12.676   9.993  71.430  1.00  0.00     0.000 HD 
HETATM    5  C   UNL     1     -12.181  13.088  70.255  1.00  0.00    -0.368 A  
HETATM    6  C   UNL     1     -11.833  13.780  69.091  1.00  0.00    -0.398 A  
HETATM    7  C   UNL     1     -11.566  13.067  67.919  1.00  0.00    -0.342 A  
HETATM    8  C   UNL     1     -11.633  11.674  67.911  1.00  0.00    -0.369 A  
HETATM    9  C   UNL     1     -11.990  10.994  69.082  1.00  0.00    -0.394 A  
ENDROOT
BRANCH   7  10
HETATM   10  S   UNL     1     -11.168  13.956  66.433  1.00  0.00    -0.323 S  
HETATM   11  O   UNL     1      -9.938  13.438  65.875  1.00  0.00    -0.289 OA 
HETATM   12  O   UNL     1     -12.380  14.005  65.639  1.00  0.00    -0.427 OA 
BRANCH  10  13
HETATM   13  N   UNL     1     -10.906  15.523  66.934  1.00  0.00    -0.315 N  
HETATM   14  H   UNL     1     -10.946  15.721  67.934  1.00  0.00     0.000 HD 
HETATM   15  C   UNL     1     -10.636  16.583  66.061  1.00  0.00    -0.253 C  
HETATM   16  O   UNL     1     -10.561  16.451  64.849  1.00  0.00    -0.677 OA 
BRANCH  15  17
HETATM   17  C   UNL     1     -10.394  17.904  66.693  1.00  0.00    -0.362 A  
HETATM   18  C   UNL     1     -10.166  17.919  68.077  1.00  0.00    -0.381 A  
HETATM   19  C   UNL     1      -9.918  19.120  68.739  1.00  0.00    -0.493 A  
HETATM   20  C   UNL     1      -9.887  20.314  68.022  1.00  0.00    -0.447 A  
HETATM   21  C   UNL     1     -10.114  20.309  66.644  1.00  0.00    -0.538 A  
HETATM   22  C   UNL     1     -10.375  19.106  65.976  1.00  0.00    -0.538 A  
ENDBRANCH  15  17
ENDBRANCH  10  13
ENDBRANCH   7  10
TORSDOF 3
ENDMDL
MODEL        8
REMARK 921   NORMALIZED FREE ENERGY PREDICTED BY IDOCK:   -6.40 KCAL/MOL
REMARK 922        TOTAL FREE ENERGY PREDICTED BY IDOCK:   -7.85 KCAL/MOL
REMARK 923 INTER-LIGAND FREE ENERGY PREDICTED BY IDOCK:   -8.06 KCAL/MOL
REMARK 924 INTRA-LIGAND FREE ENERGY PREDICTED BY IDOCK:    0.21 KCAL/MOL
REMARK 927      BINDING AFFINITY PREDICTED BY RF-SCORE:    0.00 PKD
ROOT
HETATM    1  N   UNL     1     -12.397  13.718  63.033  1.00  0.00    -1.030 NA 
HETATM    2  H2  UNL     1     -13.376  13.447  62.936  1.00  0.00     0.000 HD 
HETATM    3  C   UNL     1     -12.122  13.904  64.394  1.00  0.00    -0.443 A  
HETATM    4  H1  UNL     1     -12.201  14.464  62.365  1.00  0.00     0.000 HD 
HETATM    5  C   UNL     1     -12.390  12.882  65.310  1.00  0.00    -0.544 A  
HETATM    6  C   UNL     1     -12.031  13.014  66.654  1.00  0.00    -0.453 A  
HETATM    7  C   UNL     1     -11.344  14.156  67.075  1.00  0.00    -0.332 A  
HETATM    8  C   UNL     1     -11.006  15.152  66.159  1.00  0.00    -0.331 A  
HETATM    9  C   UNL     1     -11.379  15.010  64.817  1.00  0.00    -0.409 A  
ENDROOT
BRANCH   7  10
HETATM   10  S   UNL     1     -10.930  14.336  68.794  1.00  0.00    -0.264 S  
HETATM   11  O   UNL     1      -9.523  14.643  68.922  1.00  0.00    -0.207 OA 
HETATM   12  O   UNL     1     -11.935  15.206  69.375  1.00  0.00    -0.313 OA 
BRANCH  10  13
HETATM   13  N   UNL     1     -11.211  12.834  69.457  1.00  0.00    -0.464 N  
HETATM   14  H   UNL     1     -10.745  12.029  69.037  1.00  0.00     0.000 HD 
HETATM   15  C   UNL     1     -12.049  12.615  70.556  1.00  0.00    -0.275 C  
HETATM   16  O   UNL     1     -12.647  13.510  71.133  1.00  0.00    -0.350 OA 
BRANCH  15  17
HETATM   17  C   UNL     1     -12.149  11.212  71.031  1.00  0.00    -0.380 A  
HETATM   18  C   UNL     1     -11.167  10.315  70.586  1.00  0.00    -0.406 A  
HETATM   19  C   UNL     1     -11.187   8.984  71.001  1.00  0.00    -0.361 A  
HETATM   20  C   UNL     1     -12.183   8.543  71.869  1.00  0.00    -0.411 A  
HETATM   21  C   UNL     1     -13.165   9.429  72.316  1.00  0.00    -0.528 A  
HETATM   22  C   UNL     1     -13.156  10.764  71.894  1.00  0.00    -0.557 A  
ENDBRANCH  15  17
ENDBRANCH  10  13
ENDBRANCH   7  10
TORSDOF 3
ENDMDL
MODEL        9
REMARK 921   NORMALIZED FREE ENERGY PREDICTED BY IDOCK:   -6.39 KCAL/MOL
REMARK 922        TOTAL FREE ENERGY PREDICTED BY IDOCK:   -7.83 KCAL/MOL
REMARK 923 INTER-LIGAND FREE ENERGY PREDICTED BY IDOCK:   -7.50 KCAL/MOL
REMARK 924 INTRA-LIGAND FREE ENERGY PREDICTED BY IDOCK:   -0.32 KCAL/MOL
REMARK 927      BINDING AFFINITY PREDICTED BY RF-SCORE:    0.00 PKD
ROOT
HETATM    1  N   UNL     1     -14.254   8.949  73.291  1.00  0.00    -1.237 NA 
HETATM    2  H2  UNL     1     -15.105   9.430  73.000  1.00  0.00     0.000 HD 
HETATM    3  C   UNL     1     -13.324   9.025  72.246  1.00  0.00    -0.467 A  
HETATM    4  H1  UNL     1     -14.513   8.042  73.679  1.00  0.00     0.000 HD 
HETATM    5  C   UNL     1     -12.968  10.269  71.714  1.00  0.00    -0.574 A  
HETATM    6  C   UNL     1     -11.970  10.371  70.740  1.00  0.00    -0.462 A  
HETATM    7  C   UNL     1     -11.280   9.224  70.338  1.00  0.00    -0.247 A  
HETATM    8  C   UNL     1     -11.574   7.987  70.912  1.00  0.00    -0.284 A  
HETATM    9  C   UNL     1     -12.582   7.899  71.881  1.00  0.00    -0.348 A  
ENDROOT
BRANCH   7  10
HETATM   10  S   UNL     1     -10.043   9.355  69.068  1.00  0.00    -0.202 S  
HETATM   11  O   UNL     1      -8.859   9.981  69.611  1.00  0.00    -0.194 OA 
HETATM   12  O   UNL     1      -9.968   8.057  68.426  1.00  0.00    -0.173 OA 
BRANCH  10  13
HETATM   13  N   UNL     1     -10.711  10.372  67.930  1.00  0.00    -0.240 N  
HETATM   14  H   UNL     1     -11.619  10.790  68.133  1.00  0.00     0.000 HD 
HETATM   15  C   UNL     1     -10.096  10.684  66.712  1.00  0.00    -0.224 C  
HETATM   16  O   UNL     1      -9.008  10.242  66.377  1.00  0.00    -0.145 OA 
BRANCH  15  17
HETATM   17  C   UNL     1     -10.824  11.639  65.839  1.00  0.00    -0.339 A  
HETATM   18  C   UNL     1     -11.643  12.586  66.471  1.00  0.00    -0.447 A  
HETATM   19  C   UNL     1     -12.348  13.524  65.718  1.00  0.00    -0.516 A  
HETATM   20  C   UNL     1     -12.233  13.527  64.330  1.00  0.00    -0.450 A  
HETATM   21  C   UNL     1     -11.422  12.586  63.693  1.00  0.00    -0.568 A  
HETATM   22  C   UNL     1     -10.720  11.635  64.443  1.00  0.00    -0.387 A  
ENDBRANCH  15  17
ENDBRANCH  10  13
ENDBRANCH   7  10
TORSDOF 3
ENDMDL
MODEL       10
REMARK 921   NORMALIZED FREE ENERGY PREDICTED BY IDOCK:   -6.35 KCAL/MOL
REMARK 922        TOTAL FREE ENERGY PREDICTED BY IDOCK:   -7.79 KCAL/MOL
REMARK 923 INTER-LIGAND FREE ENERGY PREDICTED BY IDOCK:   -7.48 KCAL/MOL
REMARK 924 INTRA-LIGAND FREE ENERGY PREDICTED BY IDOCK:   -0.31 KCAL/MOL
REMARK 927      BINDING AFFINITY PREDICTED BY RF-SCORE:    0.00 PKD
ROOT
HETATM    1  N   UNL     1      -7.789  20.714  66.230  1.00  0.00    -0.514 NA 
HETATM    2  H2  UNL     1      -7.359  20.757  65.305  1.00  0.00     0.000 HD 
HETATM    3  C   UNL     1      -8.411  19.467  66.371  1.00  0.00    -0.352 A  
HETATM    4  H1  UNL     1      -8.322  21.571  66.377  1.00  0.00     0.000 HD 
HETATM    5  C   UNL     1      -7.680  18.292  66.170  1.00  0.00    -0.255 A  
HETATM    6  C   UNL     1      -8.259  17.041  66.404  1.00  0.00    -0.326 A  
HETATM    7  C   UNL     1      -9.563  16.967  66.899  1.00  0.00    -0.254 A  
HETATM    8  C   UNL     1     -10.280  18.132  67.173  1.00  0.00    -0.376 A  
HETATM    9  C   UNL     1      -9.691  19.378  66.928  1.00  0.00    -0.431 A  
ENDROOT
BRANCH   7  10
HETATM   10  S   UNL     1     -10.307  15.373  67.152  1.00  0.00    -0.277 S  
HETATM   11  O   UNL     1     -11.409  15.203  66.231  1.00  0.00    -0.317 OA 
HETATM   12  O   UNL     1      -9.224  14.410  67.198  1.00  0.00    -0.203 OA 
BRANCH  10  13
HETATM   13  N   UNL     1     -10.912  15.430  68.703  1.00  0.00    -0.259 N  
HETATM   14  H   UNL     1     -10.709  16.254  69.269  1.00  0.00     0.000 HD 
HETATM   15  C   UNL     1     -11.684  14.409  69.273  1.00  0.00    -0.317 C  
HETATM   16  O   UNL     1     -11.987  13.387  68.679  1.00  0.00    -0.343 OA 
BRANCH  15  17
HETATM   17  C   UNL     1     -12.167  14.652  70.655  1.00  0.00    -0.394 A  
HETATM   18  C   UNL     1     -11.734  15.827  71.287  1.00  0.00    -0.496 A  
HETATM   19  C   UNL     1     -12.156  16.130  72.580  1.00  0.00    -0.652 A  
HETATM   20  C   UNL     1     -13.020  15.265  73.248  1.00  0.00    -0.645 A  
HETATM   21  C   UNL     1     -13.455  14.092  72.627  1.00  0.00    -0.634 A  
HETATM   22  C   UNL     1     -13.025  13.778  71.332  1.00  0.00    -0.433 A  
ENDBRANCH  15  17
ENDBRANCH  10  13
ENDBRANCH   7  10
TORSDOF 3
ENDMDL
MODEL       11
REMARK 921   NORMALIZED FREE ENERGY PREDICTED BY IDOCK:   -6.35 KCAL/MOL
REMARK 922        TOTAL FREE ENERGY PREDICTED BY IDOCK:   -7.78 KCAL/MOL
REMARK 923 INTER-LIGAND FREE ENERGY PREDICTED BY IDOCK:   -7.47 KCAL/MOL
REMARK 924 INTRA-LIGAND FREE ENERGY PREDICTED BY IDOCK:   -0.31 KCAL/MOL
REMARK 927      BINDING AFFINITY PREDICTED BY RF-SCORE:    0.00 PKD
ROOT
HETATM    1  N   UNL     1     -14.203   8.922  73.254  1.00  0.00    -1.237 NA 
HETATM    2  H2  UNL     1     -13.799   8.552  74.115  1.00  0.00     0.000 HD 
HETATM    3  C   UNL     1     -13.174   9.087  72.318  1.00  0.00    -0.460 A  
HETATM    4  H1  UNL     1     -14.808   9.708  73.493  1.00  0.00     0.000 HD 
HETATM    5  C   UNL     1     -12.345   8.009  71.990  1.00  0.00    -0.366 A  
HETATM    6  C   UNL     1     -11.378   8.129  70.988  1.00  0.00    -0.293 A  
HETATM    7  C   UNL     1     -11.279   9.322  70.266  1.00  0.00    -0.231 A  
HETATM    8  C   UNL     1     -12.147  10.381  70.532  1.00  0.00    -0.423 A  
HETATM    9  C   UNL     1     -13.106  10.249  71.544  1.00  0.00    -0.534 A  
ENDROOT
BRANCH   7  10
HETATM   10  S   UNL     1     -10.019   9.483  69.023  1.00  0.00    -0.189 S  
HETATM   11  O   UNL     1      -8.901  10.225  69.562  1.00  0.00    -0.187 OA 
HETATM   12  O   UNL     1      -9.827   8.164  68.452  1.00  0.00    -0.162 OA 
BRANCH  10  13
HETATM   13  N   UNL     1     -10.728  10.387  67.816  1.00  0.00    -0.257 N  
HETATM   14  H   UNL     1     -11.695  10.685  67.944  1.00  0.00     0.000 HD 
HETATM   15  C   UNL     1     -10.071  10.760  66.638  1.00  0.00    -0.218 C  
HETATM   16  O   UNL     1      -8.913  10.459  66.391  1.00  0.00    -0.146 OA 
BRANCH  15  17
HETATM   17  C   UNL     1     -10.851  11.597  65.693  1.00  0.00    -0.330 A  
HETATM   18  C   UNL     1     -10.667  11.357  64.323  1.00  0.00    -0.420 A  
HETATM   19  C   UNL     1     -11.376  12.095  63.376  1.00  0.00    -0.495 A  
HETATM   20  C   UNL     1     -12.278  13.071  63.790  1.00  0.00    -0.536 A  
HETATM   21  C   UNL     1     -12.466  13.318  65.152  1.00  0.00    -0.525 A  
HETATM   22  C   UNL     1     -11.749  12.588  66.108  1.00  0.00    -0.466 A  
ENDBRANCH  15  17
ENDBRANCH  10  13
ENDBRANCH   7  10
TORSDOF 3
ENDMDL
MODEL       12
REMARK 921   NORMALIZED FREE ENERGY PREDICTED BY IDOCK:   -6.29 KCAL/MOL
REMARK 922        TOTAL FREE ENERGY PREDICTED BY IDOCK:   -7.72 KCAL/MOL
REMARK 923 INTER-LIGAND FREE ENERGY PREDICTED BY IDOCK:   -7.42 KCAL/MOL
REMARK 924 INTRA-LIGAND FREE ENERGY PREDICTED BY IDOCK:   -0.30 KCAL/MOL
REMARK 927      BINDING AFFINITY PREDICTED BY RF-SCORE:    0.00 PKD
ROOT
HETATM    1  N   UNL     1     -13.505  12.253  72.568  1.00  0.00    -0.563 NA 
HETATM    2  H2  UNL     1     -12.892  11.603  73.060  1.00  0.00     0.000 HD 
HETATM    3  C   UNL     1     -12.864  12.663  71.392  1.00  0.00    -0.261 A  
HETATM    4  H1  UNL     1     -13.840  12.948  73.235  1.00  0.00     0.000 HD 
HETATM    5  C   UNL     1     -12.404  11.711  70.476  1.00  0.00    -0.410 A  
HETATM    6  C   UNL     1     -11.851  12.103  69.253  1.00  0.00    -0.370 A  
HETATM    7  C   UNL     1     -11.812  13.459  68.918  1.00  0.00    -0.334 A  
HETATM    8  C   UNL     1     -12.332  14.416  69.791  1.00  0.00    -0.333 A  
HETATM    9  C   UNL     1     -12.876  14.009  71.015  1.00  0.00    -0.410 A  
ENDROOT
BRANCH   7  10
HETATM   10  S   UNL     1     -11.068  13.953  67.382  1.00  0.00    -0.307 S  
HETATM   11  O   UNL     1      -9.776  13.319  67.245  1.00  0.00    -0.221 OA 
HETATM   12  O   UNL     1     -12.083  13.796  66.359  1.00  0.00    -0.406 OA 
BRANCH  10  13
HETATM   13  N   UNL     1     -10.843  15.597  67.531  1.00  0.00    -0.313 N  
HETATM   14  H   UNL     1     -10.975  16.020  68.450  1.00  0.00     0.000 HD 
HETATM   15  C   UNL     1     -10.481  16.431  66.465  1.00  0.00    -0.282 C  
HETATM   16  O   UNL     1     -10.293  16.024  65.329  1.00  0.00    -0.471 OA 
BRANCH  15  17
HETATM   17  C   UNL     1     -10.289  17.865  66.795  1.00  0.00    -0.357 A  
HETATM   18  C   UNL     1     -10.026  18.183  68.135  1.00  0.00    -0.368 A  
HETATM   19  C   UNL     1      -9.821  19.507  68.520  1.00  0.00    -0.518 A  
HETATM   20  C   UNL     1      -9.870  20.522  67.566  1.00  0.00    -0.534 A  
HETATM   21  C   UNL     1     -10.133  20.214  66.230  1.00  0.00    -0.552 A  
HETATM   22  C   UNL     1     -10.350  18.887  65.840  1.00  0.00    -0.408 A  
ENDBRANCH  15  17
ENDBRANCH  10  13
ENDBRANCH   7  10
TORSDOF 3
ENDMDL
MODEL       13
REMARK 921   NORMALIZED FREE ENERGY PREDICTED BY IDOCK:   -6.27 KCAL/MOL
REMARK 922        TOTAL FREE ENERGY PREDICTED BY IDOCK:   -7.70 KCAL/MOL
REMARK 923 INTER-LIGAND FREE ENERGY PREDICTED BY IDOCK:   -7.38 KCAL/MOL
REMARK 924 INTRA-LIGAND FREE ENERGY PREDICTED BY IDOCK:   -0.32 KCAL/MOL
REMARK 927      BINDING AFFINITY PREDICTED BY RF-SCORE:    0.00 PKD
ROOT
HETATM    1  N   UNL     1     -12.510  11.400  62.934  1.00  0.00    -0.863 NA 
HETATM    2  H2  UNL     1     -12.590  12.097  62.193  1.00  0.00     0.000 HD 
HETATM    3  C   UNL     1     -12.135  12.053  64.116  1.00  0.00    -0.362 A  
HETATM    4  H1  UNL     1     -11.955  10.619  62.584  1.00  0.00     0.000 HD 
HETATM    5  C   UNL     1     -12.895  13.124  64.597  1.00  0.00    -0.235 A  
HETATM    6  C   UNL     1     -12.593  13.722  65.824  1.00  0.00    -0.525 A  
HETATM    7  C   UNL     1     -11.556  13.205  66.605  1.00  0.00    -0.356 A  
HETATM    8  C   UNL     1     -10.835  12.092  66.172  1.00  0.00    -0.325 A  
HETATM    9  C   UNL     1     -11.144  11.508  64.937  1.00  0.00    -0.282 A  
ENDROOT
BRANCH   7  10
HETATM   10  S   UNL     1     -11.149  13.997  68.143  1.00  0.00    -0.272 S  
HETATM   11  O   UNL     1     -12.296  13.961  69.023  1.00  0.00    -0.308 OA 
HETATM   12  O   UNL     1      -9.873  13.454  68.566  1.00  0.00    -0.230 OA 
BRANCH  10  13
HETATM   13  N   UNL     1     -10.840  15.582  67.734  1.00  0.00    -0.301 N  
HETATM   14  H   UNL     1     -10.843  15.832  66.745  1.00  0.00     0.000 HD 
HETATM   15  C   UNL     1     -10.577  16.588  68.671  1.00  0.00    -0.316 C  
HETATM   16  O   UNL     1     -10.556  16.393  69.876  1.00  0.00    -0.298 OA 
BRANCH  15  17
HETATM   17  C   UNL     1     -10.361  17.950  68.122  1.00  0.00    -0.395 A  
HETATM   18  C   UNL     1     -10.516  18.114  66.738  1.00  0.00    -0.363 A  
HETATM   19  C   UNL     1     -10.343  19.366  66.151  1.00  0.00    -0.595 A  
HETATM   20  C   UNL     1     -10.021  20.465  66.944  1.00  0.00    -0.549 A  
HETATM   21  C   UNL     1      -9.863  20.311  68.323  1.00  0.00    -0.345 A  
HETATM   22  C   UNL     1     -10.026  19.053  68.916  1.00  0.00    -0.460 A  
ENDBRANCH  15  17
ENDBRANCH  10  13
ENDBRANCH   7  10
TORSDOF 3
ENDMDL
MODEL       14
REMARK 921   NORMALIZED FREE ENERGY PREDICTED BY IDOCK:   -6.26 KCAL/MOL
REMARK 922        TOTAL FREE ENERGY PREDICTED BY IDOCK:   -7.68 KCAL/MOL
REMARK 923 INTER-LIGAND FREE ENERGY PREDICTED BY IDOCK:   -7.40 KCAL/MOL
REMARK 924 INTRA-LIGAND FREE ENERGY PREDICTED BY IDOCK:   -0.28 KCAL/MOL
REMARK 927      BINDING AFFINITY PREDICTED BY RF-SCORE:    0.00 PKD
ROOT
HETATM    1  N   UNL     1     -12.510  14.017  63.212  1.00  0.00    -1.112 NA 
HETATM    2  H2  UNL     1     -12.324  14.964  63.544  1.00  0.00     0.000 HD 
HETATM    3  C   UNL     1     -11.847  13.115  64.054  1.00  0.00    -0.453 A  
HETATM    4  H1  UNL     1     -12.346  13.991  62.205  1.00  0.00     0.000 HD 
HETATM    5  C   UNL     1     -12.071  13.150  65.434  1.00  0.00    -0.478 A  
HETATM    6  C   UNL     1     -11.495  12.195  66.277  1.00  0.00    -0.433 A  
HETATM    7  C   UNL     1     -10.734  11.160  65.727  1.00  0.00    -0.188 A  
HETATM    8  C   UNL     1     -10.561  11.070  64.345  1.00  0.00    -0.395 A  
HETATM    9  C   UNL     1     -11.138  12.038  63.514  1.00  0.00    -0.519 A  
ENDROOT
BRANCH   7  10
HETATM   10  S   UNL     1      -9.969   9.975  66.808  1.00  0.00    -0.221 S  
HETATM   11  O   UNL     1      -9.993   8.669  66.187  1.00  0.00    -0.260 OA 
HETATM   12  O   UNL     1      -8.720  10.562  67.251  1.00  0.00    -0.126 OA 
BRANCH  10  13
HETATM   13  N   UNL     1     -10.944   9.942  68.158  1.00  0.00    -0.427 N  
HETATM   14  H   UNL     1     -11.851  10.406  68.107  1.00  0.00     0.000 HD 
HETATM   15  C   UNL     1     -10.588   9.314  69.357  1.00  0.00    -0.223 C  
HETATM   16  O   UNL     1      -9.530   8.727  69.519  1.00  0.00    -0.162 OA 
BRANCH  15  17
HETATM   17  C   UNL     1     -11.601   9.356  70.441  1.00  0.00    -0.241 A  
HETATM   18  C   UNL     1     -12.169  10.604  70.738  1.00  0.00    -0.474 A  
HETATM   19  C   UNL     1     -13.137  10.721  71.734  1.00  0.00    -0.573 A  
HETATM   20  C   UNL     1     -13.550   9.591  72.435  1.00  0.00    -0.459 A  
HETATM   21  C   UNL     1     -12.990   8.345  72.147  1.00  0.00    -0.370 A  
HETATM   22  C   UNL     1     -12.009   8.223  71.155  1.00  0.00    -0.290 A  
ENDBRANCH  15  17
ENDBRANCH  10  13
ENDBRANCH   7  10
TORSDOF 3
ENDMDL
MODEL       15
REMARK 921   NORMALIZED FREE ENERGY PREDICTED BY IDOCK:   -6.24 KCAL/MOL
REMARK 922        TOTAL FREE ENERGY PREDICTED BY IDOCK:   -7.65 KCAL/MOL
REMARK 923 INTER-LIGAND FREE ENERGY PREDICTED BY IDOCK:   -7.39 KCAL/MOL
REMARK 924 INTRA-LIGAND FREE ENERGY PREDICTED BY IDOCK:   -0.27 KCAL/MOL
REMARK 927      BINDING AFFINITY PREDICTED BY RF-SCORE:    0.00 PKD
ROOT
HETATM    1  N   UNL     1     -12.523  13.592  63.101  1.00  0.00    -1.045 NA 
HETATM    2  H2  UNL     1     -13.240  14.301  62.944  1.00  0.00     0.000 HD 
HETATM    3  C   UNL     1     -11.934  13.828  64.349  1.00  0.00    -0.445 A  
HETATM    4  H1  UNL     1     -11.942  13.531  62.265  1.00  0.00     0.000 HD 
HETATM    5  C   UNL     1     -12.730  13.912  65.496  1.00  0.00    -0.536 A  
HETATM    6  C   UNL     1     -12.151  14.048  66.761  1.00  0.00    -0.480 A  
HETATM    7  C   UNL     1     -10.759  14.041  66.886  1.00  0.00    -0.285 A  
HETATM    8  C   UNL     1      -9.951  13.885  65.759  1.00  0.00    -0.304 A  
HETATM    9  C   UNL     1     -10.546  13.758  64.497  1.00  0.00    -0.405 A  
ENDROOT
BRANCH   7  10
HETATM   10  S   UNL     1     -10.029  14.258  68.492  1.00  0.00    -0.232 S  
HETATM   11  O   UNL     1      -8.613  13.972  68.421  1.00  0.00    -0.170 OA 
HETATM   12  O   UNL     1     -10.504  15.532  68.995  1.00  0.00    -0.212 OA 
BRANCH  10  13
HETATM   13  N   UNL     1     -10.760  13.106  69.447  1.00  0.00    -0.432 N  
HETATM   14  H   UNL     1     -11.294  13.421  70.257  1.00  0.00     0.000 HD 
HETATM   15  C   UNL     1     -10.681  11.730  69.201  1.00  0.00    -0.124 C  
HETATM   16  O   UNL     1     -10.073  11.251  68.258  1.00  0.00    -0.176 OA 
BRANCH  15  17
HETATM   17  C   UNL     1     -11.427  10.856  70.141  1.00  0.00    -0.405 A  
HETATM   18  C   UNL     1     -10.935   9.557  70.334  1.00  0.00    -0.333 A  
HETATM   19  C   UNL     1     -11.574   8.682  71.211  1.00  0.00    -0.340 A  
HETATM   20  C   UNL     1     -12.706   9.103  71.907  1.00  0.00    -0.464 A  
HETATM   21  C   UNL     1     -13.203  10.394  71.720  1.00  0.00    -0.529 A  
HETATM   22  C   UNL     1     -12.571  11.272  70.832  1.00  0.00    -0.467 A  
ENDBRANCH  15  17
ENDBRANCH  10  13
ENDBRANCH   7  10
TORSDOF 3
ENDMDL
MODEL       16
REMARK 921   NORMALIZED FREE ENERGY PREDICTED BY IDOCK:   -6.23 KCAL/MOL
REMARK 922        TOTAL FREE ENERGY PREDICTED BY IDOCK:   -7.64 KCAL/MOL
REMARK 923 INTER-LIGAND FREE ENERGY PREDICTED BY IDOCK:   -7.32 KCAL/MOL
REMARK 924 INTRA-LIGAND FREE ENERGY PREDICTED BY IDOCK:   -0.32 KCAL/MOL
REMARK 927      BINDING AFFINITY PREDICTED BY RF-SCORE:    0.00 PKD
ROOT
HETATM    1  N   UNL     1     -11.324   5.759  72.714  1.00  0.00    -0.371 NA 
HETATM    2  H2  UNL     1     -12.189   5.740  73.255  1.00  0.00     0.000 HD 
HETATM    3  C   UNL     1     -11.337   6.898  71.898  1.00  0.00    -0.263 A  
HETATM    4  H1  UNL     1     -11.183   4.837  72.301  1.00  0.00     0.000 HD 
HETATM    5  C   UNL     1     -11.530   8.162  72.464  1.00  0.00    -0.470 A  
HETATM    6  C   UNL     1     -11.448   9.317  71.679  1.00  0.00    -0.468 A  
HETATM    7  C   UNL     1     -11.110   9.209  70.328  1.00  0.00    -0.239 A  
HETATM    8  C   UNL     1     -10.844   7.960  69.766  1.00  0.00    -0.202 A  
HETATM    9  C   UNL     1     -10.938   6.811  70.562  1.00  0.00    -0.327 A  
ENDROOT
BRANCH   7  10
HETATM   10  S   UNL     1     -11.050  10.676  69.327  1.00  0.00    -0.272 S  
HETATM   11  O   UNL     1      -9.677  10.967  68.979  1.00  0.00    -0.196 OA 
HETATM   12  O   UNL     1     -12.059  10.519  68.298  1.00  0.00    -0.319 OA 
BRANCH  10  13
HETATM   13  N   UNL     1     -11.617  11.888  70.319  1.00  0.00    -0.531 N  
HETATM   14  H   UNL     1     -11.840  11.653  71.287  1.00  0.00     0.000 HD 
HETATM   15  C   UNL     1     -11.806  13.210  69.899  1.00  0.00    -0.308 C  
HETATM   16  O   UNL     1     -11.565  13.595  68.766  1.00  0.00    -0.276 OA 
BRANCH  15  17
HETATM   17  C   UNL     1     -12.284  14.161  70.934  1.00  0.00    -0.434 A  
HETATM   18  C   UNL     1     -13.524  13.887  71.530  1.00  0.00    -0.383 A  
HETATM   19  C   UNL     1     -14.033  14.727  72.520  1.00  0.00    -0.527 A  
HETATM   20  C   UNL     1     -13.303  15.842  72.925  1.00  0.00    -0.661 A  
HETATM   21  C   UNL     1     -12.069  16.123  72.336  1.00  0.00    -0.630 A  
HETATM   22  C   UNL     1     -11.558  15.289  71.334  1.00  0.00    -0.446 A  
ENDBRANCH  15  17
ENDBRANCH  10  13
ENDBRANCH   7  10
TORSDOF 3
ENDMDL
MODEL       17
REMARK 921   NORMALIZED FREE ENERGY PREDICTED BY IDOCK:   -6.21 KCAL/MOL
REMARK 922        TOTAL FREE ENERGY PREDICTED BY IDOCK:   -7.62 KCAL/MOL
REMARK 923 INTER-LIGAND FREE ENERGY PREDICTED BY IDOCK:   -7.30 KCAL/MOL
REMARK 924 INTRA-LIGAND FREE ENERGY PREDICTED BY IDOCK:   -0.33 KCAL/MOL
REMARK 927      BINDING AFFINITY PREDICTED BY RF-SCORE:    0.00 PKD
ROOT
HETATM    1  N   UNL     1     -13.687  12.749  72.792  1.00  0.00    -0.698 NA 
HETATM    2  H2  UNL     1     -14.627  13.143  72.830  1.00  0.00     0.000 HD 
HETATM    3  C   UNL     1     -13.144  13.024  71.530  1.00  0.00    -0.310 A  
HETATM    4  H1  UNL     1     -13.726  11.789  73.133  1.00  0.00     0.000 HD 
HETATM    5  C   UNL     1     -13.090  14.340  71.061  1.00  0.00    -0.394 A  
HETATM    6  C   UNL     1     -12.463  14.643  69.849  1.00  0.00    -0.290 A  
HETATM    7  C   UNL     1     -11.832  13.626  69.127  1.00  0.00    -0.348 A  
HETATM    8  C   UNL     1     -11.815  12.320  69.617  1.00  0.00    -0.393 A  
HETATM    9  C   UNL     1     -12.454  12.030  70.829  1.00  0.00    -0.372 A  
ENDROOT
BRANCH   7  10
HETATM   10  S   UNL     1     -11.075  14.011  67.566  1.00  0.00    -0.309 S  
HETATM   11  O   UNL     1      -9.781  13.371  67.486  1.00  0.00    -0.215 OA 
HETATM   12  O   UNL     1     -12.081  13.779  66.547  1.00  0.00    -0.414 OA 
BRANCH  10  13
HETATM   13  N   UNL     1     -10.853  15.661  67.598  1.00  0.00    -0.302 N  
HETATM   14  H   UNL     1     -11.085  16.161  68.457  1.00  0.00     0.000 HD 
HETATM   15  C   UNL     1     -10.366  16.401  66.513  1.00  0.00    -0.303 C  
HETATM   16  O   UNL     1     -10.055  15.898  65.445  1.00  0.00    -0.390 OA 
BRANCH  15  17
HETATM   17  C   UNL     1     -10.199  17.858  66.740  1.00  0.00    -0.360 A  
HETATM   18  C   UNL     1      -9.732  18.261  68.000  1.00  0.00    -0.324 A  
HETATM   19  C   UNL     1      -9.538  19.612  68.282  1.00  0.00    -0.478 A  
HETATM   20  C   UNL     1      -9.801  20.569  67.305  1.00  0.00    -0.581 A  
HETATM   21  C   UNL     1     -10.268  20.178  66.049  1.00  0.00    -0.497 A  
HETATM   22  C   UNL     1     -10.475  18.823  65.763  1.00  0.00    -0.317 A  
ENDBRANCH  15  17
ENDBRANCH  10  13
ENDBRANCH   7  10
TORSDOF 3
ENDMDL
MODEL       18
REMARK 921   NORMALIZED FREE ENERGY PREDICTED BY IDOCK:   -6.20 KCAL/MOL
REMARK 922        TOTAL FREE ENERGY PREDICTED BY IDOCK:   -7.61 KCAL/MOL
REMARK 923 INTER-LIGAND FREE ENERGY PREDICTED BY IDOCK:   -7.35 KCAL/MOL
REMARK 924 INTRA-LIGAND FREE ENERGY PREDICTED BY IDOCK:   -0.26 KCAL/MOL
REMARK 927      BINDING AFFINITY PREDICTED BY RF-SCORE:    0.00 PKD
ROOT
HETATM    1  N   UNL     1     -10.160  10.536  62.342  1.00  0.00    -0.746 NA 
HETATM    2  H2  UNL     1      -9.860  11.227  61.654  1.00  0.00     0.000 HD 
HETATM    3  C   UNL     1     -10.319  11.180  63.576  1.00  0.00    -0.387 A  
HETATM    4  H1  UNL     1      -9.552   9.720  62.266  1.00  0.00     0.000 HD 
HETATM    5  C   UNL     1     -11.153  12.298  63.680  1.00  0.00    -0.537 A  
HETATM    6  C   UNL     1     -11.400  12.893  64.921  1.00  0.00    -0.340 A  
HETATM    7  C   UNL     1     -10.854  12.328  66.077  1.00  0.00    -0.275 A  
HETATM    8  C   UNL     1     -10.079  11.170  65.997  1.00  0.00    -0.292 A  
HETATM    9  C   UNL     1      -9.834  10.590  64.746  1.00  0.00    -0.387 A  
ENDROOT
BRANCH   7  10
HETATM   10  S   UNL     1     -11.136  13.114  67.645  1.00  0.00    -0.281 S  
HETATM   11  O   UNL     1      -9.936  13.804  68.062  1.00  0.00    -0.231 OA 
HETATM   12  O   UNL     1     -12.398  13.821  67.536  1.00  0.00    -0.287 OA 
BRANCH  10  13
HETATM   13  N   UNL     1     -11.424  11.859  68.702  1.00  0.00    -0.267 N  
HETATM   14  H   UNL     1     -11.250  10.908  68.378  1.00  0.00     0.000 HD 
HETATM   15  C   UNL     1     -11.893  12.037  70.009  1.00  0.00    -0.314 C  
HETATM   16  O   UNL     1     -12.127  13.132  70.494  1.00  0.00    -0.357 OA 
BRANCH  15  17
HETATM   17  C   UNL     1     -12.056  10.803  70.817  1.00  0.00    -0.473 A  
HETATM   18  C   UNL     1     -13.207  10.707  71.614  1.00  0.00    -0.495 A  
HETATM   19  C   UNL     1     -13.436   9.571  72.389  1.00  0.00    -0.475 A  
HETATM   20  C   UNL     1     -12.521   8.521  72.369  1.00  0.00    -0.416 A  
HETATM   21  C   UNL     1     -11.372   8.609  71.581  1.00  0.00    -0.377 A  
HETATM   22  C   UNL     1     -11.131   9.752  70.808  1.00  0.00    -0.415 A  
ENDBRANCH  15  17
ENDBRANCH  10  13
ENDBRANCH   7  10
TORSDOF 3
ENDMDL
MODEL       19
REMARK 921   NORMALIZED FREE ENERGY PREDICTED BY IDOCK:   -6.20 KCAL/MOL
REMARK 922        TOTAL FREE ENERGY PREDICTED BY IDOCK:   -7.61 KCAL/MOL
REMARK 923 INTER-LIGAND FREE ENERGY PREDICTED BY IDOCK:   -7.73 KCAL/MOL
REMARK 924 INTRA-LIGAND FREE ENERGY PREDICTED BY IDOCK:    0.12 KCAL/MOL
REMARK 927      BINDING AFFINITY PREDICTED BY RF-SCORE:    0.00 PKD
ROOT
HETATM    1  N   UNL     1      -8.949   8.793  64.778  1.00  0.00    -0.419 NA 
HETATM    2  H2  UNL     1      -8.076   8.915  64.265  1.00  0.00     0.000 HD 
HETATM    3  C   UNL     1      -9.642  10.011  64.767  1.00  0.00    -0.308 A  
HETATM    4  H1  UNL     1      -8.742   8.331  65.663  1.00  0.00     0.000 HD 
HETATM    5  C   UNL     1      -9.927  10.645  63.554  1.00  0.00    -0.347 A  
HETATM    6  C   UNL     1     -10.702  11.808  63.519  1.00  0.00    -0.501 A  
HETATM    7  C   UNL     1     -11.246  12.309  64.705  1.00  0.00    -0.315 A  
HETATM    8  C   UNL     1     -11.029  11.648  65.914  1.00  0.00    -0.334 A  
HETATM    9  C   UNL     1     -10.245  10.488  65.935  1.00  0.00    -0.311 A  
ENDROOT
BRANCH   7  10
HETATM   10  S   UNL     1     -12.193  13.812  64.659  1.00  0.00    -0.394 S  
HETATM   11  O   UNL     1     -12.292  14.279  63.294  1.00  0.00    -0.616 OA 
HETATM   12  O   UNL     1     -13.385  13.577  65.450  1.00  0.00    -0.548 OA 
BRANCH  10  13
HETATM   13  N   UNL     1     -11.292  14.907  65.533  1.00  0.00    -0.350 N  
HETATM   14  H   UNL     1     -10.894  14.601  66.422  1.00  0.00     0.000 HD 
HETATM   15  C   UNL     1     -11.051  16.222  65.118  1.00  0.00    -0.212 C  
HETATM   16  O   UNL     1     -11.476  16.683  64.070  1.00  0.00    -1.192 OA 
BRANCH  15  17
HETATM   17  C   UNL     1     -10.194  17.042  66.011  1.00  0.00    -0.337 A  
HETATM   18  C   UNL     1      -9.146  16.385  66.672  1.00  0.00    -0.278 A  
HETATM   19  C   UNL     1      -8.291  17.091  67.516  1.00  0.00    -0.199 A  
HETATM   20  C   UNL     1      -8.472  18.460  67.700  1.00  0.00    -0.264 A  
HETATM   21  C   UNL     1      -9.514  19.121  67.047  1.00  0.00    -0.367 A  
HETATM   22  C   UNL     1     -10.382  18.415  66.206  1.00  0.00    -0.440 A  
ENDBRANCH  15  17
ENDBRANCH  10  13
ENDBRANCH   7  10
TORSDOF 3
ENDMDL
MODEL       20
REMARK 921   NORMALIZED FREE ENERGY PREDICTED BY IDOCK:   -6.12 KCAL/MOL
REMARK 922        TOTAL FREE ENERGY PREDICTED BY IDOCK:   -7.52 KCAL/MOL
REMARK 923 INTER-LIGAND FREE ENERGY PREDICTED BY IDOCK:   -7.30 KCAL/MOL
REMARK 924 INTRA-LIGAND FREE ENERGY PREDICTED BY IDOCK:   -0.23 KCAL/MOL
REMARK 927      BINDING AFFINITY PREDICTED BY RF-SCORE:    0.00 PKD
ROOT
HETATM    1  N   UNL     1     -12.555  11.574  62.900  1.00  0.00    -0.874 NA 
HETATM    2  H2  UNL     1     -12.948  12.387  62.424  1.00  0.00     0.000 HD 
HETATM    3  C   UNL     1     -11.891  12.015  64.052  1.00  0.00    -0.408 A  
HETATM    4  H1  UNL     1     -12.062  11.005  62.212  1.00  0.00     0.000 HD 
HETATM    5  C   UNL     1     -12.567  12.796  64.996  1.00  0.00    -0.538 A  
HETATM    6  C   UNL     1     -11.950  13.161  66.196  1.00  0.00    -0.478 A  
HETATM    7  C   UNL     1     -10.665  12.692  66.481  1.00  0.00    -0.250 A  
HETATM    8  C   UNL     1     -10.006  11.853  65.581  1.00  0.00    -0.269 A  
HETATM    9  C   UNL     1     -10.633  11.502  64.380  1.00  0.00    -0.392 A  
ENDROOT
BRANCH   7  10
HETATM   10  S   UNL     1      -9.871  13.196  67.988  1.00  0.00    -0.235 S  
HETATM   11  O   UNL     1      -8.469  12.843  67.937  1.00  0.00    -0.157 OA 
HETATM   12  O   UNL     1     -10.282  14.563  68.238  1.00  0.00    -0.224 OA 
BRANCH  10  13
HETATM   13  N   UNL     1     -10.606  12.290  69.177  1.00  0.00    -0.429 N  
HETATM   14  H   UNL     1     -11.196  12.773  69.855  1.00  0.00     0.000 HD 
HETATM   15  C   UNL     1     -10.459  10.902  69.299  1.00  0.00    -0.202 C  
HETATM   16  O   UNL     1      -9.780  10.231  68.538  1.00  0.00    -0.152 OA 
BRANCH  15  17
HETATM   17  C   UNL     1     -11.220  10.260  70.399  1.00  0.00    -0.407 A  
HETATM   18  C   UNL     1     -12.475  10.803  70.711  1.00  0.00    -0.481 A  
HETATM   19  C   UNL     1     -13.254  10.245  71.723  1.00  0.00    -0.534 A  
HETATM   20  C   UNL     1     -12.788   9.135  72.425  1.00  0.00    -0.438 A  
HETATM   21  C   UNL     1     -11.539   8.589  72.122  1.00  0.00    -0.447 A  
HETATM   22  C   UNL     1     -10.748   9.152  71.113  1.00  0.00    -0.380 A  
ENDBRANCH  15  17
ENDBRANCH  10  13
ENDBRANCH   7  10
TORSDOF 3
ENDMDL
MODEL       21
REMARK 921   NORMALIZED FREE ENERGY PREDICTED BY IDOCK:   -6.11 KCAL/MOL
REMARK 922        TOTAL FREE ENERGY PREDICTED BY IDOCK:   -7.51 KCAL/MOL
REMARK 923 INTER-LIGAND FREE ENERGY PREDICTED BY IDOCK:   -7.23 KCAL/MOL
REMARK 924 INTRA-LIGAND FREE ENERGY PREDICTED BY IDOCK:   -0.28 KCAL/MOL
REMARK 927      BINDING AFFINITY PREDICTED BY RF-SCORE:    0.00 PKD
ROOT
HETATM    1  N   UNL     1     -10.152  10.723  62.407  1.00  0.00    -0.684 NA 
HETATM    2  H2  UNL     1     -10.228   9.715  62.549  1.00  0.00     0.000 HD 
HETATM    3  C   UNL     1     -10.391  11.361  63.631  1.00  0.00    -0.410 A  
HETATM    4  H1  UNL     1     -10.700  10.975  61.584  1.00  0.00     0.000 HD 
HETATM    5  C   UNL     1      -9.640  11.017  64.760  1.00  0.00    -0.292 A  
HETATM    6  C   UNL     1      -9.797  11.712  65.963  1.00  0.00    -0.258 A  
HETATM    7  C   UNL     1     -10.672  12.800  66.020  1.00  0.00    -0.272 A  
HETATM    8  C   UNL     1     -11.374  13.201  64.883  1.00  0.00    -0.334 A  
HETATM    9  C   UNL     1     -11.212  12.491  63.687  1.00  0.00    -0.545 A  
ENDROOT
BRANCH   7  10
HETATM   10  S   UNL     1     -10.899  13.651  67.564  1.00  0.00    -0.267 S  
HETATM   11  O   UNL     1     -12.274  13.520  67.990  1.00  0.00    -0.308 OA 
HETATM   12  O   UNL     1      -9.812  13.239  68.430  1.00  0.00    -0.234 OA 
BRANCH  10  13
HETATM   13  N   UNL     1     -10.600  15.252  67.212  1.00  0.00    -0.284 N  
HETATM   14  H   UNL     1     -10.249  15.483  66.283  1.00  0.00     0.000 HD 
HETATM   15  C   UNL     1     -10.804  16.298  68.121  1.00  0.00    -0.342 C  
HETATM   16  O   UNL     1     -11.226  16.128  69.254  1.00  0.00    -0.313 OA 
BRANCH  15  17
HETATM   17  C   UNL     1     -10.517  17.664  67.618  1.00  0.00    -0.372 A  
HETATM   18  C   UNL     1     -10.262  18.658  68.575  1.00  0.00    -0.398 A  
HETATM   19  C   UNL     1      -9.971  19.962  68.178  1.00  0.00    -0.551 A  
HETATM   20  C   UNL     1      -9.926  20.281  66.823  1.00  0.00    -0.587 A  
HETATM   21  C   UNL     1     -10.180  19.298  65.864  1.00  0.00    -0.436 A  
HETATM   22  C   UNL     1     -10.483  17.989  66.257  1.00  0.00    -0.340 A  
ENDBRANCH  15  17
ENDBRANCH  10  13
ENDBRANCH   7  10
TORSDOF 3
ENDMDL
MODEL       22
REMARK 921   NORMALIZED FREE ENERGY PREDICTED BY IDOCK:   -6.10 KCAL/MOL
REMARK 922        TOTAL FREE ENERGY PREDICTED BY IDOCK:   -7.50 KCAL/MOL
REMARK 923 INTER-LIGAND FREE ENERGY PREDICTED BY IDOCK:   -7.39 KCAL/MOL
REMARK 924 INTRA-LIGAND FREE ENERGY PREDICTED BY IDOCK:   -0.11 KCAL/MOL
REMARK 927      BINDING AFFINITY PREDICTED BY RF-SCORE:    0.00 PKD
ROOT
HETATM    1  N   UNL     1     -12.277  11.693  62.899  1.00  0.00    -0.838 NA 
HETATM    2  H2  UNL     1     -12.284  10.672  62.916  1.00  0.00     0.000 HD 
HETATM    3  C   UNL     1     -12.054  12.155  64.202  1.00  0.00    -0.409 A  
HETATM    4  H1  UNL     1     -13.093  12.012  62.377  1.00  0.00     0.000 HD 
HETATM    5  C   UNL     1     -10.935  11.718  64.919  1.00  0.00    -0.358 A  
HETATM    6  C   UNL     1     -10.644  12.244  66.181  1.00  0.00    -0.281 A  
HETATM    7  C   UNL     1     -11.447  13.260  66.706  1.00  0.00    -0.350 A  
HETATM    8  C   UNL     1     -12.525  13.757  65.972  1.00  0.00    -0.491 A  
HETATM    9  C   UNL     1     -12.809  13.215  64.712  1.00  0.00    -0.298 A  
ENDROOT
BRANCH   7  10
HETATM   10  S   UNL     1     -11.097  13.893  68.329  1.00  0.00    -0.271 S  
HETATM   11  O   UNL     1     -12.212  13.616  69.207  1.00  0.00    -0.320 OA 
HETATM   12  O   UNL     1      -9.759  13.451  68.669  1.00  0.00    -0.183 OA 
BRANCH  10  13
HETATM   13  N   UNL     1     -10.978  15.542  68.124  1.00  0.00    -0.299 N  
HETATM   14  H   UNL     1     -11.550  16.144  68.716  1.00  0.00     0.000 HD 
HETATM   15  C   UNL     1     -10.136  16.148  67.183  1.00  0.00    -0.269 C  
HETATM   16  O   UNL     1      -9.408  15.519  66.431  1.00  0.00    -0.249 OA 
BRANCH  15  17
HETATM   17  C   UNL     1     -10.136  17.632  67.168  1.00  0.00    -0.328 A  
HETATM   18  C   UNL     1      -9.865  18.284  68.381  1.00  0.00    -0.386 A  
HETATM   19  C   UNL     1      -9.834  19.676  68.443  1.00  0.00    -0.531 A  
HETATM   20  C   UNL     1     -10.065  20.427  67.292  1.00  0.00    -0.504 A  
HETATM   21  C   UNL     1     -10.337  19.786  66.081  1.00  0.00    -0.627 A  
HETATM   22  C   UNL     1     -10.380  18.388  66.016  1.00  0.00    -0.397 A  
ENDBRANCH  15  17
ENDBRANCH  10  13
ENDBRANCH   7  10
TORSDOF 3
ENDMDL
MODEL       23
REMARK 921   NORMALIZED FREE ENERGY PREDICTED BY IDOCK:   -6.08 KCAL/MOL
REMARK 922        TOTAL FREE ENERGY PREDICTED BY IDOCK:   -7.47 KCAL/MOL
REMARK 923 INTER-LIGAND FREE ENERGY PREDICTED BY IDOCK:   -7.22 KCAL/MOL
REMARK 924 INTRA-LIGAND FREE ENERGY PREDICTED BY IDOCK:   -0.25 KCAL/MOL
REMARK 927      BINDING AFFINITY PREDICTED BY RF-SCORE:    0.00 PKD
ROOT
HETATM    1  N   UNL     1     -12.365  13.837  63.120  1.00  0.00    -1.106 NA 
HETATM    2  H2  UNL     1     -12.676  13.349  62.280  1.00  0.00     0.000 HD 
HETATM    3  C   UNL     1     -11.844  12.892  64.013  1.00  0.00    -0.443 A  
HETATM    4  H1  UNL     1     -13.108  14.469  63.420  1.00  0.00     0.000 HD 
HETATM    5  C   UNL     1     -10.825  12.026  63.603  1.00  0.00    -0.510 A  
HETATM    6  C   UNL     1     -10.227  11.145  64.509  1.00  0.00    -0.383 A  
HETATM    7  C   UNL     1     -10.612  11.172  65.852  1.00  0.00    -0.234 A  
HETATM    8  C   UNL     1     -11.576  12.080  66.291  1.00  0.00    -0.378 A  
HETATM    9  C   UNL     1     -12.172  12.951  65.371  1.00  0.00    -0.528 A  
ENDROOT
BRANCH   7  10
HETATM   10  S   UNL     1      -9.878  10.019  66.989  1.00  0.00    -0.198 S  
HETATM   11  O   UNL     1      -9.801   8.714  66.371  1.00  0.00    -0.250 OA 
HETATM   12  O   UNL     1      -8.691  10.659  67.521  1.00  0.00    -0.125 OA 
BRANCH  10  13
HETATM   13  N   UNL     1     -10.948   9.944  68.263  1.00  0.00    -0.415 N  
HETATM   14  H   UNL     1     -11.868  10.368  68.145  1.00  0.00     0.000 HD 
HETATM   15  C   UNL     1     -10.655   9.330  69.488  1.00  0.00    -0.224 C  
HETATM   16  O   UNL     1      -9.587   8.789  69.728  1.00  0.00    -0.167 OA 
BRANCH  15  17
HETATM   17  C   UNL     1     -11.745   9.329  70.494  1.00  0.00    -0.225 A  
HETATM   18  C   UNL     1     -12.262   8.082  70.875  1.00  0.00    -0.122 A  
HETATM   19  C   UNL     1     -13.279   7.999  71.826  1.00  0.00    -0.367 A  
HETATM   20  C   UNL     1     -13.780   9.161  72.407  1.00  0.00    -0.543 A  
HETATM   21  C   UNL     1     -13.273  10.407  72.033  1.00  0.00    -0.497 A  
HETATM   22  C   UNL     1     -12.259  10.496  71.071  1.00  0.00    -0.505 A  
ENDBRANCH  15  17
ENDBRANCH  10  13
ENDBRANCH   7  10
TORSDOF 3
ENDMDL
MODEL       24
REMARK 921   NORMALIZED FREE ENERGY PREDICTED BY IDOCK:   -6.02 KCAL/MOL
REMARK 922        TOTAL FREE ENERGY PREDICTED BY IDOCK:   -7.40 KCAL/MOL
REMARK 923 INTER-LIGAND FREE ENERGY PREDICTED BY IDOCK:   -7.10 KCAL/MOL
REMARK 924 INTRA-LIGAND FREE ENERGY PREDICTED BY IDOCK:   -0.30 KCAL/MOL
REMARK 927      BINDING AFFINITY PREDICTED BY RF-SCORE:    0.00 PKD
ROOT
HETATM    1  N   UNL     1      -9.466  21.071  66.888  1.00  0.00    -0.625 NA 
HETATM    2  H2  UNL     1     -10.120  21.409  66.181  1.00  0.00     0.000 HD 
HETATM    3  C   UNL     1      -9.877  19.796  67.297  1.00  0.00    -0.384 A  
HETATM    4  H1  UNL     1      -9.327  21.809  67.578  1.00  0.00     0.000 HD 
HETATM    5  C   UNL     1     -10.068  18.784  66.350  1.00  0.00    -0.443 A  
HETATM    6  C   UNL     1     -10.382  17.481  66.750  1.00  0.00    -0.314 A  
HETATM    7  C   UNL     1     -10.448  17.175  68.112  1.00  0.00    -0.366 A  
HETATM    8  C   UNL     1     -10.189  18.157  69.068  1.00  0.00    -0.237 A  
HETATM    9  C   UNL     1      -9.883  19.460  68.653  1.00  0.00    -0.522 A  
ENDROOT
BRANCH   7  10
HETATM   10  S   UNL     1     -10.890  15.528  68.612  1.00  0.00    -0.283 S  
HETATM   11  O   UNL     1      -9.829  14.967  69.419  1.00  0.00    -0.211 OA 
HETATM   12  O   UNL     1     -12.248  15.597  69.116  1.00  0.00    -0.298 OA 
BRANCH  10  13
HETATM   13  N   UNL     1     -10.991  14.667  67.189  1.00  0.00    -0.307 N  
HETATM   14  H   UNL     1     -10.780  15.153  66.317  1.00  0.00     0.000 HD 
HETATM   15  C   UNL     1     -11.348  13.314  67.124  1.00  0.00    -0.317 C  
HETATM   16  O   UNL     1     -11.612  12.643  68.108  1.00  0.00    -0.295 OA 
BRANCH  15  17
HETATM   17  C   UNL     1     -11.348  12.705  65.771  1.00  0.00    -0.370 A  
HETATM   18  C   UNL     1     -10.202  11.993  65.389  1.00  0.00    -0.295 A  
HETATM   19  C   UNL     1     -10.134  11.381  64.139  1.00  0.00    -0.358 A  
HETATM   20  C   UNL     1     -11.214  11.469  63.264  1.00  0.00    -0.239 A  
HETATM   21  C   UNL     1     -12.360  12.177  63.635  1.00  0.00    -0.673 A  
HETATM   22  C   UNL     1     -12.429  12.802  64.886  1.00  0.00    -0.563 A  
ENDBRANCH  15  17
ENDBRANCH  10  13
ENDBRANCH   7  10
TORSDOF 3
ENDMDL
MODEL       25
REMARK 921   NORMALIZED FREE ENERGY PREDICTED BY IDOCK:   -5.98 KCAL/MOL
REMARK 922        TOTAL FREE ENERGY PREDICTED BY IDOCK:   -7.35 KCAL/MOL
REMARK 923 INTER-LIGAND FREE ENERGY PREDICTED BY IDOCK:   -7.37 KCAL/MOL
REMARK 924 INTRA-LIGAND FREE ENERGY PREDICTED BY IDOCK:    0.02 KCAL/MOL
REMARK 927      BINDING AFFINITY PREDICTED BY RF-SCORE:    0.00 PKD
ROOT
HETATM    1  N   UNL     1     -10.804  11.455  63.077  1.00  0.00    -0.805 NA 
HETATM    2  H2  UNL     1     -11.005  10.588  62.577  1.00  0.00     0.000 HD 
HETATM    3  C   UNL     1     -10.682  11.161  64.441  1.00  0.00    -0.318 A  
HETATM    4  H1  UNL     1     -11.463  12.168  62.765  1.00  0.00     0.000 HD 
HETATM    5  C   UNL     1      -9.777  10.184  64.869  1.00  0.00    -0.392 A  
HETATM    6  C   UNL     1      -9.571   9.947  66.232  1.00  0.00    -0.265 A  
HETATM    7  C   UNL     1     -10.234  10.736  67.176  1.00  0.00    -0.213 A  
HETATM    8  C   UNL     1     -11.085  11.762  66.764  1.00  0.00    -0.360 A  
HETATM    9  C   UNL     1     -11.287  11.983  65.396  1.00  0.00    -0.375 A  
ENDROOT
BRANCH   7  10
HETATM   10  S   UNL     1     -10.001  10.401  68.905  1.00  0.00    -0.209 S  
HETATM   11  O   UNL     1     -10.698   9.184  69.259  1.00  0.00    -0.225 OA 
HETATM   12  O   UNL     1      -8.583  10.548  69.171  1.00  0.00    -0.154 OA 
BRANCH  10  13
HETATM   13  N   UNL     1     -10.730  11.680  69.686  1.00  0.00    -0.447 N  
HETATM   14  H   UNL     1     -10.201  12.546  69.787  1.00  0.00     0.000 HD 
HETATM   15  C   UNL     1     -12.028  11.631  70.210  1.00  0.00    -0.358 C  
HETATM   16  O   UNL     1     -12.744  10.645  70.137  1.00  0.00    -0.308 OA 
BRANCH  15  17
HETATM   17  C   UNL     1     -12.524  12.880  70.840  1.00  0.00    -0.383 A  
HETATM   18  C   UNL     1     -12.082  14.093  70.290  1.00  0.00    -0.412 A  
HETATM   19  C   UNL     1     -12.516  15.307  70.818  1.00  0.00    -0.457 A  
HETATM   20  C   UNL     1     -13.400  15.319  71.895  1.00  0.00    -0.524 A  
HETATM   21  C   UNL     1     -13.843  14.117  72.449  1.00  0.00    -0.638 A  
HETATM   22  C   UNL     1     -13.403  12.894  71.929  1.00  0.00    -0.530 A  
ENDBRANCH  15  17
ENDBRANCH  10  13
ENDBRANCH   7  10
TORSDOF 3
ENDMDL
MODEL       26
REMARK 921   NORMALIZED FREE ENERGY PREDICTED BY IDOCK:   -5.95 KCAL/MOL
REMARK 922        TOTAL FREE ENERGY PREDICTED BY IDOCK:   -7.32 KCAL/MOL
REMARK 923 INTER-LIGAND FREE ENERGY PREDICTED BY IDOCK:   -7.00 KCAL/MOL
REMARK 924 INTRA-LIGAND FREE ENERGY PREDICTED BY IDOCK:   -0.32 KCAL/MOL
REMARK 927      BINDING AFFINITY PREDICTED BY RF-SCORE:    0.00 PKD
ROOT
HETATM    1  N   UNL     1     -10.204   6.503  69.670  1.00  0.00    -0.180 NA 
HETATM    2  H2  UNL     1     -10.955   6.208  70.295  1.00  0.00     0.000 HD 
HETATM    3  C   UNL     1     -10.462   7.817  69.258  1.00  0.00    -0.217 A  
HETATM    4  H1  UNL     1     -10.054   5.771  68.977  1.00  0.00     0.000 HD 
HETATM    5  C   UNL     1     -10.666   8.823  70.209  1.00  0.00    -0.249 A  
HETATM    6  C   UNL     1     -10.827  10.155  69.818  1.00  0.00    -0.320 A  
HETATM    7  C   UNL     1     -10.723  10.493  68.466  1.00  0.00    -0.224 A  
HETATM    8  C   UNL     1     -10.447   9.512  67.513  1.00  0.00    -0.336 A  
HETATM    9  C   UNL     1     -10.297   8.180  67.919  1.00  0.00    -0.280 A  
ENDROOT
BRANCH   7  10
HETATM   10  S   UNL     1     -10.971  12.182  67.971  1.00  0.00    -0.246 S  
HETATM   11  O   UNL     1      -9.706  12.762  67.580  1.00  0.00    -0.194 OA 
HETATM   12  O   UNL     1     -12.102  12.188  67.064  1.00  0.00    -0.591 OA 
BRANCH  10  13
HETATM   13  N   UNL     1     -11.507  12.952  69.348  1.00  0.00    -0.374 N  
HETATM   14  H   UNL     1     -11.555  12.412  70.213  1.00  0.00     0.000 HD 
HETATM   15  C   UNL     1     -11.895  14.297  69.385  1.00  0.00    -0.326 C  
HETATM   16  O   UNL     1     -11.869  15.029  68.409  1.00  0.00    -0.319 OA 
BRANCH  15  17
HETATM   17  C   UNL     1     -12.309  14.820  70.710  1.00  0.00    -0.397 A  
HETATM   18  C   UNL     1     -13.454  14.254  71.292  1.00  0.00    -0.378 A  
HETATM   19  C   UNL     1     -13.897  14.684  72.542  1.00  0.00    -0.561 A  
HETATM   20  C   UNL     1     -13.195  15.677  73.222  1.00  0.00    -0.666 A  
HETATM   21  C   UNL     1     -12.056  16.247  72.650  1.00  0.00    -0.628 A  
HETATM   22  C   UNL     1     -11.612  15.826  71.391  1.00  0.00    -0.511 A  
ENDBRANCH  15  17
ENDBRANCH  10  13
ENDBRANCH   7  10
TORSDOF 3
ENDMDL
MODEL       27
REMARK 921   NORMALIZED FREE ENERGY PREDICTED BY IDOCK:   -5.94 KCAL/MOL
REMARK 922        TOTAL FREE ENERGY PREDICTED BY IDOCK:   -7.30 KCAL/MOL
REMARK 923 INTER-LIGAND FREE ENERGY PREDICTED BY IDOCK:   -7.00 KCAL/MOL
REMARK 924 INTRA-LIGAND FREE ENERGY PREDICTED BY IDOCK:   -0.30 KCAL/MOL
REMARK 927      BINDING AFFINITY PREDICTED BY RF-SCORE:    0.00 PKD
ROOT
HETATM    1  N   UNL     1     -13.527  15.850  73.767  1.00  0.00    -0.793 NA 
HETATM    2  H2  UNL     1     -13.799  16.834  73.787  1.00  0.00     0.000 HD 
HETATM    3  C   UNL     1     -13.008  15.560  72.499  1.00  0.00    -0.428 A  
HETATM    4  H1  UNL     1     -14.296  15.296  74.144  1.00  0.00     0.000 HD 
HETATM    5  C   UNL     1     -11.954  16.320  71.982  1.00  0.00    -0.544 A  
HETATM    6  C   UNL     1     -11.359  15.982  70.763  1.00  0.00    -0.427 A  
HETATM    7  C   UNL     1     -11.785  14.839  70.082  1.00  0.00    -0.301 A  
HETATM    8  C   UNL     1     -12.787  14.031  70.620  1.00  0.00    -0.320 A  
HETATM    9  C   UNL     1     -13.378  14.385  71.839  1.00  0.00    -0.456 A  
ENDROOT
BRANCH   7  10
HETATM   10  S   UNL     1     -11.055  14.441  68.511  1.00  0.00    -0.266 S  
HETATM   11  O   UNL     1     -10.024  13.444  68.697  1.00  0.00    -0.216 OA 
HETATM   12  O   UNL     1     -12.150  14.211  67.590  1.00  0.00    -0.378 OA 
BRANCH  10  13
HETATM   13  N   UNL     1     -10.342  15.858  68.005  1.00  0.00    -0.256 N  
HETATM   14  H   UNL     1     -10.458  16.689  68.585  1.00  0.00     0.000 HD 
HETATM   15  C   UNL     1      -9.594  15.973  66.827  1.00  0.00    -0.232 C  
HETATM   16  O   UNL     1      -9.392  15.039  66.067  1.00  0.00    -0.304 OA 
BRANCH  15  17
HETATM   17  C   UNL     1      -9.003  17.308  66.557  1.00  0.00    -0.294 A  
HETATM   18  C   UNL     1      -7.622  17.360  66.320  1.00  0.00    -0.348 A  
HETATM   19  C   UNL     1      -6.998  18.576  66.046  1.00  0.00    -0.310 A  
HETATM   20  C   UNL     1      -7.751  19.747  65.998  1.00  0.00    -0.340 A  
HETATM   21  C   UNL     1      -9.127  19.704  66.234  1.00  0.00    -0.429 A  
HETATM   22  C   UNL     1      -9.757  18.487  66.520  1.00  0.00    -0.354 A  
ENDBRANCH  15  17
ENDBRANCH  10  13
ENDBRANCH   7  10
TORSDOF 3
ENDMDL
MODEL       28
REMARK 921   NORMALIZED FREE ENERGY PREDICTED BY IDOCK:   -5.93 KCAL/MOL
REMARK 922        TOTAL FREE ENERGY PREDICTED BY IDOCK:   -7.30 KCAL/MOL
REMARK 923 INTER-LIGAND FREE ENERGY PREDICTED BY IDOCK:   -7.19 KCAL/MOL
REMARK 924 INTRA-LIGAND FREE ENERGY PREDICTED BY IDOCK:   -0.11 KCAL/MOL
REMARK 927      BINDING AFFINITY PREDICTED BY RF-SCORE:    0.00 PKD
ROOT
HETATM    1  N   UNL     1     -13.508  14.167  73.063  1.00  0.00    -0.627 NA 
HETATM    2  H2  UNL     1     -13.247  13.214  73.317  1.00  0.00     0.000 HD 
HETATM    3  C   UNL     1     -12.711  14.571  71.984  1.00  0.00    -0.338 A  
HETATM    4  H1  UNL     1     -13.540  14.730  73.913  1.00  0.00     0.000 HD 
HETATM    5  C   UNL     1     -12.666  13.800  70.818  1.00  0.00    -0.361 A  
HETATM    6  C   UNL     1     -11.955  14.238  69.697  1.00  0.00    -0.387 A  
HETATM    7  C   UNL     1     -11.331  15.488  69.723  1.00  0.00    -0.319 A  
HETATM    8  C   UNL     1     -11.427  16.300  70.853  1.00  0.00    -0.336 A  
HETATM    9  C   UNL     1     -12.136  15.845  71.971  1.00  0.00    -0.591 A  
ENDROOT
BRANCH   7  10
HETATM   10  S   UNL     1     -10.392  16.019  68.310  1.00  0.00    -0.271 S  
HETATM   11  O   UNL     1     -10.938  17.260  67.806  1.00  0.00    -0.318 OA 
HETATM   12  O   UNL     1      -8.993  15.921  68.679  1.00  0.00    -0.184 OA 
BRANCH  10  13
HETATM   13  N   UNL     1     -10.632  14.829  67.170  1.00  0.00    -0.280 N  
HETATM   14  H   UNL     1     -10.880  13.894  67.496  1.00  0.00     0.000 HD 
HETATM   15  C   UNL     1     -10.512  15.039  65.791  1.00  0.00    -0.337 C  
HETATM   16  O   UNL     1     -10.225  16.119  65.300  1.00  0.00    -0.520 OA 
BRANCH  15  17
HETATM   17  C   UNL     1     -10.799  13.868  64.926  1.00  0.00    -0.413 A  
HETATM   18  C   UNL     1     -12.012  13.875  64.221  1.00  0.00    -0.477 A  
HETATM   19  C   UNL     1     -12.345  12.816  63.377  1.00  0.00    -0.531 A  
HETATM   20  C   UNL     1     -11.465  11.747  63.227  1.00  0.00    -0.332 A  
HETATM   21  C   UNL     1     -10.257  11.730  63.926  1.00  0.00    -0.411 A  
HETATM   22  C   UNL     1      -9.922  12.786  64.782  1.00  0.00    -0.158 A  
ENDBRANCH  15  17
ENDBRANCH  10  13
ENDBRANCH   7  10
TORSDOF 3
ENDMDL
MODEL       29
REMARK 921   NORMALIZED FREE ENERGY PREDICTED BY IDOCK:   -5.93 KCAL/MOL
REMARK 922        TOTAL FREE ENERGY PREDICTED BY IDOCK:   -7.30 KCAL/MOL
REMARK 923 INTER-LIGAND FREE ENERGY PREDICTED BY IDOCK:   -7.17 KCAL/MOL
REMARK 924 INTRA-LIGAND FREE ENERGY PREDICTED BY IDOCK:   -0.13 KCAL/MOL
REMARK 927      BINDING AFFINITY PREDICTED BY RF-SCORE:    0.00 PKD
ROOT
HETATM    1  N   UNL     1      -9.865  20.825  66.638  1.00  0.00    -0.585 NA 
HETATM    2  H2  UNL     1     -10.023  20.811  65.630  1.00  0.00     0.000 HD 
HETATM    3  C   UNL     1      -9.649  19.510  67.069  1.00  0.00    -0.337 A  
HETATM    4  H1  UNL     1     -10.593  21.392  67.071  1.00  0.00     0.000 HD 
HETATM    5  C   UNL     1      -8.649  18.732  66.475  1.00  0.00    -0.312 A  
HETATM    6  C   UNL     1      -8.355  17.454  66.960  1.00  0.00    -0.239 A  
HETATM    7  C   UNL     1      -9.027  16.973  68.086  1.00  0.00    -0.227 A  
HETATM    8  C   UNL     1      -9.976  17.765  68.733  1.00  0.00    -0.367 A  
HETATM    9  C   UNL     1     -10.266  19.040  68.232  1.00  0.00    -0.460 A  
ENDROOT
BRANCH   7  10
HETATM   10  S   UNL     1      -8.678  15.330  68.669  1.00  0.00    -0.194 S  
HETATM   11  O   UNL     1      -8.746  14.401  67.564  1.00  0.00    -0.175 OA 
HETATM   12  O   UNL     1      -7.485  15.424  69.487  1.00  0.00    -0.204 OA 
BRANCH  10  13
HETATM   13  N   UNL     1      -9.915  14.988  69.732  1.00  0.00    -0.450 N  
HETATM   14  H   UNL     1      -9.722  15.052  70.731  1.00  0.00     0.000 HD 
HETATM   15  C   UNL     1     -11.204  14.617  69.329  1.00  0.00    -0.282 C  
HETATM   16  O   UNL     1     -11.538  14.517  68.159  1.00  0.00    -0.298 OA 
BRANCH  15  17
HETATM   17  C   UNL     1     -12.186  14.386  70.417  1.00  0.00    -0.404 A  
HETATM   18  C   UNL     1     -12.858  15.509  70.922  1.00  0.00    -0.535 A  
HETATM   19  C   UNL     1     -13.805  15.369  71.935  1.00  0.00    -0.619 A  
HETATM   20  C   UNL     1     -14.092  14.106  72.446  1.00  0.00    -0.570 A  
HETATM   21  C   UNL     1     -13.427  12.982  71.951  1.00  0.00    -0.498 A  
HETATM   22  C   UNL     1     -12.467  13.118  70.941  1.00  0.00    -0.407 A  
ENDBRANCH  15  17
ENDBRANCH  10  13
ENDBRANCH   7  10
TORSDOF 3
ENDMDL
MODEL       30
REMARK 921   NORMALIZED FREE ENERGY PREDICTED BY IDOCK:   -5.86 KCAL/MOL
REMARK 922        TOTAL FREE ENERGY PREDICTED BY IDOCK:   -7.21 KCAL/MOL
REMARK 923 INTER-LIGAND FREE ENERGY PREDICTED BY IDOCK:   -7.24 KCAL/MOL
REMARK 924 INTRA-LIGAND FREE ENERGY PREDICTED BY IDOCK:    0.03 KCAL/MOL
REMARK 927      BINDING AFFINITY PREDICTED BY RF-SCORE:    0.00 PKD
ROOT
HETATM    1  N   UNL     1     -13.406  16.117  73.951  1.00  0.00    -0.918 NA 
HETATM    2  H2  UNL     1     -13.705  17.076  73.768  1.00  0.00     0.000 HD 
HETATM    3  C   UNL     1     -12.949  15.560  72.751  1.00  0.00    -0.457 A  
HETATM    4  H1  UNL     1     -14.137  15.648  74.487  1.00  0.00     0.000 HD 
HETATM    5  C   UNL     1     -11.946  16.202  72.016  1.00  0.00    -0.607 A  
HETATM    6  C   UNL     1     -11.409  15.610  70.869  1.00  0.00    -0.417 A  
HETATM    7  C   UNL     1     -11.838  14.337  70.486  1.00  0.00    -0.294 A  
HETATM    8  C   UNL     1     -12.785  13.653  71.248  1.00  0.00    -0.443 A  
HETATM    9  C   UNL     1     -13.320  14.261  72.391  1.00  0.00    -0.568 A  
ENDROOT
BRANCH   7  10
HETATM   10  S   UNL     1     -11.183  13.610  69.002  1.00  0.00    -0.273 S  
HETATM   11  O   UNL     1     -12.236  13.487  68.019  1.00  0.00    -0.308 OA 
HETATM   12  O   UNL     1      -9.960  14.325  68.693  1.00  0.00    -0.233 OA 
BRANCH  10  13
HETATM   13  N   UNL     1     -10.698  12.083  69.458  1.00  0.00    -0.440 N  
HETATM   14  H   UNL     1      -9.763  11.972  69.849  1.00  0.00     0.000 HD 
HETATM   15  C   UNL     1     -11.503  10.943  69.333  1.00  0.00    -0.302 C  
HETATM   16  O   UNL     1     -12.637  10.970  68.883  1.00  0.00    -0.366 OA 
BRANCH  15  17
HETATM   17  C   UNL     1     -10.915   9.673  69.826  1.00  0.00    -0.266 A  
HETATM   18  C   UNL     1     -10.965   9.439  71.209  1.00  0.00    -0.440 A  
HETATM   19  C   UNL     1     -10.446   8.262  71.745  1.00  0.00    -0.325 A  
HETATM   20  C   UNL     1      -9.880   7.307  70.903  1.00  0.00    -0.184 A  
HETATM   21  C   UNL     1      -9.825   7.532  69.526  1.00  0.00    -0.169 A  
HETATM   22  C   UNL     1     -10.336   8.717  68.983  1.00  0.00    -0.227 A  
ENDBRANCH  15  17
ENDBRANCH  10  13
ENDBRANCH   7  10
TORSDOF 3
ENDMDL
MODEL       31
REMARK 921   NORMALIZED FREE ENERGY PREDICTED BY IDOCK:   -5.85 KCAL/MOL
REMARK 922        TOTAL FREE ENERGY PREDICTED BY IDOCK:   -7.20 KCAL/MOL
REMARK 923 INTER-LIGAND FREE ENERGY PREDICTED BY IDOCK:   -6.87 KCAL/MOL
REMARK 924 INTRA-LIGAND FREE ENERGY PREDICTED BY IDOCK:   -0.32 KCAL/MOL
REMARK 927      BINDING AFFINITY PREDICTED BY RF-SCORE:    0.00 PKD
ROOT
HETATM    1  N   UNL     1     -11.290  14.935  71.692  1.00  0.00    -0.546 NA 
HETATM    2  H2  UNL     1     -10.635  14.252  72.075  1.00  0.00     0.000 HD 
HETATM    3  C   UNL     1     -11.362  14.748  70.305  1.00  0.00    -0.231 A  
HETATM    4  H1  UNL     1     -11.058  15.852  72.072  1.00  0.00     0.000 HD 
HETATM    5  C   UNL     1     -11.680  13.491  69.783  1.00  0.00    -0.363 A  
HETATM    6  C   UNL     1     -11.853  13.310  68.407  1.00  0.00    -0.395 A  
HETATM    7  C   UNL     1     -11.765  14.412  67.551  1.00  0.00    -0.387 A  
HETATM    8  C   UNL     1     -11.519  15.685  68.065  1.00  0.00    -0.294 A  
HETATM    9  C   UNL     1     -11.341  15.850  69.445  1.00  0.00    -0.349 A  
ENDROOT
BRANCH   7  10
HETATM   10  S   UNL     1     -11.942  14.168  65.800  1.00  0.00    -0.413 S  
HETATM   11  O   UNL     1     -13.319  13.850  65.494  1.00  0.00    -0.662 OA 
HETATM   12  O   UNL     1     -11.277  15.283  65.155  1.00  0.00    -0.367 OA 
BRANCH  10  13
HETATM   13  N   UNL     1     -11.000  12.837  65.461  1.00  0.00    -0.275 N  
HETATM   14  H   UNL     1     -10.453  12.429  66.219  1.00  0.00     0.000 HD 
HETATM   15  C   UNL     1     -10.916  12.248  64.193  1.00  0.00    -0.363 C  
HETATM   16  O   UNL     1     -11.533  12.656  63.222  1.00  0.00    -0.483 OA 
BRANCH  15  17
HETATM   17  C   UNL     1     -10.052  11.045  64.089  1.00  0.00    -0.403 A  
HETATM   18  C   UNL     1      -9.857  10.295  65.257  1.00  0.00    -0.372 A  
HETATM   19  C   UNL     1      -9.070   9.145  65.235  1.00  0.00    -0.252 A  
HETATM   20  C   UNL     1      -8.479   8.732  64.042  1.00  0.00    -0.121 A  
HETATM   21  C   UNL     1      -8.667   9.474  62.875  1.00  0.00    -0.233 A  
HETATM   22  C   UNL     1      -9.448  10.636  62.894  1.00  0.00    -0.367 A  
ENDBRANCH  15  17
ENDBRANCH  10  13
ENDBRANCH   7  10
TORSDOF 3
ENDMDL
MODEL       32
REMARK 921   NORMALIZED FREE ENERGY PREDICTED BY IDOCK:   -5.83 KCAL/MOL
REMARK 922        TOTAL FREE ENERGY PREDICTED BY IDOCK:   -7.18 KCAL/MOL
REMARK 923 INTER-LIGAND FREE ENERGY PREDICTED BY IDOCK:   -7.03 KCAL/MOL
REMARK 924 INTRA-LIGAND FREE ENERGY PREDICTED BY IDOCK:   -0.14 KCAL/MOL
REMARK 927      BINDING AFFINITY PREDICTED BY RF-SCORE:    0.00 PKD
ROOT
HETATM    1  N   UNL     1     -12.480  14.264  63.328  1.00  0.00    -1.068 NA 
HETATM    2  H2  UNL     1     -11.883  14.645  62.593  1.00  0.00     0.000 HD 
HETATM    3  C   UNL     1     -11.662  13.680  64.303  1.00  0.00    -0.403 A  
HETATM    4  H1  UNL     1     -13.222  13.719  62.890  1.00  0.00     0.000 HD 
HETATM    5  C   UNL     1     -10.645  14.427  64.905  1.00  0.00    -0.456 A  
HETATM    6  C   UNL     1      -9.885  13.891  65.949  1.00  0.00    -0.287 A  
HETATM    7  C   UNL     1     -10.185  12.616  66.435  1.00  0.00    -0.251 A  
HETATM    8  C   UNL     1     -11.244  11.887  65.894  1.00  0.00    -0.373 A  
HETATM    9  C   UNL     1     -11.992  12.433  64.843  1.00  0.00    -0.458 A  
ENDROOT
BRANCH   7  10
HETATM   10  S   UNL     1      -9.187  11.924  67.733  1.00  0.00    -0.191 S  
HETATM   11  O   UNL     1      -8.406  10.826  67.208  1.00  0.00    -0.122 OA 
HETATM   12  O   UNL     1      -8.544  13.038  68.402  1.00  0.00    -0.168 OA 
BRANCH  10  13
HETATM   13  N   UNL     1     -10.283  11.321  68.833  1.00  0.00    -0.264 N  
HETATM   14  H   UNL     1     -11.231  11.697  68.823  1.00  0.00     0.000 HD 
HETATM   15  C   UNL     1      -9.975  10.327  69.770  1.00  0.00    -0.181 C  
HETATM   16  O   UNL     1      -8.874   9.808  69.860  1.00  0.00    -0.201 OA 
BRANCH  15  17
HETATM   17  C   UNL     1     -11.090   9.889  70.646  1.00  0.00    -0.409 A  
HETATM   18  C   UNL     1     -10.861   8.772  71.463  1.00  0.00    -0.374 A  
HETATM   19  C   UNL     1     -11.856   8.310  72.323  1.00  0.00    -0.451 A  
HETATM   20  C   UNL     1     -13.085   8.964  72.377  1.00  0.00    -0.476 A  
HETATM   21  C   UNL     1     -13.322  10.075  71.565  1.00  0.00    -0.451 A  
HETATM   22  C   UNL     1     -12.330  10.538  70.693  1.00  0.00    -0.449 A  
ENDBRANCH  15  17
ENDBRANCH  10  13
ENDBRANCH   7  10
TORSDOF 3
ENDMDL
MODEL       33
REMARK 921   NORMALIZED FREE ENERGY PREDICTED BY IDOCK:   -5.82 KCAL/MOL
REMARK 922        TOTAL FREE ENERGY PREDICTED BY IDOCK:   -7.17 KCAL/MOL
REMARK 923 INTER-LIGAND FREE ENERGY PREDICTED BY IDOCK:   -6.86 KCAL/MOL
REMARK 924 INTRA-LIGAND FREE ENERGY PREDICTED BY IDOCK:   -0.31 KCAL/MOL
REMARK 927      BINDING AFFINITY PREDICTED BY RF-SCORE:    0.00 PKD
ROOT
HETATM    1  N   UNL     1     -14.106   8.907  73.236  1.00  0.00    -1.248 NA 
HETATM    2  H2  UNL     1     -13.610   8.368  73.947  1.00  0.00     0.000 HD 
HETATM    3  C   UNL     1     -13.176   9.345  72.285  1.00  0.00    -0.446 A  
HETATM    4  H1  UNL     1     -14.712   9.579  73.706  1.00  0.00     0.000 HD 
HETATM    5  C   UNL     1     -12.345   8.422  71.640  1.00  0.00    -0.359 A  
HETATM    6  C   UNL     1     -11.481   8.829  70.618  1.00  0.00    -0.263 A  
HETATM    7  C   UNL     1     -11.492  10.162  70.198  1.00  0.00    -0.296 A  
HETATM    8  C   UNL     1     -12.366  11.078  70.782  1.00  0.00    -0.496 A  
HETATM    9  C   UNL     1     -13.220  10.658  71.809  1.00  0.00    -0.526 A  
ENDROOT
BRANCH   7  10
HETATM   10  S   UNL     1     -10.361  10.681  68.929  1.00  0.00    -0.219 S  
HETATM   11  O   UNL     1      -9.006  10.393  69.343  1.00  0.00    -0.194 OA 
HETATM   12  O   UNL     1     -10.878  10.169  67.675  1.00  0.00    -0.265 OA 
BRANCH  10  13
HETATM   13  N   UNL     1     -10.552  12.334  68.843  1.00  0.00    -0.372 N  
HETATM   14  H   UNL     1     -11.128  12.789  69.551  1.00  0.00     0.000 HD 
HETATM   15  C   UNL     1      -9.966  13.132  67.853  1.00  0.00    -0.233 C  
HETATM   16  O   UNL     1      -9.255  12.687  66.966  1.00  0.00    -0.199 OA 
BRANCH  15  17
HETATM   17  C   UNL     1     -10.218  14.591  67.958  1.00  0.00    -0.233 A  
HETATM   18  C   UNL     1     -10.016  15.360  66.802  1.00  0.00    -0.256 A  
HETATM   19  C   UNL     1     -10.246  16.735  66.820  1.00  0.00    -0.304 A  
HETATM   20  C   UNL     1     -10.686  17.349  67.990  1.00  0.00    -0.359 A  
HETATM   21  C   UNL     1     -10.888  16.592  69.145  1.00  0.00    -0.334 A  
HETATM   22  C   UNL     1     -10.649  15.212  69.136  1.00  0.00    -0.256 A  
ENDBRANCH  15  17
ENDBRANCH  10  13
ENDBRANCH   7  10
TORSDOF 3
ENDMDL
MODEL       34
REMARK 921   NORMALIZED FREE ENERGY PREDICTED BY IDOCK:   -5.82 KCAL/MOL
REMARK 922        TOTAL FREE ENERGY PREDICTED BY IDOCK:   -7.16 KCAL/MOL
REMARK 923 INTER-LIGAND FREE ENERGY PREDICTED BY IDOCK:   -7.24 KCAL/MOL
REMARK 924 INTRA-LIGAND FREE ENERGY PREDICTED BY IDOCK:    0.08 KCAL/MOL
REMARK 927      BINDING AFFINITY PREDICTED BY RF-SCORE:    0.00 PKD
ROOT
HETATM    1  N   UNL     1     -13.889  15.773  73.159  1.00  0.00    -0.650 NA 
HETATM    2  H2  UNL     1     -13.789  15.473  74.129  1.00  0.00     0.000 HD 
HETATM    3  C   UNL     1     -13.281  14.817  72.336  1.00  0.00    -0.389 A  
HETATM    4  H1  UNL     1     -13.613  16.753  73.094  1.00  0.00     0.000 HD 
HETATM    5  C   UNL     1     -13.659  13.473  72.423  1.00  0.00    -0.709 A  
HETATM    6  C   UNL     1     -13.134  12.523  71.542  1.00  0.00    -0.373 A  
HETATM    7  C   UNL     1     -12.267  12.932  70.525  1.00  0.00    -0.314 A  
HETATM    8  C   UNL     1     -11.936  14.279  70.380  1.00  0.00    -0.402 A  
HETATM    9  C   UNL     1     -12.464  15.219  71.275  1.00  0.00    -0.435 A  
ENDROOT
BRANCH   7  10
HETATM   10  S   UNL     1     -11.569  11.712  69.437  1.00  0.00    -0.353 S  
HETATM   11  O   UNL     1     -12.630  11.048  68.713  1.00  0.00    -0.350 OA 
HETATM   12  O   UNL     1     -10.482  12.360  68.729  1.00  0.00    -0.218 OA 
BRANCH  10  13
HETATM   13  N   UNL     1     -10.841  10.608  70.449  1.00  0.00    -0.442 N  
HETATM   14  H   UNL     1      -9.846  10.719  70.646  1.00  0.00     0.000 HD 
HETATM   15  C   UNL     1     -11.518   9.537  71.045  1.00  0.00    -0.349 C  
HETATM   16  O   UNL     1     -12.708   9.320  70.879  1.00  0.00    -0.208 OA 
BRANCH  15  17
HETATM   17  C   UNL     1     -10.712   8.678  71.948  1.00  0.00    -0.414 A  
HETATM   18  C   UNL     1      -9.317   8.748  71.821  1.00  0.00    -0.350 A  
HETATM   19  C   UNL     1      -8.494   7.980  72.643  1.00  0.00    -0.231 A  
HETATM   20  C   UNL     1      -9.058   7.143  73.603  1.00  0.00    -0.226 A  
HETATM   21  C   UNL     1     -10.446   7.066  73.735  1.00  0.00    -0.392 A  
HETATM   22  C   UNL     1     -11.278   7.827  72.904  1.00  0.00    -0.434 A  
ENDBRANCH  15  17
ENDBRANCH  10  13
ENDBRANCH   7  10
TORSDOF 3
ENDMDL
MODEL       35
REMARK 921   NORMALIZED FREE ENERGY PREDICTED BY IDOCK:   -5.79 KCAL/MOL
REMARK 922        TOTAL FREE ENERGY PREDICTED BY IDOCK:   -7.13 KCAL/MOL
REMARK 923 INTER-LIGAND FREE ENERGY PREDICTED BY IDOCK:   -7.29 KCAL/MOL
REMARK 924 INTRA-LIGAND FREE ENERGY PREDICTED BY IDOCK:    0.16 KCAL/MOL
REMARK 927      BINDING AFFINITY PREDICTED BY RF-SCORE:    0.00 PKD
ROOT
HETATM    1  N   UNL     1     -11.669  16.226  63.973  1.00  0.00    -1.427 NA 
HETATM    2  H2  UNL     1     -11.062  16.922  63.538  1.00  0.00     0.000 HD 
HETATM    3  C   UNL     1     -10.885  15.410  64.798  1.00  0.00    -0.364 A  
HETATM    4  H1  UNL     1     -12.253  15.809  63.248  1.00  0.00     0.000 HD 
HETATM    5  C   UNL     1     -10.084  15.981  65.793  1.00  0.00    -0.393 A  
HETATM    6  C   UNL     1      -9.372  15.177  66.688  1.00  0.00    -0.291 A  
HETATM    7  C   UNL     1      -9.510  13.788  66.625  1.00  0.00    -0.279 A  
HETATM    8  C   UNL     1     -10.360  13.206  65.685  1.00  0.00    -0.291 A  
HETATM    9  C   UNL     1     -11.061  14.023  64.790  1.00  0.00    -0.391 A  
ENDROOT
BRANCH   7  10
HETATM   10  S   UNL     1      -8.569  12.770  67.737  1.00  0.00    -0.197 S  
HETATM   11  O   UNL     1      -8.063  11.617  67.027  1.00  0.00    -0.152 OA 
HETATM   12  O   UNL     1      -7.668  13.655  68.450  1.00  0.00    -0.125 OA 
BRANCH  10  13
HETATM   13  N   UNL     1      -9.671  12.255  68.875  1.00  0.00    -0.417 N  
HETATM   14  H   UNL     1     -10.044  12.943  69.529  1.00  0.00     0.000 HD 
HETATM   15  C   UNL     1     -10.115  10.931  68.982  1.00  0.00    -0.196 C  
HETATM   16  O   UNL     1      -9.735  10.035  68.245  1.00  0.00    -0.139 OA 
BRANCH  15  17
HETATM   17  C   UNL     1     -11.128  10.666  70.034  1.00  0.00    -0.359 A  
HETATM   18  C   UNL     1     -11.053   9.433  70.698  1.00  0.00    -0.351 A  
HETATM   19  C   UNL     1     -11.962   9.118  71.707  1.00  0.00    -0.449 A  
HETATM   20  C   UNL     1     -12.947  10.036  72.064  1.00  0.00    -0.514 A  
HETATM   21  C   UNL     1     -13.030  11.265  71.407  1.00  0.00    -0.482 A  
HETATM   22  C   UNL     1     -12.126  11.583  70.386  1.00  0.00    -0.471 A  
ENDBRANCH  15  17
ENDBRANCH  10  13
ENDBRANCH   7  10
TORSDOF 3
ENDMDL
MODEL       36
REMARK 921   NORMALIZED FREE ENERGY PREDICTED BY IDOCK:   -5.76 KCAL/MOL
REMARK 922        TOTAL FREE ENERGY PREDICTED BY IDOCK:   -7.10 KCAL/MOL
REMARK 923 INTER-LIGAND FREE ENERGY PREDICTED BY IDOCK:   -6.76 KCAL/MOL
REMARK 924 INTRA-LIGAND FREE ENERGY PREDICTED BY IDOCK:   -0.34 KCAL/MOL
REMARK 927      BINDING AFFINITY PREDICTED BY RF-SCORE:    0.00 PKD
ROOT
HETATM    1  N   UNL     1     -10.046  20.447  67.554  1.00  0.00    -0.393 NA 
HETATM    2  H2  UNL     1     -10.698  21.012  67.009  1.00  0.00     0.000 HD 
HETATM    3  C   UNL     1     -10.314  19.096  67.300  1.00  0.00    -0.432 A  
HETATM    4  H1  UNL     1     -10.041  20.795  68.513  1.00  0.00     0.000 HD 
HETATM    5  C   UNL     1     -10.320  18.617  65.986  1.00  0.00    -0.436 A  
HETATM    6  C   UNL     1     -10.487  17.255  65.722  1.00  0.00    -0.237 A  
HETATM    7  C   UNL     1     -10.590  16.354  66.785  1.00  0.00    -0.238 A  
HETATM    8  C   UNL     1     -10.512  16.807  68.102  1.00  0.00    -0.332 A  
HETATM    9  C   UNL     1     -10.353  18.176  68.352  1.00  0.00    -0.371 A  
ENDROOT
BRANCH   7  10
HETATM   10  S   UNL     1     -10.845  14.629  66.442  1.00  0.00    -0.321 S  
HETATM   11  O   UNL     1     -11.929  14.481  65.496  1.00  0.00    -0.354 OA 
HETATM   12  O   UNL     1      -9.540  14.061  66.168  1.00  0.00    -0.286 OA 
BRANCH  10  13
HETATM   13  N   UNL     1     -11.315  13.973  67.899  1.00  0.00    -0.276 N  
HETATM   14  H   UNL     1     -11.307  14.574  68.722  1.00  0.00     0.000 HD 
HETATM   15  C   UNL     1     -11.720  12.642  68.056  1.00  0.00    -0.350 C  
HETATM   16  O   UNL     1     -11.771  11.843  67.134  1.00  0.00    -0.528 OA 
BRANCH  15  17
HETATM   17  C   UNL     1     -12.139  12.244  69.423  1.00  0.00    -0.234 A  
HETATM   18  C   UNL     1     -12.534  13.270  70.295  1.00  0.00    -0.255 A  
HETATM   19  C   UNL     1     -12.953  12.973  71.590  1.00  0.00    -0.417 A  
HETATM   20  C   UNL     1     -12.988  11.649  72.022  1.00  0.00    -0.365 A  
HETATM   21  C   UNL     1     -12.595  10.622  71.162  1.00  0.00    -0.526 A  
HETATM   22  C   UNL     1     -12.163  10.915  69.862  1.00  0.00    -0.408 A  
ENDBRANCH  15  17
ENDBRANCH  10  13
ENDBRANCH   7  10
TORSDOF 3
ENDMDL
MODEL       37
REMARK 921   NORMALIZED FREE ENERGY PREDICTED BY IDOCK:   -5.75 KCAL/MOL
REMARK 922        TOTAL FREE ENERGY PREDICTED BY IDOCK:   -7.08 KCAL/MOL
REMARK 923 INTER-LIGAND FREE ENERGY PREDICTED BY IDOCK:   -6.82 KCAL/MOL
REMARK 924 INTRA-LIGAND FREE ENERGY PREDICTED BY IDOCK:   -0.26 KCAL/MOL
REMARK 927      BINDING AFFINITY PREDICTED BY RF-SCORE:    0.00 PKD
ROOT
HETATM    1  N   UNL     1     -10.616   8.912  68.473  1.00  0.00    -0.354 NA 
HETATM    2  H2  UNL     1     -11.499   8.645  68.910  1.00  0.00     0.000 HD 
HETATM    3  C   UNL     1     -10.871   9.931  67.547  1.00  0.00    -0.243 A  
HETATM    4  H1  UNL     1     -10.133   8.063  68.178  1.00  0.00     0.000 HD 
HETATM    5  C   UNL     1     -11.533  11.096  67.951  1.00  0.00    -0.359 A  
HETATM    6  C   UNL     1     -11.708  12.163  67.065  1.00  0.00    -0.373 A  
HETATM    7  C   UNL     1     -11.163  12.088  65.781  1.00  0.00    -0.334 A  
HETATM    8  C   UNL     1     -10.439  10.963  65.387  1.00  0.00    -0.291 A  
HETATM    9  C   UNL     1     -10.278   9.898  66.282  1.00  0.00    -0.282 A  
ENDROOT
BRANCH   7  10
HETATM   10  S   UNL     1     -11.427  13.430  64.646  1.00  0.00    -0.365 S  
HETATM   11  O   UNL     1     -10.682  13.189  63.431  1.00  0.00    -0.013 OA 
HETATM   12  O   UNL     1     -12.858  13.664  64.604  1.00  0.00    -0.666 OA 
BRANCH  10  13
HETATM   13  N   UNL     1     -10.784  14.763  65.410  1.00  0.00    -0.344 N  
HETATM   14  H   UNL     1     -10.240  14.614  66.260  1.00  0.00     0.000 HD 
HETATM   15  C   UNL     1     -10.950  16.076  64.952  1.00  0.00    -0.384 C  
HETATM   16  O   UNL     1     -11.578  16.360  63.945  1.00  0.00    -1.100 OA 
BRANCH  15  17
HETATM   17  C   UNL     1     -10.273  17.133  65.744  1.00  0.00    -0.234 A  
HETATM   18  C   UNL     1     -10.911  18.380  65.823  1.00  0.00    -0.025 A  
HETATM   19  C   UNL     1     -10.342  19.418  66.560  1.00  0.00    -0.564 A  
HETATM   20  C   UNL     1      -9.138  19.215  67.229  1.00  0.00    -0.334 A  
HETATM   21  C   UNL     1      -8.495  17.978  67.154  1.00  0.00    -0.241 A  
HETATM   22  C   UNL     1      -9.057  16.935  66.407  1.00  0.00    -0.315 A  
ENDBRANCH  15  17
ENDBRANCH  10  13
ENDBRANCH   7  10
TORSDOF 3
ENDMDL
MODEL       38
REMARK 921   NORMALIZED FREE ENERGY PREDICTED BY IDOCK:   -5.68 KCAL/MOL
REMARK 922        TOTAL FREE ENERGY PREDICTED BY IDOCK:   -7.00 KCAL/MOL
REMARK 923 INTER-LIGAND FREE ENERGY PREDICTED BY IDOCK:   -6.73 KCAL/MOL
REMARK 924 INTRA-LIGAND FREE ENERGY PREDICTED BY IDOCK:   -0.26 KCAL/MOL
REMARK 927      BINDING AFFINITY PREDICTED BY RF-SCORE:    0.00 PKD
ROOT
HETATM    1  N   UNL     1      -9.844  19.284  68.730  1.00  0.00    -0.430 NA 
HETATM    2  H2  UNL     1     -10.365  20.005  68.230  1.00  0.00     0.000 HD 
HETATM    3  C   UNL     1     -10.260  18.032  68.260  1.00  0.00    -0.395 A  
HETATM    4  H1  UNL     1      -9.880  19.493  69.728  1.00  0.00     0.000 HD 
HETATM    5  C   UNL     1     -10.210  17.745  66.892  1.00  0.00    -0.346 A  
HETATM    6  C   UNL     1     -10.527  16.468  66.417  1.00  0.00    -0.275 A  
HETATM    7  C   UNL     1     -10.841  15.454  67.325  1.00  0.00    -0.316 A  
HETATM    8  C   UNL     1     -10.825  15.706  68.697  1.00  0.00    -0.273 A  
HETATM    9  C   UNL     1     -10.512  16.991  69.158  1.00  0.00    -0.323 A  
ENDROOT
BRANCH   7  10
HETATM   10  S   UNL     1     -11.285  13.846  66.712  1.00  0.00    -0.329 S  
HETATM   11  O   UNL     1     -12.593  13.908  66.097  1.00  0.00    -0.452 OA 
HETATM   12  O   UNL     1     -10.141  13.352  65.971  1.00  0.00    -0.293 OA 
BRANCH  10  13
HETATM   13  N   UNL     1     -11.379  12.886  68.070  1.00  0.00    -0.272 N  
HETATM   14  H   UNL     1     -11.344  13.340  68.983  1.00  0.00     0.000 HD 
HETATM   15  C   UNL     1     -11.504  11.492  68.028  1.00  0.00    -0.311 C  
HETATM   16  O   UNL     1     -11.560  10.855  66.989  1.00  0.00    -0.383 OA 
BRANCH  15  17
HETATM   17  C   UNL     1     -11.610  10.808  69.341  1.00  0.00    -0.380 A  
HETATM   18  C   UNL     1     -10.598   9.894  69.670  1.00  0.00    -0.273 A  
HETATM   19  C   UNL     1     -10.623   9.222  70.891  1.00  0.00    -0.366 A  
HETATM   20  C   UNL     1     -11.655   9.465  71.795  1.00  0.00    -0.433 A  
HETATM   21  C   UNL     1     -12.667  10.372  71.475  1.00  0.00    -0.564 A  
HETATM   22  C   UNL     1     -12.653  11.041  70.245  1.00  0.00    -0.321 A  
ENDBRANCH  15  17
ENDBRANCH  10  13
ENDBRANCH   7  10
TORSDOF 3
ENDMDL
MODEL       39
REMARK 921   NORMALIZED FREE ENERGY PREDICTED BY IDOCK:   -5.67 KCAL/MOL
REMARK 922        TOTAL FREE ENERGY PREDICTED BY IDOCK:   -6.99 KCAL/MOL
REMARK 923 INTER-LIGAND FREE ENERGY PREDICTED BY IDOCK:   -6.69 KCAL/MOL
REMARK 924 INTRA-LIGAND FREE ENERGY PREDICTED BY IDOCK:   -0.30 KCAL/MOL
REMARK 927      BINDING AFFINITY PREDICTED BY RF-SCORE:    0.00 PKD
ROOT
HETATM    1  N   UNL     1      -9.054   3.678  68.676  1.00  0.00    -0.129 NA 
HETATM    2  H2  UNL     1      -9.284   2.740  69.007  1.00  0.00     0.000 HD 
HETATM    3  C   UNL     1      -9.890   4.594  69.327  1.00  0.00    -0.190 A  
HETATM    4  H1  UNL     1      -9.013   3.659  67.657  1.00  0.00     0.000 HD 
HETATM    5  C   UNL     1      -9.947   4.621  70.724  1.00  0.00    -0.284 A  
HETATM    6  C   UNL     1     -10.699   5.592  71.391  1.00  0.00    -0.310 A  
HETATM    7  C   UNL     1     -11.354   6.583  70.654  1.00  0.00    -0.351 A  
HETATM    8  C   UNL     1     -11.248   6.612  69.263  1.00  0.00    -0.326 A  
HETATM    9  C   UNL     1     -10.497   5.628  68.608  1.00  0.00    -0.277 A  
ENDROOT
BRANCH   7  10
HETATM   10  S   UNL     1     -12.344   7.788  71.506  1.00  0.00    -0.326 S  
HETATM   11  O   UNL     1     -13.741   7.433  71.393  1.00  0.00    -0.383 OA 
HETATM   12  O   UNL     1     -11.732   7.986  72.805  1.00  0.00    -0.396 OA 
BRANCH  10  13
HETATM   13  N   UNL     1     -12.086   9.209  70.676  1.00  0.00    -0.476 N  
HETATM   14  H   UNL     1     -11.552   9.169  69.808  1.00  0.00     0.000 HD 
HETATM   15  C   UNL     1     -12.562  10.455  71.103  1.00  0.00    -0.410 C  
HETATM   16  O   UNL     1     -13.215  10.609  72.123  1.00  0.00    -0.464 OA 
BRANCH  15  17
HETATM   17  C   UNL     1     -12.266  11.606  70.215  1.00  0.00    -0.401 A  
HETATM   18  C   UNL     1     -11.967  11.320  68.875  1.00  0.00    -0.378 A  
HETATM   19  C   UNL     1     -11.692  12.350  67.977  1.00  0.00    -0.414 A  
HETATM   20  C   UNL     1     -11.720  13.673  68.410  1.00  0.00    -0.393 A  
HETATM   21  C   UNL     1     -12.015  13.968  69.742  1.00  0.00    -0.393 A  
HETATM   22  C   UNL     1     -12.282  12.936  70.651  1.00  0.00    -0.386 A  
ENDBRANCH  15  17
ENDBRANCH  10  13
ENDBRANCH   7  10
TORSDOF 3
ENDMDL
MODEL       40
REMARK 921   NORMALIZED FREE ENERGY PREDICTED BY IDOCK:   -5.64 KCAL/MOL
REMARK 922        TOTAL FREE ENERGY PREDICTED BY IDOCK:   -6.95 KCAL/MOL
REMARK 923 INTER-LIGAND FREE ENERGY PREDICTED BY IDOCK:   -6.74 KCAL/MOL
REMARK 924 INTRA-LIGAND FREE ENERGY PREDICTED BY IDOCK:   -0.21 KCAL/MOL
REMARK 927      BINDING AFFINITY PREDICTED BY RF-SCORE:    0.00 PKD
ROOT
HETATM    1  N   UNL     1     -10.915   6.081  66.352  1.00  0.00    -0.714 NA 
HETATM    2  H2  UNL     1     -11.788   5.566  66.237  1.00  0.00     0.000 HD 
HETATM    3  C   UNL     1     -10.924   6.693  67.612  1.00  0.00    -0.309 A  
HETATM    4  H1  UNL     1     -10.757   6.639  65.514  1.00  0.00     0.000 HD 
HETATM    5  C   UNL     1     -11.140   5.927  68.762  1.00  0.00    -0.218 A  
HETATM    6  C   UNL     1     -11.054   6.504  70.033  1.00  0.00    -0.422 A  
HETATM    7  C   UNL     1     -10.692   7.848  70.156  1.00  0.00    -0.244 A  
HETATM    8  C   UNL     1     -10.403   8.607  69.021  1.00  0.00    -0.226 A  
HETATM    9  C   UNL     1     -10.500   8.017  67.754  1.00  0.00    -0.280 A  
ENDROOT
BRANCH   7  10
HETATM   10  S   UNL     1     -10.628   8.586  71.771  1.00  0.00    -0.329 S  
HETATM   11  O   UNL     1     -11.616   7.966  72.625  1.00  0.00    -0.376 OA 
HETATM   12  O   UNL     1      -9.231   8.621  72.158  1.00  0.00    -0.253 OA 
BRANCH  10  13
HETATM   13  N   UNL     1     -11.057  10.177  71.526  1.00  0.00     0.023 N  
HETATM   14  H   UNL     1     -10.318  10.881  71.528  1.00  0.00     0.000 HD 
HETATM   15  C   UNL     1     -12.375  10.602  71.318  1.00  0.00    -0.383 C  
HETATM   16  O   UNL     1     -13.329   9.841  71.292  1.00  0.00    -0.378 OA 
BRANCH  15  17
HETATM   17  C   UNL     1     -12.561  12.056  71.081  1.00  0.00    -0.372 A  
HETATM   18  C   UNL     1     -13.352  12.758  72.002  1.00  0.00    -0.565 A  
HETATM   19  C   UNL     1     -13.561  14.128  71.853  1.00  0.00    -0.504 A  
HETATM   20  C   UNL     1     -12.976  14.807  70.787  1.00  0.00    -0.407 A  
HETATM   21  C   UNL     1     -12.189  14.116  69.864  1.00  0.00    -0.416 A  
HETATM   22  C   UNL     1     -11.984  12.737  70.003  1.00  0.00    -0.371 A  
ENDBRANCH  15  17
ENDBRANCH  10  13
ENDBRANCH   7  10
TORSDOF 3
ENDMDL
MODEL       41
REMARK 921   NORMALIZED FREE ENERGY PREDICTED BY IDOCK:   -5.61 KCAL/MOL
REMARK 922        TOTAL FREE ENERGY PREDICTED BY IDOCK:   -6.92 KCAL/MOL
REMARK 923 INTER-LIGAND FREE ENERGY PREDICTED BY IDOCK:   -6.74 KCAL/MOL
REMARK 924 INTRA-LIGAND FREE ENERGY PREDICTED BY IDOCK:   -0.18 KCAL/MOL
REMARK 927      BINDING AFFINITY PREDICTED BY RF-SCORE:    0.00 PKD
ROOT
HETATM    1  N   UNL     1     -12.315  14.264  69.975  1.00  0.00    -0.346 NA 
HETATM    2  H2  UNL     1     -12.113  14.868  70.773  1.00  0.00     0.000 HD 
HETATM    3  C   UNL     1     -12.267  12.932  70.405  1.00  0.00    -0.304 A  
HETATM    4  H1  UNL     1     -11.743  14.568  69.188  1.00  0.00     0.000 HD 
HETATM    5  C   UNL     1     -13.052  12.514  71.484  1.00  0.00    -0.373 A  
HETATM    6  C   UNL     1     -13.090  11.169  71.863  1.00  0.00    -0.513 A  
HETATM    7  C   UNL     1     -12.381  10.223  71.117  1.00  0.00    -0.395 A  
HETATM    8  C   UNL     1     -11.651  10.614  69.994  1.00  0.00    -0.406 A  
HETATM    9  C   UNL     1     -11.616  11.966  69.631  1.00  0.00    -0.387 A  
ENDROOT
BRANCH   7  10
HETATM   10  S   UNL     1     -12.399   8.521  71.630  1.00  0.00    -0.342 S  
HETATM   11  O   UNL     1     -11.485   8.341  72.736  1.00  0.00    -0.391 OA 
HETATM   12  O   UNL     1     -13.792   8.138  71.749  1.00  0.00    -0.366 OA 
BRANCH  10  13
HETATM   13  N   UNL     1     -11.820   7.677  70.316  1.00  0.00    -0.490 N  
HETATM   14  H   UNL     1     -11.854   8.129  69.401  1.00  0.00     0.000 HD 
HETATM   15  C   UNL     1     -11.290   6.384  70.396  1.00  0.00    -0.389 C  
HETATM   16  O   UNL     1     -11.199   5.760  71.442  1.00  0.00    -0.251 OA 
BRANCH  15  17
HETATM   17  C   UNL     1     -10.788   5.805  69.125  1.00  0.00    -0.355 A  
HETATM   18  C   UNL     1      -9.910   4.715  69.221  1.00  0.00    -0.260 A  
HETATM   19  C   UNL     1      -9.408   4.109  68.071  1.00  0.00    -0.213 A  
HETATM   20  C   UNL     1      -9.786   4.583  66.816  1.00  0.00    -0.224 A  
HETATM   21  C   UNL     1     -10.659   5.667  66.711  1.00  0.00    -0.372 A  
HETATM   22  C   UNL     1     -11.158   6.286  67.864  1.00  0.00    -0.360 A  
ENDBRANCH  15  17
ENDBRANCH  10  13
ENDBRANCH   7  10
TORSDOF 3
ENDMDL
MODEL       42
REMARK 921   NORMALIZED FREE ENERGY PREDICTED BY IDOCK:   -5.61 KCAL/MOL
REMARK 922        TOTAL FREE ENERGY PREDICTED BY IDOCK:   -6.92 KCAL/MOL
REMARK 923 INTER-LIGAND FREE ENERGY PREDICTED BY IDOCK:   -7.04 KCAL/MOL
REMARK 924 INTRA-LIGAND FREE ENERGY PREDICTED BY IDOCK:    0.12 KCAL/MOL
REMARK 927      BINDING AFFINITY PREDICTED BY RF-SCORE:    0.00 PKD
ROOT
HETATM    1  N   UNL     1     -13.781  15.827  72.760  1.00  0.00    -0.588 NA 
HETATM    2  H2  UNL     1     -14.172  16.502  72.102  1.00  0.00     0.000 HD 
HETATM    3  C   UNL     1     -13.417  14.676  72.049  1.00  0.00    -0.380 A  
HETATM    4  H1  UNL     1     -14.409  15.755  73.561  1.00  0.00     0.000 HD 
HETATM    5  C   UNL     1     -12.555  14.773  70.952  1.00  0.00    -0.401 A  
HETATM    6  C   UNL     1     -12.103  13.626  70.293  1.00  0.00    -0.427 A  
HETATM    7  C   UNL     1     -12.471  12.366  70.773  1.00  0.00    -0.267 A  
HETATM    8  C   UNL     1     -13.272  12.252  71.909  1.00  0.00    -0.481 A  
HETATM    9  C   UNL     1     -13.723  13.409  72.555  1.00  0.00    -0.636 A  
ENDROOT
BRANCH   7  10
HETATM   10  S   UNL     1     -11.929  10.914  69.904  1.00  0.00    -0.375 S  
HETATM   11  O   UNL     1     -10.555  10.628  70.251  1.00  0.00    -0.147 OA 
HETATM   12  O   UNL     1     -12.963   9.912  70.083  1.00  0.00     0.087 OA 
BRANCH  10  13
HETATM   13  N   UNL     1     -11.997  11.334  68.293  1.00  0.00    -0.226 N  
HETATM   14  H   UNL     1     -12.891  11.647  67.915  1.00  0.00     0.000 HD 
HETATM   15  C   UNL     1     -10.895  11.282  67.431  1.00  0.00    -0.262 C  
HETATM   16  O   UNL     1      -9.782  10.929  67.785  1.00  0.00    -0.164 OA 
BRANCH  15  17
HETATM   17  C   UNL     1     -11.137  11.731  66.037  1.00  0.00    -0.363 A  
HETATM   18  C   UNL     1     -11.974  12.842  65.858  1.00  0.00    -0.506 A  
HETATM   19  C   UNL     1     -12.237  13.329  64.579  1.00  0.00    -0.456 A  
HETATM   20  C   UNL     1     -11.660  12.715  63.470  1.00  0.00    -0.584 A  
HETATM   21  C   UNL     1     -10.826  11.608  63.639  1.00  0.00    -0.503 A  
HETATM   22  C   UNL     1     -10.567  11.107  64.921  1.00  0.00    -0.356 A  
ENDBRANCH  15  17
ENDBRANCH  10  13
ENDBRANCH   7  10
TORSDOF 3
ENDMDL
MODEL       43
REMARK 921   NORMALIZED FREE ENERGY PREDICTED BY IDOCK:   -5.59 KCAL/MOL
REMARK 922        TOTAL FREE ENERGY PREDICTED BY IDOCK:   -6.89 KCAL/MOL
REMARK 923 INTER-LIGAND FREE ENERGY PREDICTED BY IDOCK:   -6.82 KCAL/MOL
REMARK 924 INTRA-LIGAND FREE ENERGY PREDICTED BY IDOCK:   -0.07 KCAL/MOL
REMARK 927      BINDING AFFINITY PREDICTED BY RF-SCORE:    0.00 PKD
ROOT
HETATM    1  N   UNL     1      -8.632  17.448  66.291  1.00  0.00    -0.423 NA 
HETATM    2  H2  UNL     1      -7.630  17.347  66.128  1.00  0.00     0.000 HD 
HETATM    3  C   UNL     1      -9.254  16.227  66.003  1.00  0.00    -0.316 A  
HETATM    4  H1  UNL     1      -8.949  18.303  65.833  1.00  0.00     0.000 HD 
HETATM    5  C   UNL     1      -8.821  15.054  66.631  1.00  0.00    -0.307 A  
HETATM    6  C   UNL     1      -9.493  13.845  66.430  1.00  0.00    -0.268 A  
HETATM    7  C   UNL     1     -10.645  13.820  65.639  1.00  0.00    -0.298 A  
HETATM    8  C   UNL     1     -11.130  14.995  65.064  1.00  0.00    -0.421 A  
HETATM    9  C   UNL     1     -10.443  16.197  65.268  1.00  0.00    -0.356 A  
ENDROOT
BRANCH   7  10
HETATM   10  S   UNL     1     -11.468  12.271  65.352  1.00  0.00    -0.348 S  
HETATM   11  O   UNL     1     -12.878  12.508  65.132  1.00  0.00    -0.685 OA 
HETATM   12  O   UNL     1     -10.675  11.553  64.374  1.00  0.00    -0.306 OA 
BRANCH  10  13
HETATM   13  N   UNL     1     -11.285  11.425  66.775  1.00  0.00    -0.295 N  
HETATM   14  H   UNL     1     -10.825  10.515  66.738  1.00  0.00     0.000 HD 
HETATM   15  C   UNL     1     -11.726  11.893  68.019  1.00  0.00    -0.312 C  
HETATM   16  O   UNL     1     -12.281  12.969  68.172  1.00  0.00    -0.226 OA 
BRANCH  15  17
HETATM   17  C   UNL     1     -11.442  11.017  69.183  1.00  0.00    -0.370 A  
HETATM   18  C   UNL     1     -12.441  10.911  70.162  1.00  0.00    -0.356 A  
HETATM   19  C   UNL     1     -12.253  10.096  71.277  1.00  0.00    -0.496 A  
HETATM   20  C   UNL     1     -11.069   9.377  71.419  1.00  0.00    -0.450 A  
HETATM   21  C   UNL     1     -10.069   9.478  70.450  1.00  0.00    -0.329 A  
HETATM   22  C   UNL     1     -10.248  10.303  69.333  1.00  0.00    -0.255 A  
ENDBRANCH  15  17
ENDBRANCH  10  13
ENDBRANCH   7  10
TORSDOF 3
ENDMDL
MODEL       44
REMARK 921   NORMALIZED FREE ENERGY PREDICTED BY IDOCK:   -5.58 KCAL/MOL
REMARK 922        TOTAL FREE ENERGY PREDICTED BY IDOCK:   -6.89 KCAL/MOL
REMARK 923 INTER-LIGAND FREE ENERGY PREDICTED BY IDOCK:   -6.73 KCAL/MOL
REMARK 924 INTRA-LIGAND FREE ENERGY PREDICTED BY IDOCK:   -0.15 KCAL/MOL
REMARK 927      BINDING AFFINITY PREDICTED BY RF-SCORE:    0.00 PKD
ROOT
HETATM    1  N   UNL     1     -11.003   5.559  66.259  1.00  0.00    -0.751 NA 
HETATM    2  H2  UNL     1     -10.211   5.623  65.619  1.00  0.00     0.000 HD 
HETATM    3  C   UNL     1     -10.768   6.417  67.341  1.00  0.00    -0.336 A  
HETATM    4  H1  UNL     1     -11.205   4.572  66.423  1.00  0.00     0.000 HD 
HETATM    5  C   UNL     1     -10.492   7.769  67.117  1.00  0.00    -0.413 A  
HETATM    6  C   UNL     1     -10.353   8.658  68.187  1.00  0.00    -0.267 A  
HETATM    7  C   UNL     1     -10.552   8.201  69.492  1.00  0.00    -0.213 A  
HETATM    8  C   UNL     1     -10.899   6.871  69.728  1.00  0.00    -0.295 A  
HETATM    9  C   UNL     1     -11.027   5.990  68.647  1.00  0.00    -0.361 A  
ENDROOT
BRANCH   7  10
HETATM   10  S   UNL     1     -10.331   9.327  70.850  1.00  0.00    -0.313 S  
HETATM   11  O   UNL     1     -11.397   9.141  71.809  1.00  0.00    -0.350 OA 
HETATM   12  O   UNL     1      -8.942   9.223  71.254  1.00  0.00    -0.285 OA 
BRANCH  10  13
HETATM   13  N   UNL     1     -10.481  10.841  70.172  1.00  0.00    -0.400 N  
HETATM   14  H   UNL     1      -9.637  11.404  70.060  1.00  0.00     0.000 HD 
HETATM   15  C   UNL     1     -11.699  11.384  69.747  1.00  0.00    -0.344 C  
HETATM   16  O   UNL     1     -12.763  10.791  69.830  1.00  0.00    -0.245 OA 
BRANCH  15  17
HETATM   17  C   UNL     1     -11.633  12.734  69.133  1.00  0.00    -0.373 A  
HETATM   18  C   UNL     1     -11.487  12.796  67.739  1.00  0.00    -0.376 A  
HETATM   19  C   UNL     1     -11.431  14.028  67.089  1.00  0.00    -0.373 A  
HETATM   20  C   UNL     1     -11.529  15.206  67.827  1.00  0.00    -0.329 A  
HETATM   21  C   UNL     1     -11.673  15.153  69.215  1.00  0.00    -0.352 A  
HETATM   22  C   UNL     1     -11.719  13.919  69.873  1.00  0.00    -0.358 A  
ENDBRANCH  15  17
ENDBRANCH  10  13
ENDBRANCH   7  10
TORSDOF 3
ENDMDL
MODEL       45
REMARK 921   NORMALIZED FREE ENERGY PREDICTED BY IDOCK:   -5.53 KCAL/MOL
REMARK 922        TOTAL FREE ENERGY PREDICTED BY IDOCK:   -6.83 KCAL/MOL
REMARK 923 INTER-LIGAND FREE ENERGY PREDICTED BY IDOCK:   -6.56 KCAL/MOL
REMARK 924 INTRA-LIGAND FREE ENERGY PREDICTED BY IDOCK:   -0.27 KCAL/MOL
REMARK 927      BINDING AFFINITY PREDICTED BY RF-SCORE:    0.00 PKD
ROOT
HETATM    1  N   UNL     1     -11.305   9.929  69.721  1.00  0.00    -0.357 NA 
HETATM    2  H2  UNL     1     -12.177   9.877  70.248  1.00  0.00     0.000 HD 
HETATM    3  C   UNL     1     -11.453  10.893  68.716  1.00  0.00    -0.308 A  
HETATM    4  H1  UNL     1     -11.015   8.981  69.481  1.00  0.00     0.000 HD 
HETATM    5  C   UNL     1     -11.849  12.194  69.044  1.00  0.00    -0.361 A  
HETATM    6  C   UNL     1     -11.905  13.192  68.067  1.00  0.00    -0.398 A  
HETATM    7  C   UNL     1     -11.506  12.901  66.760  1.00  0.00    -0.340 A  
HETATM    8  C   UNL     1     -11.040  11.627  66.433  1.00  0.00    -0.347 A  
HETATM    9  C   UNL     1     -10.995  10.635  67.420  1.00  0.00    -0.361 A  
ENDROOT
BRANCH   7  10
HETATM   10  S   UNL     1     -11.622  14.163  65.514  1.00  0.00    -0.349 S  
HETATM   11  O   UNL     1     -10.766  13.822  64.400  1.00  0.00    -0.407 OA 
HETATM   12  O   UNL     1     -13.035  14.419  65.313  1.00  0.00    -0.608 OA 
BRANCH  10  13
HETATM   13  N   UNL     1     -11.024  15.535  66.245  1.00  0.00    -0.287 N  
HETATM   14  H   UNL     1     -11.663  16.315  66.399  1.00  0.00     0.000 HD 
HETATM   15  C   UNL     1      -9.694  15.678  66.659  1.00  0.00    -0.249 C  
HETATM   16  O   UNL     1      -8.853  14.803  66.526  1.00  0.00    -0.253 OA 
BRANCH  15  17
HETATM   17  C   UNL     1      -9.352  16.959  67.326  1.00  0.00    -0.238 A  
HETATM   18  C   UNL     1      -8.097  17.515  67.038  1.00  0.00    -0.240 A  
HETATM   19  C   UNL     1      -7.711  18.723  67.615  1.00  0.00    -0.252 A  
HETATM   20  C   UNL     1      -8.579  19.388  68.478  1.00  0.00    -0.401 A  
HETATM   21  C   UNL     1      -9.830  18.841  68.771  1.00  0.00    -0.434 A  
HETATM   22  C   UNL     1     -10.219  17.622  68.202  1.00  0.00    -0.371 A  
ENDBRANCH  15  17
ENDBRANCH  10  13
ENDBRANCH   7  10
TORSDOF 3
ENDMDL
MODEL       46
REMARK 921   NORMALIZED FREE ENERGY PREDICTED BY IDOCK:   -5.47 KCAL/MOL
REMARK 922        TOTAL FREE ENERGY PREDICTED BY IDOCK:   -6.75 KCAL/MOL
REMARK 923 INTER-LIGAND FREE ENERGY PREDICTED BY IDOCK:   -6.51 KCAL/MOL
REMARK 924 INTRA-LIGAND FREE ENERGY PREDICTED BY IDOCK:   -0.24 KCAL/MOL
REMARK 927      BINDING AFFINITY PREDICTED BY RF-SCORE:    0.00 PKD
ROOT
HETATM    1  N   UNL     1     -11.773  16.284  63.766  1.00  0.00    -1.488 NA 
HETATM    2  H2  UNL     1     -12.768  16.443  63.605  1.00  0.00     0.000 HD 
HETATM    3  C   UNL     1     -11.636  15.279  64.732  1.00  0.00    -0.322 A  
HETATM    4  H1  UNL     1     -11.320  17.188  63.902  1.00  0.00     0.000 HD 
HETATM    5  C   UNL     1     -12.257  14.039  64.547  1.00  0.00    -0.463 A  
HETATM    6  C   UNL     1     -12.050  12.993  65.451  1.00  0.00    -0.490 A  
HETATM    7  C   UNL     1     -11.167  13.171  66.519  1.00  0.00    -0.310 A  
HETATM    8  C   UNL     1     -10.485  14.378  66.677  1.00  0.00    -0.274 A  
HETATM    9  C   UNL     1     -10.708  15.419  65.768  1.00  0.00    -0.360 A  
ENDROOT
BRANCH   7  10
HETATM   10  S   UNL     1     -10.942  11.852  67.689  1.00  0.00    -0.251 S  
HETATM   11  O   UNL     1     -10.053  12.288  68.743  1.00  0.00    -0.175 OA 
HETATM   12  O   UNL     1     -12.263  11.341  67.998  1.00  0.00    -0.621 OA 
BRANCH  10  13
HETATM   13  N   UNL     1     -10.192  10.643  66.824  1.00  0.00    -0.224 N  
HETATM   14  H   UNL     1      -9.802  10.875  65.911  1.00  0.00     0.000 HD 
HETATM   15  C   UNL     1     -10.067   9.325  67.281  1.00  0.00    -0.231 C  
HETATM   16  O   UNL     1     -10.493   8.946  68.360  1.00  0.00    -0.210 OA 
BRANCH  15  17
HETATM   17  C   UNL     1      -9.334   8.392  66.389  1.00  0.00    -0.274 A  
HETATM   18  C   UNL     1      -8.714   8.943  65.257  1.00  0.00    -0.220 A  
HETATM   19  C   UNL     1      -7.996   8.132  64.380  1.00  0.00    -0.145 A  
HETATM   20  C   UNL     1      -7.886   6.767  64.631  1.00  0.00    -0.116 A  
HETATM   21  C   UNL     1      -8.501   6.209  65.753  1.00  0.00    -0.147 A  
HETATM   22  C   UNL     1      -9.233   7.018  66.633  1.00  0.00    -0.189 A  
ENDBRANCH  15  17
ENDBRANCH  10  13
ENDBRANCH   7  10
TORSDOF 3
ENDMDL
MODEL       47
REMARK 921   NORMALIZED FREE ENERGY PREDICTED BY IDOCK:   -5.46 KCAL/MOL
REMARK 922        TOTAL FREE ENERGY PREDICTED BY IDOCK:   -6.74 KCAL/MOL
REMARK 923 INTER-LIGAND FREE ENERGY PREDICTED BY IDOCK:   -6.88 KCAL/MOL
REMARK 924 INTRA-LIGAND FREE ENERGY PREDICTED BY IDOCK:    0.14 KCAL/MOL
REMARK 927      BINDING AFFINITY PREDICTED BY RF-SCORE:    0.00 PKD
ROOT
HETATM    1  N   UNL     1      -7.751  17.620  65.733  1.00  0.00    -0.535 NA 
HETATM    2  H2  UNL     1      -6.789  17.389  65.481  1.00  0.00     0.000 HD 
HETATM    3  C   UNL     1      -8.398  16.444  66.131  1.00  0.00    -0.256 A  
HETATM    4  H1  UNL     1      -8.148  18.196  64.991  1.00  0.00     0.000 HD 
HETATM    5  C   UNL     1      -7.853  15.653  67.148  1.00  0.00    -0.253 A  
HETATM    6  C   UNL     1      -8.536  14.530  67.625  1.00  0.00    -0.184 A  
HETATM    7  C   UNL     1      -9.804  14.229  67.120  1.00  0.00    -0.252 A  
HETATM    8  C   UNL     1     -10.391  15.049  66.156  1.00  0.00    -0.310 A  
HETATM    9  C   UNL     1      -9.693  16.166  65.682  1.00  0.00    -0.239 A  
ENDROOT
BRANCH   7  10
HETATM   10  S   UNL     1     -10.647  12.776  67.699  1.00  0.00    -0.222 S  
HETATM   11  O   UNL     1     -11.786  12.508  66.850  1.00  0.00    -0.437 OA 
HETATM   12  O   UNL     1      -9.631  11.765  67.917  1.00  0.00    -0.175 OA 
BRANCH  10  13
HETATM   13  N   UNL     1     -11.197  13.183  69.218  1.00  0.00    -0.395 N  
HETATM   14  H   UNL     1     -11.042  12.521  69.979  1.00  0.00     0.000 HD 
HETATM   15  C   UNL     1     -11.859  14.382  69.508  1.00  0.00    -0.329 C  
HETATM   16  O   UNL     1     -12.088  15.241  68.671  1.00  0.00    -0.263 OA 
BRANCH  15  17
HETATM   17  C   UNL     1     -12.244  14.588  70.926  1.00  0.00    -0.409 A  
HETATM   18  C   UNL     1     -11.643  15.660  71.603  1.00  0.00    -0.519 A  
HETATM   19  C   UNL     1     -11.964  15.924  72.933  1.00  0.00    -0.609 A  
HETATM   20  C   UNL     1     -12.894  15.125  73.594  1.00  0.00    -0.621 A  
HETATM   21  C   UNL     1     -13.495  14.055  72.929  1.00  0.00    -0.421 A  
HETATM   22  C   UNL     1     -13.168  13.778  71.596  1.00  0.00    -0.450 A  
ENDBRANCH  15  17
ENDBRANCH  10  13
ENDBRANCH   7  10
TORSDOF 3
ENDMDL
MODEL       48
REMARK 921   NORMALIZED FREE ENERGY PREDICTED BY IDOCK:   -5.38 KCAL/MOL
REMARK 922        TOTAL FREE ENERGY PREDICTED BY IDOCK:   -6.65 KCAL/MOL
REMARK 923 INTER-LIGAND FREE ENERGY PREDICTED BY IDOCK:   -6.33 KCAL/MOL
REMARK 924 INTRA-LIGAND FREE ENERGY PREDICTED BY IDOCK:   -0.32 KCAL/MOL
REMARK 927      BINDING AFFINITY PREDICTED BY RF-SCORE:    0.00 PKD
ROOT
HETATM    1  N   UNL     1     -12.516  14.049  62.963  1.00  0.00    -0.988 NA 
HETATM    2  H2  UNL     1     -12.927  13.411  62.281  1.00  0.00     0.000 HD 
HETATM    3  C   UNL     1     -12.280  13.339  64.147  1.00  0.00    -0.401 A  
HETATM    4  H1  UNL     1     -13.073  14.903  62.981  1.00  0.00     0.000 HD 
HETATM    5  C   UNL     1     -11.516  12.168  64.122  1.00  0.00    -0.460 A  
HETATM    6  C   UNL     1     -11.188  11.502  65.307  1.00  0.00    -0.203 A  
HETATM    7  C   UNL     1     -11.580  12.046  66.533  1.00  0.00    -0.314 A  
HETATM    8  C   UNL     1     -12.281  13.251  66.578  1.00  0.00    -0.389 A  
HETATM    9  C   UNL     1     -12.608  13.903  65.383  1.00  0.00    -0.538 A  
ENDROOT
BRANCH   7  10
HETATM   10  S   UNL     1     -11.198  11.171  68.033  1.00  0.00    -0.312 S  
HETATM   11  O   UNL     1     -10.060  11.790  68.676  1.00  0.00    -0.216 OA 
HETATM   12  O   UNL     1     -12.449  10.999  68.744  1.00  0.00    -0.468 OA 
BRANCH  10  13
HETATM   13  N   UNL     1     -10.762   9.644  67.532  1.00  0.00    -0.319 N  
HETATM   14  H   UNL     1     -10.842   9.422  66.539  1.00  0.00     0.000 HD 
HETATM   15  C   UNL     1     -10.293   8.647  68.397  1.00  0.00    -0.201 C  
HETATM   16  O   UNL     1     -10.156   8.813  69.599  1.00  0.00    -0.193 OA 
BRANCH  15  17
HETATM   17  C   UNL     1      -9.918   7.358  67.765  1.00  0.00    -0.208 A  
HETATM   18  C   UNL     1     -10.903   6.705  67.010  1.00  0.00    -0.467 A  
HETATM   19  C   UNL     1     -10.621   5.497  66.375  1.00  0.00    -0.291 A  
HETATM   20  C   UNL     1      -9.351   4.937  66.483  1.00  0.00    -0.142 A  
HETATM   21  C   UNL     1      -8.364   5.579  67.233  1.00  0.00    -0.104 A  
HETATM   22  C   UNL     1      -8.645   6.788  67.882  1.00  0.00    -0.122 A  
ENDBRANCH  15  17
ENDBRANCH  10  13
ENDBRANCH   7  10
TORSDOF 3
ENDMDL
MODEL       49
REMARK 921   NORMALIZED FREE ENERGY PREDICTED BY IDOCK:   -5.32 KCAL/MOL
REMARK 922        TOTAL FREE ENERGY PREDICTED BY IDOCK:   -6.58 KCAL/MOL
REMARK 923 INTER-LIGAND FREE ENERGY PREDICTED BY IDOCK:   -6.37 KCAL/MOL
REMARK 924 INTRA-LIGAND FREE ENERGY PREDICTED BY IDOCK:   -0.21 KCAL/MOL
REMARK 927      BINDING AFFINITY PREDICTED BY RF-SCORE:    0.00 PKD
ROOT
HETATM    1  N   UNL     1     -10.504  10.644  62.609  1.00  0.00    -0.666 NA 
HETATM    2  H2  UNL     1     -10.024  11.188  61.891  1.00  0.00     0.000 HD 
HETATM    3  C   UNL     1     -10.294  11.265  63.847  1.00  0.00    -0.381 A  
HETATM    4  H1  UNL     1     -10.264   9.661  62.484  1.00  0.00     0.000 HD 
HETATM    5  C   UNL     1     -10.623  12.614  64.020  1.00  0.00    -0.457 A  
HETATM    6  C   UNL     1     -10.514  13.222  65.274  1.00  0.00    -0.324 A  
HETATM    7  C   UNL     1     -10.127  12.459  66.378  1.00  0.00    -0.236 A  
HETATM    8  C   UNL     1      -9.865  11.096  66.236  1.00  0.00    -0.253 A  
HETATM    9  C   UNL     1      -9.972  10.501  64.972  1.00  0.00    -0.388 A  
ENDROOT
BRANCH   7  10
HETATM   10  S   UNL     1      -9.947  13.248  67.960  1.00  0.00    -0.238 S  
HETATM   11  O   UNL     1     -11.109  12.968  68.775  1.00  0.00    -0.249 OA 
HETATM   12  O   UNL     1      -8.615  12.930  68.435  1.00  0.00    -0.174 OA 
BRANCH  10  13
HETATM   13  N   UNL     1      -9.916  14.878  67.618  1.00  0.00    -0.225 N  
HETATM   14  H   UNL     1     -10.244  15.184  66.702  1.00  0.00     0.000 HD 
HETATM   15  C   UNL     1      -9.463  15.851  68.518  1.00  0.00    -0.209 C  
HETATM   16  O   UNL     1      -9.056  15.591  69.638  1.00  0.00    -0.278 OA 
BRANCH  15  17
HETATM   17  C   UNL     1      -9.544  17.258  68.051  1.00  0.00    -0.274 A  
HETATM   18  C   UNL     1      -8.432  18.078  68.296  1.00  0.00    -0.293 A  
HETATM   19  C   UNL     1      -8.429  19.407  67.875  1.00  0.00    -0.348 A  
HETATM   20  C   UNL     1      -9.532  19.924  67.200  1.00  0.00    -0.497 A  
HETATM   21  C   UNL     1     -10.644  19.115  66.954  1.00  0.00    -0.540 A  
HETATM   22  C   UNL     1     -10.657  17.782  67.384  1.00  0.00    -0.341 A  
ENDBRANCH  15  17
ENDBRANCH  10  13
ENDBRANCH   7  10
TORSDOF 3
ENDMDL
MODEL       50
REMARK 921   NORMALIZED FREE ENERGY PREDICTED BY IDOCK:   -5.31 KCAL/MOL
REMARK 922        TOTAL FREE ENERGY PREDICTED BY IDOCK:   -6.56 KCAL/MOL
REMARK 923 INTER-LIGAND FREE ENERGY PREDICTED BY IDOCK:   -6.50 KCAL/MOL
REMARK 924 INTRA-LIGAND FREE ENERGY PREDICTED BY IDOCK:   -0.07 KCAL/MOL
REMARK 927      BINDING AFFINITY PREDICTED BY RF-SCORE:    0.00 PKD
ROOT
HETATM    1  N   UNL     1      -9.869   7.304  65.965  1.00  0.00    -0.401 NA 
HETATM    2  H2  UNL     1      -8.938   6.932  65.774  1.00  0.00     0.000 HD 
HETATM    3  C   UNL     1      -9.735   8.635  66.383  1.00  0.00    -0.263 A  
HETATM    4  H1  UNL     1     -10.371   6.634  66.546  1.00  0.00     0.000 HD 
HETATM    5  C   UNL     1      -9.046   9.554  65.585  1.00  0.00    -0.250 A  
HETATM    6  C   UNL     1      -8.989  10.906  65.938  1.00  0.00    -0.206 A  
HETATM    7  C   UNL     1      -9.676  11.352  67.070  1.00  0.00    -0.190 A  
HETATM    8  C   UNL     1     -10.427  10.459  67.836  1.00  0.00    -0.248 A  
HETATM    9  C   UNL     1     -10.470   9.107  67.474  1.00  0.00    -0.335 A  
ENDROOT
BRANCH   7  10
HETATM   10  S   UNL     1      -9.563  13.063  67.538  1.00  0.00    -0.211 S  
HETATM   11  O   UNL     1      -8.229  13.344  68.020  1.00  0.00    -0.139 OA 
HETATM   12  O   UNL     1     -10.135  13.830  66.449  1.00  0.00    -0.279 OA 
BRANCH  10  13
HETATM   13  N   UNL     1     -10.633  13.227  68.803  1.00  0.00    -0.338 N  
HETATM   14  H   UNL     1     -10.790  12.421  69.409  1.00  0.00     0.000 HD 
HETATM   15  C   UNL     1     -11.331  14.409  69.081  1.00  0.00    -0.277 C  
HETATM   16  O   UNL     1     -11.211  15.429  68.422  1.00  0.00    -0.283 OA 
BRANCH  15  17
HETATM   17  C   UNL     1     -12.215  14.380  70.273  1.00  0.00    -0.397 A  
HETATM   18  C   UNL     1     -12.497  13.123  70.830  1.00  0.00    -0.389 A  
HETATM   19  C   UNL     1     -13.308  13.017  71.958  1.00  0.00    -0.588 A  
HETATM   20  C   UNL     1     -13.838  14.165  72.543  1.00  0.00    -0.590 A  
HETATM   21  C   UNL     1     -13.564  15.420  71.994  1.00  0.00    -0.588 A  
HETATM   22  C   UNL     1     -12.757  15.532  70.855  1.00  0.00    -0.525 A  
ENDBRANCH  15  17
ENDBRANCH  10  13
ENDBRANCH   7  10
TORSDOF 3
ENDMDL
MODEL       51
REMARK 921   NORMALIZED FREE ENERGY PREDICTED BY IDOCK:   -5.30 KCAL/MOL
REMARK 922        TOTAL FREE ENERGY PREDICTED BY IDOCK:   -6.55 KCAL/MOL
REMARK 923 INTER-LIGAND FREE ENERGY PREDICTED BY IDOCK:   -6.26 KCAL/MOL
REMARK 924 INTRA-LIGAND FREE ENERGY PREDICTED BY IDOCK:   -0.29 KCAL/MOL
REMARK 927      BINDING AFFINITY PREDICTED BY RF-SCORE:    0.00 PKD
ROOT
HETATM    1  N   UNL     1      -8.026  21.079  66.914  1.00  0.00    -0.585 NA 
HETATM    2  H2  UNL     1      -8.232  21.317  65.943  1.00  0.00     0.000 HD 
HETATM    3  C   UNL     1      -8.047  19.684  67.041  1.00  0.00    -0.285 A  
HETATM    4  H1  UNL     1      -8.611  21.656  67.518  1.00  0.00     0.000 HD 
HETATM    5  C   UNL     1      -7.245  18.893  66.213  1.00  0.00    -0.274 A  
HETATM    6  C   UNL     1      -7.179  17.508  66.393  1.00  0.00    -0.326 A  
HETATM    7  C   UNL     1      -7.877  16.916  67.449  1.00  0.00    -0.170 A  
HETATM    8  C   UNL     1      -8.624  17.701  68.327  1.00  0.00    -0.268 A  
HETATM    9  C   UNL     1      -8.687  19.086  68.131  1.00  0.00    -0.351 A  
ENDROOT
BRANCH   7  10
HETATM   10  S   UNL     1      -7.824  15.150  67.644  1.00  0.00    -0.176 S  
HETATM   11  O   UNL     1      -6.532  14.656  67.222  1.00  0.00    -0.298 OA 
HETATM   12  O   UNL     1      -8.329  14.864  68.973  1.00  0.00    -0.173 OA 
BRANCH  10  13
HETATM   13  N   UNL     1      -8.984  14.574  66.597  1.00  0.00    -0.375 N  
HETATM   14  H   UNL     1      -9.476  15.245  66.007  1.00  0.00     0.000 HD 
HETATM   15  C   UNL     1      -9.321  13.220  66.481  1.00  0.00    -0.213 C  
HETATM   16  O   UNL     1      -8.789  12.338  67.136  1.00  0.00    -0.180 OA 
BRANCH  15  17
HETATM   17  C   UNL     1     -10.354  12.889  65.468  1.00  0.00    -0.304 A  
HETATM   18  C   UNL     1     -11.671  13.285  65.743  1.00  0.00    -0.395 A  
HETATM   19  C   UNL     1     -12.693  13.022  64.833  1.00  0.00    -0.456 A  
HETATM   20  C   UNL     1     -12.404  12.368  63.637  1.00  0.00    -0.647 A  
HETATM   21  C   UNL     1     -11.096  11.969  63.355  1.00  0.00    -0.476 A  
HETATM   22  C   UNL     1     -10.068  12.222  64.271  1.00  0.00    -0.311 A  
ENDBRANCH  15  17
ENDBRANCH  10  13
ENDBRANCH   7  10
TORSDOF 3
ENDMDL
MODEL       52
REMARK 921   NORMALIZED FREE ENERGY PREDICTED BY IDOCK:   -5.20 KCAL/MOL
REMARK 922        TOTAL FREE ENERGY PREDICTED BY IDOCK:   -6.44 KCAL/MOL
REMARK 923 INTER-LIGAND FREE ENERGY PREDICTED BY IDOCK:   -6.30 KCAL/MOL
REMARK 924 INTRA-LIGAND FREE ENERGY PREDICTED BY IDOCK:   -0.14 KCAL/MOL
REMARK 927      BINDING AFFINITY PREDICTED BY RF-SCORE:    0.00 PKD
ROOT
HETATM    1  N   UNL     1      -9.062  17.870  66.300  1.00  0.00    -0.451 NA 
HETATM    2  H2  UNL     1      -9.750  18.522  66.678  1.00  0.00     0.000 HD 
HETATM    3  C   UNL     1      -9.709  16.661  66.013  1.00  0.00    -0.278 A  
HETATM    4  H1  UNL     1      -8.241  17.880  66.906  1.00  0.00     0.000 HD 
HETATM    5  C   UNL     1     -10.834  16.648  65.182  1.00  0.00    -0.199 A  
HETATM    6  C   UNL     1     -11.431  15.441  64.807  1.00  0.00    -0.337 A  
HETATM    7  C   UNL     1     -10.863  14.233  65.220  1.00  0.00    -0.355 A  
HETATM    8  C   UNL     1      -9.699  14.228  65.989  1.00  0.00    -0.312 A  
HETATM    9  C   UNL     1      -9.116  15.445  66.364  1.00  0.00    -0.350 A  
ENDROOT
BRANCH   7  10
HETATM   10  S   UNL     1     -11.653  12.704  64.776  1.00  0.00    -0.350 S  
HETATM   11  O   UNL     1     -13.079  12.818  64.988  1.00  0.00    -0.811 OA 
HETATM   12  O   UNL     1     -11.124  12.324  63.480  1.00  0.00    -0.427 OA 
BRANCH  10  13
HETATM   13  N   UNL     1     -11.042  11.585  65.848  1.00  0.00    -0.257 N  
HETATM   14  H   UNL     1     -10.346  10.922  65.506  1.00  0.00     0.000 HD 
HETATM   15  C   UNL     1     -11.429  11.505  67.191  1.00  0.00    -0.237 C  
HETATM   16  O   UNL     1     -12.248  12.254  67.698  1.00  0.00    -0.442 OA 
BRANCH  15  17
HETATM   17  C   UNL     1     -10.749  10.466  68.005  1.00  0.00    -0.292 A  
HETATM   18  C   UNL     1     -10.423  10.802  69.327  1.00  0.00    -0.243 A  
HETATM   19  C   UNL     1      -9.796   9.874  70.157  1.00  0.00    -0.272 A  
HETATM   20  C   UNL     1      -9.497   8.602  69.673  1.00  0.00    -0.162 A  
HETATM   21  C   UNL     1      -9.816   8.260  68.358  1.00  0.00    -0.187 A  
HETATM   22  C   UNL     1     -10.437   9.192  67.517  1.00  0.00    -0.335 A  
ENDBRANCH  15  17
ENDBRANCH  10  13
ENDBRANCH   7  10
TORSDOF 3
ENDMDL
MODEL       53
REMARK 921   NORMALIZED FREE ENERGY PREDICTED BY IDOCK:   -5.20 KCAL/MOL
REMARK 922        TOTAL FREE ENERGY PREDICTED BY IDOCK:   -6.44 KCAL/MOL
REMARK 923 INTER-LIGAND FREE ENERGY PREDICTED BY IDOCK:   -6.16 KCAL/MOL
REMARK 924 INTRA-LIGAND FREE ENERGY PREDICTED BY IDOCK:   -0.28 KCAL/MOL
REMARK 927      BINDING AFFINITY PREDICTED BY RF-SCORE:    0.00 PKD
ROOT
HETATM    1  N   UNL     1      -9.630  17.918  68.499  1.00  0.00    -0.313 NA 
HETATM    2  H2  UNL     1      -9.102  17.444  69.232  1.00  0.00     0.000 HD 
HETATM    3  C   UNL     1     -10.138  16.949  67.624  1.00  0.00    -0.278 A  
HETATM    4  H1  UNL     1      -9.063  18.685  68.138  1.00  0.00     0.000 HD 
HETATM    5  C   UNL     1     -10.916  15.897  68.118  1.00  0.00    -0.335 A  
HETATM    6  C   UNL     1     -11.512  14.978  67.249  1.00  0.00    -0.312 A  
HETATM    7  C   UNL     1     -11.377  15.149  65.868  1.00  0.00    -0.225 A  
HETATM    8  C   UNL     1     -10.665  16.235  65.358  1.00  0.00    -0.342 A  
HETATM    9  C   UNL     1     -10.067  17.142  66.241  1.00  0.00    -0.329 A  
ENDROOT
BRANCH   7  10
HETATM   10  S   UNL     1     -12.101  13.953  64.771  1.00  0.00    -0.433 S  
HETATM   11  O   UNL     1     -13.165  13.252  65.454  1.00  0.00    -0.570 OA 
HETATM   12  O   UNL     1     -12.349  14.636  63.516  1.00  0.00    -0.599 OA 
BRANCH  10  13
HETATM   13  N   UNL     1     -10.872  12.875  64.450  1.00  0.00    -0.356 N  
HETATM   14  H   UNL     1      -9.952  13.061  64.851  1.00  0.00     0.000 HD 
HETATM   15  C   UNL     1     -11.030  11.730  63.660  1.00  0.00    -0.439 C  
HETATM   16  O   UNL     1     -12.089  11.415  63.140  1.00  0.00    -0.133 OA 
BRANCH  15  17
HETATM   17  C   UNL     1      -9.831  10.867  63.515  1.00  0.00    -0.407 A  
HETATM   18  C   UNL     1      -9.586   9.935  64.534  1.00  0.00    -0.290 A  
HETATM   19  C   UNL     1      -8.488   9.080  64.461  1.00  0.00    -0.191 A  
HETATM   20  C   UNL     1      -7.630   9.146  63.365  1.00  0.00    -0.108 A  
HETATM   21  C   UNL     1      -7.865  10.072  62.347  1.00  0.00    -0.140 A  
HETATM   22  C   UNL     1      -8.962  10.940  62.420  1.00  0.00    -0.353 A  
ENDBRANCH  15  17
ENDBRANCH  10  13
ENDBRANCH   7  10
TORSDOF 3
ENDMDL
MODEL       54
REMARK 921   NORMALIZED FREE ENERGY PREDICTED BY IDOCK:   -5.18 KCAL/MOL
REMARK 922        TOTAL FREE ENERGY PREDICTED BY IDOCK:   -6.41 KCAL/MOL
REMARK 923 INTER-LIGAND FREE ENERGY PREDICTED BY IDOCK:   -6.27 KCAL/MOL
REMARK 924 INTRA-LIGAND FREE ENERGY PREDICTED BY IDOCK:   -0.14 KCAL/MOL
REMARK 927      BINDING AFFINITY PREDICTED BY RF-SCORE:    0.00 PKD
ROOT
HETATM    1  N   UNL     1      -9.879  17.834  68.707  1.00  0.00    -0.346 NA 
HETATM    2  H2  UNL     1      -9.552  17.466  69.601  1.00  0.00     0.000 HD 
HETATM    3  C   UNL     1     -10.277  16.757  67.905  1.00  0.00    -0.300 A  
HETATM    4  H1  UNL     1      -9.190  18.502  68.362  1.00  0.00     0.000 HD 
HETATM    5  C   UNL     1     -11.223  15.842  68.379  1.00  0.00    -0.368 A  
HETATM    6  C   UNL     1     -11.704  14.820  67.555  1.00  0.00    -0.370 A  
HETATM    7  C   UNL     1     -11.278  14.748  66.226  1.00  0.00    -0.343 A  
HETATM    8  C   UNL     1     -10.390  15.697  65.718  1.00  0.00    -0.386 A  
HETATM    9  C   UNL     1      -9.911  16.711  66.557  1.00  0.00    -0.296 A  
ENDROOT
BRANCH   7  10
HETATM   10  S   UNL     1     -11.860  13.420  65.198  1.00  0.00    -0.373 S  
HETATM   11  O   UNL     1     -13.282  13.568  64.978  1.00  0.00    -0.721 OA 
HETATM   12  O   UNL     1     -10.942  13.328  64.079  1.00  0.00    -0.382 OA 
BRANCH  10  13
HETATM   13  N   UNL     1     -11.599  12.043  66.098  1.00  0.00    -0.354 N  
HETATM   14  H   UNL     1     -12.410  11.562  66.487  1.00  0.00     0.000 HD 
HETATM   15  C   UNL     1     -10.329  11.509  66.349  1.00  0.00    -0.237 C  
HETATM   16  O   UNL     1      -9.298  12.005  65.924  1.00  0.00    -0.225 OA 
BRANCH  15  17
HETATM   17  C   UNL     1     -10.295  10.254  67.141  1.00  0.00    -0.292 A  
HETATM   18  C   UNL     1     -10.391  10.375  68.535  1.00  0.00    -0.197 A  
HETATM   19  C   UNL     1     -10.380   9.240  69.344  1.00  0.00    -0.223 A  
HETATM   20  C   UNL     1     -10.279   7.977  68.766  1.00  0.00    -0.220 A  
HETATM   21  C   UNL     1     -10.181   7.848  67.379  1.00  0.00    -0.320 A  
HETATM   22  C   UNL     1     -10.182   8.985  66.562  1.00  0.00    -0.318 A  
ENDBRANCH  15  17
ENDBRANCH  10  13
ENDBRANCH   7  10
TORSDOF 3
ENDMDL
MODEL       55
REMARK 921   NORMALIZED FREE ENERGY PREDICTED BY IDOCK:   -5.17 KCAL/MOL
REMARK 922        TOTAL FREE ENERGY PREDICTED BY IDOCK:   -6.40 KCAL/MOL
REMARK 923 INTER-LIGAND FREE ENERGY PREDICTED BY IDOCK:   -6.06 KCAL/MOL
REMARK 924 INTRA-LIGAND FREE ENERGY PREDICTED BY IDOCK:   -0.34 KCAL/MOL
REMARK 927      BINDING AFFINITY PREDICTED BY RF-SCORE:    0.00 PKD
ROOT
HETATM    1  N   UNL     1     -11.522   5.266  73.584  1.00  0.00    -0.415 NA 
HETATM    2  H2  UNL     1     -12.509   5.017  73.663  1.00  0.00     0.000 HD 
HETATM    3  C   UNL     1     -11.274   5.675  72.268  1.00  0.00    -0.259 A  
HETATM    4  H1  UNL     1     -10.967   4.518  74.000  1.00  0.00     0.000 HD 
HETATM    5  C   UNL     1     -12.035   6.701  71.697  1.00  0.00    -0.395 A  
HETATM    6  C   UNL     1     -11.736   7.188  70.421  1.00  0.00    -0.273 A  
HETATM    7  C   UNL     1     -10.628   6.685  69.734  1.00  0.00    -0.228 A  
HETATM    8  C   UNL     1      -9.817   5.713  70.320  1.00  0.00    -0.254 A  
HETATM    9  C   UNL     1     -10.133   5.228  71.595  1.00  0.00    -0.259 A  
ENDROOT
BRANCH   7  10
HETATM   10  S   UNL     1     -10.280   7.278  68.095  1.00  0.00    -0.194 S  
HETATM   11  O   UNL     1      -8.852   7.257  67.867  1.00  0.00    -0.129 OA 
HETATM   12  O   UNL     1     -11.184   6.582  67.200  1.00  0.00    -0.388 OA 
BRANCH  10  13
HETATM   13  N   UNL     1     -10.797   8.861  68.100  1.00  0.00    -0.467 N  
HETATM   14  H   UNL     1     -11.237   9.221  68.947  1.00  0.00     0.000 HD 
HETATM   15  C   UNL     1     -10.661   9.726  67.006  1.00  0.00    -0.199 C  
HETATM   16  O   UNL     1     -10.144   9.395  65.951  1.00  0.00    -0.296 OA 
BRANCH  15  17
HETATM   17  C   UNL     1     -11.147  11.113  67.207  1.00  0.00    -0.366 A  
HETATM   18  C   UNL     1     -11.334  11.540  68.530  1.00  0.00    -0.337 A  
HETATM   19  C   UNL     1     -11.775  12.835  68.799  1.00  0.00    -0.363 A  
HETATM   20  C   UNL     1     -12.026  13.714  67.748  1.00  0.00    -0.387 A  
HETATM   21  C   UNL     1     -11.844  13.297  66.428  1.00  0.00    -0.446 A  
HETATM   22  C   UNL     1     -11.411  11.994  66.152  1.00  0.00    -0.407 A  
ENDBRANCH  15  17
ENDBRANCH  10  13
ENDBRANCH   7  10
TORSDOF 3
ENDMDL
MODEL       56
REMARK 921   NORMALIZED FREE ENERGY PREDICTED BY IDOCK:   -5.16 KCAL/MOL
REMARK 922        TOTAL FREE ENERGY PREDICTED BY IDOCK:   -6.39 KCAL/MOL
REMARK 923 INTER-LIGAND FREE ENERGY PREDICTED BY IDOCK:   -6.11 KCAL/MOL
REMARK 924 INTRA-LIGAND FREE ENERGY PREDICTED BY IDOCK:   -0.28 KCAL/MOL
REMARK 927      BINDING AFFINITY PREDICTED BY RF-SCORE:    0.00 PKD
ROOT
HETATM    1  N   UNL     1      -5.890  18.220  69.682  1.00  0.00    -0.239 NA 
HETATM    2  H2  UNL     1      -4.975  17.769  69.690  1.00  0.00     0.000 HD 
HETATM    3  C   UNL     1      -6.802  17.362  69.053  1.00  0.00    -0.244 A  
HETATM    4  H1  UNL     1      -5.775  19.177  69.347  1.00  0.00     0.000 HD 
HETATM    5  C   UNL     1      -6.960  16.050  69.512  1.00  0.00    -0.191 A  
HETATM    6  C   UNL     1      -7.934  15.212  68.961  1.00  0.00    -0.188 A  
HETATM    7  C   UNL     1      -8.797  15.710  67.981  1.00  0.00    -0.169 A  
HETATM    8  C   UNL     1      -8.698  17.038  67.565  1.00  0.00    -0.215 A  
HETATM    9  C   UNL     1      -7.713  17.864  68.120  1.00  0.00    -0.256 A  
ENDROOT
BRANCH   7  10
HETATM   10  S   UNL     1     -10.004  14.627  67.254  1.00  0.00    -0.237 S  
HETATM   11  O   UNL     1     -10.775  15.354  66.270  1.00  0.00    -0.305 OA 
HETATM   12  O   UNL     1      -9.306  13.408  66.896  1.00  0.00    -0.237 OA 
BRANCH  10  13
HETATM   13  N   UNL     1     -11.008  14.206  68.514  1.00  0.00    -0.245 N  
HETATM   14  H   UNL     1     -11.030  13.229  68.807  1.00  0.00     0.000 HD 
HETATM   15  C   UNL     1     -11.824  15.118  69.195  1.00  0.00    -0.313 C  
HETATM   16  O   UNL     1     -11.868  16.308  68.927  1.00  0.00    -0.284 OA 
BRANCH  15  17
HETATM   17  C   UNL     1     -12.625  14.566  70.316  1.00  0.00    -0.378 A  
HETATM   18  C   UNL     1     -12.372  13.238  70.690  1.00  0.00    -0.416 A  
HETATM   19  C   UNL     1     -13.075  12.655  71.743  1.00  0.00    -0.461 A  
HETATM   20  C   UNL     1     -14.029  13.397  72.435  1.00  0.00    -0.605 A  
HETATM   21  C   UNL     1     -14.288  14.719  72.069  1.00  0.00    -0.642 A  
HETATM   22  C   UNL     1     -13.593  15.307  71.004  1.00  0.00    -0.486 A  
ENDBRANCH  15  17
ENDBRANCH  10  13
ENDBRANCH   7  10
TORSDOF 3
ENDMDL
MODEL       57
REMARK 921   NORMALIZED FREE ENERGY PREDICTED BY IDOCK:   -5.14 KCAL/MOL
REMARK 922        TOTAL FREE ENERGY PREDICTED BY IDOCK:   -6.37 KCAL/MOL
REMARK 923 INTER-LIGAND FREE ENERGY PREDICTED BY IDOCK:   -6.07 KCAL/MOL
REMARK 924 INTRA-LIGAND FREE ENERGY PREDICTED BY IDOCK:   -0.30 KCAL/MOL
REMARK 927      BINDING AFFINITY PREDICTED BY RF-SCORE:    0.00 PKD
ROOT
HETATM    1  N   UNL     1     -13.034  16.068  73.571  1.00  0.00    -0.568 NA 
HETATM    2  H2  UNL     1     -13.325  17.042  73.476  1.00  0.00     0.000 HD 
HETATM    3  C   UNL     1     -12.661  15.594  72.307  1.00  0.00    -0.430 A  
HETATM    4  H1  UNL     1     -13.739  15.572  74.116  1.00  0.00     0.000 HD 
HETATM    5  C   UNL     1     -11.694  16.273  71.559  1.00  0.00    -0.467 A  
HETATM    6  C   UNL     1     -11.240  15.760  70.341  1.00  0.00    -0.383 A  
HETATM    7  C   UNL     1     -11.715  14.524  69.894  1.00  0.00    -0.299 A  
HETATM    8  C   UNL     1     -12.626  13.799  70.664  1.00  0.00    -0.386 A  
HETATM    9  C   UNL     1     -13.078  14.330  71.878  1.00  0.00    -0.445 A  
ENDROOT
BRANCH   7  10
HETATM   10  S   UNL     1     -11.166  13.897  68.324  1.00  0.00    -0.289 S  
HETATM   11  O   UNL     1     -12.169  14.171  67.318  1.00  0.00    -0.402 OA 
HETATM   12  O   UNL     1      -9.799  14.349  68.151  1.00  0.00    -0.212 OA 
BRANCH  10  13
HETATM   13  N   UNL     1     -11.062  12.249  68.539  1.00  0.00    -0.232 N  
HETATM   14  H   UNL     1     -11.201  11.877  69.479  1.00  0.00     0.000 HD 
HETATM   15  C   UNL     1     -10.796  11.346  67.503  1.00  0.00    -0.244 C  
HETATM   16  O   UNL     1     -10.620  11.688  66.344  1.00  0.00    -0.239 OA 
BRANCH  15  17
HETATM   17  C   UNL     1     -10.777   9.910  67.877  1.00  0.00    -0.316 A  
HETATM   18  C   UNL     1     -10.633   8.980  66.837  1.00  0.00    -0.243 A  
HETATM   19  C   UNL     1     -10.593   7.614  67.113  1.00  0.00    -0.410 A  
HETATM   20  C   UNL     1     -10.690   7.168  68.429  1.00  0.00    -0.192 A  
HETATM   21  C   UNL     1     -10.835   8.088  69.470  1.00  0.00    -0.135 A  
HETATM   22  C   UNL     1     -10.886   9.460  69.198  1.00  0.00    -0.176 A  
ENDBRANCH  15  17
ENDBRANCH  10  13
ENDBRANCH   7  10
TORSDOF 3
ENDMDL
MODEL       58
REMARK 921   NORMALIZED FREE ENERGY PREDICTED BY IDOCK:   -5.14 KCAL/MOL
REMARK 922        TOTAL FREE ENERGY PREDICTED BY IDOCK:   -6.36 KCAL/MOL
REMARK 923 INTER-LIGAND FREE ENERGY PREDICTED BY IDOCK:   -6.40 KCAL/MOL
REMARK 924 INTRA-LIGAND FREE ENERGY PREDICTED BY IDOCK:    0.04 KCAL/MOL
REMARK 927      BINDING AFFINITY PREDICTED BY RF-SCORE:    0.00 PKD
ROOT
HETATM    1  N   UNL     1     -10.198  17.914  68.862  1.00  0.00    -0.373 NA 
HETATM    2  H2  UNL     1     -10.495  18.813  68.482  1.00  0.00     0.000 HD 
HETATM    3  C   UNL     1     -10.662  16.900  68.014  1.00  0.00    -0.364 A  
HETATM    4  H1  UNL     1     -10.425  17.893  69.856  1.00  0.00     0.000 HD 
HETATM    5  C   UNL     1     -10.349  16.928  66.651  1.00  0.00    -0.299 A  
HETATM    6  C   UNL     1     -10.720  15.874  65.810  1.00  0.00    -0.325 A  
HETATM    7  C   UNL     1     -11.358  14.754  66.350  1.00  0.00    -0.339 A  
HETATM    8  C   UNL     1     -11.612  14.680  67.720  1.00  0.00    -0.382 A  
HETATM    9  C   UNL     1     -11.242  15.746  68.549  1.00  0.00    -0.354 A  
ENDROOT
BRANCH   7  10
HETATM   10  S   UNL     1     -11.865  13.438  65.269  1.00  0.00    -0.370 S  
HETATM   11  O   UNL     1     -13.273  13.576  64.968  1.00  0.00    -0.721 OA 
HETATM   12  O   UNL     1     -10.883  13.372  64.204  1.00  0.00    -0.390 OA 
BRANCH  10  13
HETATM   13  N   UNL     1     -11.643  12.049  66.160  1.00  0.00    -0.354 N  
HETATM   14  H   UNL     1     -12.441  11.675  66.675  1.00  0.00     0.000 HD 
HETATM   15  C   UNL     1     -10.423  11.367  66.244  1.00  0.00    -0.255 C  
HETATM   16  O   UNL     1      -9.412  11.728  65.663  1.00  0.00    -0.231 OA 
BRANCH  15  17
HETATM   17  C   UNL     1     -10.425  10.125  67.057  1.00  0.00    -0.302 A  
HETATM   18  C   UNL     1     -10.604  10.267  68.441  1.00  0.00    -0.247 A  
HETATM   19  C   UNL     1     -10.630   9.146  69.269  1.00  0.00    -0.229 A  
HETATM   20  C   UNL     1     -10.485   7.875  68.718  1.00  0.00    -0.198 A  
HETATM   21  C   UNL     1     -10.305   7.724  67.342  1.00  0.00    -0.354 A  
HETATM   22  C   UNL     1     -10.267   8.848  66.507  1.00  0.00    -0.319 A  
ENDBRANCH  15  17
ENDBRANCH  10  13
ENDBRANCH   7  10
TORSDOF 3
ENDMDL
MODEL       59
REMARK 921   NORMALIZED FREE ENERGY PREDICTED BY IDOCK:   -5.12 KCAL/MOL
REMARK 922        TOTAL FREE ENERGY PREDICTED BY IDOCK:   -6.34 KCAL/MOL
REMARK 923 INTER-LIGAND FREE ENERGY PREDICTED BY IDOCK:   -6.28 KCAL/MOL
REMARK 924 INTRA-LIGAND FREE ENERGY PREDICTED BY IDOCK:   -0.07 KCAL/MOL
REMARK 927      BINDING AFFINITY PREDICTED BY RF-SCORE:    0.00 PKD
ROOT
HETATM    1  N   UNL     1     -10.538  10.900  62.601  1.00  0.00    -0.654 NA 
HETATM    2  H2  UNL     1     -10.217  11.584  61.916  1.00  0.00     0.000 HD 
HETATM    3  C   UNL     1     -10.090  11.297  63.868  1.00  0.00    -0.340 A  
HETATM    4  H1  UNL     1     -10.319   9.967  62.252  1.00  0.00     0.000 HD 
HETATM    5  C   UNL     1     -10.391  12.576  64.348  1.00  0.00    -0.378 A  
HETATM    6  C   UNL     1     -10.037  12.954  65.646  1.00  0.00    -0.282 A  
HETATM    7  C   UNL     1      -9.430  12.023  66.493  1.00  0.00    -0.228 A  
HETATM    8  C   UNL     1      -9.189  10.722  66.053  1.00  0.00    -0.210 A  
HETATM    9  C   UNL     1      -9.541  10.360  64.747  1.00  0.00    -0.352 A  
ENDROOT
BRANCH   7  10
HETATM   10  S   UNL     1      -8.944  12.524  68.128  1.00  0.00    -0.187 S  
HETATM   11  O   UNL     1      -7.643  11.972  68.435  1.00  0.00    -0.115 OA 
HETATM   12  O   UNL     1      -9.182  13.951  68.214  1.00  0.00    -0.199 OA 
BRANCH  10  13
HETATM   13  N   UNL     1     -10.071  11.826  69.136  1.00  0.00    -0.417 N  
HETATM   14  H   UNL     1     -10.910  12.361  69.362  1.00  0.00     0.000 HD 
HETATM   15  C   UNL     1      -9.931  10.548  69.691  1.00  0.00    -0.112 C  
HETATM   16  O   UNL     1      -8.970   9.827  69.479  1.00  0.00    -0.173 OA 
BRANCH  15  17
HETATM   17  C   UNL     1     -11.056  10.078  70.538  1.00  0.00    -0.400 A  
HETATM   18  C   UNL     1     -12.181  10.912  70.628  1.00  0.00    -0.472 A  
HETATM   19  C   UNL     1     -13.282  10.531  71.393  1.00  0.00    -0.441 A  
HETATM   20  C   UNL     1     -13.271   9.312  72.067  1.00  0.00    -0.519 A  
HETATM   21  C   UNL     1     -12.155   8.477  71.984  1.00  0.00    -0.428 A  
HETATM   22  C   UNL     1     -11.041   8.859  71.226  1.00  0.00    -0.367 A  
ENDBRANCH  15  17
ENDBRANCH  10  13
ENDBRANCH   7  10
TORSDOF 3
ENDMDL
MODEL       60
REMARK 921   NORMALIZED FREE ENERGY PREDICTED BY IDOCK:   -5.11 KCAL/MOL
REMARK 922        TOTAL FREE ENERGY PREDICTED BY IDOCK:   -6.33 KCAL/MOL
REMARK 923 INTER-LIGAND FREE ENERGY PREDICTED BY IDOCK:   -6.02 KCAL/MOL
REMARK 924 INTRA-LIGAND FREE ENERGY PREDICTED BY IDOCK:   -0.31 KCAL/MOL
REMARK 927      BINDING AFFINITY PREDICTED BY RF-SCORE:    0.00 PKD
ROOT
HETATM    1  N   UNL     1     -11.306   7.368  73.525  1.00  0.00    -0.558 NA 
HETATM    2  H2  UNL     1     -10.868   6.498  73.831  1.00  0.00     0.000 HD 
HETATM    3  C   UNL     1     -10.939   7.604  72.194  1.00  0.00    -0.257 A  
HETATM    4  H1  UNL     1     -11.138   8.080  74.235  1.00  0.00     0.000 HD 
HETATM    5  C   UNL     1     -11.169   6.627  71.220  1.00  0.00    -0.329 A  
HETATM    6  C   UNL     1     -10.901   6.884  69.872  1.00  0.00    -0.294 A  
HETATM    7  C   UNL     1     -10.453   8.150  69.488  1.00  0.00    -0.227 A  
HETATM    8  C   UNL     1     -10.288   9.157  70.439  1.00  0.00    -0.269 A  
HETATM    9  C   UNL     1     -10.553   8.884  71.786  1.00  0.00    -0.432 A  
ENDROOT
BRANCH   7  10
HETATM   10  S   UNL     1     -10.072   8.456  67.779  1.00  0.00    -0.221 S  
HETATM   11  O   UNL     1      -8.640   8.571  67.617  1.00  0.00    -0.131 OA 
HETATM   12  O   UNL     1     -10.831   7.493  67.005  1.00  0.00    -0.348 OA 
BRANCH  10  13
HETATM   13  N   UNL     1     -10.767   9.933  67.448  1.00  0.00    -0.272 N  
HETATM   14  H   UNL     1     -11.211  10.439  68.216  1.00  0.00     0.000 HD 
HETATM   15  C   UNL     1     -10.776  10.520  66.177  1.00  0.00    -0.045 C  
HETATM   16  O   UNL     1     -10.268  10.001  65.196  1.00  0.00    -0.288 OA 
BRANCH  15  17
HETATM   17  C   UNL     1     -11.410  11.858  66.081  1.00  0.00    -0.383 A  
HETATM   18  C   UNL     1     -11.430  12.642  67.244  1.00  0.00    -0.402 A  
HETATM   19  C   UNL     1     -11.996  13.916  67.228  1.00  0.00    -0.446 A  
HETATM   20  C   UNL     1     -12.540  14.418  66.047  1.00  0.00    -0.235 A  
HETATM   21  C   UNL     1     -12.526  13.644  64.885  1.00  0.00    -0.423 A  
HETATM   22  C   UNL     1     -11.968  12.360  64.899  1.00  0.00    -0.458 A  
ENDBRANCH  15  17
ENDBRANCH  10  13
ENDBRANCH   7  10
TORSDOF 3
ENDMDL
MODEL       61
REMARK 921   NORMALIZED FREE ENERGY PREDICTED BY IDOCK:   -5.10 KCAL/MOL
REMARK 922        TOTAL FREE ENERGY PREDICTED BY IDOCK:   -6.32 KCAL/MOL
REMARK 923 INTER-LIGAND FREE ENERGY PREDICTED BY IDOCK:   -5.99 KCAL/MOL
REMARK 924 INTRA-LIGAND FREE ENERGY PREDICTED BY IDOCK:   -0.33 KCAL/MOL
REMARK 927      BINDING AFFINITY PREDICTED BY RF-SCORE:    0.00 PKD
ROOT
HETATM    1  N   UNL     1      -8.551  11.384  62.359  1.00  0.00    -0.567 NA 
HETATM    2  H2  UNL     1      -8.593  10.770  61.545  1.00  0.00     0.000 HD 
HETATM    3  C   UNL     1      -8.984  10.665  63.480  1.00  0.00    -0.208 A  
HETATM    4  H1  UNL     1      -8.994  12.270  62.117  1.00  0.00     0.000 HD 
HETATM    5  C   UNL     1      -8.376   9.450  63.812  1.00  0.00    -0.183 A  
HETATM    6  C   UNL     1      -8.729   8.770  64.981  1.00  0.00    -0.183 A  
HETATM    7  C   UNL     1      -9.658   9.339  65.856  1.00  0.00    -0.275 A  
HETATM    8  C   UNL     1     -10.220  10.585  65.574  1.00  0.00    -0.325 A  
HETATM    9  C   UNL     1      -9.863  11.252  64.396  1.00  0.00    -0.316 A  
ENDROOT
BRANCH   7  10
HETATM   10  S   UNL     1     -10.135   8.448  67.318  1.00  0.00    -0.280 S  
HETATM   11  O   UNL     1     -11.139   7.465  66.978  1.00  0.00    -0.268 OA 
HETATM   12  O   UNL     1      -8.908   8.055  67.984  1.00  0.00    -0.128 OA 
BRANCH  10  13
HETATM   13  N   UNL     1     -10.825   9.597  68.307  1.00  0.00    -0.406 N  
HETATM   14  H   UNL     1     -10.969  10.533  67.929  1.00  0.00     0.000 HD 
HETATM   15  C   UNL     1     -11.218   9.348  69.628  1.00  0.00    -0.074 C  
HETATM   16  O   UNL     1     -11.095   8.262  70.171  1.00  0.00    -0.252 OA 
BRANCH  15  17
HETATM   17  C   UNL     1     -11.849  10.484  70.345  1.00  0.00    -0.431 A  
HETATM   18  C   UNL     1     -11.591  11.773  69.855  1.00  0.00    -0.351 A  
HETATM   19  C   UNL     1     -12.160  12.888  70.467  1.00  0.00    -0.364 A  
HETATM   20  C   UNL     1     -12.997  12.723  71.569  1.00  0.00    -0.388 A  
HETATM   21  C   UNL     1     -13.258  11.444  72.065  1.00  0.00    -0.432 A  
HETATM   22  C   UNL     1     -12.680  10.321  71.459  1.00  0.00    -0.557 A  
ENDBRANCH  15  17
ENDBRANCH  10  13
ENDBRANCH   7  10
TORSDOF 3
ENDMDL
MODEL       62
REMARK 921   NORMALIZED FREE ENERGY PREDICTED BY IDOCK:   -5.10 KCAL/MOL
REMARK 922        TOTAL FREE ENERGY PREDICTED BY IDOCK:   -6.32 KCAL/MOL
REMARK 923 INTER-LIGAND FREE ENERGY PREDICTED BY IDOCK:   -6.33 KCAL/MOL
REMARK 924 INTRA-LIGAND FREE ENERGY PREDICTED BY IDOCK:    0.01 KCAL/MOL
REMARK 927      BINDING AFFINITY PREDICTED BY RF-SCORE:    0.00 PKD
ROOT
HETATM    1  N   UNL     1     -13.903  13.824  72.667  1.00  0.00    -0.740 NA 
HETATM    2  H2  UNL     1     -14.800  14.307  72.613  1.00  0.00     0.000 HD 
HETATM    3  C   UNL     1     -13.245  13.974  71.440  1.00  0.00    -0.334 A  
HETATM    4  H1  UNL     1     -14.061  12.893  73.052  1.00  0.00     0.000 HD 
HETATM    5  C   UNL     1     -13.027  15.251  70.913  1.00  0.00    -0.522 A  
HETATM    6  C   UNL     1     -12.286  15.424  69.740  1.00  0.00    -0.288 A  
HETATM    7  C   UNL     1     -11.708  14.313  69.120  1.00  0.00    -0.320 A  
HETATM    8  C   UNL     1     -11.856  13.041  69.674  1.00  0.00    -0.385 A  
HETATM    9  C   UNL     1     -12.606  12.882  70.845  1.00  0.00    -0.355 A  
ENDROOT
BRANCH   7  10
HETATM   10  S   UNL     1     -10.804  14.535  67.606  1.00  0.00    -0.279 S  
HETATM   11  O   UNL     1     -11.719  14.900  66.547  1.00  0.00    -0.312 OA 
HETATM   12  O   UNL     1      -9.663  15.371  67.921  1.00  0.00    -0.207 OA 
BRANCH  10  13
HETATM   13  N   UNL     1     -10.170  13.032  67.268  1.00  0.00    -0.237 N  
HETATM   14  H   UNL     1      -9.194  12.857  67.509  1.00  0.00     0.000 HD 
HETATM   15  C   UNL     1     -10.900  11.997  66.671  1.00  0.00    -0.272 C  
HETATM   16  O   UNL     1     -12.073  12.103  66.350  1.00  0.00    -0.630 OA 
BRANCH  15  17
HETATM   17  C   UNL     1     -10.178  10.715  66.480  1.00  0.00    -0.288 A  
HETATM   18  C   UNL     1     -10.785   9.557  66.989  1.00  0.00    -0.220 A  
HETATM   19  C   UNL     1     -10.173   8.314  66.836  1.00  0.00    -0.388 A  
HETATM   20  C   UNL     1      -8.954   8.218  66.168  1.00  0.00    -0.222 A  
HETATM   21  C   UNL     1      -8.342   9.366  65.660  1.00  0.00    -0.129 A  
HETATM   22  C   UNL     1      -8.948  10.618  65.820  1.00  0.00    -0.200 A  
ENDBRANCH  15  17
ENDBRANCH  10  13
ENDBRANCH   7  10
TORSDOF 3
ENDMDL
MODEL       63
REMARK 921   NORMALIZED FREE ENERGY PREDICTED BY IDOCK:   -5.10 KCAL/MOL
REMARK 922        TOTAL FREE ENERGY PREDICTED BY IDOCK:   -6.32 KCAL/MOL
REMARK 923 INTER-LIGAND FREE ENERGY PREDICTED BY IDOCK:   -6.01 KCAL/MOL
REMARK 924 INTRA-LIGAND FREE ENERGY PREDICTED BY IDOCK:   -0.31 KCAL/MOL
REMARK 927      BINDING AFFINITY PREDICTED BY RF-SCORE:    0.00 PKD
ROOT
HETATM    1  N   UNL     1     -10.202  18.894  68.625  1.00  0.00    -0.441 NA 
HETATM    2  H2  UNL     1      -9.931  19.149  69.575  1.00  0.00     0.000 HD 
HETATM    3  C   UNL     1      -9.947  17.529  68.444  1.00  0.00    -0.335 A  
HETATM    4  H1  UNL     1      -9.804  19.578  67.982  1.00  0.00     0.000 HD 
HETATM    5  C   UNL     1     -10.493  16.591  69.326  1.00  0.00    -0.326 A  
HETATM    6  C   UNL     1     -10.331  15.220  69.102  1.00  0.00    -0.248 A  
HETATM    7  C   UNL     1      -9.666  14.783  67.954  1.00  0.00    -0.211 A  
HETATM    8  C   UNL     1      -9.178  15.706  67.028  1.00  0.00    -0.239 A  
HETATM    9  C   UNL     1      -9.342  17.076  67.268  1.00  0.00    -0.238 A  
ENDROOT
BRANCH   7  10
HETATM   10  S   UNL     1      -9.425  13.041  67.699  1.00  0.00    -0.209 S  
HETATM   11  O   UNL     1      -9.971  12.661  66.415  1.00  0.00    -0.243 OA 
HETATM   12  O   UNL     1      -8.042  12.759  68.029  1.00  0.00    -0.140 OA 
BRANCH  10  13
HETATM   13  N   UNL     1     -10.322  12.310  68.897  1.00  0.00    -0.409 N  
HETATM   14  H   UNL     1     -10.737  12.903  69.617  1.00  0.00     0.000 HD 
HETATM   15  C   UNL     1     -10.538  10.929  68.973  1.00  0.00    -0.216 C  
HETATM   16  O   UNL     1     -10.091  10.135  68.160  1.00  0.00    -0.145 OA 
BRANCH  15  17
HETATM   17  C   UNL     1     -11.394  10.463  70.091  1.00  0.00    -0.397 A  
HETATM   18  C   UNL     1     -11.159   9.170  70.582  1.00  0.00    -0.320 A  
HETATM   19  C   UNL     1     -11.914   8.667  71.640  1.00  0.00    -0.388 A  
HETATM   20  C   UNL     1     -12.905   9.456  72.221  1.00  0.00    -0.452 A  
HETATM   21  C   UNL     1     -13.147  10.744  71.738  1.00  0.00    -0.573 A  
HETATM   22  C   UNL     1     -12.398  11.249  70.668  1.00  0.00    -0.477 A  
ENDBRANCH  15  17
ENDBRANCH  10  13
ENDBRANCH   7  10
TORSDOF 3
ENDMDL
MODEL       64
REMARK 921   NORMALIZED FREE ENERGY PREDICTED BY IDOCK:   -5.07 KCAL/MOL
REMARK 922        TOTAL FREE ENERGY PREDICTED BY IDOCK:   -6.29 KCAL/MOL
REMARK 923 INTER-LIGAND FREE ENERGY PREDICTED BY IDOCK:   -6.01 KCAL/MOL
REMARK 924 INTRA-LIGAND FREE ENERGY PREDICTED BY IDOCK:   -0.28 KCAL/MOL
REMARK 927      BINDING AFFINITY PREDICTED BY RF-SCORE:    0.00 PKD
ROOT
HETATM    1  N   UNL     1     -11.569  16.241  63.747  1.00  0.00    -1.482 NA 
HETATM    2  H2  UNL     1     -12.547  16.315  63.466  1.00  0.00     0.000 HD 
HETATM    3  C   UNL     1     -11.462  15.233  64.714  1.00  0.00    -0.363 A  
HETATM    4  H1  UNL     1     -11.218  17.178  63.944  1.00  0.00     0.000 HD 
HETATM    5  C   UNL     1     -11.942  13.948  64.444  1.00  0.00    -0.480 A  
HETATM    6  C   UNL     1     -11.755  12.907  65.358  1.00  0.00    -0.413 A  
HETATM    7  C   UNL     1     -11.029  13.141  66.529  1.00  0.00    -0.286 A  
HETATM    8  C   UNL     1     -10.482  14.400  66.779  1.00  0.00    -0.273 A  
HETATM    9  C   UNL     1     -10.684  15.435  65.858  1.00  0.00    -0.343 A  
ENDROOT
BRANCH   7  10
HETATM   10  S   UNL     1     -10.833  11.825  67.707  1.00  0.00    -0.227 S  
HETATM   11  O   UNL     1      -9.832  12.196  68.683  1.00  0.00    -0.188 OA 
HETATM   12  O   UNL     1     -12.167  11.437  68.124  1.00  0.00    -0.602 OA 
BRANCH  10  13
HETATM   13  N   UNL     1     -10.259  10.541  66.815  1.00  0.00    -0.226 N  
HETATM   14  H   UNL     1     -10.862   9.726  66.701  1.00  0.00     0.000 HD 
HETATM   15  C   UNL     1      -8.994  10.517  66.215  1.00  0.00    -0.158 C  
HETATM   16  O   UNL     1      -8.200  11.441  66.287  1.00  0.00    -0.160 OA 
BRANCH  15  17
HETATM   17  C   UNL     1      -8.669   9.301  65.428  1.00  0.00    -0.208 A  
HETATM   18  C   UNL     1      -8.787   8.065  66.080  1.00  0.00    -0.198 A  
HETATM   19  C   UNL     1      -8.512   6.879  65.402  1.00  0.00    -0.091 A  
HETATM   20  C   UNL     1      -8.125   6.919  64.065  1.00  0.00    -0.008 A  
HETATM   21  C   UNL     1      -8.003   8.145  63.407  1.00  0.00    -0.147 A  
HETATM   22  C   UNL     1      -8.268   9.340  64.087  1.00  0.00    -0.159 A  
ENDBRANCH  15  17
ENDBRANCH  10  13
ENDBRANCH   7  10
TORSDOF 3
ENDMDL
MODEL       65
REMARK 921   NORMALIZED FREE ENERGY PREDICTED BY IDOCK:   -5.05 KCAL/MOL
REMARK 922        TOTAL FREE ENERGY PREDICTED BY IDOCK:   -6.25 KCAL/MOL
REMARK 923 INTER-LIGAND FREE ENERGY PREDICTED BY IDOCK:   -6.00 KCAL/MOL
REMARK 924 INTRA-LIGAND FREE ENERGY PREDICTED BY IDOCK:   -0.25 KCAL/MOL
REMARK 927      BINDING AFFINITY PREDICTED BY RF-SCORE:    0.00 PKD
ROOT
HETATM    1  N   UNL     1      -6.709   9.345  64.757  1.00  0.00    -0.084 NA 
HETATM    2  H2  UNL     1      -6.563   9.482  63.756  1.00  0.00     0.000 HD 
HETATM    3  C   UNL     1      -7.830  10.091  65.146  1.00  0.00    -0.136 A  
HETATM    4  H1  UNL     1      -5.817   9.476  65.234  1.00  0.00     0.000 HD 
HETATM    5  C   UNL     1      -9.053   9.911  64.493  1.00  0.00    -0.296 A  
HETATM    6  C   UNL     1     -10.203  10.573  64.933  1.00  0.00    -0.371 A  
HETATM    7  C   UNL     1     -10.141  11.378  66.073  1.00  0.00    -0.234 A  
HETATM    8  C   UNL     1      -8.944  11.510  66.778  1.00  0.00    -0.181 A  
HETATM    9  C   UNL     1      -7.798  10.847  66.321  1.00  0.00    -0.158 A  
ENDROOT
BRANCH   7  10
HETATM   10  S   UNL     1     -11.596  12.251  66.601  1.00  0.00    -0.350 S  
HETATM   11  O   UNL     1     -12.498  12.406  65.482  1.00  0.00    -0.643 OA 
HETATM   12  O   UNL     1     -12.038  11.619  67.828  1.00  0.00    -0.613 OA 
BRANCH  10  13
HETATM   13  N   UNL     1     -11.044  13.756  67.054  1.00  0.00    -0.297 N  
HETATM   14  H   UNL     1     -11.053  13.993  68.046  1.00  0.00     0.000 HD 
HETATM   15  C   UNL     1     -10.570  14.714  66.150  1.00  0.00    -0.312 C  
HETATM   16  O   UNL     1     -10.513  14.528  64.945  1.00  0.00    -0.418 OA 
BRANCH  15  17
HETATM   17  C   UNL     1     -10.085  15.986  66.741  1.00  0.00    -0.272 A  
HETATM   18  C   UNL     1      -8.897  16.521  66.222  1.00  0.00    -0.364 A  
HETATM   19  C   UNL     1      -8.387  17.720  66.718  1.00  0.00    -0.271 A  
HETATM   20  C   UNL     1      -9.064  18.396  67.730  1.00  0.00    -0.288 A  
HETATM   21  C   UNL     1     -10.247  17.870  68.253  1.00  0.00    -0.391 A  
HETATM   22  C   UNL     1     -10.758  16.661  67.766  1.00  0.00    -0.327 A  
ENDBRANCH  15  17
ENDBRANCH  10  13
ENDBRANCH   7  10
TORSDOF 3
ENDMDL
MODEL       66
REMARK 921   NORMALIZED FREE ENERGY PREDICTED BY IDOCK:   -5.02 KCAL/MOL
REMARK 922        TOTAL FREE ENERGY PREDICTED BY IDOCK:   -6.23 KCAL/MOL
REMARK 923 INTER-LIGAND FREE ENERGY PREDICTED BY IDOCK:   -5.94 KCAL/MOL
REMARK 924 INTRA-LIGAND FREE ENERGY PREDICTED BY IDOCK:   -0.29 KCAL/MOL
REMARK 927      BINDING AFFINITY PREDICTED BY RF-SCORE:    0.00 PKD
ROOT
HETATM    1  N   UNL     1     -11.908   7.896  73.089  1.00  0.00    -0.620 NA 
HETATM    2  H2  UNL     1     -12.845   7.491  73.120  1.00  0.00     0.000 HD 
HETATM    3  C   UNL     1     -11.875   8.856  72.070  1.00  0.00    -0.368 A  
HETATM    4  H1  UNL     1     -11.228   7.135  73.097  1.00  0.00     0.000 HD 
HETATM    5  C   UNL     1     -12.807   9.899  72.059  1.00  0.00    -0.488 A  
HETATM    6  C   UNL     1     -12.727  10.920  71.107  1.00  0.00    -0.530 A  
HETATM    7  C   UNL     1     -11.670  10.929  70.194  1.00  0.00    -0.347 A  
HETATM    8  C   UNL     1     -10.692   9.935  70.238  1.00  0.00    -0.367 A  
HETATM    9  C   UNL     1     -10.789   8.915  71.192  1.00  0.00    -0.352 A  
ENDROOT
BRANCH   7  10
HETATM   10  S   UNL     1     -11.599  12.206  68.959  1.00  0.00    -0.338 S  
HETATM   11  O   UNL     1     -11.989  11.660  67.678  1.00  0.00    -0.618 OA 
HETATM   12  O   UNL     1     -12.282  13.358  69.513  1.00  0.00    -0.286 OA 
BRANCH  10  13
HETATM   13  N   UNL     1      -9.991  12.637  68.889  1.00  0.00    -0.424 N  
HETATM   14  H   UNL     1      -9.331  12.131  69.480  1.00  0.00     0.000 HD 
HETATM   15  C   UNL     1      -9.496  13.655  68.065  1.00  0.00    -0.209 C  
HETATM   16  O   UNL     1     -10.201  14.315  67.318  1.00  0.00    -0.250 OA 
BRANCH  15  17
HETATM   17  C   UNL     1      -8.029  13.874  68.108  1.00  0.00    -0.148 A  
HETATM   18  C   UNL     1      -7.583  15.147  68.493  1.00  0.00    -0.120 A  
HETATM   19  C   UNL     1      -6.219  15.424  68.570  1.00  0.00    -0.095 A  
HETATM   20  C   UNL     1      -5.291  14.428  68.272  1.00  0.00    -0.114 A  
HETATM   21  C   UNL     1      -5.726  13.159  67.887  1.00  0.00    -0.129 A  
HETATM   22  C   UNL     1      -7.095  12.878  67.797  1.00  0.00    -0.137 A  
ENDBRANCH  15  17
ENDBRANCH  10  13
ENDBRANCH   7  10
TORSDOF 3
ENDMDL
MODEL       67
REMARK 921   NORMALIZED FREE ENERGY PREDICTED BY IDOCK:   -5.01 KCAL/MOL
REMARK 922        TOTAL FREE ENERGY PREDICTED BY IDOCK:   -6.21 KCAL/MOL
REMARK 923 INTER-LIGAND FREE ENERGY PREDICTED BY IDOCK:   -6.44 KCAL/MOL
REMARK 924 INTRA-LIGAND FREE ENERGY PREDICTED BY IDOCK:    0.23 KCAL/MOL
REMARK 927      BINDING AFFINITY PREDICTED BY RF-SCORE:    0.00 PKD
ROOT
HETATM    1  N   UNL     1      -8.424   6.697  73.197  1.00  0.00    -0.116 NA 
HETATM    2  H2  UNL     1      -8.711   5.718  73.170  1.00  0.00     0.000 HD 
HETATM    3  C   UNL     1      -9.455   7.474  72.653  1.00  0.00    -0.163 A  
HETATM    4  H1  UNL     1      -7.479   6.767  72.822  1.00  0.00     0.000 HD 
HETATM    5  C   UNL     1     -10.752   7.379  73.168  1.00  0.00    -0.436 A  
HETATM    6  C   UNL     1     -11.769   8.218  72.704  1.00  0.00    -0.406 A  
HETATM    7  C   UNL     1     -11.472   9.202  71.757  1.00  0.00    -0.381 A  
HETATM    8  C   UNL     1     -10.168   9.357  71.287  1.00  0.00    -0.340 A  
HETATM    9  C   UNL     1      -9.160   8.504  71.755  1.00  0.00    -0.304 A  
ENDROOT
BRANCH   7  10
HETATM   10  S   UNL     1     -12.779  10.236  71.140  1.00  0.00    -0.434 S  
HETATM   11  O   UNL     1     -14.020   9.493  71.132  1.00  0.00    -0.206 OA 
HETATM   12  O   UNL     1     -12.676  11.500  71.842  1.00  0.00    -0.306 OA 
BRANCH  10  13
HETATM   13  N   UNL     1     -12.347  10.569  69.566  1.00  0.00    -0.549 N  
HETATM   14  H   UNL     1     -12.445   9.827  68.873  1.00  0.00     0.000 HD 
HETATM   15  C   UNL     1     -11.857  11.810  69.141  1.00  0.00    -0.326 C  
HETATM   16  O   UNL     1     -11.708  12.763  69.889  1.00  0.00    -0.302 OA 
BRANCH  15  17
HETATM   17  C   UNL     1     -11.559  11.933  67.693  1.00  0.00    -0.382 A  
HETATM   18  C   UNL     1     -10.797  10.911  67.108  1.00  0.00    -0.337 A  
HETATM   19  C   UNL     1     -10.488  10.950  65.749  1.00  0.00    -0.275 A  
HETATM   20  C   UNL     1     -10.945  12.006  64.964  1.00  0.00    -0.355 A  
HETATM   21  C   UNL     1     -11.703  13.029  65.538  1.00  0.00    -0.408 A  
HETATM   22  C   UNL     1     -12.007  13.000  66.905  1.00  0.00    -0.415 A  
ENDBRANCH  15  17
ENDBRANCH  10  13
ENDBRANCH   7  10
TORSDOF 3
ENDMDL
MODEL       68
REMARK 921   NORMALIZED FREE ENERGY PREDICTED BY IDOCK:   -5.01 KCAL/MOL
REMARK 922        TOTAL FREE ENERGY PREDICTED BY IDOCK:   -6.21 KCAL/MOL
REMARK 923 INTER-LIGAND FREE ENERGY PREDICTED BY IDOCK:   -6.08 KCAL/MOL
REMARK 924 INTRA-LIGAND FREE ENERGY PREDICTED BY IDOCK:   -0.13 KCAL/MOL
REMARK 927      BINDING AFFINITY PREDICTED BY RF-SCORE:    0.00 PKD
ROOT
HETATM    1  N   UNL     1     -12.858  11.931  63.197  1.00  0.00    -0.867 NA 
HETATM    2  H2  UNL     1     -12.898  10.914  63.278  1.00  0.00     0.000 HD 
HETATM    3  C   UNL     1     -12.266  12.445  64.357  1.00  0.00    -0.437 A  
HETATM    4  H1  UNL     1     -13.774  12.267  62.899  1.00  0.00     0.000 HD 
HETATM    5  C   UNL     1     -11.010  11.985  64.766  1.00  0.00    -0.361 A  
HETATM    6  C   UNL     1     -10.361  12.557  65.865  1.00  0.00    -0.284 A  
HETATM    7  C   UNL     1     -10.949  13.639  66.525  1.00  0.00    -0.295 A  
HETATM    8  C   UNL     1     -12.168  14.155  66.085  1.00  0.00    -0.465 A  
HETATM    9  C   UNL     1     -12.810  13.568  64.988  1.00  0.00    -0.330 A  
ENDROOT
BRANCH   7  10
HETATM   10  S   UNL     1     -10.140  14.332  67.948  1.00  0.00    -0.237 S  
HETATM   11  O   UNL     1     -11.114  14.562  68.992  1.00  0.00    -0.241 OA 
HETATM   12  O   UNL     1      -8.965  13.520  68.195  1.00  0.00    -0.178 OA 
BRANCH  10  13
HETATM   13  N   UNL     1      -9.558  15.803  67.428  1.00  0.00    -0.216 N  
HETATM   14  H   UNL     1      -9.972  16.216  66.592  1.00  0.00     0.000 HD 
HETATM   15  C   UNL     1      -8.532  16.504  68.074  1.00  0.00    -0.186 C  
HETATM   16  O   UNL     1      -7.976  16.100  69.082  1.00  0.00    -0.227 OA 
BRANCH  15  17
HETATM   17  C   UNL     1      -8.170  17.818  67.486  1.00  0.00    -0.228 A  
HETATM   18  C   UNL     1      -8.916  18.932  67.901  1.00  0.00    -0.328 A  
HETATM   19  C   UNL     1      -8.626  20.201  67.403  1.00  0.00    -0.413 A  
HETATM   20  C   UNL     1      -7.584  20.368  66.494  1.00  0.00    -0.256 A  
HETATM   21  C   UNL     1      -6.837  19.265  66.075  1.00  0.00    -0.267 A  
HETATM   22  C   UNL     1      -7.131  17.986  66.563  1.00  0.00    -0.263 A  
ENDBRANCH  15  17
ENDBRANCH  10  13
ENDBRANCH   7  10
TORSDOF 3
ENDMDL
MODEL       69
REMARK 921   NORMALIZED FREE ENERGY PREDICTED BY IDOCK:   -4.99 KCAL/MOL
REMARK 922        TOTAL FREE ENERGY PREDICTED BY IDOCK:   -6.19 KCAL/MOL
REMARK 923 INTER-LIGAND FREE ENERGY PREDICTED BY IDOCK:   -5.97 KCAL/MOL
REMARK 924 INTRA-LIGAND FREE ENERGY PREDICTED BY IDOCK:   -0.22 KCAL/MOL
REMARK 927      BINDING AFFINITY PREDICTED BY RF-SCORE:    0.00 PKD
ROOT
HETATM    1  N   UNL     1     -11.537  16.309  63.799  1.00  0.00    -1.482 NA 
HETATM    2  H2  UNL     1     -12.496  16.590  63.591  1.00  0.00     0.000 HD 
HETATM    3  C   UNL     1     -11.557  15.462  64.914  1.00  0.00    -0.248 A  
HETATM    4  H1  UNL     1     -10.951  17.144  63.801  1.00  0.00     0.000 HD 
HETATM    5  C   UNL     1     -12.361  14.317  64.910  1.00  0.00    -0.435 A  
HETATM    6  C   UNL     1     -12.317  13.409  65.973  1.00  0.00    -0.471 A  
HETATM    7  C   UNL     1     -11.417  13.618  67.021  1.00  0.00    -0.343 A  
HETATM    8  C   UNL     1     -10.558  14.717  67.004  1.00  0.00    -0.290 A  
HETATM    9  C   UNL     1     -10.618  15.622  65.937  1.00  0.00    -0.354 A  
ENDROOT
BRANCH   7  10
HETATM   10  S   UNL     1     -11.399  12.484  68.389  1.00  0.00    -0.318 S  
HETATM   11  O   UNL     1     -11.580  13.214  69.624  1.00  0.00    -0.283 OA 
HETATM   12  O   UNL     1     -12.285  11.392  68.036  1.00  0.00    -0.607 OA 
BRANCH  10  13
HETATM   13  N   UNL     1      -9.867  11.830  68.375  1.00  0.00    -0.198 N  
HETATM   14  H   UNL     1      -9.156  12.282  67.800  1.00  0.00     0.000 HD 
HETATM   15  C   UNL     1      -9.500  10.696  69.110  1.00  0.00    -0.170 C  
HETATM   16  O   UNL     1     -10.273  10.086  69.832  1.00  0.00    -0.239 OA 
BRANCH  15  17
HETATM   17  C   UNL     1      -8.079  10.280  69.002  1.00  0.00    -0.132 A  
HETATM   18  C   UNL     1      -7.426   9.921  70.190  1.00  0.00    -0.178 A  
HETATM   19  C   UNL     1      -6.095   9.506  70.166  1.00  0.00    -0.049 A  
HETATM   20  C   UNL     1      -5.411   9.440  68.955  1.00  0.00    -0.037 A  
HETATM   21  C   UNL     1      -6.053   9.798  67.768  1.00  0.00    -0.051 A  
HETATM   22  C   UNL     1      -7.386  10.225  67.787  1.00  0.00    -0.087 A  
ENDBRANCH  15  17
ENDBRANCH  10  13
ENDBRANCH   7  10
TORSDOF 3
ENDMDL
MODEL       70
REMARK 921   NORMALIZED FREE ENERGY PREDICTED BY IDOCK:   -4.99 KCAL/MOL
REMARK 922        TOTAL FREE ENERGY PREDICTED BY IDOCK:   -6.19 KCAL/MOL
REMARK 923 INTER-LIGAND FREE ENERGY PREDICTED BY IDOCK:   -6.43 KCAL/MOL
REMARK 924 INTRA-LIGAND FREE ENERGY PREDICTED BY IDOCK:    0.24 KCAL/MOL
REMARK 927      BINDING AFFINITY PREDICTED BY RF-SCORE:    0.00 PKD
ROOT
HETATM    1  N   UNL     1      -5.974  16.243  66.945  1.00  0.00    -0.328 NA 
HETATM    2  H2  UNL     1      -5.911  17.232  66.703  1.00  0.00     0.000 HD 
HETATM    3  C   UNL     1      -7.304  15.954  67.277  1.00  0.00    -0.216 A  
HETATM    4  H1  UNL     1      -5.224  16.023  67.600  1.00  0.00     0.000 HD 
HETATM    5  C   UNL     1      -8.333  16.255  66.379  1.00  0.00    -0.365 A  
HETATM    6  C   UNL     1      -9.653  15.884  66.652  1.00  0.00    -0.265 A  
HETATM    7  C   UNL     1      -9.937  15.152  67.808  1.00  0.00    -0.225 A  
HETATM    8  C   UNL     1      -8.911  14.781  68.678  1.00  0.00    -0.185 A  
HETATM    9  C   UNL     1      -7.595  15.166  68.395  1.00  0.00    -0.117 A  
ENDROOT
BRANCH   7  10
HETATM   10  S   UNL     1     -11.623  14.721  68.171  1.00  0.00    -0.327 S  
HETATM   11  O   UNL     1     -12.255  15.807  68.888  1.00  0.00    -0.258 OA 
HETATM   12  O   UNL     1     -12.196  14.213  66.940  1.00  0.00    -0.439 OA 
BRANCH  10  13
HETATM   13  N   UNL     1     -11.514  13.404  69.184  1.00  0.00    -0.283 N  
HETATM   14  H   UNL     1     -11.312  13.570  70.170  1.00  0.00     0.000 HD 
HETATM   15  C   UNL     1     -11.685  12.081  68.758  1.00  0.00    -0.321 C  
HETATM   16  O   UNL     1     -11.935  11.775  67.603  1.00  0.00    -0.599 OA 
BRANCH  15  17
HETATM   17  C   UNL     1     -11.588  11.039  69.811  1.00  0.00    -0.401 A  
HETATM   18  C   UNL     1     -12.659  10.938  70.711  1.00  0.00    -0.470 A  
HETATM   19  C   UNL     1     -12.646   9.975  71.718  1.00  0.00    -0.504 A  
HETATM   20  C   UNL     1     -11.567   9.101  71.829  1.00  0.00    -0.457 A  
HETATM   21  C   UNL     1     -10.496   9.195  70.938  1.00  0.00    -0.347 A  
HETATM   22  C   UNL     1     -10.499  10.168  69.930  1.00  0.00    -0.322 A  
ENDBRANCH  15  17
ENDBRANCH  10  13
ENDBRANCH   7  10
TORSDOF 3
ENDMDL
MODEL       71
REMARK 921   NORMALIZED FREE ENERGY PREDICTED BY IDOCK:   -4.95 KCAL/MOL
REMARK 922        TOTAL FREE ENERGY PREDICTED BY IDOCK:   -6.14 KCAL/MOL
REMARK 923 INTER-LIGAND FREE ENERGY PREDICTED BY IDOCK:   -5.80 KCAL/MOL
REMARK 924 INTRA-LIGAND FREE ENERGY PREDICTED BY IDOCK:   -0.35 KCAL/MOL
REMARK 927      BINDING AFFINITY PREDICTED BY RF-SCORE:    0.00 PKD
ROOT
HETATM    1  N   UNL     1      -9.878   3.385  66.895  1.00  0.00    -0.354 NA 
HETATM    2  H2  UNL     1      -9.648   3.348  65.902  1.00  0.00     0.000 HD 
HETATM    3  C   UNL     1      -9.883   4.726  67.299  1.00  0.00    -0.184 A  
HETATM    4  H1  UNL     1      -9.296   2.706  67.386  1.00  0.00     0.000 HD 
HETATM    5  C   UNL     1     -10.681   5.658  66.626  1.00  0.00    -0.339 A  
HETATM    6  C   UNL     1     -10.774   6.978  67.076  1.00  0.00    -0.423 A  
HETATM    7  C   UNL     1     -10.109   7.355  68.246  1.00  0.00    -0.177 A  
HETATM    8  C   UNL     1      -9.367   6.420  68.967  1.00  0.00    -0.127 A  
HETATM    9  C   UNL     1      -9.277   5.103  68.500  1.00  0.00    -0.145 A  
ENDROOT
BRANCH   7  10
HETATM   10  S   UNL     1     -10.196   9.045  68.788  1.00  0.00    -0.211 S  
HETATM   11  O   UNL     1     -11.256   9.186  69.761  1.00  0.00    -0.181 OA 
HETATM   12  O   UNL     1      -8.840   9.451  69.105  1.00  0.00    -0.134 OA 
BRANCH  10  13
HETATM   13  N   UNL     1     -10.606   9.907  67.423  1.00  0.00    -0.271 N  
HETATM   14  H   UNL     1     -10.723   9.395  66.548  1.00  0.00     0.000 HD 
HETATM   15  C   UNL     1     -10.799  11.294  67.409  1.00  0.00    -0.262 C  
HETATM   16  O   UNL     1     -10.689  11.996  68.401  1.00  0.00    -0.211 OA 
BRANCH  15  17
HETATM   17  C   UNL     1     -11.197  11.884  66.106  1.00  0.00    -0.387 A  
HETATM   18  C   UNL     1     -10.730  11.248  64.947  1.00  0.00    -0.337 A  
HETATM   19  C   UNL     1     -11.074  11.736  63.687  1.00  0.00    -0.518 A  
HETATM   20  C   UNL     1     -11.892  12.858  63.577  1.00  0.00    -0.605 A  
HETATM   21  C   UNL     1     -12.361  13.498  64.726  1.00  0.00    -0.435 A  
HETATM   22  C   UNL     1     -12.010  13.018  65.994  1.00  0.00    -0.498 A  
ENDBRANCH  15  17
ENDBRANCH  10  13
ENDBRANCH   7  10
TORSDOF 3
ENDMDL
MODEL       72
REMARK 921   NORMALIZED FREE ENERGY PREDICTED BY IDOCK:   -4.86 KCAL/MOL
REMARK 922        TOTAL FREE ENERGY PREDICTED BY IDOCK:   -6.03 KCAL/MOL
REMARK 923 INTER-LIGAND FREE ENERGY PREDICTED BY IDOCK:   -5.88 KCAL/MOL
REMARK 924 INTRA-LIGAND FREE ENERGY PREDICTED BY IDOCK:   -0.15 KCAL/MOL
REMARK 927      BINDING AFFINITY PREDICTED BY RF-SCORE:    0.00 PKD
ROOT
HETATM    1  N   UNL     1      -9.859  10.615  62.394  1.00  0.00    -0.704 NA 
HETATM    2  H2  UNL     1      -9.981   9.666  62.040  1.00  0.00     0.000 HD 
HETATM    3  C   UNL     1     -10.156  10.618  63.763  1.00  0.00    -0.270 A  
HETATM    4  H1  UNL     1     -10.341  11.258  61.766  1.00  0.00     0.000 HD 
HETATM    5  C   UNL     1      -9.494   9.737  64.625  1.00  0.00    -0.295 A  
HETATM    6  C   UNL     1      -9.706   9.794  66.006  1.00  0.00    -0.319 A  
HETATM    7  C   UNL     1     -10.542  10.780  66.535  1.00  0.00    -0.218 A  
HETATM    8  C   UNL     1     -11.153  11.712  65.694  1.00  0.00    -0.308 A  
HETATM    9  C   UNL     1     -10.937  11.638  64.312  1.00  0.00    -0.418 A  
ENDROOT
BRANCH   7  10
HETATM   10  S   UNL     1     -10.841  10.819  68.286  1.00  0.00    -0.252 S  
HETATM   11  O   UNL     1      -9.793  11.573  68.938  1.00  0.00    -0.173 OA 
HETATM   12  O   UNL     1     -12.234  11.181  68.463  1.00  0.00    -0.600 OA 
BRANCH  10  13
HETATM   13  N   UNL     1     -10.734   9.228  68.769  1.00  0.00    -0.362 N  
HETATM   14  H   UNL     1     -10.886   8.502  68.069  1.00  0.00     0.000 HD 
HETATM   15  C   UNL     1     -10.447   8.833  70.081  1.00  0.00    -0.213 C  
HETATM   16  O   UNL     1     -10.244   9.622  70.990  1.00  0.00    -0.288 OA 
BRANCH  15  17
HETATM   17  C   UNL     1     -10.356   7.370  70.317  1.00  0.00    -0.217 A  
HETATM   18  C   UNL     1     -10.571   6.918  71.627  1.00  0.00    -0.231 A  
HETATM   19  C   UNL     1     -10.515   5.557  71.922  1.00  0.00    -0.282 A  
HETATM   20  C   UNL     1     -10.251   4.638  70.910  1.00  0.00    -0.213 A  
HETATM   21  C   UNL     1     -10.034   5.079  69.603  1.00  0.00    -0.311 A  
HETATM   22  C   UNL     1     -10.079   6.446  69.302  1.00  0.00    -0.203 A  
ENDBRANCH  15  17
ENDBRANCH  10  13
ENDBRANCH   7  10
TORSDOF 3
ENDMDL
MODEL       73
REMARK 921   NORMALIZED FREE ENERGY PREDICTED BY IDOCK:   -4.85 KCAL/MOL
REMARK 922        TOTAL FREE ENERGY PREDICTED BY IDOCK:   -6.03 KCAL/MOL
REMARK 923 INTER-LIGAND FREE ENERGY PREDICTED BY IDOCK:   -6.12 KCAL/MOL
REMARK 924 INTRA-LIGAND FREE ENERGY PREDICTED BY IDOCK:    0.09 KCAL/MOL
REMARK 927      BINDING AFFINITY PREDICTED BY RF-SCORE:    0.00 PKD
ROOT
HETATM    1  N   UNL     1     -13.654  10.326  72.446  1.00  0.00    -0.554 NA 
HETATM    2  H2  UNL     1     -14.523  10.747  72.116  1.00  0.00     0.000 HD 
HETATM    3  C   UNL     1     -12.719  10.366  71.403  1.00  0.00    -0.446 A  
HETATM    4  H1  UNL     1     -13.876   9.440  72.899  1.00  0.00     0.000 HD 
HETATM    5  C   UNL     1     -12.413  11.582  70.782  1.00  0.00    -0.444 A  
HETATM    6  C   UNL     1     -11.412  11.656  69.809  1.00  0.00    -0.339 A  
HETATM    7  C   UNL     1     -10.670  10.514  69.496  1.00  0.00    -0.255 A  
HETATM    8  C   UNL     1     -10.914   9.311  70.159  1.00  0.00    -0.278 A  
HETATM    9  C   UNL     1     -11.925   9.250  71.126  1.00  0.00    -0.394 A  
ENDROOT
BRANCH   7  10
HETATM   10  S   UNL     1      -9.429  10.605  68.227  1.00  0.00    -0.165 S  
HETATM   11  O   UNL     1      -8.126  10.752  68.836  1.00  0.00    -0.129 OA 
HETATM   12  O   UNL     1      -9.698   9.520  67.304  1.00  0.00    -0.154 OA 
BRANCH  10  13
HETATM   13  N   UNL     1      -9.786  11.998  67.386  1.00  0.00    -0.181 N  
HETATM   14  H   UNL     1      -9.131  12.778  67.448  1.00  0.00     0.000 HD 
HETATM   15  C   UNL     1     -10.934  12.158  66.601  1.00  0.00    -0.282 C  
HETATM   16  O   UNL     1     -11.775  11.285  66.457  1.00  0.00    -0.323 OA 
BRANCH  15  17
HETATM   17  C   UNL     1     -11.065  13.457  65.895  1.00  0.00    -0.293 A  
HETATM   18  C   UNL     1     -10.099  14.436  66.171  1.00  0.00    -0.323 A  
HETATM   19  C   UNL     1     -10.148  15.676  65.536  1.00  0.00    -0.395 A  
HETATM   20  C   UNL     1     -11.159  15.944  64.616  1.00  0.00    -0.368 A  
HETATM   21  C   UNL     1     -12.126  14.976  64.336  1.00  0.00    -0.373 A  
HETATM   22  C   UNL     1     -12.087  13.733  64.979  1.00  0.00    -0.424 A  
ENDBRANCH  15  17
ENDBRANCH  10  13
ENDBRANCH   7  10
TORSDOF 3
ENDMDL
MODEL       74
REMARK 921   NORMALIZED FREE ENERGY PREDICTED BY IDOCK:   -4.84 KCAL/MOL
REMARK 922        TOTAL FREE ENERGY PREDICTED BY IDOCK:   -6.01 KCAL/MOL
REMARK 923 INTER-LIGAND FREE ENERGY PREDICTED BY IDOCK:   -5.84 KCAL/MOL
REMARK 924 INTRA-LIGAND FREE ENERGY PREDICTED BY IDOCK:   -0.16 KCAL/MOL
REMARK 927      BINDING AFFINITY PREDICTED BY RF-SCORE:    0.00 PKD
ROOT
HETATM    1  N   UNL     1     -11.568  15.722  71.526  1.00  0.00    -0.421 NA 
HETATM    2  H2  UNL     1     -11.975  16.650  71.650  1.00  0.00     0.000 HD 
HETATM    3  C   UNL     1     -11.700  15.357  70.180  1.00  0.00    -0.330 A  
HETATM    4  H1  UNL     1     -11.929  15.112  72.259  1.00  0.00     0.000 HD 
HETATM    5  C   UNL     1     -11.205  16.193  69.175  1.00  0.00    -0.336 A  
HETATM    6  C   UNL     1     -11.241  15.798  67.834  1.00  0.00    -0.313 A  
HETATM    7  C   UNL     1     -11.723  14.529  67.502  1.00  0.00    -0.386 A  
HETATM    8  C   UNL     1     -12.153  13.655  68.501  1.00  0.00    -0.321 A  
HETATM    9  C   UNL     1     -12.119  14.067  69.839  1.00  0.00    -0.406 A  
ENDROOT
BRANCH   7  10
HETATM   10  S   UNL     1     -11.805  14.051  65.792  1.00  0.00    -0.402 S  
HETATM   11  O   UNL     1     -13.185  13.830  65.419  1.00  0.00    -0.722 OA 
HETATM   12  O   UNL     1     -10.979  14.989  65.058  1.00  0.00    -0.373 OA 
BRANCH  10  13
HETATM   13  N   UNL     1     -10.994  12.598  65.720  1.00  0.00    -0.274 N  
HETATM   14  H   UNL     1     -11.487  11.790  65.341  1.00  0.00     0.000 HD 
HETATM   15  C   UNL     1      -9.673  12.425  66.150  1.00  0.00    -0.246 C  
HETATM   16  O   UNL     1      -8.994  13.328  66.613  1.00  0.00    -0.214 OA 
BRANCH  15  17
HETATM   17  C   UNL     1      -9.103  11.066  65.974  1.00  0.00    -0.212 A  
HETATM   18  C   UNL     1      -9.948   9.978  66.238  1.00  0.00    -0.310 A  
HETATM   19  C   UNL     1      -9.488   8.672  66.081  1.00  0.00    -0.308 A  
HETATM   20  C   UNL     1      -8.182   8.443  65.652  1.00  0.00    -0.132 A  
HETATM   21  C   UNL     1      -7.333   9.520  65.389  1.00  0.00    -0.099 A  
HETATM   22  C   UNL     1      -7.787  10.834  65.554  1.00  0.00    -0.041 A  
ENDBRANCH  15  17
ENDBRANCH  10  13
ENDBRANCH   7  10
TORSDOF 3
ENDMDL
MODEL       75
REMARK 921   NORMALIZED FREE ENERGY PREDICTED BY IDOCK:   -4.82 KCAL/MOL
REMARK 922        TOTAL FREE ENERGY PREDICTED BY IDOCK:   -5.99 KCAL/MOL
REMARK 923 INTER-LIGAND FREE ENERGY PREDICTED BY IDOCK:   -5.82 KCAL/MOL
REMARK 924 INTRA-LIGAND FREE ENERGY PREDICTED BY IDOCK:   -0.17 KCAL/MOL
REMARK 927      BINDING AFFINITY PREDICTED BY RF-SCORE:    0.00 PKD
ROOT
HETATM    1  N   UNL     1      -8.304   9.872  70.431  1.00  0.00    -0.362 NA 
HETATM    2  H2  UNL     1      -8.534   8.878  70.406  1.00  0.00     0.000 HD 
HETATM    3  C   UNL     1      -8.867  10.485  69.304  1.00  0.00    -0.122 A  
HETATM    4  H1  UNL     1      -7.307   9.968  70.620  1.00  0.00     0.000 HD 
HETATM    5  C   UNL     1     -10.235  10.354  69.044  1.00  0.00    -0.233 A  
HETATM    6  C   UNL     1     -10.830  11.038  67.980  1.00  0.00    -0.278 A  
HETATM    7  C   UNL     1     -10.060  11.909  67.204  1.00  0.00    -0.204 A  
HETATM    8  C   UNL     1      -8.710  12.105  67.496  1.00  0.00    -0.173 A  
HETATM    9  C   UNL     1      -8.126  11.407  68.559  1.00  0.00    -0.149 A  
ENDROOT
BRANCH   7  10
HETATM   10  S   UNL     1     -10.813  12.742  65.827  1.00  0.00    -0.279 S  
HETATM   11  O   UNL     1     -10.156  12.342  64.603  1.00  0.00    -0.282 OA 
HETATM   12  O   UNL     1     -12.247  12.591  65.983  1.00  0.00    -0.605 OA 
BRANCH  10  13
HETATM   13  N   UNL     1     -10.509  14.358  66.093  1.00  0.00    -0.284 N  
HETATM   14  H   UNL     1      -9.975  14.869  65.390  1.00  0.00     0.000 HD 
HETATM   15  C   UNL     1     -10.945  15.054  67.227  1.00  0.00    -0.326 C  
HETATM   16  O   UNL     1     -11.595  14.537  68.122  1.00  0.00    -0.298 OA 
BRANCH  15  17
HETATM   17  C   UNL     1     -10.611  16.499  67.274  1.00  0.00    -0.285 A  
HETATM   18  C   UNL     1     -10.374  17.060  68.537  1.00  0.00    -0.359 A  
HETATM   19  C   UNL     1     -10.041  18.408  68.660  1.00  0.00    -0.407 A  
HETATM   20  C   UNL     1      -9.936  19.203  67.521  1.00  0.00    -0.433 A  
HETATM   21  C   UNL     1     -10.171  18.653  66.259  1.00  0.00    -0.462 A  
HETATM   22  C   UNL     1     -10.516  17.302  66.131  1.00  0.00    -0.279 A  
ENDBRANCH  15  17
ENDBRANCH  10  13
ENDBRANCH   7  10
TORSDOF 3
ENDMDL
MODEL       76
REMARK 921   NORMALIZED FREE ENERGY PREDICTED BY IDOCK:   -4.81 KCAL/MOL
REMARK 922        TOTAL FREE ENERGY PREDICTED BY IDOCK:   -5.97 KCAL/MOL
REMARK 923 INTER-LIGAND FREE ENERGY PREDICTED BY IDOCK:   -5.76 KCAL/MOL
REMARK 924 INTRA-LIGAND FREE ENERGY PREDICTED BY IDOCK:   -0.22 KCAL/MOL
REMARK 927      BINDING AFFINITY PREDICTED BY RF-SCORE:    0.00 PKD
ROOT
HETATM    1  N   UNL     1     -10.337   5.138  66.070  1.00  0.00    -0.407 NA 
HETATM    2  H2  UNL     1     -11.316   4.856  66.021  1.00  0.00     0.000 HD 
HETATM    3  C   UNL     1     -10.255   6.326  66.807  1.00  0.00    -0.202 A  
HETATM    4  H1  UNL     1      -9.940   5.091  65.131  1.00  0.00     0.000 HD 
HETATM    5  C   UNL     1     -10.797   6.391  68.095  1.00  0.00    -0.386 A  
HETATM    6  C   UNL     1     -10.638   7.536  68.882  1.00  0.00    -0.184 A  
HETATM    7  C   UNL     1      -9.877   8.604  68.398  1.00  0.00    -0.172 A  
HETATM    8  C   UNL     1      -9.269   8.525  67.145  1.00  0.00    -0.173 A  
HETATM    9  C   UNL     1      -9.444   7.375  66.364  1.00  0.00    -0.194 A  
ENDROOT
BRANCH   7  10
HETATM   10  S   UNL     1      -9.715  10.072  69.385  1.00  0.00    -0.234 S  
HETATM   11  O   UNL     1     -10.749  10.091  70.396  1.00  0.00    -0.287 OA 
HETATM   12  O   UNL     1      -8.316  10.174  69.753  1.00  0.00    -0.175 OA 
BRANCH  10  13
HETATM   13  N   UNL     1      -9.984  11.327  68.323  1.00  0.00    -0.188 N  
HETATM   14  H   UNL     1      -9.177  11.855  67.988  1.00  0.00     0.000 HD 
HETATM   15  C   UNL     1     -11.254  11.699  67.865  1.00  0.00    -0.269 C  
HETATM   16  O   UNL     1     -12.280  11.129  68.201  1.00  0.00    -0.612 OA 
BRANCH  15  17
HETATM   17  C   UNL     1     -11.295  12.819  66.893  1.00  0.00    -0.371 A  
HETATM   18  C   UNL     1     -12.150  12.678  65.790  1.00  0.00    -0.484 A  
HETATM   19  C   UNL     1     -12.253  13.694  64.841  1.00  0.00    -0.447 A  
HETATM   20  C   UNL     1     -11.508  14.861  64.992  1.00  0.00    -0.379 A  
HETATM   21  C   UNL     1     -10.653  15.010  66.086  1.00  0.00    -0.314 A  
HETATM   22  C   UNL     1     -10.538  13.988  67.037  1.00  0.00    -0.279 A  
ENDBRANCH  15  17
ENDBRANCH  10  13
ENDBRANCH   7  10
TORSDOF 3
ENDMDL
MODEL       77
REMARK 921   NORMALIZED FREE ENERGY PREDICTED BY IDOCK:   -4.80 KCAL/MOL
REMARK 922        TOTAL FREE ENERGY PREDICTED BY IDOCK:   -5.97 KCAL/MOL
REMARK 923 INTER-LIGAND FREE ENERGY PREDICTED BY IDOCK:   -5.65 KCAL/MOL
REMARK 924 INTRA-LIGAND FREE ENERGY PREDICTED BY IDOCK:   -0.31 KCAL/MOL
REMARK 927      BINDING AFFINITY PREDICTED BY RF-SCORE:    0.00 PKD
ROOT
HETATM    1  N   UNL     1      -9.649  11.679  63.395  1.00  0.00    -0.507 NA 
HETATM    2  H2  UNL     1      -9.778  11.230  62.488  1.00  0.00     0.000 HD 
HETATM    3  C   UNL     1      -9.687  10.691  64.387  1.00  0.00    -0.311 A  
HETATM    4  H1  UNL     1     -10.276  12.482  63.449  1.00  0.00     0.000 HD 
HETATM    5  C   UNL     1      -8.828   9.590  64.314  1.00  0.00    -0.247 A  
HETATM    6  C   UNL     1      -8.783   8.648  65.346  1.00  0.00    -0.208 A  
HETATM    7  C   UNL     1      -9.564   8.839  66.488  1.00  0.00    -0.237 A  
HETATM    8  C   UNL     1     -10.373   9.970  66.607  1.00  0.00    -0.281 A  
HETATM    9  C   UNL     1     -10.413  10.902  65.563  1.00  0.00    -0.286 A  
ENDROOT
BRANCH   7  10
HETATM   10  S   UNL     1      -9.536   7.615  67.776  1.00  0.00    -0.145 S  
HETATM   11  O   UNL     1      -9.909   6.330  67.228  1.00  0.00    -0.125 OA 
HETATM   12  O   UNL     1      -8.281   7.783  68.482  1.00  0.00    -0.125 OA 
BRANCH  10  13
HETATM   13  N   UNL     1     -10.714   8.101  68.848  1.00  0.00    -0.403 N  
HETATM   14  H   UNL     1     -11.279   8.915  68.606  1.00  0.00     0.000 HD 
HETATM   15  C   UNL     1     -10.972   7.455  70.063  1.00  0.00    -0.248 C  
HETATM   16  O   UNL     1     -10.358   6.471  70.443  1.00  0.00    -0.190 OA 
BRANCH  15  17
HETATM   17  C   UNL     1     -12.086   8.009  70.873  1.00  0.00    -0.164 A  
HETATM   18  C   UNL     1     -11.982   9.350  71.271  1.00  0.00    -0.430 A  
HETATM   19  C   UNL     1     -12.995   9.944  72.022  1.00  0.00    -0.518 A  
HETATM   20  C   UNL     1     -14.123   9.205  72.373  1.00  0.00    -0.434 A  
HETATM   21  C   UNL     1     -14.234   7.869  71.982  1.00  0.00    -0.441 A  
HETATM   22  C   UNL     1     -13.214   7.264  71.237  1.00  0.00    -0.352 A  
ENDBRANCH  15  17
ENDBRANCH  10  13
ENDBRANCH   7  10
TORSDOF 3
ENDMDL
MODEL       78
REMARK 921   NORMALIZED FREE ENERGY PREDICTED BY IDOCK:   -4.78 KCAL/MOL
REMARK 922        TOTAL FREE ENERGY PREDICTED BY IDOCK:   -5.95 KCAL/MOL
REMARK 923 INTER-LIGAND FREE ENERGY PREDICTED BY IDOCK:   -5.63 KCAL/MOL
REMARK 924 INTRA-LIGAND FREE ENERGY PREDICTED BY IDOCK:   -0.31 KCAL/MOL
REMARK 927      BINDING AFFINITY PREDICTED BY RF-SCORE:    0.00 PKD
ROOT
HETATM    1  N   UNL     1     -11.483   5.034  73.499  1.00  0.00    -0.451 NA 
HETATM    2  H2  UNL     1     -10.626   4.986  74.051  1.00  0.00     0.000 HD 
HETATM    3  C   UNL     1     -11.165   5.543  72.233  1.00  0.00    -0.220 A  
HETATM    4  H1  UNL     1     -12.205   5.482  74.063  1.00  0.00     0.000 HD 
HETATM    5  C   UNL     1     -10.175   4.929  71.459  1.00  0.00    -0.264 A  
HETATM    6  C   UNL     1      -9.914   5.362  70.156  1.00  0.00    -0.301 A  
HETATM    7  C   UNL     1     -10.692   6.381  69.600  1.00  0.00    -0.282 A  
HETATM    8  C   UNL     1     -11.731   6.955  70.335  1.00  0.00    -0.377 A  
HETATM    9  C   UNL     1     -11.976   6.516  71.641  1.00  0.00    -0.387 A  
ENDROOT
BRANCH   7  10
HETATM   10  S   UNL     1     -10.327   6.957  67.959  1.00  0.00    -0.209 S  
HETATM   11  O   UNL     1      -8.934   6.712  67.661  1.00  0.00    -0.114 OA 
HETATM   12  O   UNL     1     -11.372   6.443  67.096  1.00  0.00    -0.308 OA 
BRANCH  10  13
HETATM   13  N   UNL     1     -10.578   8.603  68.023  1.00  0.00    -0.399 N  
HETATM   14  H   UNL     1     -10.882   9.009  68.907  1.00  0.00     0.000 HD 
HETATM   15  C   UNL     1     -10.394   9.458  66.930  1.00  0.00    -0.238 C  
HETATM   16  O   UNL     1     -10.027   9.073  65.831  1.00  0.00    -0.276 OA 
BRANCH  15  17
HETATM   17  C   UNL     1     -10.630  10.901  67.184  1.00  0.00    -0.302 A  
HETATM   18  C   UNL     1      -9.794  11.813  66.523  1.00  0.00    -0.228 A  
HETATM   19  C   UNL     1      -9.964  13.185  66.702  1.00  0.00    -0.270 A  
HETATM   20  C   UNL     1     -10.975  13.656  67.536  1.00  0.00    -0.282 A  
HETATM   21  C   UNL     1     -11.812  12.755  68.199  1.00  0.00    -0.372 A  
HETATM   22  C   UNL     1     -11.639  11.376  68.032  1.00  0.00    -0.357 A  
ENDBRANCH  15  17
ENDBRANCH  10  13
ENDBRANCH   7  10
TORSDOF 3
ENDMDL
MODEL       79
REMARK 921   NORMALIZED FREE ENERGY PREDICTED BY IDOCK:   -4.78 KCAL/MOL
REMARK 922        TOTAL FREE ENERGY PREDICTED BY IDOCK:   -5.95 KCAL/MOL
REMARK 923 INTER-LIGAND FREE ENERGY PREDICTED BY IDOCK:   -5.79 KCAL/MOL
REMARK 924 INTRA-LIGAND FREE ENERGY PREDICTED BY IDOCK:   -0.16 KCAL/MOL
REMARK 927      BINDING AFFINITY PREDICTED BY RF-SCORE:    0.00 PKD
ROOT
HETATM    1  N   UNL     1      -8.512  19.783  66.903  1.00  0.00    -0.306 NA 
HETATM    2  H2  UNL     1      -8.606  20.358  67.740  1.00  0.00     0.000 HD 
HETATM    3  C   UNL     1      -9.069  18.525  67.164  1.00  0.00    -0.277 A  
HETATM    4  H1  UNL     1      -7.551  19.857  66.568  1.00  0.00     0.000 HD 
HETATM    5  C   UNL     1     -10.386  18.423  67.623  1.00  0.00    -0.427 A  
HETATM    6  C   UNL     1     -10.989  17.173  67.795  1.00  0.00    -0.180 A  
HETATM    7  C   UNL     1     -10.287  16.016  67.448  1.00  0.00    -0.294 A  
HETATM    8  C   UNL     1      -8.998  16.105  66.922  1.00  0.00    -0.248 A  
HETATM    9  C   UNL     1      -8.403  17.363  66.762  1.00  0.00    -0.276 A  
ENDROOT
BRANCH   7  10
HETATM   10  S   UNL     1     -11.043  14.430  67.710  1.00  0.00    -0.299 S  
HETATM   11  O   UNL     1     -10.627  13.902  68.990  1.00  0.00    -0.233 OA 
HETATM   12  O   UNL     1     -12.450  14.582  67.393  1.00  0.00    -0.129 OA 
BRANCH  10  13
HETATM   13  N   UNL     1     -10.422  13.461  66.506  1.00  0.00    -0.279 N  
HETATM   14  H   UNL     1      -9.564  13.760  66.042  1.00  0.00     0.000 HD 
HETATM   15  C   UNL     1     -11.011  12.259  66.094  1.00  0.00    -0.293 C  
HETATM   16  O   UNL     1     -12.034  11.811  66.588  1.00  0.00    -0.561 OA 
BRANCH  15  17
HETATM   17  C   UNL     1     -10.295  11.512  65.031  1.00  0.00    -0.333 A  
HETATM   18  C   UNL     1      -9.733  10.276  65.385  1.00  0.00    -0.340 A  
HETATM   19  C   UNL     1      -9.057   9.510  64.438  1.00  0.00    -0.234 A  
HETATM   20  C   UNL     1      -8.943   9.969  63.127  1.00  0.00    -0.273 A  
HETATM   21  C   UNL     1      -9.498  11.199  62.766  1.00  0.00    -0.357 A  
HETATM   22  C   UNL     1     -10.169  11.977  63.717  1.00  0.00    -0.447 A  
ENDBRANCH  15  17
ENDBRANCH  10  13
ENDBRANCH   7  10
TORSDOF 3
ENDMDL
MODEL       80
REMARK 921   NORMALIZED FREE ENERGY PREDICTED BY IDOCK:   -4.72 KCAL/MOL
REMARK 922        TOTAL FREE ENERGY PREDICTED BY IDOCK:   -5.87 KCAL/MOL
REMARK 923 INTER-LIGAND FREE ENERGY PREDICTED BY IDOCK:   -5.91 KCAL/MOL
REMARK 924 INTRA-LIGAND FREE ENERGY PREDICTED BY IDOCK:    0.04 KCAL/MOL
REMARK 927      BINDING AFFINITY PREDICTED BY RF-SCORE:    0.00 PKD
ROOT
HETATM    1  N   UNL     1     -10.057  10.755  67.225  1.00  0.00    -0.190 NA 
HETATM    2  H2  UNL     1     -10.756  10.553  66.511  1.00  0.00     0.000 HD 
HETATM    3  C   UNL     1     -10.469  11.887  67.940  1.00  0.00    -0.204 A  
HETATM    4  H1  UNL     1      -9.135  10.734  66.790  1.00  0.00     0.000 HD 
HETATM    5  C   UNL     1     -11.733  11.917  68.538  1.00  0.00    -0.388 A  
HETATM    6  C   UNL     1     -12.122  12.997  69.336  1.00  0.00    -0.267 A  
HETATM    7  C   UNL     1     -11.215  14.030  69.586  1.00  0.00    -0.164 A  
HETATM    8  C   UNL     1      -9.926  13.980  69.055  1.00  0.00    -0.028 A  
HETATM    9  C   UNL     1      -9.553  12.896  68.251  1.00  0.00    -0.212 A  
ENDROOT
BRANCH   7  10
HETATM   10  S   UNL     1     -11.731  15.421  70.565  1.00  0.00    -0.362 S  
HETATM   11  O   UNL     1     -13.155  15.619  70.410  1.00  0.00    -0.379 OA 
HETATM   12  O   UNL     1     -11.146  15.243  71.880  1.00  0.00    -0.371 OA 
BRANCH  10  13
HETATM   13  N   UNL     1     -10.935  16.724  69.901  1.00  0.00    -0.401 N  
HETATM   14  H   UNL     1     -10.366  17.306  70.517  1.00  0.00     0.000 HD 
HETATM   15  C   UNL     1     -11.003  17.067  68.545  1.00  0.00    -0.247 C  
HETATM   16  O   UNL     1     -11.650  16.434  67.725  1.00  0.00    -0.038 OA 
BRANCH  15  17
HETATM   17  C   UNL     1     -10.197  18.241  68.127  1.00  0.00    -0.406 A  
HETATM   18  C   UNL     1      -8.838  18.241  68.476  1.00  0.00    -0.322 A  
HETATM   19  C   UNL     1      -8.014  19.303  68.107  1.00  0.00    -0.343 A  
HETATM   20  C   UNL     1      -8.540  20.368  67.380  1.00  0.00    -0.403 A  
HETATM   21  C   UNL     1      -9.891  20.377  67.029  1.00  0.00    -0.594 A  
HETATM   22  C   UNL     1     -10.726  19.318  67.407  1.00  0.00    -0.594 A  
ENDBRANCH  15  17
ENDBRANCH  10  13
ENDBRANCH   7  10
TORSDOF 3
ENDMDL
MODEL       81
REMARK 921   NORMALIZED FREE ENERGY PREDICTED BY IDOCK:   -4.71 KCAL/MOL
REMARK 922        TOTAL FREE ENERGY PREDICTED BY IDOCK:   -5.86 KCAL/MOL
REMARK 923 INTER-LIGAND FREE ENERGY PREDICTED BY IDOCK:   -5.58 KCAL/MOL
REMARK 924 INTRA-LIGAND FREE ENERGY PREDICTED BY IDOCK:   -0.28 KCAL/MOL
REMARK 927      BINDING AFFINITY PREDICTED BY RF-SCORE:    0.00 PKD
ROOT
HETATM    1  N   UNL     1     -12.506  14.512  63.207  1.00  0.00    -0.836 NA 
HETATM    2  H2  UNL     1     -13.473  14.831  63.277  1.00  0.00     0.000 HD 
HETATM    3  C   UNL     1     -11.973  14.426  64.499  1.00  0.00    -0.472 A  
HETATM    4  H1  UNL     1     -12.034  15.070  62.495  1.00  0.00     0.000 HD 
HETATM    5  C   UNL     1     -12.621  13.661  65.475  1.00  0.00    -0.541 A  
HETATM    6  C   UNL     1     -12.051  13.484  66.739  1.00  0.00    -0.425 A  
HETATM    7  C   UNL     1     -10.794  14.029  67.011  1.00  0.00    -0.290 A  
HETATM    8  C   UNL     1     -10.103  14.734  66.025  1.00  0.00    -0.327 A  
HETATM    9  C   UNL     1     -10.689  14.910  64.765  1.00  0.00    -0.365 A  
ENDROOT
BRANCH   7  10
HETATM   10  S   UNL     1     -10.096  13.838  68.634  1.00  0.00    -0.147 S  
HETATM   11  O   UNL     1      -8.742  14.344  68.641  1.00  0.00    -0.177 OA 
HETATM   12  O   UNL     1     -11.080  14.342  69.572  1.00  0.00    -0.245 OA 
BRANCH  10  13
HETATM   13  N   UNL     1     -10.052  12.191  68.884  1.00  0.00    -0.418 N  
HETATM   14  H   UNL     1     -10.570  11.811  69.676  1.00  0.00     0.000 HD 
HETATM   15  C   UNL     1      -9.344  11.301  68.067  1.00  0.00    -0.166 C  
HETATM   16  O   UNL     1      -8.699  11.654  67.093  1.00  0.00    -0.153 OA 
BRANCH  15  17
HETATM   17  C   UNL     1      -9.450   9.864  68.423  1.00  0.00    -0.142 A  
HETATM   18  C   UNL     1     -10.161   9.545  69.589  1.00  0.00    -0.234 A  
HETATM   19  C   UNL     1     -10.316   8.216  69.981  1.00  0.00    -0.215 A  
HETATM   20  C   UNL     1      -9.767   7.197  69.205  1.00  0.00    -0.159 A  
HETATM   21  C   UNL     1      -9.057   7.505  68.044  1.00  0.00    -0.131 A  
HETATM   22  C   UNL     1      -8.890   8.839  67.651  1.00  0.00    -0.138 A  
ENDBRANCH  15  17
ENDBRANCH  10  13
ENDBRANCH   7  10
TORSDOF 3
ENDMDL
MODEL       82
REMARK 921   NORMALIZED FREE ENERGY PREDICTED BY IDOCK:   -4.71 KCAL/MOL
REMARK 922        TOTAL FREE ENERGY PREDICTED BY IDOCK:   -5.86 KCAL/MOL
REMARK 923 INTER-LIGAND FREE ENERGY PREDICTED BY IDOCK:   -5.58 KCAL/MOL
REMARK 924 INTRA-LIGAND FREE ENERGY PREDICTED BY IDOCK:   -0.28 KCAL/MOL
REMARK 927      BINDING AFFINITY PREDICTED BY RF-SCORE:    0.00 PKD
ROOT
HETATM    1  N   UNL     1     -11.808   8.836  72.566  1.00  0.00    -0.289 NA 
HETATM    2  H2  UNL     1     -12.761   8.475  72.618  1.00  0.00     0.000 HD 
HETATM    3  C   UNL     1     -11.619   9.404  71.299  1.00  0.00    -0.364 A  
HETATM    4  H1  UNL     1     -11.171   8.115  72.902  1.00  0.00     0.000 HD 
HETATM    5  C   UNL     1     -12.493  10.394  70.837  1.00  0.00    -0.478 A  
HETATM    6  C   UNL     1     -12.262  11.041  69.620  1.00  0.00    -0.370 A  
HETATM    7  C   UNL     1     -11.113  10.736  68.885  1.00  0.00    -0.253 A  
HETATM    8  C   UNL     1     -10.195   9.803  69.367  1.00  0.00    -0.223 A  
HETATM    9  C   UNL     1     -10.443   9.157  70.585  1.00  0.00    -0.305 A  
ENDROOT
BRANCH   7  10
HETATM   10  S   UNL     1     -10.848  11.530  67.317  1.00  0.00    -0.271 S  
HETATM   11  O   UNL     1     -10.035  10.680  66.477  1.00  0.00    -0.200 OA 
HETATM   12  O   UNL     1     -12.143  11.999  66.864  1.00  0.00    -0.608 OA 
BRANCH  10  13
HETATM   13  N   UNL     1      -9.983  12.906  67.681  1.00  0.00    -0.214 N  
HETATM   14  H   UNL     1      -9.686  13.046  68.646  1.00  0.00     0.000 HD 
HETATM   15  C   UNL     1      -9.642  13.881  66.735  1.00  0.00    -0.283 C  
HETATM   16  O   UNL     1      -9.945  13.805  65.555  1.00  0.00    -0.292 OA 
BRANCH  15  17
HETATM   17  C   UNL     1      -8.836  15.022  67.237  1.00  0.00    -0.216 A  
HETATM   18  C   UNL     1      -8.547  16.050  66.327  1.00  0.00    -0.363 A  
HETATM   19  C   UNL     1      -7.807  17.160  66.729  1.00  0.00    -0.277 A  
HETATM   20  C   UNL     1      -7.357  17.255  68.044  1.00  0.00    -0.193 A  
HETATM   21  C   UNL     1      -7.638  16.236  68.955  1.00  0.00    -0.219 A  
HETATM   22  C   UNL     1      -8.373  15.113  68.555  1.00  0.00    -0.158 A  
ENDBRANCH  15  17
ENDBRANCH  10  13
ENDBRANCH   7  10
TORSDOF 3
ENDMDL
MODEL       83
REMARK 921   NORMALIZED FREE ENERGY PREDICTED BY IDOCK:   -4.70 KCAL/MOL
REMARK 922        TOTAL FREE ENERGY PREDICTED BY IDOCK:   -5.85 KCAL/MOL
REMARK 923 INTER-LIGAND FREE ENERGY PREDICTED BY IDOCK:   -5.60 KCAL/MOL
REMARK 924 INTRA-LIGAND FREE ENERGY PREDICTED BY IDOCK:   -0.25 KCAL/MOL
REMARK 927      BINDING AFFINITY PREDICTED BY RF-SCORE:    0.00 PKD
ROOT
HETATM    1  N   UNL     1     -13.106  13.009  64.712  1.00  0.00    -0.730 NA 
HETATM    2  H2  UNL     1     -13.188  14.009  64.896  1.00  0.00     0.000 HD 
HETATM    3  C   UNL     1     -11.951  12.536  65.348  1.00  0.00    -0.437 A  
HETATM    4  H1  UNL     1     -13.240  12.852  63.713  1.00  0.00     0.000 HD 
HETATM    5  C   UNL     1     -11.767  12.749  66.718  1.00  0.00    -0.459 A  
HETATM    6  C   UNL     1     -10.670  12.199  67.387  1.00  0.00    -0.268 A  
HETATM    7  C   UNL     1      -9.779  11.378  66.690  1.00  0.00    -0.200 A  
HETATM    8  C   UNL     1      -9.989  11.097  65.340  1.00  0.00    -0.309 A  
HETATM    9  C   UNL     1     -11.088  11.661  64.681  1.00  0.00    -0.342 A  
ENDROOT
BRANCH   7  10
HETATM   10  S   UNL     1      -8.362  10.719  67.536  1.00  0.00    -0.116 S  
HETATM   11  O   UNL     1      -7.696   9.757  66.686  1.00  0.00    -0.101 OA 
HETATM   12  O   UNL     1      -7.640  11.851  68.083  1.00  0.00    -0.105 OA 
BRANCH  10  13
HETATM   13  N   UNL     1      -8.992   9.919  68.855  1.00  0.00    -0.145 N  
HETATM   14  H   UNL     1      -8.684  10.206  69.784  1.00  0.00     0.000 HD 
HETATM   15  C   UNL     1      -9.920   8.874  68.759  1.00  0.00    -0.184 C  
HETATM   16  O   UNL     1     -10.355   8.460  67.696  1.00  0.00    -0.226 OA 
BRANCH  15  17
HETATM   17  C   UNL     1     -10.397   8.306  70.044  1.00  0.00    -0.212 A  
HETATM   18  C   UNL     1     -11.025   7.053  69.996  1.00  0.00    -0.303 A  
HETATM   19  C   UNL     1     -11.487   6.448  71.164  1.00  0.00    -0.381 A  
HETATM   20  C   UNL     1     -11.318   7.089  72.389  1.00  0.00    -0.307 A  
HETATM   21  C   UNL     1     -10.696   8.338  72.447  1.00  0.00    -0.411 A  
HETATM   22  C   UNL     1     -10.239   8.954  71.275  1.00  0.00    -0.361 A  
ENDBRANCH  15  17
ENDBRANCH  10  13
ENDBRANCH   7  10
TORSDOF 3
ENDMDL
MODEL       84
REMARK 921   NORMALIZED FREE ENERGY PREDICTED BY IDOCK:   -4.65 KCAL/MOL
REMARK 922        TOTAL FREE ENERGY PREDICTED BY IDOCK:   -5.79 KCAL/MOL
REMARK 923 INTER-LIGAND FREE ENERGY PREDICTED BY IDOCK:   -5.51 KCAL/MOL
REMARK 924 INTRA-LIGAND FREE ENERGY PREDICTED BY IDOCK:   -0.27 KCAL/MOL
REMARK 927      BINDING AFFINITY PREDICTED BY RF-SCORE:    0.00 PKD
ROOT
HETATM    1  N   UNL     1      -7.147  15.960  69.385  1.00  0.00    -0.211 NA 
HETATM    2  H2  UNL     1      -7.582  16.474  70.152  1.00  0.00     0.000 HD 
HETATM    3  C   UNL     1      -8.014  14.932  68.994  1.00  0.00    -0.170 A  
HETATM    4  H1  UNL     1      -6.185  15.746  69.645  1.00  0.00     0.000 HD 
HETATM    5  C   UNL     1      -9.334  15.226  68.637  1.00  0.00    -0.201 A  
HETATM    6  C   UNL     1     -10.183  14.227  68.150  1.00  0.00    -0.231 A  
HETATM    7  C   UNL     1      -9.688  12.933  67.964  1.00  0.00    -0.224 A  
HETATM    8  C   UNL     1      -8.354  12.641  68.248  1.00  0.00    -0.165 A  
HETATM    9  C   UNL     1      -7.517  13.650  68.742  1.00  0.00    -0.088 A  
ENDROOT
BRANCH   7  10
HETATM   10  S   UNL     1     -10.784  11.659  67.387  1.00  0.00    -0.247 S  
HETATM   11  O   UNL     1     -12.098  12.218  67.159  1.00  0.00    -0.560 OA 
HETATM   12  O   UNL     1     -10.084  10.955  66.330  1.00  0.00    -0.218 OA 
BRANCH  10  13
HETATM   13  N   UNL     1     -10.877  10.577  68.650  1.00  0.00    -0.220 N  
HETATM   14  H   UNL     1     -10.518   9.633  68.503  1.00  0.00     0.000 HD 
HETATM   15  C   UNL     1     -11.419  10.890  69.903  1.00  0.00    -0.323 C  
HETATM   16  O   UNL     1     -11.869  11.990  70.182  1.00  0.00    -0.335 OA 
BRANCH  15  17
HETATM   17  C   UNL     1     -11.383   9.808  70.918  1.00  0.00    -0.439 A  
HETATM   18  C   UNL     1     -10.161   9.145  71.104  1.00  0.00    -0.384 A  
HETATM   19  C   UNL     1     -10.046   8.128  72.049  1.00  0.00    -0.304 A  
HETATM   20  C   UNL     1     -11.149   7.770  72.821  1.00  0.00    -0.457 A  
HETATM   21  C   UNL     1     -12.370   8.423  72.641  1.00  0.00    -0.278 A  
HETATM   22  C   UNL     1     -12.494   9.439  71.685  1.00  0.00    -0.460 A  
ENDBRANCH  15  17
ENDBRANCH  10  13
ENDBRANCH   7  10
TORSDOF 3
ENDMDL
MODEL       85
REMARK 921   NORMALIZED FREE ENERGY PREDICTED BY IDOCK:   -4.63 KCAL/MOL
REMARK 922        TOTAL FREE ENERGY PREDICTED BY IDOCK:   -5.76 KCAL/MOL
REMARK 923 INTER-LIGAND FREE ENERGY PREDICTED BY IDOCK:   -5.47 KCAL/MOL
REMARK 924 INTRA-LIGAND FREE ENERGY PREDICTED BY IDOCK:   -0.30 KCAL/MOL
REMARK 927      BINDING AFFINITY PREDICTED BY RF-SCORE:    0.00 PKD
ROOT
HETATM    1  N   UNL     1      -8.342   7.254  72.204  1.00  0.00    -0.105 NA 
HETATM    2  H2  UNL     1      -8.873   6.396  72.353  1.00  0.00     0.000 HD 
HETATM    3  C   UNL     1      -9.170   8.180  71.556  1.00  0.00    -0.161 A  
HETATM    4  H1  UNL     1      -7.438   7.008  71.802  1.00  0.00     0.000 HD 
HETATM    5  C   UNL     1     -10.410   8.518  72.107  1.00  0.00    -0.409 A  
HETATM    6  C   UNL     1     -11.204   9.512  71.527  1.00  0.00    -0.437 A  
HETATM    7  C   UNL     1     -10.727  10.215  70.417  1.00  0.00    -0.266 A  
HETATM    8  C   UNL     1      -9.461   9.938  69.900  1.00  0.00    -0.256 A  
HETATM    9  C   UNL     1      -8.680   8.936  70.487  1.00  0.00    -0.213 A  
ENDROOT
BRANCH   7  10
HETATM   10  S   UNL     1     -11.759  11.445  69.658  1.00  0.00    -0.376 S  
HETATM   11  O   UNL     1     -12.399  10.885  68.489  1.00  0.00    -0.490 OA 
HETATM   12  O   UNL     1     -12.547  12.041  70.720  1.00  0.00    -0.303 OA 
BRANCH  10  13
HETATM   13  N   UNL     1     -10.705  12.639  69.169  1.00  0.00    -0.436 N  
HETATM   14  H   UNL     1      -9.710  12.503  69.345  1.00  0.00     0.000 HD 
HETATM   15  C   UNL     1     -11.110  13.818  68.530  1.00  0.00    -0.267 C  
HETATM   16  O   UNL     1     -12.274  14.073  68.268  1.00  0.00    -0.328 OA 
BRANCH  15  17
HETATM   17  C   UNL     1     -10.025  14.750  68.134  1.00  0.00    -0.221 A  
HETATM   18  C   UNL     1      -9.173  15.208  69.150  1.00  0.00    -0.215 A  
HETATM   19  C   UNL     1      -8.123  16.075  68.853  1.00  0.00    -0.218 A  
HETATM   20  C   UNL     1      -7.911  16.484  67.538  1.00  0.00    -0.176 A  
HETATM   21  C   UNL     1      -8.755  16.034  66.521  1.00  0.00    -0.338 A  
HETATM   22  C   UNL     1      -9.818  15.171  66.815  1.00  0.00    -0.251 A  
ENDBRANCH  15  17
ENDBRANCH  10  13
ENDBRANCH   7  10
TORSDOF 3
ENDMDL
MODEL       86
REMARK 921   NORMALIZED FREE ENERGY PREDICTED BY IDOCK:   -4.61 KCAL/MOL
REMARK 922        TOTAL FREE ENERGY PREDICTED BY IDOCK:   -5.74 KCAL/MOL
REMARK 923 INTER-LIGAND FREE ENERGY PREDICTED BY IDOCK:   -5.61 KCAL/MOL
REMARK 924 INTRA-LIGAND FREE ENERGY PREDICTED BY IDOCK:   -0.14 KCAL/MOL
REMARK 927      BINDING AFFINITY PREDICTED BY RF-SCORE:    0.00 PKD
ROOT
HETATM    1  N   UNL     1      -9.848  17.509  65.922  1.00  0.00    -0.548 NA 
HETATM    2  H2  UNL     1     -10.759  17.947  66.058  1.00  0.00     0.000 HD 
HETATM    3  C   UNL     1     -10.037  16.126  65.798  1.00  0.00    -0.363 A  
HETATM    4  H1  UNL     1      -9.205  17.876  66.623  1.00  0.00     0.000 HD 
HETATM    5  C   UNL     1     -10.918  15.622  64.836  1.00  0.00    -0.447 A  
HETATM    6  C   UNL     1     -11.044  14.244  64.634  1.00  0.00    -0.371 A  
HETATM    7  C   UNL     1     -10.237  13.365  65.360  1.00  0.00    -0.298 A  
HETATM    8  C   UNL     1      -9.302  13.856  66.271  1.00  0.00    -0.180 A  
HETATM    9  C   UNL     1      -9.192  15.237  66.469  1.00  0.00    -0.321 A  
ENDROOT
BRANCH   7  10
HETATM   10  S   UNL     1     -10.434  11.613  65.128  1.00  0.00    -0.291 S  
HETATM   11  O   UNL     1     -11.629  11.360  64.356  1.00  0.00    -0.178 OA 
HETATM   12  O   UNL     1      -9.148  11.105  64.693  1.00  0.00    -0.168 OA 
BRANCH  10  13
HETATM   13  N   UNL     1     -10.651  11.006  66.664  1.00  0.00    -0.257 N  
HETATM   14  H   UNL     1     -10.997  11.637  67.387  1.00  0.00     0.000 HD 
HETATM   15  C   UNL     1     -10.385   9.677  67.018  1.00  0.00    -0.248 C  
HETATM   16  O   UNL     1      -9.975   8.842  66.228  1.00  0.00    -0.282 OA 
BRANCH  15  17
HETATM   17  C   UNL     1     -10.674   9.307  68.426  1.00  0.00    -0.192 A  
HETATM   18  C   UNL     1     -10.988  10.350  69.310  1.00  0.00    -0.287 A  
HETATM   19  C   UNL     1     -11.284  10.080  70.645  1.00  0.00    -0.425 A  
HETATM   20  C   UNL     1     -11.277   8.764  71.104  1.00  0.00    -0.339 A  
HETATM   21  C   UNL     1     -10.965   7.720  70.231  1.00  0.00    -0.252 A  
HETATM   22  C   UNL     1     -10.656   7.987  68.892  1.00  0.00    -0.160 A  
ENDBRANCH  15  17
ENDBRANCH  10  13
ENDBRANCH   7  10
TORSDOF 3
ENDMDL
MODEL       87
REMARK 921   NORMALIZED FREE ENERGY PREDICTED BY IDOCK:   -4.61 KCAL/MOL
REMARK 922        TOTAL FREE ENERGY PREDICTED BY IDOCK:   -5.74 KCAL/MOL
REMARK 923 INTER-LIGAND FREE ENERGY PREDICTED BY IDOCK:   -5.46 KCAL/MOL
REMARK 924 INTRA-LIGAND FREE ENERGY PREDICTED BY IDOCK:   -0.29 KCAL/MOL
REMARK 927      BINDING AFFINITY PREDICTED BY RF-SCORE:    0.00 PKD
ROOT
HETATM    1  N   UNL     1     -10.316   7.458  69.931  1.00  0.00    -0.212 NA 
HETATM    2  H2  UNL     1      -9.412   7.008  69.787  1.00  0.00     0.000 HD 
HETATM    3  C   UNL     1     -10.426   8.529  69.036  1.00  0.00    -0.200 A  
HETATM    4  H1  UNL     1     -10.443   7.613  70.931  1.00  0.00     0.000 HD 
HETATM    5  C   UNL     1     -10.252   8.317  67.664  1.00  0.00    -0.294 A  
HETATM    6  C   UNL     1     -10.455   9.354  66.749  1.00  0.00    -0.265 A  
HETATM    7  C   UNL     1     -10.892  10.600  67.205  1.00  0.00    -0.287 A  
HETATM    8  C   UNL     1     -11.139  10.806  68.563  1.00  0.00    -0.317 A  
HETATM    9  C   UNL     1     -10.925   9.761  69.469  1.00  0.00    -0.256 A  
ENDROOT
BRANCH   7  10
HETATM   10  S   UNL     1     -11.106  11.926  66.041  1.00  0.00    -0.312 S  
HETATM   11  O   UNL     1     -10.772  11.461  64.713  1.00  0.00    -0.299 OA 
HETATM   12  O   UNL     1     -12.401  12.517  66.316  1.00  0.00    -0.570 OA 
BRANCH  10  13
HETATM   13  N   UNL     1      -9.991  13.075  66.500  1.00  0.00    -0.256 N  
HETATM   14  H   UNL     1      -9.335  12.839  67.245  1.00  0.00     0.000 HD 
HETATM   15  C   UNL     1      -9.903  14.347  65.921  1.00  0.00    -0.310 C  
HETATM   16  O   UNL     1     -10.636  14.726  65.021  1.00  0.00    -0.386 OA 
BRANCH  15  17
HETATM   17  C   UNL     1      -8.822  15.225  66.434  1.00  0.00    -0.311 A  
HETATM   18  C   UNL     1      -8.823  16.560  66.003  1.00  0.00    -0.267 A  
HETATM   19  C   UNL     1      -7.847  17.448  66.454  1.00  0.00    -0.337 A  
HETATM   20  C   UNL     1      -6.869  17.010  67.343  1.00  0.00    -0.174 A  
HETATM   21  C   UNL     1      -6.859  15.682  67.776  1.00  0.00    -0.180 A  
HETATM   22  C   UNL     1      -7.831  14.784  67.319  1.00  0.00    -0.223 A  
ENDBRANCH  15  17
ENDBRANCH  10  13
ENDBRANCH   7  10
TORSDOF 3
ENDMDL
MODEL       88
REMARK 921   NORMALIZED FREE ENERGY PREDICTED BY IDOCK:   -4.59 KCAL/MOL
REMARK 922        TOTAL FREE ENERGY PREDICTED BY IDOCK:   -5.72 KCAL/MOL
REMARK 923 INTER-LIGAND FREE ENERGY PREDICTED BY IDOCK:   -5.50 KCAL/MOL
REMARK 924 INTRA-LIGAND FREE ENERGY PREDICTED BY IDOCK:   -0.23 KCAL/MOL
REMARK 927      BINDING AFFINITY PREDICTED BY RF-SCORE:    0.00 PKD
ROOT
HETATM    1  N   UNL     1     -10.441  14.164  66.832  1.00  0.00    -0.271 NA 
HETATM    2  H2  UNL     1     -10.780  13.889  65.909  1.00  0.00     0.000 HD 
HETATM    3  C   UNL     1     -11.059  13.351  67.791  1.00  0.00    -0.268 A  
HETATM    4  H1  UNL     1     -10.500  15.179  66.908  1.00  0.00     0.000 HD 
HETATM    5  C   UNL     1     -10.978  11.959  67.687  1.00  0.00    -0.286 A  
HETATM    6  C   UNL     1     -11.504  11.135  68.687  1.00  0.00    -0.363 A  
HETATM    7  C   UNL     1     -12.065  11.712  69.830  1.00  0.00    -0.289 A  
HETATM    8  C   UNL     1     -12.089  13.098  69.980  1.00  0.00    -0.375 A  
HETATM    9  C   UNL     1     -11.565  13.911  68.968  1.00  0.00    -0.351 A  
ENDROOT
BRANCH   7  10
HETATM   10  S   UNL     1     -12.771  10.660  71.076  1.00  0.00    -0.432 S  
HETATM   11  O   UNL     1     -13.258  11.468  72.172  1.00  0.00    -0.505 OA 
HETATM   12  O   UNL     1     -13.651   9.734  70.390  1.00  0.00     0.054 OA 
BRANCH  10  13
HETATM   13  N   UNL     1     -11.497   9.735  71.620  1.00  0.00    -0.325 N  
HETATM   14  H   UNL     1     -10.550  10.038  71.392  1.00  0.00     0.000 HD 
HETATM   15  C   UNL     1     -11.653   8.564  72.373  1.00  0.00    -0.354 C  
HETATM   16  O   UNL     1     -12.741   8.120  72.703  1.00  0.00    -0.189 OA 
BRANCH  15  17
HETATM   17  C   UNL     1     -10.401   7.892  72.801  1.00  0.00    -0.399 A  
HETATM   18  C   UNL     1      -9.202   8.358  72.242  1.00  0.00    -0.329 A  
HETATM   19  C   UNL     1      -7.984   7.786  72.606  1.00  0.00    -0.145 A  
HETATM   20  C   UNL     1      -7.955   6.749  73.536  1.00  0.00    -0.103 A  
HETATM   21  C   UNL     1      -9.145   6.278  74.096  1.00  0.00    -0.157 A  
HETATM   22  C   UNL     1     -10.372   6.843  73.727  1.00  0.00    -0.409 A  
ENDBRANCH  15  17
ENDBRANCH  10  13
ENDBRANCH   7  10
TORSDOF 3
ENDMDL
MODEL       89
REMARK 921   NORMALIZED FREE ENERGY PREDICTED BY IDOCK:   -4.56 KCAL/MOL
REMARK 922        TOTAL FREE ENERGY PREDICTED BY IDOCK:   -5.69 KCAL/MOL
REMARK 923 INTER-LIGAND FREE ENERGY PREDICTED BY IDOCK:   -5.53 KCAL/MOL
REMARK 924 INTRA-LIGAND FREE ENERGY PREDICTED BY IDOCK:   -0.16 KCAL/MOL
REMARK 927      BINDING AFFINITY PREDICTED BY RF-SCORE:    0.00 PKD
ROOT
HETATM    1  N   UNL     1     -11.891  12.439  68.381  1.00  0.00    -0.332 NA 
HETATM    2  H2  UNL     1     -11.852  12.101  67.419  1.00  0.00     0.000 HD 
HETATM    3  C   UNL     1     -11.528  11.389  69.234  1.00  0.00    -0.303 A  
HETATM    4  H1  UNL     1     -12.777  12.925  68.517  1.00  0.00     0.000 HD 
HETATM    5  C   UNL     1     -10.312  10.723  69.048  1.00  0.00    -0.235 A  
HETATM    6  C   UNL     1      -9.890   9.740  69.949  1.00  0.00    -0.279 A  
HETATM    7  C   UNL     1     -10.665   9.462  71.078  1.00  0.00    -0.337 A  
HETATM    8  C   UNL     1     -11.844  10.168  71.314  1.00  0.00    -0.448 A  
HETATM    9  C   UNL     1     -12.259  11.145  70.400  1.00  0.00    -0.457 A  
ENDROOT
BRANCH   7  10
HETATM   10  S   UNL     1     -10.144   8.181  72.194  1.00  0.00    -0.281 S  
HETATM   11  O   UNL     1      -8.942   8.599  72.882  1.00  0.00    -0.343 OA 
HETATM   12  O   UNL     1     -11.321   7.775  72.938  1.00  0.00    -0.387 OA 
BRANCH  10  13
HETATM   13  N   UNL     1      -9.775   6.888  71.212  1.00  0.00    -0.172 N  
HETATM   14  H   UNL     1      -8.808   6.566  71.184  1.00  0.00     0.000 HD 
HETATM   15  C   UNL     1     -10.719   6.219  70.422  1.00  0.00    -0.271 C  
HETATM   16  O   UNL     1     -11.901   6.522  70.389  1.00  0.00    -0.400 OA 
BRANCH  15  17
HETATM   17  C   UNL     1     -10.212   5.065  69.639  1.00  0.00    -0.306 A  
HETATM   18  C   UNL     1      -9.905   3.894  70.349  1.00  0.00    -0.176 A  
HETATM   19  C   UNL     1      -9.438   2.765  69.680  1.00  0.00    -0.148 A  
HETATM   20  C   UNL     1      -9.281   2.793  68.296  1.00  0.00    -0.250 A  
HETATM   21  C   UNL     1      -9.583   3.954  67.581  1.00  0.00    -0.205 A  
HETATM   22  C   UNL     1     -10.043   5.096  68.250  1.00  0.00    -0.199 A  
ENDBRANCH  15  17
ENDBRANCH  10  13
ENDBRANCH   7  10
TORSDOF 3
ENDMDL
MODEL       90
REMARK 921   NORMALIZED FREE ENERGY PREDICTED BY IDOCK:   -4.53 KCAL/MOL
REMARK 922        TOTAL FREE ENERGY PREDICTED BY IDOCK:   -5.65 KCAL/MOL
REMARK 923 INTER-LIGAND FREE ENERGY PREDICTED BY IDOCK:   -5.35 KCAL/MOL
REMARK 924 INTRA-LIGAND FREE ENERGY PREDICTED BY IDOCK:   -0.29 KCAL/MOL
REMARK 927      BINDING AFFINITY PREDICTED BY RF-SCORE:    0.00 PKD
ROOT
HETATM    1  N   UNL     1     -10.621  14.085  67.341  1.00  0.00    -0.277 NA 
HETATM    2  H2  UNL     1     -10.935  13.925  66.383  1.00  0.00     0.000 HD 
HETATM    3  C   UNL     1     -11.210  13.120  68.167  1.00  0.00    -0.271 A  
HETATM    4  H1  UNL     1     -10.730  15.077  67.554  1.00  0.00     0.000 HD 
HETATM    5  C   UNL     1     -11.061  11.761  67.875  1.00  0.00    -0.302 A  
HETATM    6  C   UNL     1     -11.558  10.784  68.743  1.00  0.00    -0.350 A  
HETATM    7  C   UNL     1     -12.160  11.170  69.943  1.00  0.00    -0.344 A  
HETATM    8  C   UNL     1     -12.252  12.520  70.282  1.00  0.00    -0.345 A  
HETATM    9  C   UNL     1     -11.756  13.488  69.400  1.00  0.00    -0.381 A  
ENDROOT
BRANCH   7  10
HETATM   10  S   UNL     1     -12.829   9.925  71.020  1.00  0.00    -0.305 S  
HETATM   11  O   UNL     1     -12.648  10.329  72.397  1.00  0.00    -0.092 OA 
HETATM   12  O   UNL     1     -14.146   9.598  70.511  1.00  0.00     0.212 OA 
BRANCH  10  13
HETATM   13  N   UNL     1     -11.897   8.574  70.734  1.00  0.00    -0.441 N  
HETATM   14  H   UNL     1     -11.070   8.675  70.146  1.00  0.00     0.000 HD 
HETATM   15  C   UNL     1     -12.187   7.307  71.255  1.00  0.00    -0.354 C  
HETATM   16  O   UNL     1     -13.148   7.081  71.973  1.00  0.00    -0.246 OA 
BRANCH  15  17
HETATM   17  C   UNL     1     -11.223   6.229  70.922  1.00  0.00    -0.386 A  
HETATM   18  C   UNL     1     -10.988   5.977  69.563  1.00  0.00    -0.467 A  
HETATM   19  C   UNL     1     -10.085   4.989  69.172  1.00  0.00    -0.257 A  
HETATM   20  C   UNL     1      -9.405   4.251  70.138  1.00  0.00    -0.228 A  
HETATM   21  C   UNL     1      -9.634   4.494  71.494  1.00  0.00    -0.227 A  
HETATM   22  C   UNL     1     -10.547   5.478  71.892  1.00  0.00    -0.293 A  
ENDBRANCH  15  17
ENDBRANCH  10  13
ENDBRANCH   7  10
TORSDOF 3
ENDMDL
MODEL       91
REMARK 921   NORMALIZED FREE ENERGY PREDICTED BY IDOCK:   -4.51 KCAL/MOL
REMARK 922        TOTAL FREE ENERGY PREDICTED BY IDOCK:   -5.63 KCAL/MOL
REMARK 923 INTER-LIGAND FREE ENERGY PREDICTED BY IDOCK:   -5.36 KCAL/MOL
REMARK 924 INTRA-LIGAND FREE ENERGY PREDICTED BY IDOCK:   -0.27 KCAL/MOL
REMARK 927      BINDING AFFINITY PREDICTED BY RF-SCORE:    0.00 PKD
ROOT
HETATM    1  N   UNL     1     -10.106  10.314  65.832  1.00  0.00    -0.256 NA 
HETATM    2  H2  UNL     1      -9.996   9.542  66.490  1.00  0.00     0.000 HD 
HETATM    3  C   UNL     1     -10.298  11.494  66.562  1.00  0.00    -0.232 A  
HETATM    4  H1  UNL     1     -10.783  10.037  65.121  1.00  0.00     0.000 HD 
HETATM    5  C   UNL     1      -9.370  11.874  67.537  1.00  0.00    -0.177 A  
HETATM    6  C   UNL     1      -9.493  13.096  68.204  1.00  0.00    -0.222 A  
HETATM    7  C   UNL     1     -10.522  13.973  67.851  1.00  0.00    -0.241 A  
HETATM    8  C   UNL     1     -11.413  13.639  66.831  1.00  0.00    -0.369 A  
HETATM    9  C   UNL     1     -11.282  12.408  66.176  1.00  0.00    -0.364 A  
ENDROOT
BRANCH   7  10
HETATM   10  S   UNL     1     -10.699  15.505  68.734  1.00  0.00    -0.263 S  
HETATM   11  O   UNL     1     -12.035  16.023  68.540  1.00  0.00    -0.273 OA 
HETATM   12  O   UNL     1     -10.178  15.279  70.068  1.00  0.00    -0.269 OA 
BRANCH  10  13
HETATM   13  N   UNL     1      -9.615  16.540  68.006  1.00  0.00    -0.224 N  
HETATM   14  H   UNL     1      -8.964  16.152  67.324  1.00  0.00     0.000 HD 
HETATM   15  C   UNL     1      -9.549  17.912  68.279  1.00  0.00    -0.312 C  
HETATM   16  O   UNL     1     -10.286  18.474  69.074  1.00  0.00    -0.356 OA 
BRANCH  15  17
HETATM   17  C   UNL     1      -8.543  18.682  67.507  1.00  0.00    -0.284 A  
HETATM   18  C   UNL     1      -7.848  17.997  66.499  1.00  0.00    -0.292 A  
HETATM   19  C   UNL     1      -6.898  18.658  65.722  1.00  0.00    -0.307 A  
HETATM   20  C   UNL     1      -6.640  20.009  65.942  1.00  0.00    -0.253 A  
HETATM   21  C   UNL     1      -7.325  20.698  66.944  1.00  0.00    -0.339 A  
HETATM   22  C   UNL     1      -8.274  20.037  67.734  1.00  0.00    -0.330 A  
ENDBRANCH  15  17
ENDBRANCH  10  13
ENDBRANCH   7  10
TORSDOF 3
ENDMDL
MODEL       92
REMARK 921   NORMALIZED FREE ENERGY PREDICTED BY IDOCK:   -4.51 KCAL/MOL
REMARK 922        TOTAL FREE ENERGY PREDICTED BY IDOCK:   -5.63 KCAL/MOL
REMARK 923 INTER-LIGAND FREE ENERGY PREDICTED BY IDOCK:   -5.52 KCAL/MOL
REMARK 924 INTRA-LIGAND FREE ENERGY PREDICTED BY IDOCK:   -0.11 KCAL/MOL
REMARK 927      BINDING AFFINITY PREDICTED BY RF-SCORE:    0.00 PKD
ROOT
HETATM    1  N   UNL     1      -8.717   3.379  71.455  1.00  0.00    -0.076 NA 
HETATM    2  H2  UNL     1      -7.997   3.610  70.770  1.00  0.00     0.000 HD 
HETATM    3  C   UNL     1      -9.597   4.465  71.554  1.00  0.00    -0.162 A  
HETATM    4  H1  UNL     1      -8.262   3.013  72.291  1.00  0.00     0.000 HD 
HETATM    5  C   UNL     1     -10.222   4.968  70.408  1.00  0.00    -0.324 A  
HETATM    6  C   UNL     1     -11.177   5.985  70.501  1.00  0.00    -0.363 A  
HETATM    7  C   UNL     1     -11.553   6.463  71.759  1.00  0.00    -0.316 A  
HETATM    8  C   UNL     1     -10.991   5.922  72.916  1.00  0.00    -0.303 A  
HETATM    9  C   UNL     1     -10.030   4.908  72.807  1.00  0.00    -0.203 A  
ENDROOT
BRANCH   7  10
HETATM   10  S   UNL     1     -12.734   7.786  71.868  1.00  0.00    -0.275 S  
HETATM   11  O   UNL     1     -14.067   7.261  71.668  1.00  0.00    -0.412 OA 
HETATM   12  O   UNL     1     -12.406   8.540  73.062  1.00  0.00    -0.218 OA 
BRANCH  10  13
HETATM   13  N   UNL     1     -12.360   8.793  70.595  1.00  0.00    -0.482 N  
HETATM   14  H   UNL     1     -13.050   8.905  69.852  1.00  0.00     0.000 HD 
HETATM   15  C   UNL     1     -11.153   9.493  70.487  1.00  0.00    -0.283 C  
HETATM   16  O   UNL     1     -10.265   9.432  71.323  1.00  0.00    -0.315 OA 
BRANCH  15  17
HETATM   17  C   UNL     1     -11.012  10.371  69.299  1.00  0.00    -0.287 A  
HETATM   18  C   UNL     1     -11.735  11.573  69.303  1.00  0.00    -0.397 A  
HETATM   19  C   UNL     1     -11.642  12.457  68.229  1.00  0.00    -0.384 A  
HETATM   20  C   UNL     1     -10.821  12.148  67.146  1.00  0.00    -0.286 A  
HETATM   21  C   UNL     1     -10.099  10.954  67.133  1.00  0.00    -0.235 A  
HETATM   22  C   UNL     1     -10.196  10.058  68.206  1.00  0.00    -0.200 A  
ENDBRANCH  15  17
ENDBRANCH  10  13
ENDBRANCH   7  10
TORSDOF 3
ENDMDL
MODEL       93
REMARK 921   NORMALIZED FREE ENERGY PREDICTED BY IDOCK:   -4.47 KCAL/MOL
REMARK 922        TOTAL FREE ENERGY PREDICTED BY IDOCK:   -5.58 KCAL/MOL
REMARK 923 INTER-LIGAND FREE ENERGY PREDICTED BY IDOCK:   -5.28 KCAL/MOL
REMARK 924 INTRA-LIGAND FREE ENERGY PREDICTED BY IDOCK:   -0.29 KCAL/MOL
REMARK 927      BINDING AFFINITY PREDICTED BY RF-SCORE:    0.00 PKD
ROOT
HETATM    1  N   UNL     1      -5.259  20.323  66.795  1.00  0.00    -0.156 NA 
HETATM    2  H2  UNL     1      -4.686  20.222  65.956  1.00  0.00     0.000 HD 
HETATM    3  C   UNL     1      -6.435  19.582  66.620  1.00  0.00    -0.185 A  
HETATM    4  H1  UNL     1      -5.310  21.313  67.033  1.00  0.00     0.000 HD 
HETATM    5  C   UNL     1      -6.365  18.223  66.294  1.00  0.00    -0.239 A  
HETATM    6  C   UNL     1      -7.525  17.447  66.212  1.00  0.00    -0.354 A  
HETATM    7  C   UNL     1      -8.762  18.022  66.518  1.00  0.00    -0.260 A  
HETATM    8  C   UNL     1      -8.839  19.357  66.914  1.00  0.00    -0.345 A  
HETATM    9  C   UNL     1      -7.670  20.125  66.984  1.00  0.00    -0.350 A  
ENDROOT
BRANCH   7  10
HETATM   10  S   UNL     1     -10.236  17.041  66.370  1.00  0.00    -0.316 S  
HETATM   11  O   UNL     1     -11.143  17.366  67.448  1.00  0.00    -0.134 OA 
HETATM   12  O   UNL     1     -10.663  17.138  64.988  1.00  0.00    -0.712 OA 
BRANCH  10  13
HETATM   13  N   UNL     1      -9.720  15.469  66.563  1.00  0.00    -0.254 N  
HETATM   14  H   UNL     1      -8.715  15.292  66.581  1.00  0.00     0.000 HD 
HETATM   15  C   UNL     1     -10.587  14.378  66.701  1.00  0.00    -0.282 C  
HETATM   16  O   UNL     1     -11.803  14.484  66.698  1.00  0.00    -0.393 OA 
BRANCH  15  17
HETATM   17  C   UNL     1      -9.944  13.056  66.900  1.00  0.00    -0.243 A  
HETATM   18  C   UNL     1     -10.743  11.920  66.702  1.00  0.00    -0.291 A  
HETATM   19  C   UNL     1     -10.206  10.643  66.857  1.00  0.00    -0.272 A  
HETATM   20  C   UNL     1      -8.865  10.492  67.204  1.00  0.00    -0.140 A  
HETATM   21  C   UNL     1      -8.063  11.617  67.405  1.00  0.00    -0.153 A  
HETATM   22  C   UNL     1      -8.600  12.902  67.260  1.00  0.00    -0.205 A  
ENDBRANCH  15  17
ENDBRANCH  10  13
ENDBRANCH   7  10
TORSDOF 3
ENDMDL
MODEL       94
REMARK 921   NORMALIZED FREE ENERGY PREDICTED BY IDOCK:   -4.47 KCAL/MOL
REMARK 922        TOTAL FREE ENERGY PREDICTED BY IDOCK:   -5.58 KCAL/MOL
REMARK 923 INTER-LIGAND FREE ENERGY PREDICTED BY IDOCK:   -5.36 KCAL/MOL
REMARK 924 INTRA-LIGAND FREE ENERGY PREDICTED BY IDOCK:   -0.22 KCAL/MOL
REMARK 927      BINDING AFFINITY PREDICTED BY RF-SCORE:    0.00 PKD
ROOT
HETATM    1  N   UNL     1      -9.477   2.815  65.657  1.00  0.00    -0.354 NA 
HETATM    2  H2  UNL     1      -8.548   2.408  65.767  1.00  0.00     0.000 HD 
HETATM    3  C   UNL     1      -9.413   4.167  66.018  1.00  0.00    -0.180 A  
HETATM    4  H1  UNL     1     -10.155   2.198  66.106  1.00  0.00     0.000 HD 
HETATM    5  C   UNL     1      -8.484   5.013  65.402  1.00  0.00    -0.138 A  
HETATM    6  C   UNL     1      -8.473   6.384  65.678  1.00  0.00    -0.147 A  
HETATM    7  C   UNL     1      -9.438   6.923  66.533  1.00  0.00    -0.153 A  
HETATM    8  C   UNL     1     -10.415   6.103  67.098  1.00  0.00    -0.327 A  
HETATM    9  C   UNL     1     -10.410   4.731  66.819  1.00  0.00    -0.229 A  
ENDROOT
BRANCH   7  10
HETATM   10  S   UNL     1      -9.391   8.658  66.913  1.00  0.00    -0.183 S  
HETATM   11  O   UNL     1      -8.061   9.020  67.351  1.00  0.00    -0.106 OA 
HETATM   12  O   UNL     1     -10.017   9.345  65.800  1.00  0.00    -0.309 OA 
BRANCH  10  13
HETATM   13  N   UNL     1     -10.443   8.840  68.191  1.00  0.00    -0.310 N  
HETATM   14  H   UNL     1     -11.117   8.095  68.369  1.00  0.00     0.000 HD 
HETATM   15  C   UNL     1     -10.453   9.958  69.035  1.00  0.00    -0.210 C  
HETATM   16  O   UNL     1      -9.685  10.898  68.911  1.00  0.00    -0.191 OA 
BRANCH  15  17
HETATM   17  C   UNL     1     -11.438   9.928  70.145  1.00  0.00    -0.309 A  
HETATM   18  C   UNL     1     -11.570   8.723  70.851  1.00  0.00    -0.320 A  
HETATM   19  C   UNL     1     -12.465   8.622  71.915  1.00  0.00    -0.412 A  
HETATM   20  C   UNL     1     -13.229   9.727  72.285  1.00  0.00    -0.468 A  
HETATM   21  C   UNL     1     -13.105  10.929  71.586  1.00  0.00    -0.538 A  
HETATM   22  C   UNL     1     -12.216  11.033  70.510  1.00  0.00    -0.472 A  
ENDBRANCH  15  17
ENDBRANCH  10  13
ENDBRANCH   7  10
TORSDOF 3
ENDMDL
MODEL       95
REMARK 921   NORMALIZED FREE ENERGY PREDICTED BY IDOCK:   -4.47 KCAL/MOL
REMARK 922        TOTAL FREE ENERGY PREDICTED BY IDOCK:   -5.58 KCAL/MOL
REMARK 923 INTER-LIGAND FREE ENERGY PREDICTED BY IDOCK:   -5.32 KCAL/MOL
REMARK 924 INTRA-LIGAND FREE ENERGY PREDICTED BY IDOCK:   -0.26 KCAL/MOL
REMARK 927      BINDING AFFINITY PREDICTED BY RF-SCORE:    0.00 PKD
ROOT
HETATM    1  N   UNL     1     -10.829  11.013  64.519  1.00  0.00    -0.268 NA 
HETATM    2  H2  UNL     1     -11.189  11.312  63.612  1.00  0.00     0.000 HD 
HETATM    3  C   UNL     1     -10.712  12.140  65.342  1.00  0.00    -0.284 A  
HETATM    4  H1  UNL     1     -10.023  10.409  64.362  1.00  0.00     0.000 HD 
HETATM    5  C   UNL     1     -11.818  12.969  65.557  1.00  0.00    -0.438 A  
HETATM    6  C   UNL     1     -11.745  14.041  66.453  1.00  0.00    -0.407 A  
HETATM    7  C   UNL     1     -10.572  14.249  67.183  1.00  0.00    -0.279 A  
HETATM    8  C   UNL     1      -9.485  13.388  67.032  1.00  0.00    -0.247 A  
HETATM    9  C   UNL     1      -9.570  12.323  66.126  1.00  0.00    -0.248 A  
ENDROOT
BRANCH   7  10
HETATM   10  S   UNL     1     -10.471  15.639  68.287  1.00  0.00    -0.259 S  
HETATM   11  O   UNL     1     -11.653  16.459  68.140  1.00  0.00    -0.221 OA 
HETATM   12  O   UNL     1     -10.089  15.114  69.583  1.00  0.00    -0.232 OA 
BRANCH  10  13
HETATM   13  N   UNL     1      -9.152  16.506  67.756  1.00  0.00    -0.203 N  
HETATM   14  H   UNL     1      -8.305  16.491  68.325  1.00  0.00     0.000 HD 
HETATM   15  C   UNL     1      -9.139  17.253  66.572  1.00  0.00    -0.265 C  
HETATM   16  O   UNL     1     -10.096  17.331  65.818  1.00  0.00    -0.533 OA 
BRANCH  15  17
HETATM   17  C   UNL     1      -7.861  17.931  66.242  1.00  0.00    -0.296 A  
HETATM   18  C   UNL     1      -7.931  19.278  65.855  1.00  0.00    -0.159 A  
HETATM   19  C   UNL     1      -6.771  19.985  65.543  1.00  0.00    -0.315 A  
HETATM   20  C   UNL     1      -5.532  19.353  65.623  1.00  0.00    -0.179 A  
HETATM   21  C   UNL     1      -5.452  18.013  66.005  1.00  0.00    -0.233 A  
HETATM   22  C   UNL     1      -6.616  17.295  66.309  1.00  0.00    -0.248 A  
ENDBRANCH  15  17
ENDBRANCH  10  13
ENDBRANCH   7  10
TORSDOF 3
ENDMDL
MODEL       96
REMARK 921   NORMALIZED FREE ENERGY PREDICTED BY IDOCK:   -4.45 KCAL/MOL
REMARK 922        TOTAL FREE ENERGY PREDICTED BY IDOCK:   -5.56 KCAL/MOL
REMARK 923 INTER-LIGAND FREE ENERGY PREDICTED BY IDOCK:   -5.62 KCAL/MOL
REMARK 924 INTRA-LIGAND FREE ENERGY PREDICTED BY IDOCK:    0.06 KCAL/MOL
REMARK 927      BINDING AFFINITY PREDICTED BY RF-SCORE:    0.00 PKD
ROOT
HETATM    1  N   UNL     1      -8.146   6.419  72.465  1.00  0.00    -0.102 NA 
HETATM    2  H2  UNL     1      -7.238   6.039  72.194  1.00  0.00     0.000 HD 
HETATM    3  C   UNL     1      -8.505   7.407  71.539  1.00  0.00    -0.112 A  
HETATM    4  H1  UNL     1      -8.120   6.637  73.461  1.00  0.00     0.000 HD 
HETATM    5  C   UNL     1      -8.541   7.109  70.173  1.00  0.00    -0.140 A  
HETATM    6  C   UNL     1      -8.992   8.053  69.246  1.00  0.00    -0.148 A  
HETATM    7  C   UNL     1      -9.467   9.288  69.696  1.00  0.00    -0.179 A  
HETATM    8  C   UNL     1      -9.504   9.573  71.061  1.00  0.00    -0.118 A  
HETATM    9  C   UNL     1      -9.042   8.621  71.978  1.00  0.00    -0.311 A  
ENDROOT
BRANCH   7  10
HETATM   10  S   UNL     1      -9.997  10.500  68.509  1.00  0.00    -0.178 S  
HETATM   11  O   UNL     1      -8.844  11.046  67.829  1.00  0.00    -0.130 OA 
HETATM   12  O   UNL     1     -11.085   9.900  67.761  1.00  0.00    -0.269 OA 
BRANCH  10  13
HETATM   13  N   UNL     1     -10.700  11.704  69.420  1.00  0.00    -0.436 N  
HETATM   14  H   UNL     1     -10.169  12.561  69.576  1.00  0.00     0.000 HD 
HETATM   15  C   UNL     1     -11.978  11.606  69.983  1.00  0.00    -0.351 C  
HETATM   16  O   UNL     1     -12.696  10.627  69.851  1.00  0.00    -0.241 OA 
BRANCH  15  17
HETATM   17  C   UNL     1     -12.453  12.795  70.733  1.00  0.00    -0.357 A  
HETATM   18  C   UNL     1     -12.105  14.055  70.223  1.00  0.00    -0.425 A  
HETATM   19  C   UNL     1     -12.526  15.218  70.865  1.00  0.00    -0.446 A  
HETATM   20  C   UNL     1     -13.306  15.131  72.017  1.00  0.00    -0.494 A  
HETATM   21  C   UNL     1     -13.656  13.882  72.532  1.00  0.00    -0.680 A  
HETATM   22  C   UNL     1     -13.226  12.710  71.897  1.00  0.00    -0.504 A  
ENDBRANCH  15  17
ENDBRANCH  10  13
ENDBRANCH   7  10
TORSDOF 3
ENDMDL
MODEL       97
REMARK 921   NORMALIZED FREE ENERGY PREDICTED BY IDOCK:   -4.44 KCAL/MOL
REMARK 922        TOTAL FREE ENERGY PREDICTED BY IDOCK:   -5.54 KCAL/MOL
REMARK 923 INTER-LIGAND FREE ENERGY PREDICTED BY IDOCK:   -5.40 KCAL/MOL
REMARK 924 INTRA-LIGAND FREE ENERGY PREDICTED BY IDOCK:   -0.14 KCAL/MOL
REMARK 927      BINDING AFFINITY PREDICTED BY RF-SCORE:    0.00 PKD
ROOT
HETATM    1  N   UNL     1      -8.163   8.923  68.683  1.00  0.00    -0.115 NA 
HETATM    2  H2  UNL     1      -7.798   8.288  67.972  1.00  0.00     0.000 HD 
HETATM    3  C   UNL     1      -8.665  10.062  68.041  1.00  0.00    -0.125 A  
HETATM    4  H1  UNL     1      -7.464   9.018  69.419  1.00  0.00     0.000 HD 
HETATM    5  C   UNL     1      -9.624   9.933  67.031  1.00  0.00    -0.218 A  
HETATM    6  C   UNL     1     -10.208  11.062  66.450  1.00  0.00    -0.284 A  
HETATM    7  C   UNL     1      -9.872  12.333  66.925  1.00  0.00    -0.209 A  
HETATM    8  C   UNL     1      -8.972  12.475  67.980  1.00  0.00    -0.192 A  
HETATM    9  C   UNL     1      -8.389  11.335  68.548  1.00  0.00    -0.155 A  
ENDROOT
BRANCH   7  10
HETATM   10  S   UNL     1     -10.586  13.765  66.152  1.00  0.00    -0.296 S  
HETATM   11  O   UNL     1     -10.185  13.814  64.763  1.00  0.00    -0.403 OA 
HETATM   12  O   UNL     1     -11.988  13.782  66.520  1.00  0.00    -0.387 OA 
BRANCH  10  13
HETATM   13  N   UNL     1      -9.904  15.059  66.949  1.00  0.00    -0.233 N  
HETATM   14  H   UNL     1      -9.517  14.901  67.880  1.00  0.00     0.000 HD 
HETATM   15  C   UNL     1      -9.833  16.351  66.414  1.00  0.00    -0.294 C  
HETATM   16  O   UNL     1     -10.261  16.643  65.308  1.00  0.00    -0.600 OA 
BRANCH  15  17
HETATM   17  C   UNL     1      -9.157  17.370  67.255  1.00  0.00    -0.239 A  
HETATM   18  C   UNL     1      -9.963  18.367  67.824  1.00  0.00    -0.365 A  
HETATM   19  C   UNL     1      -9.402  19.350  68.637  1.00  0.00    -0.448 A  
HETATM   20  C   UNL     1      -8.032  19.339  68.895  1.00  0.00    -0.353 A  
HETATM   21  C   UNL     1      -7.223  18.351  68.332  1.00  0.00    -0.281 A  
HETATM   22  C   UNL     1      -7.780  17.367  67.505  1.00  0.00    -0.205 A  
ENDBRANCH  15  17
ENDBRANCH  10  13
ENDBRANCH   7  10
TORSDOF 3
ENDMDL
MODEL       98
REMARK 921   NORMALIZED FREE ENERGY PREDICTED BY IDOCK:   -4.44 KCAL/MOL
REMARK 922        TOTAL FREE ENERGY PREDICTED BY IDOCK:   -5.54 KCAL/MOL
REMARK 923 INTER-LIGAND FREE ENERGY PREDICTED BY IDOCK:   -5.26 KCAL/MOL
REMARK 924 INTRA-LIGAND FREE ENERGY PREDICTED BY IDOCK:   -0.28 KCAL/MOL
REMARK 927      BINDING AFFINITY PREDICTED BY RF-SCORE:    0.00 PKD
ROOT
HETATM    1  N   UNL     1     -10.125  10.577  62.353  1.00  0.00    -0.746 NA 
HETATM    2  H2  UNL     1     -10.116  11.534  61.998  1.00  0.00     0.000 HD 
HETATM    3  C   UNL     1      -9.587  10.581  63.646  1.00  0.00    -0.320 A  
HETATM    4  H1  UNL     1      -9.732   9.965  61.638  1.00  0.00     0.000 HD 
HETATM    5  C   UNL     1     -10.124  11.420  64.627  1.00  0.00    -0.330 A  
HETATM    6  C   UNL     1      -9.665  11.365  65.947  1.00  0.00    -0.257 A  
HETATM    7  C   UNL     1      -8.699  10.419  66.301  1.00  0.00    -0.153 A  
HETATM    8  C   UNL     1      -8.205   9.527  65.349  1.00  0.00    -0.128 A  
HETATM    9  C   UNL     1      -8.669   9.598  64.030  1.00  0.00    -0.240 A  
ENDROOT
BRANCH   7  10
HETATM   10  S   UNL     1      -8.088  10.384  67.969  1.00  0.00    -0.112 S  
HETATM   11  O   UNL     1      -6.822   9.687  68.005  1.00  0.00    -0.071 OA 
HETATM   12  O   UNL     1      -8.207  11.734  68.484  1.00  0.00    -0.150 OA 
BRANCH  10  13
HETATM   13  N   UNL     1      -9.213   9.490  68.812  1.00  0.00    -0.138 N  
HETATM   14  H   UNL     1     -10.019   9.128  68.303  1.00  0.00     0.000 HD 
HETATM   15  C   UNL     1      -9.113   9.209  70.180  1.00  0.00    -0.206 C  
HETATM   16  O   UNL     1      -8.187   9.590  70.878  1.00  0.00    -0.291 OA 
BRANCH  15  17
HETATM   17  C   UNL     1     -10.192   8.365  70.753  1.00  0.00    -0.227 A  
HETATM   18  C   UNL     1     -10.837   8.845  71.903  1.00  0.00    -0.433 A  
HETATM   19  C   UNL     1     -11.870   8.116  72.490  1.00  0.00    -0.438 A  
HETATM   20  C   UNL     1     -12.270   6.905  71.928  1.00  0.00    -0.370 A  
HETATM   21  C   UNL     1     -11.632   6.419  70.785  1.00  0.00    -0.402 A  
HETATM   22  C   UNL     1     -10.588   7.143  70.197  1.00  0.00    -0.247 A  
ENDBRANCH  15  17
ENDBRANCH  10  13
ENDBRANCH   7  10
TORSDOF 3
ENDMDL
MODEL       99
REMARK 921   NORMALIZED FREE ENERGY PREDICTED BY IDOCK:   -4.42 KCAL/MOL
REMARK 922        TOTAL FREE ENERGY PREDICTED BY IDOCK:   -5.52 KCAL/MOL
REMARK 923 INTER-LIGAND FREE ENERGY PREDICTED BY IDOCK:   -5.46 KCAL/MOL
REMARK 924 INTRA-LIGAND FREE ENERGY PREDICTED BY IDOCK:   -0.07 KCAL/MOL
REMARK 927      BINDING AFFINITY PREDICTED BY RF-SCORE:    0.00 PKD
ROOT
HETATM    1  N   UNL     1      -7.336  18.370  67.305  1.00  0.00    -0.211 NA 
HETATM    2  H2  UNL     1      -7.261  19.343  67.603  1.00  0.00     0.000 HD 
HETATM    3  C   UNL     1      -8.323  17.746  68.077  1.00  0.00    -0.249 A  
HETATM    4  H1  UNL     1      -6.397  17.974  67.258  1.00  0.00     0.000 HD 
HETATM    5  C   UNL     1      -9.611  18.288  68.142  1.00  0.00    -0.316 A  
HETATM    6  C   UNL     1     -10.633  17.625  68.827  1.00  0.00    -0.191 A  
HETATM    7  C   UNL     1     -10.380  16.378  69.404  1.00  0.00    -0.290 A  
HETATM    8  C   UNL     1      -9.120  15.790  69.286  1.00  0.00    -0.263 A  
HETATM    9  C   UNL     1      -8.103  16.469  68.603  1.00  0.00    -0.233 A  
ENDROOT
BRANCH   7  10
HETATM   10  S   UNL     1     -11.671  15.561  70.311  1.00  0.00    -0.379 S  
HETATM   11  O   UNL     1     -11.536  15.860  71.719  1.00  0.00    -0.417 OA 
HETATM   12  O   UNL     1     -12.910  15.837  69.609  1.00  0.00    -0.001 OA 
BRANCH  10  13
HETATM   13  N   UNL     1     -11.387  13.936  70.081  1.00  0.00    -0.484 N  
HETATM   14  H   UNL     1     -11.001  13.400  70.859  1.00  0.00     0.000 HD 
HETATM   15  C   UNL     1     -11.648  13.264  68.880  1.00  0.00    -0.314 C  
HETATM   16  O   UNL     1     -12.115  13.811  67.894  1.00  0.00    -0.365 OA 
BRANCH  15  17
HETATM   17  C   UNL     1     -11.365  11.807  68.873  1.00  0.00    -0.326 A  
HETATM   18  C   UNL     1     -11.086  11.216  67.632  1.00  0.00    -0.348 A  
HETATM   19  C   UNL     1     -10.797   9.855  67.548  1.00  0.00    -0.307 A  
HETATM   20  C   UNL     1     -10.778   9.077  68.703  1.00  0.00    -0.137 A  
HETATM   21  C   UNL     1     -11.057   9.657  69.942  1.00  0.00    -0.268 A  
HETATM   22  C   UNL     1     -11.358  11.022  70.032  1.00  0.00    -0.358 A  
ENDBRANCH  15  17
ENDBRANCH  10  13
ENDBRANCH   7  10
TORSDOF 3
ENDMDL
MODEL      100
REMARK 921   NORMALIZED FREE ENERGY PREDICTED BY IDOCK:   -4.42 KCAL/MOL
REMARK 922        TOTAL FREE ENERGY PREDICTED BY IDOCK:   -5.51 KCAL/MOL
REMARK 923 INTER-LIGAND FREE ENERGY PREDICTED BY IDOCK:   -5.26 KCAL/MOL
REMARK 924 INTRA-LIGAND FREE ENERGY PREDICTED BY IDOCK:   -0.25 KCAL/MOL
REMARK 927      BINDING AFFINITY PREDICTED BY RF-SCORE:    0.00 PKD
ROOT
HETATM    1  N   UNL     1     -11.915   5.940  73.000  1.00  0.00    -0.438 NA 
HETATM    2  H2  UNL     1     -11.855   4.959  72.726  1.00  0.00     0.000 HD 
HETATM    3  C   UNL     1     -11.074   6.685  72.163  1.00  0.00    -0.254 A  
HETATM    4  H1  UNL     1     -11.812   6.000  74.012  1.00  0.00     0.000 HD 
HETATM    5  C   UNL     1     -11.217   6.605  70.774  1.00  0.00    -0.366 A  
HETATM    6  C   UNL     1     -10.453   7.415  69.928  1.00  0.00    -0.238 A  
HETATM    7  C   UNL     1      -9.580   8.357  70.480  1.00  0.00    -0.170 A  
HETATM    8  C   UNL     1      -9.480   8.499  71.864  1.00  0.00    -0.350 A  
HETATM    9  C   UNL     1     -10.246   7.675  72.699  1.00  0.00    -0.321 A  
ENDROOT
BRANCH   7  10
HETATM   10  S   UNL     1      -8.580   9.352  69.400  1.00  0.00    -0.160 S  
HETATM   11  O   UNL     1      -7.589  10.063  70.177  1.00  0.00    -0.162 OA 
HETATM   12  O   UNL     1      -8.185   8.500  68.295  1.00  0.00    -0.120 OA 
BRANCH  10  13
HETATM   13  N   UNL     1      -9.639  10.459  68.745  1.00  0.00    -0.169 N  
HETATM   14  H   UNL     1     -10.584  10.504  69.125  1.00  0.00     0.000 HD 
HETATM   15  C   UNL     1      -9.303  11.331  67.701  1.00  0.00    -0.160 C  
HETATM   16  O   UNL     1      -8.199  11.361  67.181  1.00  0.00    -0.143 OA 
BRANCH  15  17
HETATM   17  C   UNL     1     -10.366  12.274  67.272  1.00  0.00    -0.228 A  
HETATM   18  C   UNL     1     -10.923  12.075  66.000  1.00  0.00    -0.346 A  
HETATM   19  C   UNL     1     -11.935  12.912  65.533  1.00  0.00    -0.482 A  
HETATM   20  C   UNL     1     -12.404  13.948  66.337  1.00  0.00    -0.468 A  
HETATM   21  C   UNL     1     -11.854  14.155  67.604  1.00  0.00    -0.427 A  
HETATM   22  C   UNL     1     -10.830  13.323  68.074  1.00  0.00    -0.261 A  
ENDBRANCH  15  17
ENDBRANCH  10  13
ENDBRANCH   7  10
TORSDOF 3
ENDMDL
MODEL      101
REMARK 921   NORMALIZED FREE ENERGY PREDICTED BY IDOCK:   -4.41 KCAL/MOL
REMARK 922        TOTAL FREE ENERGY PREDICTED BY IDOCK:   -5.51 KCAL/MOL
REMARK 923 INTER-LIGAND FREE ENERGY PREDICTED BY IDOCK:   -5.20 KCAL/MOL
REMARK 924 INTRA-LIGAND FREE ENERGY PREDICTED BY IDOCK:   -0.31 KCAL/MOL
REMARK 927      BINDING AFFINITY PREDICTED BY RF-SCORE:    0.00 PKD
ROOT
HETATM    1  N   UNL     1     -10.669   7.133  72.917  1.00  0.00    -0.274 NA 
HETATM    2  H2  UNL     1     -11.602   6.849  73.219  1.00  0.00     0.000 HD 
HETATM    3  C   UNL     1     -10.804   8.017  71.838  1.00  0.00    -0.257 A  
HETATM    4  H1  UNL     1     -10.092   6.298  72.824  1.00  0.00     0.000 HD 
HETATM    5  C   UNL     1     -11.595   9.163  71.965  1.00  0.00    -0.371 A  
HETATM    6  C   UNL     1     -11.661  10.105  70.933  1.00  0.00    -0.459 A  
HETATM    7  C   UNL     1     -10.881   9.927  69.787  1.00  0.00    -0.269 A  
HETATM    8  C   UNL     1     -10.033   8.825  69.676  1.00  0.00    -0.191 A  
HETATM    9  C   UNL     1      -9.982   7.886  70.714  1.00  0.00    -0.192 A  
ENDROOT
BRANCH   7  10
HETATM   10  S   UNL     1     -11.003  11.104  68.462  1.00  0.00    -0.243 S  
HETATM   11  O   UNL     1     -12.395  11.321  68.135  1.00  0.00    -0.500 OA 
HETATM   12  O   UNL     1     -10.142  12.217  68.813  1.00  0.00    -0.184 OA 
BRANCH  10  13
HETATM   13  N   UNL     1     -10.261  10.364  67.168  1.00  0.00    -0.211 N  
HETATM   14  H   UNL     1      -9.768   9.486  67.334  1.00  0.00     0.000 HD 
HETATM   15  C   UNL     1     -10.275  10.878  65.866  1.00  0.00    -0.257 C  
HETATM   16  O   UNL     1     -10.840  11.917  65.561  1.00  0.00    -0.280 OA 
BRANCH  15  17
HETATM   17  C   UNL     1      -9.590  10.061  64.834  1.00  0.00    -0.375 A  
HETATM   18  C   UNL     1      -9.701  10.487  63.502  1.00  0.00    -0.374 A  
HETATM   19  C   UNL     1      -9.073   9.778  62.479  1.00  0.00    -0.301 A  
HETATM   20  C   UNL     1      -8.325   8.643  62.780  1.00  0.00    -0.174 A  
HETATM   21  C   UNL     1      -8.210   8.210  64.103  1.00  0.00    -0.083 A  
HETATM   22  C   UNL     1      -8.847   8.913  65.133  1.00  0.00    -0.209 A  
ENDBRANCH  15  17
ENDBRANCH  10  13
ENDBRANCH   7  10
TORSDOF 3
ENDMDL
MODEL      102
REMARK 921   NORMALIZED FREE ENERGY PREDICTED BY IDOCK:   -4.38 KCAL/MOL
REMARK 922        TOTAL FREE ENERGY PREDICTED BY IDOCK:   -5.48 KCAL/MOL
REMARK 923 INTER-LIGAND FREE ENERGY PREDICTED BY IDOCK:   -5.22 KCAL/MOL
REMARK 924 INTRA-LIGAND FREE ENERGY PREDICTED BY IDOCK:   -0.25 KCAL/MOL
REMARK 927      BINDING AFFINITY PREDICTED BY RF-SCORE:    0.00 PKD
ROOT
HETATM    1  N   UNL     1     -10.458   4.336  66.143  1.00  0.00    -0.413 NA 
HETATM    2  H2  UNL     1      -9.637   3.771  66.367  1.00  0.00     0.000 HD 
HETATM    3  C   UNL     1     -10.147   5.681  66.382  1.00  0.00    -0.156 A  
HETATM    4  H1  UNL     1     -11.271   3.912  66.589  1.00  0.00     0.000 HD 
HETATM    5  C   UNL     1      -9.032   6.262  65.770  1.00  0.00    -0.083 A  
HETATM    6  C   UNL     1      -8.764   7.626  65.918  1.00  0.00    -0.176 A  
HETATM    7  C   UNL     1      -9.655   8.429  66.637  1.00  0.00    -0.229 A  
HETATM    8  C   UNL     1     -10.810   7.877  67.192  1.00  0.00    -0.187 A  
HETATM    9  C   UNL     1     -11.061   6.508  67.042  1.00  0.00    -0.411 A  
ENDROOT
BRANCH   7  10
HETATM   10  S   UNL     1      -9.286  10.153  66.858  1.00  0.00    -0.148 S  
HETATM   11  O   UNL     1      -7.914  10.302  67.290  1.00  0.00    -0.106 OA 
HETATM   12  O   UNL     1      -9.769  10.837  65.674  1.00  0.00    -0.211 OA 
BRANCH  10  13
HETATM   13  N   UNL     1     -10.290  10.645  68.092  1.00  0.00    -0.168 N  
HETATM   14  H   UNL     1     -10.744   9.928  68.658  1.00  0.00     0.000 HD 
HETATM   15  C   UNL     1     -10.546  11.988  68.397  1.00  0.00    -0.217 C  
HETATM   16  O   UNL     1     -10.048  12.920  67.785  1.00  0.00    -0.218 OA 
BRANCH  15  17
HETATM   17  C   UNL     1     -11.439  12.236  69.556  1.00  0.00    -0.318 A  
HETATM   18  C   UNL     1     -11.779  13.569  69.828  1.00  0.00    -0.363 A  
HETATM   19  C   UNL     1     -12.624  13.879  70.892  1.00  0.00    -0.431 A  
HETATM   20  C   UNL     1     -13.143  12.858  71.686  1.00  0.00    -0.430 A  
HETATM   21  C   UNL     1     -12.809  11.529  71.423  1.00  0.00    -0.489 A  
HETATM   22  C   UNL     1     -11.951  11.212  70.362  1.00  0.00    -0.469 A  
ENDBRANCH  15  17
ENDBRANCH  10  13
ENDBRANCH   7  10
TORSDOF 3
ENDMDL
MODEL      103
REMARK 921   NORMALIZED FREE ENERGY PREDICTED BY IDOCK:   -4.38 KCAL/MOL
REMARK 922        TOTAL FREE ENERGY PREDICTED BY IDOCK:   -5.47 KCAL/MOL
REMARK 923 INTER-LIGAND FREE ENERGY PREDICTED BY IDOCK:   -5.23 KCAL/MOL
REMARK 924 INTRA-LIGAND FREE ENERGY PREDICTED BY IDOCK:   -0.25 KCAL/MOL
REMARK 927      BINDING AFFINITY PREDICTED BY RF-SCORE:    0.00 PKD
ROOT
HETATM    1  N   UNL     1      -5.314  17.872  69.146  1.00  0.00    -0.183 NA 
HETATM    2  H2  UNL     1      -4.540  17.246  68.918  1.00  0.00     0.000 HD 
HETATM    3  C   UNL     1      -6.516  17.209  68.866  1.00  0.00    -0.192 A  
HETATM    4  H1  UNL     1      -5.123  18.783  68.729  1.00  0.00     0.000 HD 
HETATM    5  C   UNL     1      -6.777  15.960  69.438  1.00  0.00    -0.189 A  
HETATM    6  C   UNL     1      -8.011  15.331  69.249  1.00  0.00    -0.223 A  
HETATM    7  C   UNL     1      -9.015  15.985  68.530  1.00  0.00    -0.200 A  
HETATM    8  C   UNL     1      -8.794  17.263  68.015  1.00  0.00    -0.238 A  
HETATM    9  C   UNL     1      -7.551  17.878  68.205  1.00  0.00    -0.266 A  
ENDROOT
BRANCH   7  10
HETATM   10  S   UNL     1     -10.566  15.161  68.256  1.00  0.00    -0.249 S  
HETATM   11  O   UNL     1     -11.614  15.855  68.972  1.00  0.00    -0.370 OA 
HETATM   12  O   UNL     1     -10.669  14.932  66.828  1.00  0.00    -0.299 OA 
BRANCH  10  13
HETATM   13  N   UNL     1     -10.368  13.652  68.932  1.00  0.00    -0.397 N  
HETATM   14  H   UNL     1      -9.570  13.502  69.550  1.00  0.00     0.000 HD 
HETATM   15  C   UNL     1     -11.235  12.577  68.700  1.00  0.00    -0.278 C  
HETATM   16  O   UNL     1     -12.220  12.654  67.983  1.00  0.00    -0.268 OA 
BRANCH  15  17
HETATM   17  C   UNL     1     -10.919  11.317  69.417  1.00  0.00    -0.282 A  
HETATM   18  C   UNL     1      -9.723  10.669  69.077  1.00  0.00    -0.214 A  
HETATM   19  C   UNL     1      -9.352   9.489  69.718  1.00  0.00    -0.227 A  
HETATM   20  C   UNL     1     -10.170   8.951  70.709  1.00  0.00    -0.282 A  
HETATM   21  C   UNL     1     -11.363   9.588  71.053  1.00  0.00    -0.423 A  
HETATM   22  C   UNL     1     -11.746  10.769  70.405  1.00  0.00    -0.445 A  
ENDBRANCH  15  17
ENDBRANCH  10  13
ENDBRANCH   7  10
TORSDOF 3
ENDMDL
MODEL      104
REMARK 921   NORMALIZED FREE ENERGY PREDICTED BY IDOCK:   -4.37 KCAL/MOL
REMARK 922        TOTAL FREE ENERGY PREDICTED BY IDOCK:   -5.45 KCAL/MOL
REMARK 923 INTER-LIGAND FREE ENERGY PREDICTED BY IDOCK:   -5.15 KCAL/MOL
REMARK 924 INTRA-LIGAND FREE ENERGY PREDICTED BY IDOCK:   -0.30 KCAL/MOL
REMARK 927      BINDING AFFINITY PREDICTED BY RF-SCORE:    0.00 PKD
ROOT
HETATM    1  N   UNL     1      -7.702  21.168  66.793  1.00  0.00    -0.606 NA 
HETATM    2  H2  UNL     1      -7.006  21.302  66.058  1.00  0.00     0.000 HD 
HETATM    3  C   UNL     1      -8.348  19.945  66.573  1.00  0.00    -0.336 A  
HETATM    4  H1  UNL     1      -8.247  22.026  66.881  1.00  0.00     0.000 HD 
HETATM    5  C   UNL     1      -7.601  18.769  66.453  1.00  0.00    -0.280 A  
HETATM    6  C   UNL     1      -8.235  17.528  66.333  1.00  0.00    -0.305 A  
HETATM    7  C   UNL     1      -9.629  17.458  66.391  1.00  0.00    -0.276 A  
HETATM    8  C   UNL     1     -10.385  18.615  66.583  1.00  0.00    -0.456 A  
HETATM    9  C   UNL     1      -9.738  19.851  66.695  1.00  0.00    -0.542 A  
ENDROOT
BRANCH   7  10
HETATM   10  S   UNL     1     -10.429  15.883  66.194  1.00  0.00    -0.326 S  
HETATM   11  O   UNL     1     -11.511  15.769  67.145  1.00  0.00    -0.114 OA 
HETATM   12  O   UNL     1     -10.669  15.715  64.774  1.00  0.00    -0.427 OA 
BRANCH  10  13
HETATM   13  N   UNL     1      -9.258  14.763  66.579  1.00  0.00    -0.288 N  
HETATM   14  H   UNL     1      -8.306  15.096  66.736  1.00  0.00     0.000 HD 
HETATM   15  C   UNL     1      -9.507  13.390  66.699  1.00  0.00    -0.260 C  
HETATM   16  O   UNL     1     -10.609  12.892  66.537  1.00  0.00    -0.256 OA 
BRANCH  15  17
HETATM   17  C   UNL     1      -8.347  12.549  67.085  1.00  0.00    -0.179 A  
HETATM   18  C   UNL     1      -7.519  13.032  68.109  1.00  0.00    -0.130 A  
HETATM   19  C   UNL     1      -6.418  12.291  68.536  1.00  0.00    -0.064 A  
HETATM   20  C   UNL     1      -6.141  11.059  67.948  1.00  0.00    -0.049 A  
HETATM   21  C   UNL     1      -6.959  10.571  66.927  1.00  0.00    -0.096 A  
HETATM   22  C   UNL     1      -8.060  11.316  66.487  1.00  0.00    -0.160 A  
ENDBRANCH  15  17
ENDBRANCH  10  13
ENDBRANCH   7  10
TORSDOF 3
ENDMDL
MODEL      105
REMARK 921   NORMALIZED FREE ENERGY PREDICTED BY IDOCK:   -4.36 KCAL/MOL
REMARK 922        TOTAL FREE ENERGY PREDICTED BY IDOCK:   -5.45 KCAL/MOL
REMARK 923 INTER-LIGAND FREE ENERGY PREDICTED BY IDOCK:   -5.17 KCAL/MOL
REMARK 924 INTRA-LIGAND FREE ENERGY PREDICTED BY IDOCK:   -0.27 KCAL/MOL
REMARK 927      BINDING AFFINITY PREDICTED BY RF-SCORE:    0.00 PKD
ROOT
HETATM    1  N   UNL     1      -8.568   3.963  69.333  1.00  0.00    -0.071 NA 
HETATM    2  H2  UNL     1      -8.992   3.524  68.515  1.00  0.00     0.000 HD 
HETATM    3  C   UNL     1      -9.210   5.186  69.562  1.00  0.00    -0.119 A  
HETATM    4  H1  UNL     1      -7.554   3.930  69.226  1.00  0.00     0.000 HD 
HETATM    5  C   UNL     1     -10.601   5.231  69.708  1.00  0.00    -0.283 A  
HETATM    6  C   UNL     1     -11.247   6.427  70.035  1.00  0.00    -0.475 A  
HETATM    7  C   UNL     1     -10.490   7.576  70.275  1.00  0.00    -0.222 A  
HETATM    8  C   UNL     1      -9.097   7.530  70.203  1.00  0.00    -0.147 A  
HETATM    9  C   UNL     1      -8.464   6.327  69.868  1.00  0.00    -0.130 A  
ENDROOT
BRANCH   7  10
HETATM   10  S   UNL     1     -11.321   9.102  70.647  1.00  0.00    -0.268 S  
HETATM   11  O   UNL     1     -12.695   8.829  71.004  1.00  0.00    -0.193 OA 
HETATM   12  O   UNL     1     -10.454   9.840  71.545  1.00  0.00    -0.110 OA 
BRANCH  10  13
HETATM   13  N   UNL     1     -11.300   9.955  69.216  1.00  0.00    -0.432 N  
HETATM   14  H   UNL     1     -10.995   9.470  68.372  1.00  0.00     0.000 HD 
HETATM   15  C   UNL     1     -11.678  11.299  69.107  1.00  0.00    -0.341 C  
HETATM   16  O   UNL     1     -12.063  11.966  70.055  1.00  0.00    -0.311 OA 
BRANCH  15  17
HETATM   17  C   UNL     1     -11.629  11.881  67.743  1.00  0.00    -0.393 A  
HETATM   18  C   UNL     1     -10.983  11.131  66.749  1.00  0.00    -0.309 A  
HETATM   19  C   UNL     1     -10.910  11.607  65.441  1.00  0.00    -0.336 A  
HETATM   20  C   UNL     1     -11.488  12.832  65.115  1.00  0.00    -0.356 A  
HETATM   21  C   UNL     1     -12.132  13.586  66.098  1.00  0.00    -0.482 A  
HETATM   22  C   UNL     1     -12.199  13.118  67.416  1.00  0.00    -0.195 A  
ENDBRANCH  15  17
ENDBRANCH  10  13
ENDBRANCH   7  10
TORSDOF 3
ENDMDL
MODEL      106
REMARK 921   NORMALIZED FREE ENERGY PREDICTED BY IDOCK:   -4.36 KCAL/MOL
REMARK 922        TOTAL FREE ENERGY PREDICTED BY IDOCK:   -5.44 KCAL/MOL
REMARK 923 INTER-LIGAND FREE ENERGY PREDICTED BY IDOCK:   -5.15 KCAL/MOL
REMARK 924 INTRA-LIGAND FREE ENERGY PREDICTED BY IDOCK:   -0.29 KCAL/MOL
REMARK 927      BINDING AFFINITY PREDICTED BY RF-SCORE:    0.00 PKD
ROOT
HETATM    1  N   UNL     1     -12.827  10.301  71.862  1.00  0.00    -0.438 NA 
HETATM    2  H2  UNL     1     -13.816  10.238  72.108  1.00  0.00     0.000 HD 
HETATM    3  C   UNL     1     -12.643  11.434  71.059  1.00  0.00    -0.386 A  
HETATM    4  H1  UNL     1     -12.518   9.387  71.534  1.00  0.00     0.000 HD 
HETATM    5  C   UNL     1     -13.066  12.689  71.510  1.00  0.00    -0.373 A  
HETATM    6  C   UNL     1     -12.802  13.843  70.766  1.00  0.00    -0.329 A  
HETATM    7  C   UNL     1     -12.055  13.747  69.588  1.00  0.00    -0.336 A  
HETATM    8  C   UNL     1     -11.564  12.512  69.164  1.00  0.00    -0.375 A  
HETATM    9  C   UNL     1     -11.843  11.364  69.915  1.00  0.00    -0.435 A  
ENDROOT
BRANCH   7  10
HETATM   10  S   UNL     1     -11.760  15.212  68.625  1.00  0.00    -0.317 S  
HETATM   11  O   UNL     1     -11.966  14.918  67.225  1.00  0.00    -0.316 OA 
HETATM   12  O   UNL     1     -12.484  16.288  69.272  1.00  0.00     0.085 OA 
BRANCH  10  13
HETATM   13  N   UNL     1     -10.148  15.558  68.866  1.00  0.00    -0.205 N  
HETATM   14  H   UNL     1      -9.607  14.938  69.469  1.00  0.00     0.000 HD 
HETATM   15  C   UNL     1      -9.495  16.653  68.287  1.00  0.00    -0.230 C  
HETATM   16  O   UNL     1     -10.049  17.450  67.547  1.00  0.00    -0.299 OA 
BRANCH  15  17
HETATM   17  C   UNL     1      -8.047  16.781  68.586  1.00  0.00    -0.251 A  
HETATM   18  C   UNL     1      -7.406  17.953  68.156  1.00  0.00    -0.241 A  
HETATM   19  C   UNL     1      -6.050  18.151  68.413  1.00  0.00    -0.188 A  
HETATM   20  C   UNL     1      -5.327  17.183  69.106  1.00  0.00    -0.150 A  
HETATM   21  C   UNL     1      -5.957  16.013  69.536  1.00  0.00    -0.153 A  
HETATM   22  C   UNL     1      -7.316  15.805  69.272  1.00  0.00    -0.216 A  
ENDBRANCH  15  17
ENDBRANCH  10  13
ENDBRANCH   7  10
TORSDOF 3
ENDMDL
MODEL      107
REMARK 921   NORMALIZED FREE ENERGY PREDICTED BY IDOCK:   -4.34 KCAL/MOL
REMARK 922        TOTAL FREE ENERGY PREDICTED BY IDOCK:   -5.42 KCAL/MOL
REMARK 923 INTER-LIGAND FREE ENERGY PREDICTED BY IDOCK:   -5.12 KCAL/MOL
REMARK 924 INTRA-LIGAND FREE ENERGY PREDICTED BY IDOCK:   -0.30 KCAL/MOL
REMARK 927      BINDING AFFINITY PREDICTED BY RF-SCORE:    0.00 PKD
ROOT
HETATM    1  N   UNL     1     -12.382  10.682  69.149  1.00  0.00    -0.755 NA 
HETATM    2  H2  UNL     1     -12.938  11.315  69.725  1.00  0.00     0.000 HD 
HETATM    3  C   UNL     1     -11.391  10.107  69.955  1.00  0.00    -0.287 A  
HETATM    4  H1  UNL     1     -12.124  11.169  68.291  1.00  0.00     0.000 HD 
HETATM    5  C   UNL     1     -11.745   9.438  71.132  1.00  0.00    -0.418 A  
HETATM    6  C   UNL     1     -10.779   8.775  71.896  1.00  0.00    -0.429 A  
HETATM    7  C   UNL     1      -9.457   8.731  71.447  1.00  0.00    -0.259 A  
HETATM    8  C   UNL     1      -9.102   9.332  70.238  1.00  0.00    -0.271 A  
HETATM    9  C   UNL     1     -10.078   9.999  69.488  1.00  0.00    -0.248 A  
ENDROOT
BRANCH   7  10
HETATM   10  S   UNL     1      -8.227   7.923  72.444  1.00  0.00    -0.145 S  
HETATM   11  O   UNL     1      -7.007   7.776  71.682  1.00  0.00    -0.059 OA 
HETATM   12  O   UNL     1      -8.223   8.599  73.727  1.00  0.00    -0.388 OA 
BRANCH  10  13
HETATM   13  N   UNL     1      -8.854   6.410  72.745  1.00  0.00    -0.125 N  
HETATM   14  H   UNL     1      -9.095   6.172  73.708  1.00  0.00     0.000 HD 
HETATM   15  C   UNL     1      -9.069   5.447  71.752  1.00  0.00    -0.138 C  
HETATM   16  O   UNL     1      -8.821   5.635  70.571  1.00  0.00    -0.134 OA 
BRANCH  15  17
HETATM   17  C   UNL     1      -9.670   4.167  72.203  1.00  0.00    -0.225 A  
HETATM   18  C   UNL     1     -10.479   4.209  73.348  1.00  0.00    -0.252 A  
HETATM   19  C   UNL     1     -11.089   3.050  73.825  1.00  0.00    -0.295 A  
HETATM   20  C   UNL     1     -10.901   1.842  73.156  1.00  0.00    -0.253 A  
HETATM   21  C   UNL     1     -10.097   1.791  72.016  1.00  0.00    -0.222 A  
HETATM   22  C   UNL     1      -9.473   2.951  71.539  1.00  0.00    -0.216 A  
ENDBRANCH  15  17
ENDBRANCH  10  13
ENDBRANCH   7  10
TORSDOF 3
ENDMDL
MODEL      108
REMARK 921   NORMALIZED FREE ENERGY PREDICTED BY IDOCK:   -4.27 KCAL/MOL
REMARK 922        TOTAL FREE ENERGY PREDICTED BY IDOCK:   -5.34 KCAL/MOL
REMARK 923 INTER-LIGAND FREE ENERGY PREDICTED BY IDOCK:   -5.55 KCAL/MOL
REMARK 924 INTRA-LIGAND FREE ENERGY PREDICTED BY IDOCK:    0.21 KCAL/MOL
REMARK 927      BINDING AFFINITY PREDICTED BY RF-SCORE:    0.00 PKD
ROOT
HETATM    1  N   UNL     1     -13.143  13.896  65.245  1.00  0.00    -0.770 NA 
HETATM    2  H2  UNL     1     -12.887  14.643  65.892  1.00  0.00     0.000 HD 
HETATM    3  C   UNL     1     -12.111  12.950  65.230  1.00  0.00    -0.453 A  
HETATM    4  H1  UNL     1     -13.460  14.321  64.373  1.00  0.00     0.000 HD 
HETATM    5  C   UNL     1     -11.676  12.367  66.425  1.00  0.00    -0.453 A  
HETATM    6  C   UNL     1     -10.717  11.350  66.418  1.00  0.00    -0.325 A  
HETATM    7  C   UNL     1     -10.230  10.871  65.199  1.00  0.00    -0.297 A  
HETATM    8  C   UNL     1     -10.707  11.392  63.996  1.00  0.00    -0.450 A  
HETATM    9  C   UNL     1     -11.663  12.415  64.018  1.00  0.00    -0.498 A  
ENDROOT
BRANCH   7  10
HETATM   10  S   UNL     1      -8.979   9.609  65.199  1.00  0.00    -0.221 S  
HETATM   11  O   UNL     1      -9.021   8.888  63.946  1.00  0.00    -0.030 OA 
HETATM   12  O   UNL     1      -7.754  10.238  65.652  1.00  0.00    -0.137 OA 
BRANCH  10  13
HETATM   13  N   UNL     1      -9.423   8.573  66.426  1.00  0.00    -0.214 N  
HETATM   14  H   UNL     1     -10.109   7.848  66.218  1.00  0.00     0.000 HD 
HETATM   15  C   UNL     1      -8.907   8.643  67.726  1.00  0.00    -0.136 C  
HETATM   16  O   UNL     1      -8.078   9.469  68.075  1.00  0.00    -0.101 OA 
BRANCH  15  17
HETATM   17  C   UNL     1      -9.393   7.613  68.677  1.00  0.00    -0.147 A  
HETATM   18  C   UNL     1     -10.670   7.081  68.446  1.00  0.00    -0.224 A  
HETATM   19  C   UNL     1     -11.189   6.099  69.289  1.00  0.00    -0.438 A  
HETATM   20  C   UNL     1     -10.433   5.637  70.363  1.00  0.00    -0.355 A  
HETATM   21  C   UNL     1      -9.161   6.162  70.601  1.00  0.00    -0.156 A  
HETATM   22  C   UNL     1      -8.639   7.155  69.764  1.00  0.00    -0.141 A  
ENDBRANCH  15  17
ENDBRANCH  10  13
ENDBRANCH   7  10
TORSDOF 3
ENDMDL
MODEL      109
REMARK 921   NORMALIZED FREE ENERGY PREDICTED BY IDOCK:   -4.20 KCAL/MOL
REMARK 922        TOTAL FREE ENERGY PREDICTED BY IDOCK:   -5.26 KCAL/MOL
REMARK 923 INTER-LIGAND FREE ENERGY PREDICTED BY IDOCK:   -5.12 KCAL/MOL
REMARK 924 INTRA-LIGAND FREE ENERGY PREDICTED BY IDOCK:   -0.14 KCAL/MOL
REMARK 927      BINDING AFFINITY PREDICTED BY RF-SCORE:    0.00 PKD
ROOT
HETATM    1  N   UNL     1     -10.554  16.550  67.167  1.00  0.00    -0.301 NA 
HETATM    2  H2  UNL     1     -10.263  16.789  66.218  1.00  0.00     0.000 HD 
HETATM    3  C   UNL     1     -10.327  15.183  67.368  1.00  0.00    -0.244 A  
HETATM    4  H1  UNL     1     -11.482  16.943  67.327  1.00  0.00     0.000 HD 
HETATM    5  C   UNL     1      -9.055  14.644  67.149  1.00  0.00    -0.236 A  
HETATM    6  C   UNL     1      -8.786  13.303  67.440  1.00  0.00    -0.204 A  
HETATM    7  C   UNL     1      -9.784  12.509  68.011  1.00  0.00    -0.215 A  
HETATM    8  C   UNL     1     -11.036  13.051  68.302  1.00  0.00    -0.285 A  
HETATM    9  C   UNL     1     -11.293  14.394  67.999  1.00  0.00    -0.316 A  
ENDROOT
BRANCH   7  10
HETATM   10  S   UNL     1      -9.449  10.794  68.337  1.00  0.00    -0.181 S  
HETATM   11  O   UNL     1      -9.484  10.051  67.097  1.00  0.00    -0.150 OA 
HETATM   12  O   UNL     1      -8.279  10.755  69.193  1.00  0.00    -0.154 OA 
BRANCH  10  13
HETATM   13  N   UNL     1     -10.714  10.291  69.297  1.00  0.00    -0.219 N  
HETATM   14  H   UNL     1     -11.583  10.825  69.267  1.00  0.00     0.000 HD 
HETATM   15  C   UNL     1     -10.651   9.177  70.143  1.00  0.00    -0.228 C  
HETATM   16  O   UNL     1      -9.662   8.470  70.248  1.00  0.00    -0.167 OA 
BRANCH  15  17
HETATM   17  C   UNL     1     -11.890   8.859  70.895  1.00  0.00    -0.283 A  
HETATM   18  C   UNL     1     -12.342   7.532  70.853  1.00  0.00    -0.198 A  
HETATM   19  C   UNL     1     -13.491   7.155  71.547  1.00  0.00    -0.411 A  
HETATM   20  C   UNL     1     -14.192   8.099  72.293  1.00  0.00    -0.348 A  
HETATM   21  C   UNL     1     -13.751   9.423  72.339  1.00  0.00    -0.469 A  
HETATM   22  C   UNL     1     -12.603   9.810  71.636  1.00  0.00    -0.509 A  
ENDBRANCH  15  17
ENDBRANCH  10  13
ENDBRANCH   7  10
TORSDOF 3
ENDMDL
MODEL      110
REMARK 921   NORMALIZED FREE ENERGY PREDICTED BY IDOCK:   -4.19 KCAL/MOL
REMARK 922        TOTAL FREE ENERGY PREDICTED BY IDOCK:   -5.25 KCAL/MOL
REMARK 923 INTER-LIGAND FREE ENERGY PREDICTED BY IDOCK:   -5.00 KCAL/MOL
REMARK 924 INTRA-LIGAND FREE ENERGY PREDICTED BY IDOCK:   -0.25 KCAL/MOL
REMARK 927      BINDING AFFINITY PREDICTED BY RF-SCORE:    0.00 PKD
ROOT
HETATM    1  N   UNL     1      -9.780   7.957  70.277  1.00  0.00    -0.182 NA 
HETATM    2  H2  UNL     1     -10.536   7.273  70.222  1.00  0.00     0.000 HD 
HETATM    3  C   UNL     1     -10.255   9.180  69.787  1.00  0.00    -0.207 A  
HETATM    4  H1  UNL     1      -8.938   7.540  69.880  1.00  0.00     0.000 HD 
HETATM    5  C   UNL     1     -11.409   9.753  70.331  1.00  0.00    -0.362 A  
HETATM    6  C   UNL     1     -11.841  11.018  69.922  1.00  0.00    -0.431 A  
HETATM    7  C   UNL     1     -11.077  11.743  69.004  1.00  0.00    -0.246 A  
HETATM    8  C   UNL     1      -9.885  11.215  68.507  1.00  0.00    -0.199 A  
HETATM    9  C   UNL     1      -9.469   9.944  68.919  1.00  0.00    -0.170 A  
ENDROOT
BRANCH   7  10
HETATM   10  S   UNL     1     -11.654  13.332  68.456  1.00  0.00    -0.356 S  
HETATM   11  O   UNL     1     -12.285  13.198  67.162  1.00  0.00    -0.326 OA 
HETATM   12  O   UNL     1     -12.369  13.922  69.572  1.00  0.00    -0.333 OA 
BRANCH  10  13
HETATM   13  N   UNL     1     -10.273  14.248  68.284  1.00  0.00    -0.237 N  
HETATM   14  H   UNL     1      -9.372  13.773  68.337  1.00  0.00     0.000 HD 
HETATM   15  C   UNL     1     -10.281  15.632  68.071  1.00  0.00    -0.227 C  
HETATM   16  O   UNL     1     -11.304  16.291  67.986  1.00  0.00    -0.313 OA 
BRANCH  15  17
HETATM   17  C   UNL     1      -8.952  16.273  67.904  1.00  0.00    -0.187 A  
HETATM   18  C   UNL     1      -8.709  17.441  68.642  1.00  0.00    -0.261 A  
HETATM   19  C   UNL     1      -7.480  18.092  68.548  1.00  0.00    -0.283 A  
HETATM   20  C   UNL     1      -6.483  17.576  67.723  1.00  0.00    -0.163 A  
HETATM   21  C   UNL     1      -6.717  16.415  66.984  1.00  0.00    -0.239 A  
HETATM   22  C   UNL     1      -7.954  15.762  67.066  1.00  0.00    -0.272 A  
ENDBRANCH  15  17
ENDBRANCH  10  13
ENDBRANCH   7  10
TORSDOF 3
ENDMDL
MODEL      111
REMARK 921   NORMALIZED FREE ENERGY PREDICTED BY IDOCK:   -4.18 KCAL/MOL
REMARK 922        TOTAL FREE ENERGY PREDICTED BY IDOCK:   -5.24 KCAL/MOL
REMARK 923 INTER-LIGAND FREE ENERGY PREDICTED BY IDOCK:   -5.17 KCAL/MOL
REMARK 924 INTRA-LIGAND FREE ENERGY PREDICTED BY IDOCK:   -0.07 KCAL/MOL
REMARK 927      BINDING AFFINITY PREDICTED BY RF-SCORE:    0.00 PKD
ROOT
HETATM    1  N   UNL     1     -12.013  12.952  66.241  1.00  0.00    -0.413 NA 
HETATM    2  H2  UNL     1     -11.831  13.596  67.012  1.00  0.00     0.000 HD 
HETATM    3  C   UNL     1     -11.186  11.832  66.394  1.00  0.00    -0.323 A  
HETATM    4  H1  UNL     1     -12.000  13.482  65.370  1.00  0.00     0.000 HD 
HETATM    5  C   UNL     1     -11.204  11.105  67.589  1.00  0.00    -0.364 A  
HETATM    6  C   UNL     1     -10.459   9.930  67.722  1.00  0.00    -0.292 A  
HETATM    7  C   UNL     1      -9.736   9.445  66.630  1.00  0.00    -0.219 A  
HETATM    8  C   UNL     1      -9.765  10.120  65.409  1.00  0.00    -0.355 A  
HETATM    9  C   UNL     1     -10.510  11.301  65.292  1.00  0.00    -0.341 A  
ENDROOT
BRANCH   7  10
HETATM   10  S   UNL     1      -8.757   7.974  66.819  1.00  0.00    -0.139 S  
HETATM   11  O   UNL     1      -9.148   7.002  65.823  1.00  0.00    -0.080 OA 
HETATM   12  O   UNL     1      -7.377   8.404  66.934  1.00  0.00    -0.081 OA 
BRANCH  10  13
HETATM   13  N   UNL     1      -9.163   7.387  68.325  1.00  0.00    -0.138 N  
HETATM   14  H   UNL     1      -8.513   7.548  69.095  1.00  0.00     0.000 HD 
HETATM   15  C   UNL     1     -10.345   6.686  68.592  1.00  0.00    -0.188 C  
HETATM   16  O   UNL     1     -11.189   6.447  67.743  1.00  0.00    -0.323 OA 
BRANCH  15  17
HETATM   17  C   UNL     1     -10.553   6.272  70.002  1.00  0.00    -0.307 A  
HETATM   18  C   UNL     1     -11.645   6.835  70.679  1.00  0.00    -0.422 A  
HETATM   19  C   UNL     1     -11.913   6.485  72.001  1.00  0.00    -0.372 A  
HETATM   20  C   UNL     1     -11.096   5.564  72.654  1.00  0.00    -0.334 A  
HETATM   21  C   UNL     1     -10.007   5.000  71.988  1.00  0.00    -0.239 A  
HETATM   22  C   UNL     1      -9.727   5.356  70.663  1.00  0.00    -0.241 A  
ENDBRANCH  15  17
ENDBRANCH  10  13
ENDBRANCH   7  10
TORSDOF 3
ENDMDL
MODEL      112
REMARK 921   NORMALIZED FREE ENERGY PREDICTED BY IDOCK:   -4.14 KCAL/MOL
REMARK 922        TOTAL FREE ENERGY PREDICTED BY IDOCK:   -5.19 KCAL/MOL
REMARK 923 INTER-LIGAND FREE ENERGY PREDICTED BY IDOCK:   -4.87 KCAL/MOL
REMARK 924 INTRA-LIGAND FREE ENERGY PREDICTED BY IDOCK:   -0.31 KCAL/MOL
REMARK 927      BINDING AFFINITY PREDICTED BY RF-SCORE:    0.00 PKD
ROOT
HETATM    1  N   UNL     1      -9.814   9.539  65.011  1.00  0.00    -0.420 NA 
HETATM    2  H2  UNL     1     -10.187   9.840  64.110  1.00  0.00     0.000 HD 
HETATM    3  C   UNL     1      -9.179  10.633  65.614  1.00  0.00    -0.196 A  
HETATM    4  H1  UNL     1      -9.307   8.665  64.874  1.00  0.00     0.000 HD 
HETATM    5  C   UNL     1      -9.875  11.831  65.802  1.00  0.00    -0.267 A  
HETATM    6  C   UNL     1      -9.289  12.898  66.490  1.00  0.00    -0.224 A  
HETATM    7  C   UNL     1      -8.016  12.744  67.046  1.00  0.00    -0.038 A  
HETATM    8  C   UNL     1      -7.339  11.530  66.928  1.00  0.00    -0.140 A  
HETATM    9  C   UNL     1      -7.935  10.472  66.230  1.00  0.00    -0.144 A  
ENDROOT
BRANCH   7  10
HETATM   10  S   UNL     1      -7.260  14.118  67.881  1.00  0.00    -0.177 S  
HETATM   11  O   UNL     1      -7.410  13.957  69.310  1.00  0.00    -0.063 OA 
HETATM   12  O   UNL     1      -5.948  14.294  67.288  1.00  0.00    -0.300 OA 
BRANCH  10  13
HETATM   13  N   UNL     1      -8.143  15.445  67.397  1.00  0.00    -0.164 N  
HETATM   14  H   UNL     1      -8.838  15.318  66.661  1.00  0.00     0.000 HD 
HETATM   15  C   UNL     1      -7.985  16.724  67.944  1.00  0.00    -0.177 C  
HETATM   16  O   UNL     1      -7.187  16.980  68.831  1.00  0.00    -0.219 OA 
BRANCH  15  17
HETATM   17  C   UNL     1      -8.887  17.777  67.412  1.00  0.00    -0.240 A  
HETATM   18  C   UNL     1      -8.861  19.024  68.053  1.00  0.00    -0.346 A  
HETATM   19  C   UNL     1      -9.670  20.066  67.602  1.00  0.00    -0.535 A  
HETATM   20  C   UNL     1     -10.504  19.871  66.503  1.00  0.00    -0.589 A  
HETATM   21  C   UNL     1     -10.537  18.632  65.861  1.00  0.00    -0.365 A  
HETATM   22  C   UNL     1      -9.734  17.579  66.316  1.00  0.00    -0.271 A  
ENDBRANCH  15  17
ENDBRANCH  10  13
ENDBRANCH   7  10
TORSDOF 3
ENDMDL
MODEL      113
REMARK 921   NORMALIZED FREE ENERGY PREDICTED BY IDOCK:   -4.10 KCAL/MOL
REMARK 922        TOTAL FREE ENERGY PREDICTED BY IDOCK:   -5.15 KCAL/MOL
REMARK 923 INTER-LIGAND FREE ENERGY PREDICTED BY IDOCK:   -4.82 KCAL/MOL
REMARK 924 INTRA-LIGAND FREE ENERGY PREDICTED BY IDOCK:   -0.32 KCAL/MOL
REMARK 927      BINDING AFFINITY PREDICTED BY RF-SCORE:    0.00 PKD
ROOT
HETATM    1  N   UNL     1     -10.086  12.532  63.180  1.00  0.00    -0.522 NA 
HETATM    2  H2  UNL     1     -10.218  12.259  62.206  1.00  0.00     0.000 HD 
HETATM    3  C   UNL     1      -9.770  11.387  63.922  1.00  0.00    -0.270 A  
HETATM    4  H1  UNL     1     -10.870  13.121  63.459  1.00  0.00     0.000 HD 
HETATM    5  C   UNL     1      -8.694  10.579  63.541  1.00  0.00    -0.187 A  
HETATM    6  C   UNL     1      -8.304   9.489  64.325  1.00  0.00    -0.172 A  
HETATM    7  C   UNL     1      -8.961   9.240  65.533  1.00  0.00    -0.205 A  
HETATM    8  C   UNL     1      -9.989  10.080  65.962  1.00  0.00    -0.334 A  
HETATM    9  C   UNL     1     -10.373  11.163  65.163  1.00  0.00    -0.354 A  
ENDROOT
BRANCH   7  10
HETATM   10  S   UNL     1      -8.489   7.827  66.503  1.00  0.00    -0.139 S  
HETATM   11  O   UNL     1      -8.914   6.618  65.833  1.00  0.00    -0.147 OA 
HETATM   12  O   UNL     1      -7.101   8.021  66.873  1.00  0.00    -0.078 OA 
BRANCH  10  13
HETATM   13  N   UNL     1      -9.349   7.982  67.921  1.00  0.00    -0.138 N  
HETATM   14  H   UNL     1      -9.920   8.818  68.049  1.00  0.00     0.000 HD 
HETATM   15  C   UNL     1      -9.332   7.030  68.948  1.00  0.00    -0.139 C  
HETATM   16  O   UNL     1      -8.687   5.995  68.891  1.00  0.00    -0.121 OA 
BRANCH  15  17
HETATM   17  C   UNL     1     -10.190   7.322  70.123  1.00  0.00    -0.209 A  
HETATM   18  C   UNL     1     -10.189   8.639  70.605  1.00  0.00    -0.237 A  
HETATM   19  C   UNL     1     -10.980   8.992  71.696  1.00  0.00    -0.435 A  
HETATM   20  C   UNL     1     -11.784   8.033  72.309  1.00  0.00    -0.428 A  
HETATM   21  C   UNL     1     -11.791   6.720  71.837  1.00  0.00    -0.366 A  
HETATM   22  C   UNL     1     -10.989   6.357  70.747  1.00  0.00    -0.346 A  
ENDBRANCH  15  17
ENDBRANCH  10  13
ENDBRANCH   7  10
TORSDOF 3
ENDMDL
MODEL      114
REMARK 921   NORMALIZED FREE ENERGY PREDICTED BY IDOCK:   -4.06 KCAL/MOL
REMARK 922        TOTAL FREE ENERGY PREDICTED BY IDOCK:   -5.10 KCAL/MOL
REMARK 923 INTER-LIGAND FREE ENERGY PREDICTED BY IDOCK:   -4.81 KCAL/MOL
REMARK 924 INTRA-LIGAND FREE ENERGY PREDICTED BY IDOCK:   -0.28 KCAL/MOL
REMARK 927      BINDING AFFINITY PREDICTED BY RF-SCORE:    0.00 PKD
ROOT
HETATM    1  N   UNL     1     -13.318   8.830  73.135  1.00  0.00    -0.887 NA 
HETATM    2  H2  UNL     1     -14.301   8.602  72.988  1.00  0.00     0.000 HD 
HETATM    3  C   UNL     1     -12.847   9.507  72.003  1.00  0.00    -0.414 A  
HETATM    4  H1  UNL     1     -12.839   7.992  73.465  1.00  0.00     0.000 HD 
HETATM    5  C   UNL     1     -13.503  10.657  71.550  1.00  0.00    -0.222 A  
HETATM    6  C   UNL     1     -12.990  11.400  70.483  1.00  0.00    -0.015 A  
HETATM    7  C   UNL     1     -11.777  11.023  69.901  1.00  0.00    -0.346 A  
HETATM    8  C   UNL     1     -11.075   9.921  70.388  1.00  0.00    -0.382 A  
HETATM    9  C   UNL     1     -11.604   9.181  71.453  1.00  0.00    -0.411 A  
ENDROOT
BRANCH   7  10
HETATM   10  S   UNL     1     -11.154  11.946  68.516  1.00  0.00    -0.265 S  
HETATM   11  O   UNL     1     -12.197  12.097  67.527  1.00  0.00    -0.474 OA 
HETATM   12  O   UNL     1     -10.476  13.106  69.062  1.00  0.00    -0.142 OA 
BRANCH  10  13
HETATM   13  N   UNL     1      -9.948  10.990  67.879  1.00  0.00    -0.171 N  
HETATM   14  H   UNL     1      -9.671  10.156  68.397  1.00  0.00     0.000 HD 
HETATM   15  C   UNL     1      -9.294  11.267  66.672  1.00  0.00    -0.180 C  
HETATM   16  O   UNL     1      -9.555  12.234  65.974  1.00  0.00    -0.240 OA 
BRANCH  15  17
HETATM   17  C   UNL     1      -8.271  10.281  66.243  1.00  0.00    -0.131 A  
HETATM   18  C   UNL     1      -8.729   9.019  65.837  1.00  0.00    -0.193 A  
HETATM   19  C   UNL     1      -7.828   8.045  65.408  1.00  0.00    -0.106 A  
HETATM   20  C   UNL     1      -6.465   8.329  65.375  1.00  0.00    -0.052 A  
HETATM   21  C   UNL     1      -6.000   9.582  65.778  1.00  0.00    -0.055 A  
HETATM   22  C   UNL     1      -6.899  10.560  66.220  1.00  0.00    -0.127 A  
ENDBRANCH  15  17
ENDBRANCH  10  13
ENDBRANCH   7  10
TORSDOF 3
ENDMDL
MODEL      115
REMARK 921   NORMALIZED FREE ENERGY PREDICTED BY IDOCK:   -4.05 KCAL/MOL
REMARK 922        TOTAL FREE ENERGY PREDICTED BY IDOCK:   -5.09 KCAL/MOL
REMARK 923 INTER-LIGAND FREE ENERGY PREDICTED BY IDOCK:   -5.20 KCAL/MOL
REMARK 924 INTRA-LIGAND FREE ENERGY PREDICTED BY IDOCK:    0.12 KCAL/MOL
REMARK 927      BINDING AFFINITY PREDICTED BY RF-SCORE:    0.00 PKD
ROOT
HETATM    1  N   UNL     1     -12.283  11.068  68.619  1.00  0.00    -0.771 NA 
HETATM    2  H2  UNL     1     -12.211  10.714  67.664  1.00  0.00     0.000 HD 
HETATM    3  C   UNL     1     -11.385  10.355  69.424  1.00  0.00    -0.250 A  
HETATM    4  H1  UNL     1     -13.270  11.115  68.872  1.00  0.00     0.000 HD 
HETATM    5  C   UNL     1     -10.032  10.291  69.077  1.00  0.00    -0.223 A  
HETATM    6  C   UNL     1      -9.106   9.668  69.920  1.00  0.00    -0.250 A  
HETATM    7  C   UNL     1      -9.530   9.157  71.150  1.00  0.00    -0.261 A  
HETATM    8  C   UNL     1     -10.863   9.277  71.541  1.00  0.00    -0.442 A  
HETATM    9  C   UNL     1     -11.781   9.897  70.684  1.00  0.00    -0.404 A  
ENDROOT
BRANCH   7  10
HETATM   10  S   UNL     1      -8.357   8.328  72.197  1.00  0.00    -0.176 S  
HETATM   11  O   UNL     1      -7.039   8.412  71.607  1.00  0.00    -0.074 OA 
HETATM   12  O   UNL     1      -8.597   8.801  73.546  1.00  0.00    -0.294 OA 
BRANCH  10  13
HETATM   13  N   UNL     1      -8.842   6.734  72.196  1.00  0.00    -0.133 N  
HETATM   14  H   UNL     1      -8.419   6.103  71.514  1.00  0.00     0.000 HD 
HETATM   15  C   UNL     1      -9.796   6.212  73.078  1.00  0.00    -0.168 C  
HETATM   16  O   UNL     1     -10.355   6.880  73.933  1.00  0.00    -0.346 OA 
BRANCH  15  17
HETATM   17  C   UNL     1     -10.074   4.760  72.953  1.00  0.00    -0.212 A  
HETATM   18  C   UNL     1      -9.233   4.017  72.111  1.00  0.00    -0.168 A  
HETATM   19  C   UNL     1      -9.423   2.645  71.954  1.00  0.00    -0.196 A  
HETATM   20  C   UNL     1     -10.451   2.005  72.642  1.00  0.00    -0.228 A  
HETATM   21  C   UNL     1     -11.294   2.736  73.481  1.00  0.00    -0.272 A  
HETATM   22  C   UNL     1     -11.114   4.116  73.634  1.00  0.00    -0.337 A  
ENDBRANCH  15  17
ENDBRANCH  10  13
ENDBRANCH   7  10
TORSDOF 3
ENDMDL
MODEL      116
REMARK 921   NORMALIZED FREE ENERGY PREDICTED BY IDOCK:   -4.05 KCAL/MOL
REMARK 922        TOTAL FREE ENERGY PREDICTED BY IDOCK:   -5.08 KCAL/MOL
REMARK 923 INTER-LIGAND FREE ENERGY PREDICTED BY IDOCK:   -5.15 KCAL/MOL
REMARK 924 INTRA-LIGAND FREE ENERGY PREDICTED BY IDOCK:    0.07 KCAL/MOL
REMARK 927      BINDING AFFINITY PREDICTED BY RF-SCORE:    0.00 PKD
ROOT
HETATM    1  N   UNL     1      -7.679   7.902  72.401  1.00  0.00    -0.101 NA 
HETATM    2  H2  UNL     1      -7.936   6.941  72.629  1.00  0.00     0.000 HD 
HETATM    3  C   UNL     1      -8.737   8.486  71.693  1.00  0.00    -0.199 A  
HETATM    4  H1  UNL     1      -6.739   7.900  72.006  1.00  0.00     0.000 HD 
HETATM    5  C   UNL     1     -10.027   8.490  72.235  1.00  0.00    -0.385 A  
HETATM    6  C   UNL     1     -11.073   9.154  71.588  1.00  0.00    -0.445 A  
HETATM    7  C   UNL     1     -10.814   9.871  70.417  1.00  0.00    -0.319 A  
HETATM    8  C   UNL     1      -9.518   9.937  69.903  1.00  0.00    -0.256 A  
HETATM    9  C   UNL     1      -8.482   9.260  70.557  1.00  0.00    -0.251 A  
ENDROOT
BRANCH   7  10
HETATM   10  S   UNL     1     -12.156  10.677  69.576  1.00  0.00    -0.138 S  
HETATM   11  O   UNL     1     -11.764  10.979  68.218  1.00  0.00    -0.461 OA 
HETATM   12  O   UNL     1     -13.346   9.894  69.848  1.00  0.00     0.418 OA 
BRANCH  10  13
HETATM   13  N   UNL     1     -12.373  12.109  70.400  1.00  0.00    -0.276 N  
HETATM   14  H   UNL     1     -11.911  12.944  70.041  1.00  0.00     0.000 HD 
HETATM   15  C   UNL     1     -13.153  12.229  71.556  1.00  0.00    -0.257 C  
HETATM   16  O   UNL     1     -13.751  11.292  72.062  1.00  0.00    -0.165 OA 
BRANCH  15  17
HETATM   17  C   UNL     1     -13.260  13.592  72.132  1.00  0.00    -0.541 A  
HETATM   18  C   UNL     1     -12.328  13.944  73.120  1.00  0.00     0.438 A  
HETATM   19  C   UNL     1     -12.357  15.212  73.698  1.00  0.00    -0.674 A  
HETATM   20  C   UNL     1     -13.312  16.140  73.288  1.00  0.00    -0.527 A  
HETATM   21  C   UNL     1     -14.244  15.798  72.306  1.00  0.00    -0.417 A  
HETATM   22  C   UNL     1     -14.226  14.522  71.730  1.00  0.00    -0.592 A  
ENDBRANCH  15  17
ENDBRANCH  10  13
ENDBRANCH   7  10
TORSDOF 3
ENDMDL
MODEL      117
REMARK 921   NORMALIZED FREE ENERGY PREDICTED BY IDOCK:   -4.03 KCAL/MOL
REMARK 922        TOTAL FREE ENERGY PREDICTED BY IDOCK:   -5.06 KCAL/MOL
REMARK 923 INTER-LIGAND FREE ENERGY PREDICTED BY IDOCK:   -4.77 KCAL/MOL
REMARK 924 INTRA-LIGAND FREE ENERGY PREDICTED BY IDOCK:   -0.29 KCAL/MOL
REMARK 927      BINDING AFFINITY PREDICTED BY RF-SCORE:    0.00 PKD
ROOT
HETATM    1  N   UNL     1     -10.359  19.783  68.006  1.00  0.00    -0.441 NA 
HETATM    2  H2  UNL     1      -9.730  19.844  68.807  1.00  0.00     0.000 HD 
HETATM    3  C   UNL     1     -10.424  18.445  67.597  1.00  0.00    -0.419 A  
HETATM    4  H1  UNL     1     -10.102  20.509  67.338  1.00  0.00     0.000 HD 
HETATM    5  C   UNL     1     -10.777  17.448  68.512  1.00  0.00    -0.279 A  
HETATM    6  C   UNL     1     -10.943  16.123  68.099  1.00  0.00    -0.341 A  
HETATM    7  C   UNL     1     -10.812  15.802  66.745  1.00  0.00    -0.254 A  
HETATM    8  C   UNL     1     -10.531  16.798  65.809  1.00  0.00    -0.305 A  
HETATM    9  C   UNL     1     -10.360  18.120  66.238  1.00  0.00    -0.407 A  
ENDROOT
BRANCH   7  10
HETATM   10  S   UNL     1     -10.981  14.109  66.233  1.00  0.00    -0.308 S  
HETATM   11  O   UNL     1     -12.035  13.477  66.995  1.00  0.00    -0.386 OA 
HETATM   12  O   UNL     1     -11.015  14.114  64.783  1.00  0.00    -0.371 OA 
BRANCH  10  13
HETATM   13  N   UNL     1      -9.530  13.398  66.637  1.00  0.00    -0.260 N  
HETATM   14  H   UNL     1      -8.817  13.978  67.079  1.00  0.00     0.000 HD 
HETATM   15  C   UNL     1      -9.235  12.049  66.404  1.00  0.00    -0.216 C  
HETATM   16  O   UNL     1     -10.020  11.270  65.886  1.00  0.00    -0.216 OA 
BRANCH  15  17
HETATM   17  C   UNL     1      -7.903  11.583  66.865  1.00  0.00    -0.163 A  
HETATM   18  C   UNL     1      -7.443  12.079  68.094  1.00  0.00    -0.112 A  
HETATM   19  C   UNL     1      -6.208  11.676  68.600  1.00  0.00    -0.053 A  
HETATM   20  C   UNL     1      -5.427  10.771  67.885  1.00  0.00    -0.039 A  
HETATM   21  C   UNL     1      -5.877  10.274  66.660  1.00  0.00    -0.061 A  
HETATM   22  C   UNL     1      -7.112  10.683  66.142  1.00  0.00    -0.138 A  
ENDBRANCH  15  17
ENDBRANCH  10  13
ENDBRANCH   7  10
TORSDOF 3
ENDMDL
MODEL      118
REMARK 921   NORMALIZED FREE ENERGY PREDICTED BY IDOCK:   -4.02 KCAL/MOL
REMARK 922        TOTAL FREE ENERGY PREDICTED BY IDOCK:   -5.05 KCAL/MOL
REMARK 923 INTER-LIGAND FREE ENERGY PREDICTED BY IDOCK:   -4.87 KCAL/MOL
REMARK 924 INTRA-LIGAND FREE ENERGY PREDICTED BY IDOCK:   -0.17 KCAL/MOL
REMARK 927      BINDING AFFINITY PREDICTED BY RF-SCORE:    0.00 PKD
ROOT
HETATM    1  N   UNL     1     -10.565   3.638  65.088  1.00  0.00    -0.418 NA 
HETATM    2  H2  UNL     1      -9.831   2.959  64.885  1.00  0.00     0.000 HD 
HETATM    3  C   UNL     1      -9.966   4.804  65.580  1.00  0.00    -0.176 A  
HETATM    4  H1  UNL     1     -11.295   3.172  65.627  1.00  0.00     0.000 HD 
HETATM    5  C   UNL     1      -8.965   5.444  64.841  1.00  0.00    -0.003 A  
HETATM    6  C   UNL     1      -8.427   6.661  65.270  1.00  0.00    -0.078 A  
HETATM    7  C   UNL     1      -8.935   7.273  66.419  1.00  0.00    -0.158 A  
HETATM    8  C   UNL     1      -9.982   6.682  67.127  1.00  0.00    -0.209 A  
HETATM    9  C   UNL     1     -10.507   5.460  66.690  1.00  0.00    -0.356 A  
ENDROOT
BRANCH   7  10
HETATM   10  S   UNL     1      -8.216   8.797  66.982  1.00  0.00    -0.103 S  
HETATM   11  O   UNL     1      -8.503   8.976  68.388  1.00  0.00    -0.126 OA 
HETATM   12  O   UNL     1      -6.850   8.818  66.496  1.00  0.00    -0.070 OA 
BRANCH  10  13
HETATM   13  N   UNL     1      -9.009   9.982  66.121  1.00  0.00    -0.146 N  
HETATM   14  H   UNL     1      -8.540  10.380  65.307  1.00  0.00     0.000 HD 
HETATM   15  C   UNL     1     -10.282  10.463  66.452  1.00  0.00    -0.230 C  
HETATM   16  O   UNL     1     -10.929  10.050  67.401  1.00  0.00    -0.283 OA 
BRANCH  15  17
HETATM   17  C   UNL     1     -10.845  11.495  65.546  1.00  0.00    -0.313 A  
HETATM   18  C   UNL     1     -10.674  11.299  64.168  1.00  0.00    -0.436 A  
HETATM   19  C   UNL     1     -11.188  12.219  63.255  1.00  0.00    -0.399 A  
HETATM   20  C   UNL     1     -11.881  13.337  63.712  1.00  0.00    -0.522 A  
HETATM   21  C   UNL     1     -12.055  13.541  65.082  1.00  0.00    -0.432 A  
HETATM   22  C   UNL     1     -11.532  12.625  66.004  1.00  0.00    -0.414 A  
ENDBRANCH  15  17
ENDBRANCH  10  13
ENDBRANCH   7  10
TORSDOF 3
ENDMDL
MODEL      119
REMARK 921   NORMALIZED FREE ENERGY PREDICTED BY IDOCK:   -4.00 KCAL/MOL
REMARK 922        TOTAL FREE ENERGY PREDICTED BY IDOCK:   -5.02 KCAL/MOL
REMARK 923 INTER-LIGAND FREE ENERGY PREDICTED BY IDOCK:   -5.20 KCAL/MOL
REMARK 924 INTRA-LIGAND FREE ENERGY PREDICTED BY IDOCK:    0.18 KCAL/MOL
REMARK 927      BINDING AFFINITY PREDICTED BY RF-SCORE:    0.00 PKD
ROOT
HETATM    1  N   UNL     1     -11.027  13.737  68.884  1.00  0.00    -0.249 NA 
HETATM    2  H2  UNL     1     -11.161  13.602  67.882  1.00  0.00     0.000 HD 
HETATM    3  C   UNL     1     -11.676  12.696  69.561  1.00  0.00    -0.308 A  
HETATM    4  H1  UNL     1     -11.243  14.707  69.111  1.00  0.00     0.000 HD 
HETATM    5  C   UNL     1     -11.380  11.365  69.250  1.00  0.00    -0.355 A  
HETATM    6  C   UNL     1     -11.944  10.316  69.982  1.00  0.00    -0.273 A  
HETATM    7  C   UNL     1     -12.768  10.604  71.074  1.00  0.00    -0.415 A  
HETATM    8  C   UNL     1     -13.015  11.927  71.441  1.00  0.00    -0.385 A  
HETATM    9  C   UNL     1     -12.449  12.967  70.694  1.00  0.00    -0.347 A  
ENDROOT
BRANCH   7  10
HETATM   10  S   UNL     1     -13.517   9.267  71.973  1.00  0.00    -0.472 S  
HETATM   11  O   UNL     1     -14.325   9.800  73.047  1.00  0.00     0.094 OA 
HETATM   12  O   UNL     1     -14.092   8.373  70.986  1.00  0.00    -0.131 OA 
BRANCH  10  13
HETATM   13  N   UNL     1     -12.237   8.431  72.633  1.00  0.00    -0.537 N  
HETATM   14  H   UNL     1     -11.860   8.753  73.524  1.00  0.00     0.000 HD 
HETATM   15  C   UNL     1     -11.648   7.311  72.032  1.00  0.00    -0.274 C  
HETATM   16  O   UNL     1     -12.027   6.843  70.970  1.00  0.00    -0.339 OA 
BRANCH  15  17
HETATM   17  C   UNL     1     -10.540   6.673  72.785  1.00  0.00    -0.260 A  
HETATM   18  C   UNL     1     -10.817   5.455  73.423  1.00  0.00    -0.347 A  
HETATM   19  C   UNL     1      -9.823   4.790  74.138  1.00  0.00    -0.186 A  
HETATM   20  C   UNL     1      -8.543   5.333  74.215  1.00  0.00    -0.116 A  
HETATM   21  C   UNL     1      -8.258   6.546  73.584  1.00  0.00    -0.119 A  
HETATM   22  C   UNL     1      -9.256   7.224  72.873  1.00  0.00    -0.185 A  
ENDBRANCH  15  17
ENDBRANCH  10  13
ENDBRANCH   7  10
TORSDOF 3
ENDMDL
MODEL      120
REMARK 921   NORMALIZED FREE ENERGY PREDICTED BY IDOCK:   -3.99 KCAL/MOL
REMARK 922        TOTAL FREE ENERGY PREDICTED BY IDOCK:   -5.01 KCAL/MOL
REMARK 923 INTER-LIGAND FREE ENERGY PREDICTED BY IDOCK:   -4.91 KCAL/MOL
REMARK 924 INTRA-LIGAND FREE ENERGY PREDICTED BY IDOCK:   -0.11 KCAL/MOL
REMARK 927      BINDING AFFINITY PREDICTED BY RF-SCORE:    0.00 PKD
ROOT
HETATM    1  N   UNL     1      -5.970  13.980  67.457  1.00  0.00    -0.352 NA 
HETATM    2  H2  UNL     1      -5.676  14.383  68.347  1.00  0.00     0.000 HD 
HETATM    3  C   UNL     1      -7.202  13.340  67.648  1.00  0.00    -0.162 A  
HETATM    4  H1  UNL     1      -5.184  13.466  67.060  1.00  0.00     0.000 HD 
HETATM    5  C   UNL     1      -8.281  14.044  68.192  1.00  0.00    -0.155 A  
HETATM    6  C   UNL     1      -9.543  13.450  68.297  1.00  0.00    -0.220 A  
HETATM    7  C   UNL     1      -9.740  12.160  67.798  1.00  0.00    -0.197 A  
HETATM    8  C   UNL     1      -8.692  11.472  67.187  1.00  0.00    -0.160 A  
HETATM    9  C   UNL     1      -7.432  12.076  67.096  1.00  0.00    -0.138 A  
ENDROOT
BRANCH   7  10
HETATM   10  S   UNL     1     -11.335  11.396  67.974  1.00  0.00    -0.312 S  
HETATM   11  O   UNL     1     -11.819  11.593  69.323  1.00  0.00    -0.293 OA 
HETATM   12  O   UNL     1     -12.126  11.815  66.834  1.00  0.00    -0.566 OA 
BRANCH  10  13
HETATM   13  N   UNL     1     -11.053   9.771  67.741  1.00  0.00    -0.486 N  
HETATM   14  H   UNL     1     -11.230   9.380  66.816  1.00  0.00     0.000 HD 
HETATM   15  C   UNL     1     -10.588   8.912  68.745  1.00  0.00    -0.157 C  
HETATM   16  O   UNL     1     -10.341   9.281  69.882  1.00  0.00    -0.198 OA 
BRANCH  15  17
HETATM   17  C   UNL     1     -10.360   7.502  68.342  1.00  0.00    -0.226 A  
HETATM   18  C   UNL     1      -9.564   6.715  69.188  1.00  0.00    -0.136 A  
HETATM   19  C   UNL     1      -9.317   5.378  68.883  1.00  0.00    -0.161 A  
HETATM   20  C   UNL     1      -9.869   4.815  67.735  1.00  0.00    -0.194 A  
HETATM   21  C   UNL     1     -10.661   5.590  66.886  1.00  0.00    -0.348 A  
HETATM   22  C   UNL     1     -10.904   6.937  67.182  1.00  0.00    -0.447 A  
ENDBRANCH  15  17
ENDBRANCH  10  13
ENDBRANCH   7  10
TORSDOF 3
ENDMDL
MODEL      121
REMARK 921   NORMALIZED FREE ENERGY PREDICTED BY IDOCK:   -3.98 KCAL/MOL
REMARK 922        TOTAL FREE ENERGY PREDICTED BY IDOCK:   -5.00 KCAL/MOL
REMARK 923 INTER-LIGAND FREE ENERGY PREDICTED BY IDOCK:   -4.91 KCAL/MOL
REMARK 924 INTRA-LIGAND FREE ENERGY PREDICTED BY IDOCK:   -0.09 KCAL/MOL
REMARK 927      BINDING AFFINITY PREDICTED BY RF-SCORE:    0.00 PKD
ROOT
HETATM    1  N   UNL     1     -10.894   5.232  66.780  1.00  0.00    -0.421 NA 
HETATM    2  H2  UNL     1     -11.841   5.412  66.443  1.00  0.00     0.000 HD 
HETATM    3  C   UNL     1     -10.129   6.389  66.589  1.00  0.00    -0.145 A  
HETATM    4  H1  UNL     1     -10.579   4.341  66.394  1.00  0.00     0.000 HD 
HETATM    5  C   UNL     1     -10.560   7.610  67.117  1.00  0.00    -0.410 A  
HETATM    6  C   UNL     1      -9.761   8.754  67.021  1.00  0.00    -0.258 A  
HETATM    7  C   UNL     1      -8.493   8.661  66.442  1.00  0.00    -0.112 A  
HETATM    8  C   UNL     1      -8.019   7.435  65.975  1.00  0.00    -0.115 A  
HETATM    9  C   UNL     1      -8.833   6.299  66.071  1.00  0.00    -0.159 A  
ENDROOT
BRANCH   7  10
HETATM   10  S   UNL     1      -7.501  10.127  66.283  1.00  0.00    -0.117 S  
HETATM   11  O   UNL     1      -6.831  10.394  67.536  1.00  0.00    -0.074 OA 
HETATM   12  O   UNL     1      -6.746   9.988  65.053  1.00  0.00    -0.115 OA 
BRANCH  10  13
HETATM   13  N   UNL     1      -8.596  11.349  65.993  1.00  0.00    -0.316 N  
HETATM   14  H   UNL     1      -8.733  12.054  66.717  1.00  0.00     0.000 HD 
HETATM   15  C   UNL     1      -9.337  11.462  64.810  1.00  0.00    -0.099 C  
HETATM   16  O   UNL     1      -9.242  10.675  63.882  1.00  0.00    -0.207 OA 
BRANCH  15  17
HETATM   17  C   UNL     1     -10.238  12.638  64.715  1.00  0.00    -0.307 A  
HETATM   18  C   UNL     1     -11.360  12.519  63.882  1.00  0.00    -0.504 A  
HETATM   19  C   UNL     1     -12.258  13.576  63.752  1.00  0.00    -0.449 A  
HETATM   20  C   UNL     1     -12.047  14.757  64.460  1.00  0.00    -0.460 A  
HETATM   21  C   UNL     1     -10.932  14.885  65.291  1.00  0.00    -0.389 A  
HETATM   22  C   UNL     1     -10.020  13.829  65.417  1.00  0.00    -0.254 A  
ENDBRANCH  15  17
ENDBRANCH  10  13
ENDBRANCH   7  10
TORSDOF 3
ENDMDL
MODEL      122
REMARK 921   NORMALIZED FREE ENERGY PREDICTED BY IDOCK:   -3.98 KCAL/MOL
REMARK 922        TOTAL FREE ENERGY PREDICTED BY IDOCK:   -5.00 KCAL/MOL
REMARK 923 INTER-LIGAND FREE ENERGY PREDICTED BY IDOCK:   -4.71 KCAL/MOL
REMARK 924 INTRA-LIGAND FREE ENERGY PREDICTED BY IDOCK:   -0.29 KCAL/MOL
REMARK 927      BINDING AFFINITY PREDICTED BY RF-SCORE:    0.00 PKD
ROOT
HETATM    1  N   UNL     1      -9.715  20.761  66.637  1.00  0.00    -0.624 NA 
HETATM    2  H2  UNL     1     -10.255  21.135  67.418  1.00  0.00     0.000 HD 
HETATM    3  C   UNL     1      -9.059  19.600  67.068  1.00  0.00    -0.326 A  
HETATM    4  H1  UNL     1      -9.182  21.523  66.219  1.00  0.00     0.000 HD 
HETATM    5  C   UNL     1      -9.790  18.554  67.641  1.00  0.00    -0.335 A  
HETATM    6  C   UNL     1      -9.166  17.351  67.986  1.00  0.00    -0.266 A  
HETATM    7  C   UNL     1      -7.810  17.172  67.700  1.00  0.00    -0.176 A  
HETATM    8  C   UNL     1      -7.085  18.179  67.064  1.00  0.00    -0.217 A  
HETATM    9  C   UNL     1      -7.720  19.381  66.731  1.00  0.00    -0.272 A  
ENDROOT
BRANCH   7  10
HETATM   10  S   UNL     1      -7.015  15.657  68.181  1.00  0.00    -0.129 S  
HETATM   11  O   UNL     1      -5.901  15.394  67.296  1.00  0.00    -0.334 OA 
HETATM   12  O   UNL     1      -6.821  15.726  69.616  1.00  0.00    -0.189 OA 
BRANCH  10  13
HETATM   13  N   UNL     1      -8.170  14.480  67.949  1.00  0.00    -0.142 N  
HETATM   14  H   UNL     1      -9.091  14.768  67.618  1.00  0.00     0.000 HD 
HETATM   15  C   UNL     1      -7.948  13.117  68.182  1.00  0.00    -0.154 C  
HETATM   16  O   UNL     1      -6.882  12.669  68.573  1.00  0.00    -0.077 OA 
BRANCH  15  17
HETATM   17  C   UNL     1      -9.085  12.211  67.884  1.00  0.00    -0.185 A  
HETATM   18  C   UNL     1      -8.904  11.273  66.857  1.00  0.00    -0.165 A  
HETATM   19  C   UNL     1      -9.921  10.379  66.529  1.00  0.00    -0.271 A  
HETATM   20  C   UNL     1     -11.125  10.411  67.230  1.00  0.00    -0.251 A  
HETATM   21  C   UNL     1     -11.315  11.341  68.253  1.00  0.00    -0.359 A  
HETATM   22  C   UNL     1     -10.299  12.249  68.580  1.00  0.00    -0.234 A  
ENDBRANCH  15  17
ENDBRANCH  10  13
ENDBRANCH   7  10
TORSDOF 3
ENDMDL
MODEL      123
REMARK 921   NORMALIZED FREE ENERGY PREDICTED BY IDOCK:   -3.96 KCAL/MOL
REMARK 922        TOTAL FREE ENERGY PREDICTED BY IDOCK:   -4.98 KCAL/MOL
REMARK 923 INTER-LIGAND FREE ENERGY PREDICTED BY IDOCK:   -4.69 KCAL/MOL
REMARK 924 INTRA-LIGAND FREE ENERGY PREDICTED BY IDOCK:   -0.28 KCAL/MOL
REMARK 927      BINDING AFFINITY PREDICTED BY RF-SCORE:    0.00 PKD
ROOT
HETATM    1  N   UNL     1      -9.384  10.330  68.302  1.00  0.00    -0.136 NA 
HETATM    2  H2  UNL     1     -10.247   9.799  68.421  1.00  0.00     0.000 HD 
HETATM    3  C   UNL     1      -9.719  11.665  68.039  1.00  0.00    -0.182 A  
HETATM    4  H1  UNL     1      -8.777   9.820  67.661  1.00  0.00     0.000 HD 
HETATM    5  C   UNL     1     -10.551  12.365  68.918  1.00  0.00    -0.160 A  
HETATM    6  C   UNL     1     -10.815  13.724  68.723  1.00  0.00    -0.281 A  
HETATM    7  C   UNL     1     -10.194  14.403  67.671  1.00  0.00    -0.229 A  
HETATM    8  C   UNL     1      -9.305  13.735  66.829  1.00  0.00    -0.276 A  
HETATM    9  C   UNL     1      -9.055  12.372  67.032  1.00  0.00    -0.207 A  
ENDROOT
BRANCH   7  10
HETATM   10  S   UNL     1     -10.568  16.120  67.403  1.00  0.00    -0.294 S  
HETATM   11  O   UNL     1     -10.908  16.328  66.013  1.00  0.00    -0.244 OA 
HETATM   12  O   UNL     1     -11.482  16.515  68.457  1.00  0.00    -0.317 OA 
BRANCH  10  13
HETATM   13  N   UNL     1      -9.144  16.919  67.731  1.00  0.00    -0.227 N  
HETATM   14  H   UNL     1      -8.317  16.361  67.943  1.00  0.00     0.000 HD 
HETATM   15  C   UNL     1      -9.019  18.314  67.731  1.00  0.00    -0.267 C  
HETATM   16  O   UNL     1      -9.945  19.070  67.484  1.00  0.00    -0.321 OA 
BRANCH  15  17
HETATM   17  C   UNL     1      -7.663  18.847  68.009  1.00  0.00    -0.298 A  
HETATM   18  C   UNL     1      -7.528  19.715  69.103  1.00  0.00    -0.310 A  
HETATM   19  C   UNL     1      -6.283  20.245  69.435  1.00  0.00    -0.355 A  
HETATM   20  C   UNL     1      -5.161  19.906  68.681  1.00  0.00    -0.211 A  
HETATM   21  C   UNL     1      -5.286  19.044  67.590  1.00  0.00    -0.172 A  
HETATM   22  C   UNL     1      -6.537  18.517  67.246  1.00  0.00    -0.207 A  
ENDBRANCH  15  17
ENDBRANCH  10  13
ENDBRANCH   7  10
TORSDOF 3
ENDMDL
MODEL      124
REMARK 921   NORMALIZED FREE ENERGY PREDICTED BY IDOCK:   -3.96 KCAL/MOL
REMARK 922        TOTAL FREE ENERGY PREDICTED BY IDOCK:   -4.97 KCAL/MOL
REMARK 923 INTER-LIGAND FREE ENERGY PREDICTED BY IDOCK:   -4.70 KCAL/MOL
REMARK 924 INTRA-LIGAND FREE ENERGY PREDICTED BY IDOCK:   -0.27 KCAL/MOL
REMARK 927      BINDING AFFINITY PREDICTED BY RF-SCORE:    0.00 PKD
ROOT
HETATM    1  N   UNL     1      -7.921   8.923  72.668  1.00  0.00    -0.341 NA 
HETATM    2  H2  UNL     1      -7.764   7.969  72.996  1.00  0.00     0.000 HD 
HETATM    3  C   UNL     1      -8.237   8.875  71.304  1.00  0.00    -0.157 A  
HETATM    4  H1  UNL     1      -7.152   9.507  72.995  1.00  0.00     0.000 HD 
HETATM    5  C   UNL     1      -9.292   8.075  70.856  1.00  0.00    -0.169 A  
HETATM    6  C   UNL     1      -9.683   8.092  69.514  1.00  0.00    -0.170 A  
HETATM    7  C   UNL     1      -9.050   8.962  68.623  1.00  0.00    -0.137 A  
HETATM    8  C   UNL     1      -8.044   9.819  69.070  1.00  0.00    -0.101 A  
HETATM    9  C   UNL     1      -7.657   9.786  70.416  1.00  0.00    -0.165 A  
ENDROOT
BRANCH   7  10
HETATM   10  S   UNL     1      -9.522   8.947  66.910  1.00  0.00    -0.193 S  
HETATM   11  O   UNL     1      -8.363   8.670  66.091  1.00  0.00    -0.115 OA 
HETATM   12  O   UNL     1     -10.711   8.123  66.813  1.00  0.00    -0.278 OA 
BRANCH  10  13
HETATM   13  N   UNL     1     -10.036  10.501  66.599  1.00  0.00    -0.214 N  
HETATM   14  H   UNL     1     -10.114  11.148  67.384  1.00  0.00     0.000 HD 
HETATM   15  C   UNL     1     -10.368  10.968  65.321  1.00  0.00    -0.275 C  
HETATM   16  O   UNL     1     -10.303  10.276  64.317  1.00  0.00    -0.198 OA 
BRANCH  15  17
HETATM   17  C   UNL     1     -10.770  12.393  65.232  1.00  0.00    -0.322 A  
HETATM   18  C   UNL     1      -9.867  13.346  65.726  1.00  0.00    -0.213 A  
HETATM   19  C   UNL     1     -10.169  14.705  65.665  1.00  0.00    -0.382 A  
HETATM   20  C   UNL     1     -11.373  15.123  65.102  1.00  0.00    -0.357 A  
HETATM   21  C   UNL     1     -12.279  14.181  64.608  1.00  0.00    -0.465 A  
HETATM   22  C   UNL     1     -11.985  12.814  64.677  1.00  0.00    -0.453 A  
ENDBRANCH  15  17
ENDBRANCH  10  13
ENDBRANCH   7  10
TORSDOF 3
ENDMDL
MODEL      125
REMARK 921   NORMALIZED FREE ENERGY PREDICTED BY IDOCK:   -3.87 KCAL/MOL
REMARK 922        TOTAL FREE ENERGY PREDICTED BY IDOCK:   -4.88 KCAL/MOL
REMARK 923 INTER-LIGAND FREE ENERGY PREDICTED BY IDOCK:   -4.75 KCAL/MOL
REMARK 924 INTRA-LIGAND FREE ENERGY PREDICTED BY IDOCK:   -0.13 KCAL/MOL
REMARK 927      BINDING AFFINITY PREDICTED BY RF-SCORE:    0.00 PKD
ROOT
HETATM    1  N   UNL     1      -5.654  13.578  68.526  1.00  0.00    -0.082 NA 
HETATM    2  H2  UNL     1      -5.864  14.540  68.793  1.00  0.00     0.000 HD 
HETATM    3  C   UNL     1      -6.863  12.898  68.335  1.00  0.00    -0.096 A  
HETATM    4  H1  UNL     1      -4.956  13.208  69.172  1.00  0.00     0.000 HD 
HETATM    5  C   UNL     1      -7.820  13.403  67.448  1.00  0.00    -0.154 A  
HETATM    6  C   UNL     1      -8.988  12.687  67.172  1.00  0.00    -0.205 A  
HETATM    7  C   UNL     1      -9.175  11.426  67.743  1.00  0.00    -0.159 A  
HETATM    8  C   UNL     1      -8.197  10.876  68.573  1.00  0.00    -0.140 A  
HETATM    9  C   UNL     1      -7.034  11.608  68.847  1.00  0.00    -0.109 A  
ENDROOT
BRANCH   7  10
HETATM   10  S   UNL     1     -10.682  10.541  67.422  1.00  0.00    -0.285 S  
HETATM   11  O   UNL     1     -11.811  11.424  67.614  1.00  0.00    -0.609 OA 
HETATM   12  O   UNL     1     -10.494   9.840  66.167  1.00  0.00    -0.179 OA 
BRANCH  10  13
HETATM   13  N   UNL     1     -10.731   9.352  68.588  1.00  0.00    -0.345 N  
HETATM   14  H   UNL     1     -10.501   8.397  68.311  1.00  0.00     0.000 HD 
HETATM   15  C   UNL     1     -11.068   9.589  69.926  1.00  0.00    -0.216 C  
HETATM   16  O   UNL     1     -11.353  10.695  70.359  1.00  0.00    -0.307 OA 
BRANCH  15  17
HETATM   17  C   UNL     1     -11.022   8.413  70.829  1.00  0.00    -0.276 A  
HETATM   18  C   UNL     1     -10.713   7.173  70.250  1.00  0.00    -0.258 A  
HETATM   19  C   UNL     1     -10.638   6.025  71.037  1.00  0.00    -0.305 A  
HETATM   20  C   UNL     1     -10.864   6.109  72.409  1.00  0.00    -0.281 A  
HETATM   21  C   UNL     1     -11.173   7.338  72.994  1.00  0.00    -0.309 A  
HETATM   22  C   UNL     1     -11.260   8.493  72.206  1.00  0.00    -0.432 A  
ENDBRANCH  15  17
ENDBRANCH  10  13
ENDBRANCH   7  10
TORSDOF 3
ENDMDL
MODEL      126
REMARK 921   NORMALIZED FREE ENERGY PREDICTED BY IDOCK:   -3.68 KCAL/MOL
REMARK 922        TOTAL FREE ENERGY PREDICTED BY IDOCK:   -4.65 KCAL/MOL
REMARK 923 INTER-LIGAND FREE ENERGY PREDICTED BY IDOCK:   -4.84 KCAL/MOL
REMARK 924 INTRA-LIGAND FREE ENERGY PREDICTED BY IDOCK:    0.19 KCAL/MOL
REMARK 927      BINDING AFFINITY PREDICTED BY RF-SCORE:    0.00 PKD
ROOT
HETATM    1  N   UNL     1      -8.179   5.898  72.660  1.00  0.00    -0.112 NA 
HETATM    2  H2  UNL     1      -7.655   6.671  73.073  1.00  0.00     0.000 HD 
HETATM    3  C   UNL     1      -8.668   6.311  71.415  1.00  0.00    -0.135 A  
HETATM    4  H1  UNL     1      -8.818   5.531  73.365  1.00  0.00     0.000 HD 
HETATM    5  C   UNL     1      -7.792   6.815  70.449  1.00  0.00    -0.109 A  
HETATM    6  C   UNL     1      -8.248   7.139  69.167  1.00  0.00    -0.122 A  
HETATM    7  C   UNL     1      -9.584   6.900  68.831  1.00  0.00    -0.139 A  
HETATM    8  C   UNL     1     -10.453   6.331  69.762  1.00  0.00    -0.289 A  
HETATM    9  C   UNL     1      -9.984   6.019  71.043  1.00  0.00    -0.230 A  
ENDROOT
BRANCH   7  10
HETATM   10  S   UNL     1     -10.167   7.355  67.215  1.00  0.00    -0.290 S  
HETATM   11  O   UNL     1      -9.054   7.395  66.294  1.00  0.00    -0.166 OA 
HETATM   12  O   UNL     1     -11.325   6.526  66.943  1.00  0.00    -0.330 OA 
BRANCH  10  13
HETATM   13  N   UNL     1     -10.764   8.899  67.400  1.00  0.00    -0.431 N  
HETATM   14  H   UNL     1     -11.595   9.028  67.977  1.00  0.00     0.000 HD 
HETATM   15  C   UNL     1     -10.188  10.030  66.807  1.00  0.00    -0.232 C  
HETATM   16  O   UNL     1      -9.190   9.984  66.105  1.00  0.00    -0.154 OA 
BRANCH  15  17
HETATM   17  C   UNL     1     -10.836  11.329  67.115  1.00  0.00    -0.321 A  
HETATM   18  C   UNL     1     -11.113  12.178  66.033  1.00  0.00    -0.354 A  
HETATM   19  C   UNL     1     -11.733  13.408  66.241  1.00  0.00    -0.405 A  
HETATM   20  C   UNL     1     -12.089  13.796  67.531  1.00  0.00    -0.366 A  
HETATM   21  C   UNL     1     -11.816  12.958  68.614  1.00  0.00    -0.347 A  
HETATM   22  C   UNL     1     -11.184  11.725  68.411  1.00  0.00    -0.307 A  
ENDBRANCH  15  17
ENDBRANCH  10  13
ENDBRANCH   7  10
TORSDOF 3
ENDMDL
MODEL      127
REMARK 921   NORMALIZED FREE ENERGY PREDICTED BY IDOCK:   -3.68 KCAL/MOL
REMARK 922        TOTAL FREE ENERGY PREDICTED BY IDOCK:   -4.65 KCAL/MOL
REMARK 923 INTER-LIGAND FREE ENERGY PREDICTED BY IDOCK:   -4.77 KCAL/MOL
REMARK 924 INTRA-LIGAND FREE ENERGY PREDICTED BY IDOCK:    0.12 KCAL/MOL
REMARK 927      BINDING AFFINITY PREDICTED BY RF-SCORE:    0.00 PKD
ROOT
HETATM    1  N   UNL     1     -13.790  12.747  72.684  1.00  0.00    -0.676 NA 
HETATM    2  H2  UNL     1     -14.651  13.283  72.564  1.00  0.00     0.000 HD 
HETATM    3  C   UNL     1     -13.127  12.694  71.452  1.00  0.00    -0.216 A  
HETATM    4  H1  UNL     1     -14.014  11.886  73.182  1.00  0.00     0.000 HD 
HETATM    5  C   UNL     1     -12.819  13.875  70.769  1.00  0.00    -0.329 A  
HETATM    6  C   UNL     1     -12.071  13.845  69.588  1.00  0.00    -0.404 A  
HETATM    7  C   UNL     1     -11.576  12.626  69.117  1.00  0.00    -0.320 A  
HETATM    8  C   UNL     1     -11.813  11.448  69.826  1.00  0.00    -0.435 A  
HETATM    9  C   UNL     1     -12.570  11.492  71.004  1.00  0.00    -0.457 A  
ENDROOT
BRANCH   7  10
HETATM   10  S   UNL     1     -10.663  12.590  67.593  1.00  0.00    -0.223 S  
HETATM   11  O   UNL     1     -11.517  13.021  66.509  1.00  0.00    -0.309 OA 
HETATM   12  O   UNL     1      -9.399  13.251  67.849  1.00  0.00    -0.198 OA 
BRANCH  10  13
HETATM   13  N   UNL     1     -10.283  10.984  67.366  1.00  0.00    -0.189 N  
HETATM   14  H   UNL     1     -10.895  10.424  66.773  1.00  0.00     0.000 HD 
HETATM   15  C   UNL     1      -9.170  10.361  67.944  1.00  0.00    -0.139 C  
HETATM   16  O   UNL     1      -8.374  10.943  68.663  1.00  0.00    -0.133 OA 
BRANCH  15  17
HETATM   17  C   UNL     1      -8.971   8.931  67.599  1.00  0.00    -0.141 A  
HETATM   18  C   UNL     1      -7.961   8.631  66.673  1.00  0.00    -0.096 A  
HETATM   19  C   UNL     1      -7.705   7.310  66.310  1.00  0.00    -0.097 A  
HETATM   20  C   UNL     1      -8.452   6.279  66.875  1.00  0.00    -0.109 A  
HETATM   21  C   UNL     1      -9.461   6.568  67.796  1.00  0.00    -0.119 A  
HETATM   22  C   UNL     1      -9.728   7.895  68.157  1.00  0.00    -0.177 A  
ENDBRANCH  15  17
ENDBRANCH  10  13
ENDBRANCH   7  10
TORSDOF 3
ENDMDL
MODEL      128
REMARK 921   NORMALIZED FREE ENERGY PREDICTED BY IDOCK:   -3.67 KCAL/MOL
REMARK 922        TOTAL FREE ENERGY PREDICTED BY IDOCK:   -4.63 KCAL/MOL
REMARK 923 INTER-LIGAND FREE ENERGY PREDICTED BY IDOCK:   -4.52 KCAL/MOL
REMARK 924 INTRA-LIGAND FREE ENERGY PREDICTED BY IDOCK:   -0.12 KCAL/MOL
REMARK 927      BINDING AFFINITY PREDICTED BY RF-SCORE:    0.00 PKD
ROOT
HETATM    1  N   UNL     1     -11.193   2.382  73.331  1.00  0.00    -0.196 NA 
HETATM    2  H2  UNL     1     -12.185   2.509  73.132  1.00  0.00     0.000 HD 
HETATM    3  C   UNL     1     -10.558   3.626  73.225  1.00  0.00    -0.188 A  
HETATM    4  H1  UNL     1     -10.854   1.588  72.787  1.00  0.00     0.000 HD 
HETATM    5  C   UNL     1     -11.021   4.715  73.971  1.00  0.00    -0.261 A  
HETATM    6  C   UNL     1     -10.340   5.936  73.953  1.00  0.00    -0.287 A  
HETATM    7  C   UNL     1      -9.151   6.051  73.229  1.00  0.00    -0.129 A  
HETATM    8  C   UNL     1      -8.637   4.952  72.538  1.00  0.00    -0.120 A  
HETATM    9  C   UNL     1      -9.334   3.738  72.559  1.00  0.00    -0.164 A  
ENDROOT
BRANCH   7  10
HETATM   10  S   UNL     1      -8.314   7.618  73.175  1.00  0.00    -0.155 S  
HETATM   11  O   UNL     1      -8.231   8.167  74.510  1.00  0.00    -0.241 OA 
HETATM   12  O   UNL     1      -7.118   7.424  72.378  1.00  0.00    -0.068 OA 
BRANCH  10  13
HETATM   13  N   UNL     1      -9.302   8.594  72.256  1.00  0.00    -0.286 N  
HETATM   14  H   UNL     1      -9.816   9.339  72.728  1.00  0.00     0.000 HD 
HETATM   15  C   UNL     1      -9.468   8.449  70.873  1.00  0.00    -0.169 C  
HETATM   16  O   UNL     1      -8.896   7.595  70.215  1.00  0.00    -0.143 OA 
BRANCH  15  17
HETATM   17  C   UNL     1     -10.362   9.435  70.217  1.00  0.00    -0.293 A  
HETATM   18  C   UNL     1     -10.257   9.567  68.825  1.00  0.00    -0.215 A  
HETATM   19  C   UNL     1     -11.073  10.463  68.136  1.00  0.00    -0.344 A  
HETATM   20  C   UNL     1     -12.006  11.228  68.833  1.00  0.00    -0.378 A  
HETATM   21  C   UNL     1     -12.116  11.105  70.220  1.00  0.00    -0.462 A  
HETATM   22  C   UNL     1     -11.292  10.214  70.918  1.00  0.00    -0.420 A  
ENDBRANCH  15  17
ENDBRANCH  10  13
ENDBRANCH   7  10
TORSDOF 3
ENDMDL
MODEL      129
REMARK 921   NORMALIZED FREE ENERGY PREDICTED BY IDOCK:   -3.67 KCAL/MOL
REMARK 922        TOTAL FREE ENERGY PREDICTED BY IDOCK:   -4.63 KCAL/MOL
REMARK 923 INTER-LIGAND FREE ENERGY PREDICTED BY IDOCK:   -4.66 KCAL/MOL
REMARK 924 INTRA-LIGAND FREE ENERGY PREDICTED BY IDOCK:    0.02 KCAL/MOL
REMARK 927      BINDING AFFINITY PREDICTED BY RF-SCORE:    0.00 PKD
ROOT
HETATM    1  N   UNL     1      -5.286  13.995  68.480  1.00  0.00    -0.091 NA 
HETATM    2  H2  UNL     1      -5.546  14.760  69.104  1.00  0.00     0.000 HD 
HETATM    3  C   UNL     1      -6.444  13.282  68.146  1.00  0.00    -0.112 A  
HETATM    4  H1  UNL     1      -4.485  13.509  68.882  1.00  0.00     0.000 HD 
HETATM    5  C   UNL     1      -7.543  13.949  67.593  1.00  0.00    -0.188 A  
HETATM    6  C   UNL     1      -8.668  13.239  67.163  1.00  0.00    -0.215 A  
HETATM    7  C   UNL     1      -8.670  11.843  67.233  1.00  0.00    -0.171 A  
HETATM    8  C   UNL     1      -7.553  11.160  67.715  1.00  0.00    -0.100 A  
HETATM    9  C   UNL     1      -6.436  11.885  68.149  1.00  0.00    -0.052 A  
ENDROOT
BRANCH   7  10
HETATM   10  S   UNL     1     -10.120  10.950  66.726  1.00  0.00    -0.223 S  
HETATM   11  O   UNL     1     -10.923  11.785  65.859  1.00  0.00    -0.293 OA 
HETATM   12  O   UNL     1      -9.672   9.642  66.289  1.00  0.00    -0.202 OA 
BRANCH  10  13
HETATM   13  N   UNL     1     -10.965  10.679  68.136  1.00  0.00    -0.248 N  
HETATM   14  H   UNL     1     -11.765  11.277  68.340  1.00  0.00     0.000 HD 
HETATM   15  C   UNL     1     -10.636   9.676  69.056  1.00  0.00    -0.218 C  
HETATM   16  O   UNL     1      -9.702   8.904  68.903  1.00  0.00    -0.165 OA 
BRANCH  15  17
HETATM   17  C   UNL     1     -11.525   9.559  70.239  1.00  0.00    -0.256 A  
HETATM   18  C   UNL     1     -12.362  10.650  70.520  1.00  0.00    -0.448 A  
HETATM   19  C   UNL     1     -13.235  10.609  71.606  1.00  0.00    -0.495 A  
HETATM   20  C   UNL     1     -13.283   9.475  72.414  1.00  0.00    -0.451 A  
HETATM   21  C   UNL     1     -12.453   8.386  72.143  1.00  0.00    -0.422 A  
HETATM   22  C   UNL     1     -11.567   8.426  71.059  1.00  0.00    -0.307 A  
ENDBRANCH  15  17
ENDBRANCH  10  13
ENDBRANCH   7  10
TORSDOF 3
ENDMDL
MODEL      130
REMARK 921   NORMALIZED FREE ENERGY PREDICTED BY IDOCK:   -3.66 KCAL/MOL
REMARK 922        TOTAL FREE ENERGY PREDICTED BY IDOCK:   -4.62 KCAL/MOL
REMARK 923 INTER-LIGAND FREE ENERGY PREDICTED BY IDOCK:   -4.38 KCAL/MOL
REMARK 924 INTRA-LIGAND FREE ENERGY PREDICTED BY IDOCK:   -0.24 KCAL/MOL
REMARK 927      BINDING AFFINITY PREDICTED BY RF-SCORE:    0.00 PKD
ROOT
HETATM    1  N   UNL     1      -9.755   6.952  71.707  1.00  0.00    -0.160 NA 
HETATM    2  H2  UNL     1      -9.699   7.740  72.353  1.00  0.00     0.000 HD 
HETATM    3  C   UNL     1      -9.503   7.421  70.412  1.00  0.00    -0.165 A  
HETATM    4  H1  UNL     1     -10.610   6.433  71.905  1.00  0.00     0.000 HD 
HETATM    5  C   UNL     1      -8.329   8.132  70.140  1.00  0.00    -0.125 A  
HETATM    6  C   UNL     1      -8.015   8.522  68.835  1.00  0.00    -0.118 A  
HETATM    7  C   UNL     1      -8.855   8.145  67.783  1.00  0.00    -0.130 A  
HETATM    8  C   UNL     1      -9.991   7.375  68.029  1.00  0.00    -0.195 A  
HETATM    9  C   UNL     1     -10.297   6.998  69.343  1.00  0.00    -0.218 A  
ENDROOT
BRANCH   7  10
HETATM   10  S   UNL     1      -8.472   8.682  66.132  1.00  0.00    -0.141 S  
HETATM   11  O   UNL     1      -7.162   9.293  66.114  1.00  0.00    -0.089 OA 
HETATM   12  O   UNL     1      -8.785   7.573  65.252  1.00  0.00    -0.066 OA 
BRANCH  10  13
HETATM   13  N   UNL     1      -9.611   9.849  65.792  1.00  0.00    -0.229 N  
HETATM   14  H   UNL     1     -10.348   9.622  65.125  1.00  0.00     0.000 HD 
HETATM   15  C   UNL     1      -9.612  11.124  66.371  1.00  0.00    -0.200 C  
HETATM   16  O   UNL     1      -8.779  11.492  67.184  1.00  0.00    -0.150 OA 
BRANCH  15  17
HETATM   17  C   UNL     1     -10.728  12.019  65.975  1.00  0.00    -0.317 A  
HETATM   18  C   UNL     1     -11.166  12.954  66.925  1.00  0.00    -0.331 A  
HETATM   19  C   UNL     1     -12.200  13.838  66.621  1.00  0.00    -0.454 A  
HETATM   20  C   UNL     1     -12.798  13.799  65.363  1.00  0.00    -0.455 A  
HETATM   21  C   UNL     1     -12.369  12.870  64.412  1.00  0.00    -0.468 A  
HETATM   22  C   UNL     1     -11.338  11.973  64.716  1.00  0.00    -0.369 A  
ENDBRANCH  15  17
ENDBRANCH  10  13
ENDBRANCH   7  10
TORSDOF 3
ENDMDL
MODEL      131
REMARK 921   NORMALIZED FREE ENERGY PREDICTED BY IDOCK:   -3.65 KCAL/MOL
REMARK 922        TOTAL FREE ENERGY PREDICTED BY IDOCK:   -4.61 KCAL/MOL
REMARK 923 INTER-LIGAND FREE ENERGY PREDICTED BY IDOCK:   -4.34 KCAL/MOL
REMARK 924 INTRA-LIGAND FREE ENERGY PREDICTED BY IDOCK:   -0.27 KCAL/MOL
REMARK 927      BINDING AFFINITY PREDICTED BY RF-SCORE:    0.00 PKD
ROOT
HETATM    1  N   UNL     1     -11.984  11.480  67.698  1.00  0.00    -0.634 NA 
HETATM    2  H2  UNL     1     -11.979  12.338  68.252  1.00  0.00     0.000 HD 
HETATM    3  C   UNL     1     -10.920  10.674  68.122  1.00  0.00    -0.269 A  
HETATM    4  H1  UNL     1     -12.073  11.732  66.714  1.00  0.00     0.000 HD 
HETATM    5  C   UNL     1     -10.797  10.328  69.472  1.00  0.00    -0.292 A  
HETATM    6  C   UNL     1      -9.799   9.445  69.896  1.00  0.00    -0.235 A  
HETATM    7  C   UNL     1      -8.953   8.857  68.952  1.00  0.00    -0.137 A  
HETATM    8  C   UNL     1      -9.110   9.137  67.594  1.00  0.00    -0.133 A  
HETATM    9  C   UNL     1     -10.108  10.029  67.185  1.00  0.00    -0.265 A  
ENDROOT
BRANCH   7  10
HETATM   10  S   UNL     1      -7.659   7.770  69.503  1.00  0.00    -0.102 S  
HETATM   11  O   UNL     1      -7.167   6.999  68.383  1.00  0.00    -0.082 OA 
HETATM   12  O   UNL     1      -6.756   8.571  70.306  1.00  0.00    -0.038 OA 
BRANCH  10  13
HETATM   13  N   UNL     1      -8.404   6.736  70.576  1.00  0.00    -0.128 N  
HETATM   14  H   UNL     1      -8.123   6.776  71.556  1.00  0.00     0.000 HD 
HETATM   15  C   UNL     1      -9.394   5.817  70.209  1.00  0.00    -0.156 C  
HETATM   16  O   UNL     1      -9.805   5.695  69.065  1.00  0.00    -0.138 OA 
BRANCH  15  17
HETATM   17  C   UNL     1      -9.970   5.004  71.309  1.00  0.00    -0.264 A  
HETATM   18  C   UNL     1      -9.600   3.651  71.365  1.00  0.00    -0.237 A  
HETATM   19  C   UNL     1     -10.090   2.828  72.378  1.00  0.00    -0.234 A  
HETATM   20  C   UNL     1     -10.945   3.351  73.345  1.00  0.00    -0.306 A  
HETATM   21  C   UNL     1     -11.319   4.695  73.295  1.00  0.00    -0.393 A  
HETATM   22  C   UNL     1     -10.839   5.525  72.274  1.00  0.00    -0.297 A  
ENDBRANCH  15  17
ENDBRANCH  10  13
ENDBRANCH   7  10
TORSDOF 3
ENDMDL
MODEL      132
REMARK 921   NORMALIZED FREE ENERGY PREDICTED BY IDOCK:   -3.61 KCAL/MOL
REMARK 922        TOTAL FREE ENERGY PREDICTED BY IDOCK:   -4.57 KCAL/MOL
REMARK 923 INTER-LIGAND FREE ENERGY PREDICTED BY IDOCK:   -4.65 KCAL/MOL
REMARK 924 INTRA-LIGAND FREE ENERGY PREDICTED BY IDOCK:    0.07 KCAL/MOL
REMARK 927      BINDING AFFINITY PREDICTED BY RF-SCORE:    0.00 PKD
ROOT
HETATM    1  N   UNL     1     -11.165   6.524  66.890  1.00  0.00    -0.776 NA 
HETATM    2  H2  UNL     1     -12.030   6.747  66.396  1.00  0.00     0.000 HD 
HETATM    3  C   UNL     1     -10.302   7.622  66.787  1.00  0.00    -0.273 A  
HETATM    4  H1  UNL     1     -10.854   5.599  66.592  1.00  0.00     0.000 HD 
HETATM    5  C   UNL     1     -10.728   8.890  67.195  1.00  0.00    -0.203 A  
HETATM    6  C   UNL     1      -9.848   9.976  67.192  1.00  0.00    -0.231 A  
HETATM    7  C   UNL     1      -8.512   9.779  66.833  1.00  0.00    -0.120 A  
HETATM    8  C   UNL     1      -8.054   8.506  66.493  1.00  0.00    -0.103 A  
HETATM    9  C   UNL     1      -8.949   7.429  66.493  1.00  0.00    -0.184 A  
ENDROOT
BRANCH   7  10
HETATM   10  S   UNL     1      -7.410  11.172  66.789  1.00  0.00    -0.145 S  
HETATM   11  O   UNL     1      -7.036  11.535  68.138  1.00  0.00    -0.070 OA 
HETATM   12  O   UNL     1      -6.398  10.871  65.795  1.00  0.00    -0.116 OA 
BRANCH  10  13
HETATM   13  N   UNL     1      -8.316  12.408  66.136  1.00  0.00    -0.245 N  
HETATM   14  H   UNL     1      -8.505  12.388  65.133  1.00  0.00     0.000 HD 
HETATM   15  C   UNL     1      -8.833  13.472  66.885  1.00  0.00    -0.182 C  
HETATM   16  O   UNL     1      -8.669  13.585  68.090  1.00  0.00    -0.164 OA 
BRANCH  15  17
HETATM   17  C   UNL     1      -9.648  14.461  66.138  1.00  0.00    -0.309 A  
HETATM   18  C   UNL     1     -10.439  13.975  65.086  1.00  0.00    -0.415 A  
HETATM   19  C   UNL     1     -11.242  14.841  64.347  1.00  0.00    -0.184 A  
HETATM   20  C   UNL     1     -11.266  16.199  64.658  1.00  0.00    -0.307 A  
HETATM   21  C   UNL     1     -10.482  16.692  65.702  1.00  0.00    -0.313 A  
HETATM   22  C   UNL     1      -9.665  15.828  66.441  1.00  0.00    -0.305 A  
ENDBRANCH  15  17
ENDBRANCH  10  13
ENDBRANCH   7  10
TORSDOF 3
ENDMDL
MODEL      133
REMARK 921   NORMALIZED FREE ENERGY PREDICTED BY IDOCK:   -3.60 KCAL/MOL
REMARK 922        TOTAL FREE ENERGY PREDICTED BY IDOCK:   -4.55 KCAL/MOL
REMARK 923 INTER-LIGAND FREE ENERGY PREDICTED BY IDOCK:   -4.24 KCAL/MOL
REMARK 924 INTRA-LIGAND FREE ENERGY PREDICTED BY IDOCK:   -0.31 KCAL/MOL
REMARK 927      BINDING AFFINITY PREDICTED BY RF-SCORE:    0.00 PKD
ROOT
HETATM    1  N   UNL     1     -13.278  13.961  71.295  1.00  0.00    -0.310 NA 
HETATM    2  H2  UNL     1     -13.810  14.607  70.710  1.00  0.00     0.000 HD 
HETATM    3  C   UNL     1     -12.561  13.096  70.460  1.00  0.00    -0.165 A  
HETATM    4  H1  UNL     1     -13.902  13.583  72.008  1.00  0.00     0.000 HD 
HETATM    5  C   UNL     1     -11.705  13.614  69.482  1.00  0.00    -0.380 A  
HETATM    6  C   UNL     1     -10.908  12.766  68.707  1.00  0.00    -0.270 A  
HETATM    7  C   UNL     1     -10.924  11.390  68.952  1.00  0.00    -0.226 A  
HETATM    8  C   UNL     1     -11.719  10.866  69.972  1.00  0.00    -0.427 A  
HETATM    9  C   UNL     1     -12.518  11.726  70.735  1.00  0.00    -0.405 A  
ENDROOT
BRANCH   7  10
HETATM   10  S   UNL     1      -9.942  10.314  67.934  1.00  0.00    -0.170 S  
HETATM   11  O   UNL     1     -10.631  10.068  66.687  1.00  0.00    -0.198 OA 
HETATM   12  O   UNL     1      -8.595  10.849  67.944  1.00  0.00    -0.126 OA 
BRANCH  10  13
HETATM   13  N   UNL     1      -9.856   8.887  68.788  1.00  0.00    -0.169 N  
HETATM   14  H   UNL     1     -10.320   8.840  69.695  1.00  0.00     0.000 HD 
HETATM   15  C   UNL     1      -9.183   7.748  68.330  1.00  0.00    -0.139 C  
HETATM   16  O   UNL     1      -8.602   7.698  67.257  1.00  0.00    -0.120 OA 
BRANCH  15  17
HETATM   17  C   UNL     1      -9.244   6.555  69.211  1.00  0.00    -0.139 A  
HETATM   18  C   UNL     1      -8.792   6.709  70.529  1.00  0.00    -0.152 A  
HETATM   19  C   UNL     1      -8.832   5.638  71.420  1.00  0.00    -0.141 A  
HETATM   20  C   UNL     1      -9.331   4.406  71.001  1.00  0.00    -0.216 A  
HETATM   21  C   UNL     1      -9.782   4.243  69.690  1.00  0.00    -0.284 A  
HETATM   22  C   UNL     1      -9.734   5.314  68.788  1.00  0.00    -0.203 A  
ENDBRANCH  15  17
ENDBRANCH  10  13
ENDBRANCH   7  10
TORSDOF 3
ENDMDL
MODEL      134
REMARK 921   NORMALIZED FREE ENERGY PREDICTED BY IDOCK:   -3.59 KCAL/MOL
REMARK 922        TOTAL FREE ENERGY PREDICTED BY IDOCK:   -4.55 KCAL/MOL
REMARK 923 INTER-LIGAND FREE ENERGY PREDICTED BY IDOCK:   -4.27 KCAL/MOL
REMARK 924 INTRA-LIGAND FREE ENERGY PREDICTED BY IDOCK:   -0.28 KCAL/MOL
REMARK 927      BINDING AFFINITY PREDICTED BY RF-SCORE:    0.00 PKD
ROOT
HETATM    1  N   UNL     1     -10.604  13.805  66.973  1.00  0.00    -0.277 NA 
HETATM    2  H2  UNL     1     -10.111  13.574  66.110  1.00  0.00     0.000 HD 
HETATM    3  C   UNL     1     -10.691  12.647  67.757  1.00  0.00    -0.220 A  
HETATM    4  H1  UNL     1     -11.449  14.324  66.732  1.00  0.00     0.000 HD 
HETATM    5  C   UNL     1      -9.533  11.936  68.088  1.00  0.00    -0.195 A  
HETATM    6  C   UNL     1      -9.590  10.837  68.950  1.00  0.00    -0.204 A  
HETATM    7  C   UNL     1     -10.809  10.481  69.532  1.00  0.00    -0.256 A  
HETATM    8  C   UNL     1     -11.960  11.225  69.269  1.00  0.00    -0.411 A  
HETATM    9  C   UNL     1     -11.889  12.319  68.398  1.00  0.00    -0.358 A  
ENDROOT
BRANCH   7  10
HETATM   10  S   UNL     1     -10.882   9.056  70.592  1.00  0.00    -0.261 S  
HETATM   11  O   UNL     1      -9.936   9.210  71.674  1.00  0.00    -0.316 OA 
HETATM   12  O   UNL     1     -12.286   8.812  70.863  1.00  0.00    -0.240 OA 
BRANCH  10  13
HETATM   13  N   UNL     1     -10.392   7.788  69.630  1.00  0.00    -0.208 N  
HETATM   14  H   UNL     1      -9.984   8.004  68.720  1.00  0.00     0.000 HD 
HETATM   15  C   UNL     1     -10.508   6.443  70.000  1.00  0.00    -0.215 C  
HETATM   16  O   UNL     1     -10.976   6.079  71.067  1.00  0.00    -0.271 OA 
BRANCH  15  17
HETATM   17  C   UNL     1      -9.983   5.451  69.029  1.00  0.00    -0.260 A  
HETATM   18  C   UNL     1      -9.509   5.945  67.804  1.00  0.00    -0.114 A  
HETATM   19  C   UNL     1      -8.988   5.076  66.847  1.00  0.00    -0.112 A  
HETATM   20  C   UNL     1      -8.930   3.709  67.109  1.00  0.00    -0.162 A  
HETATM   21  C   UNL     1      -9.400   3.209  68.325  1.00  0.00    -0.246 A  
HETATM   22  C   UNL     1      -9.934   4.076  69.286  1.00  0.00     0.057 A  
ENDBRANCH  15  17
ENDBRANCH  10  13
ENDBRANCH   7  10
TORSDOF 3
ENDMDL
MODEL      135
REMARK 921   NORMALIZED FREE ENERGY PREDICTED BY IDOCK:   -3.59 KCAL/MOL
REMARK 922        TOTAL FREE ENERGY PREDICTED BY IDOCK:   -4.54 KCAL/MOL
REMARK 923 INTER-LIGAND FREE ENERGY PREDICTED BY IDOCK:   -4.37 KCAL/MOL
REMARK 924 INTRA-LIGAND FREE ENERGY PREDICTED BY IDOCK:   -0.17 KCAL/MOL
REMARK 927      BINDING AFFINITY PREDICTED BY RF-SCORE:    0.00 PKD
ROOT
HETATM    1  N   UNL     1      -9.080   1.659  70.396  1.00  0.00    -0.076 NA 
HETATM    2  H2  UNL     1     -10.018   1.527  70.017  1.00  0.00     0.000 HD 
HETATM    3  C   UNL     1      -9.033   2.903  71.039  1.00  0.00    -0.095 A  
HETATM    4  H1  UNL     1      -8.403   1.435  69.667  1.00  0.00     0.000 HD 
HETATM    5  C   UNL     1      -9.960   3.210  72.039  1.00  0.00    -0.223 A  
HETATM    6  C   UNL     1      -9.867   4.406  72.758  1.00  0.00    -0.194 A  
HETATM    7  C   UNL     1      -8.801   5.276  72.513  1.00  0.00    -0.127 A  
HETATM    8  C   UNL     1      -7.828   4.949  71.568  1.00  0.00    -0.105 A  
HETATM    9  C   UNL     1      -7.938   3.751  70.851  1.00  0.00    -0.065 A  
ENDROOT
BRANCH   7  10
HETATM   10  S   UNL     1      -8.714   6.813  73.399  1.00  0.00    -0.125 S  
HETATM   11  O   UNL     1      -9.567   6.748  74.565  1.00  0.00    -0.251 OA 
HETATM   12  O   UNL     1      -7.307   7.140  73.527  1.00  0.00    -0.076 OA 
BRANCH  10  13
HETATM   13  N   UNL     1      -9.335   7.945  72.346  1.00  0.00    -0.168 N  
HETATM   14  H   UNL     1      -8.679   8.528  71.825  1.00  0.00     0.000 HD 
HETATM   15  C   UNL     1     -10.705   8.139  72.136  1.00  0.00    -0.293 C  
HETATM   16  O   UNL     1     -11.570   7.491  72.704  1.00  0.00    -0.317 OA 
BRANCH  15  17
HETATM   17  C   UNL     1     -11.071   9.169  71.131  1.00  0.00    -0.393 A  
HETATM   18  C   UNL     1     -12.092  10.066  71.477  1.00  0.00    -0.475 A  
HETATM   19  C   UNL     1     -12.481  11.069  70.590  1.00  0.00    -0.465 A  
HETATM   20  C   UNL     1     -11.848  11.187  69.355  1.00  0.00    -0.415 A  
HETATM   21  C   UNL     1     -10.831  10.297  69.002  1.00  0.00    -0.265 A  
HETATM   22  C   UNL     1     -10.444   9.281  69.884  1.00  0.00    -0.247 A  
ENDBRANCH  15  17
ENDBRANCH  10  13
ENDBRANCH   7  10
TORSDOF 3
ENDMDL
MODEL      136
REMARK 921   NORMALIZED FREE ENERGY PREDICTED BY IDOCK:   -3.59 KCAL/MOL
REMARK 922        TOTAL FREE ENERGY PREDICTED BY IDOCK:   -4.54 KCAL/MOL
REMARK 923 INTER-LIGAND FREE ENERGY PREDICTED BY IDOCK:   -4.34 KCAL/MOL
REMARK 924 INTRA-LIGAND FREE ENERGY PREDICTED BY IDOCK:   -0.20 KCAL/MOL
REMARK 927      BINDING AFFINITY PREDICTED BY RF-SCORE:    0.00 PKD
ROOT
HETATM    1  N   UNL     1     -12.948  14.362  65.037  1.00  0.00    -0.588 NA 
HETATM    2  H2  UNL     1     -12.564  15.286  64.839  1.00  0.00     0.000 HD 
HETATM    3  C   UNL     1     -11.907  13.537  65.484  1.00  0.00    -0.363 A  
HETATM    4  H1  UNL     1     -13.523  14.075  64.245  1.00  0.00     0.000 HD 
HETATM    5  C   UNL     1     -11.119  13.930  66.571  1.00  0.00    -0.310 A  
HETATM    6  C   UNL     1     -10.142  13.076  67.091  1.00  0.00    -0.244 A  
HETATM    7  C   UNL     1      -9.993  11.793  66.557  1.00  0.00    -0.204 A  
HETATM    8  C   UNL     1     -10.820  11.361  65.521  1.00  0.00    -0.282 A  
HETATM    9  C   UNL     1     -11.790  12.230  65.004  1.00  0.00    -0.412 A  
ENDROOT
BRANCH   7  10
HETATM   10  S   UNL     1      -8.720  10.730  67.195  1.00  0.00    -0.132 S  
HETATM   11  O   UNL     1      -7.470  11.019  66.528  1.00  0.00    -0.139 OA 
HETATM   12  O   UNL     1      -8.819  10.783  68.640  1.00  0.00    -0.139 OA 
BRANCH  10  13
HETATM   13  N   UNL     1      -9.205   9.192  66.776  1.00  0.00    -0.149 N  
HETATM   14  H   UNL     1     -10.175   9.054  66.494  1.00  0.00     0.000 HD 
HETATM   15  C   UNL     1      -8.355   8.079  66.790  1.00  0.00    -0.116 C  
HETATM   16  O   UNL     1      -7.177   8.139  67.106  1.00  0.00    -0.081 OA 
BRANCH  15  17
HETATM   17  C   UNL     1      -8.955   6.795  66.350  1.00  0.00    -0.165 A  
HETATM   18  C   UNL     1      -8.387   6.175  65.227  1.00  0.00    -0.144 A  
HETATM   19  C   UNL     1      -8.887   4.960  64.763  1.00  0.00    -0.147 A  
HETATM   20  C   UNL     1      -9.954   4.352  65.421  1.00  0.00    -0.231 A  
HETATM   21  C   UNL     1     -10.527   4.963  66.538  1.00  0.00    -0.299 A  
HETATM   22  C   UNL     1     -10.034   6.189  67.003  1.00  0.00    -0.200 A  
ENDBRANCH  15  17
ENDBRANCH  10  13
ENDBRANCH   7  10
TORSDOF 3
ENDMDL
MODEL      137
REMARK 921   NORMALIZED FREE ENERGY PREDICTED BY IDOCK:   -3.56 KCAL/MOL
REMARK 922        TOTAL FREE ENERGY PREDICTED BY IDOCK:   -4.51 KCAL/MOL
REMARK 923 INTER-LIGAND FREE ENERGY PREDICTED BY IDOCK:   -4.62 KCAL/MOL
REMARK 924 INTRA-LIGAND FREE ENERGY PREDICTED BY IDOCK:    0.11 KCAL/MOL
REMARK 927      BINDING AFFINITY PREDICTED BY RF-SCORE:    0.00 PKD
ROOT
HETATM    1  N   UNL     1     -10.923   5.176  66.142  1.00  0.00    -0.719 NA 
HETATM    2  H2  UNL     1     -11.772   4.618  66.235  1.00  0.00     0.000 HD 
HETATM    3  C   UNL     1     -10.960   6.202  67.096  1.00  0.00    -0.331 A  
HETATM    4  H1  UNL     1     -10.791   5.401  65.156  1.00  0.00     0.000 HD 
HETATM    5  C   UNL     1     -11.140   5.895  68.448  1.00  0.00    -0.158 A  
HETATM    6  C   UNL     1     -11.081   6.895  69.423  1.00  0.00    -0.249 A  
HETATM    7  C   UNL     1     -10.781   8.207  69.046  1.00  0.00    -0.080 A  
HETATM    8  C   UNL     1     -10.528   8.516  67.710  1.00  0.00    -0.287 A  
HETATM    9  C   UNL     1     -10.598   7.505  66.743  1.00  0.00    -0.269 A  
ENDROOT
BRANCH   7  10
HETATM   10  S   UNL     1     -10.751   9.481  70.285  1.00  0.00    -0.287 S  
HETATM   11  O   UNL     1     -12.043  10.129  70.342  1.00  0.00    -0.272 OA 
HETATM   12  O   UNL     1     -10.163   8.893  71.473  1.00  0.00    -0.270 OA 
BRANCH  10  13
HETATM   13  N   UNL     1      -9.627  10.580  69.734  1.00  0.00    -0.423 N  
HETATM   14  H   UNL     1      -8.674  10.514  70.092  1.00  0.00     0.000 HD 
HETATM   15  C   UNL     1      -9.917  11.589  68.807  1.00  0.00    -0.157 C  
HETATM   16  O   UNL     1     -11.022  11.750  68.315  1.00  0.00    -0.203 OA 
BRANCH  15  17
HETATM   17  C   UNL     1      -8.779  12.452  68.406  1.00  0.00    -0.132 A  
HETATM   18  C   UNL     1      -9.082  13.754  67.981  1.00  0.00    -0.191 A  
HETATM   19  C   UNL     1      -8.064  14.628  67.601  1.00  0.00    -0.185 A  
HETATM   20  C   UNL     1      -6.736  14.210  67.651  1.00  0.00    -0.188 A  
HETATM   21  C   UNL     1      -6.426  12.915  68.071  1.00  0.00    -0.108 A  
HETATM   22  C   UNL     1      -7.445  12.030  68.444  1.00  0.00    -0.110 A  
ENDBRANCH  15  17
ENDBRANCH  10  13
ENDBRANCH   7  10
TORSDOF 3
ENDMDL
MODEL      138
REMARK 921   NORMALIZED FREE ENERGY PREDICTED BY IDOCK:   -3.54 KCAL/MOL
REMARK 922        TOTAL FREE ENERGY PREDICTED BY IDOCK:   -4.49 KCAL/MOL
REMARK 923 INTER-LIGAND FREE ENERGY PREDICTED BY IDOCK:   -4.38 KCAL/MOL
REMARK 924 INTRA-LIGAND FREE ENERGY PREDICTED BY IDOCK:   -0.11 KCAL/MOL
REMARK 927      BINDING AFFINITY PREDICTED BY RF-SCORE:    0.00 PKD
ROOT
HETATM    1  N   UNL     1      -9.614  11.332  69.082  1.00  0.00    -0.411 NA 
HETATM    2  H2  UNL     1      -8.849  11.076  68.457  1.00  0.00     0.000 HD 
HETATM    3  C   UNL     1      -9.972  10.202  69.829  1.00  0.00    -0.220 A  
HETATM    4  H1  UNL     1     -10.320  11.830  68.540  1.00  0.00     0.000 HD 
HETATM    5  C   UNL     1      -9.004   9.518  70.573  1.00  0.00    -0.265 A  
HETATM    6  C   UNL     1      -9.362   8.450  71.401  1.00  0.00    -0.247 A  
HETATM    7  C   UNL     1     -10.709   8.100  71.531  1.00  0.00    -0.233 A  
HETATM    8  C   UNL     1     -11.692   8.819  70.851  1.00  0.00    -0.299 A  
HETATM    9  C   UNL     1     -11.319   9.882  70.020  1.00  0.00    -0.303 A  
ENDROOT
BRANCH   7  10
HETATM   10  S   UNL     1     -11.151   6.714  72.551  1.00  0.00    -0.265 S  
HETATM   11  O   UNL     1     -10.733   6.963  73.913  1.00  0.00    -0.323 OA 
HETATM   12  O   UNL     1     -12.533   6.397  72.246  1.00  0.00    -0.230 OA 
BRANCH  10  13
HETATM   13  N   UNL     1     -10.263   5.442  71.944  1.00  0.00    -0.197 N  
HETATM   14  H   UNL     1      -9.688   4.904  72.593  1.00  0.00     0.000 HD 
HETATM   15  C   UNL     1     -10.261   5.070  70.594  1.00  0.00    -0.235 C  
HETATM   16  O   UNL     1     -10.918   5.644  69.740  1.00  0.00    -0.345 OA 
BRANCH  15  17
HETATM   17  C   UNL     1      -9.436   3.887  70.245  1.00  0.00    -0.255 A  
HETATM   18  C   UNL     1      -9.002   3.780  68.916  1.00  0.00    -0.178 A  
HETATM   19  C   UNL     1      -8.211   2.704  68.515  1.00  0.00    -0.076 A  
HETATM   20  C   UNL     1      -7.844   1.731  69.441  1.00  0.00    -0.048 A  
HETATM   21  C   UNL     1      -8.274   1.828  70.766  1.00  0.00    -0.063 A  
HETATM   22  C   UNL     1      -9.076   2.902  71.172  1.00  0.00    -0.182 A  
ENDBRANCH  15  17
ENDBRANCH  10  13
ENDBRANCH   7  10
TORSDOF 3
ENDMDL
MODEL      139
REMARK 921   NORMALIZED FREE ENERGY PREDICTED BY IDOCK:   -3.53 KCAL/MOL
REMARK 922        TOTAL FREE ENERGY PREDICTED BY IDOCK:   -4.48 KCAL/MOL
REMARK 923 INTER-LIGAND FREE ENERGY PREDICTED BY IDOCK:   -4.23 KCAL/MOL
REMARK 924 INTRA-LIGAND FREE ENERGY PREDICTED BY IDOCK:   -0.24 KCAL/MOL
REMARK 927      BINDING AFFINITY PREDICTED BY RF-SCORE:    0.00 PKD
ROOT
HETATM    1  N   UNL     1     -12.399  13.256  70.071  1.00  0.00    -0.248 NA 
HETATM    2  H2  UNL     1     -12.319  13.797  70.932  1.00  0.00     0.000 HD 
HETATM    3  C   UNL     1     -12.039  11.930  70.346  1.00  0.00    -0.333 A  
HETATM    4  H1  UNL     1     -11.930  13.768  69.324  1.00  0.00     0.000 HD 
HETATM    5  C   UNL     1     -12.682  11.228  71.370  1.00  0.00    -0.501 A  
HETATM    6  C   UNL     1     -12.405   9.875  71.593  1.00  0.00    -0.496 A  
HETATM    7  C   UNL     1     -11.520   9.205  70.746  1.00  0.00    -0.282 A  
HETATM    8  C   UNL     1     -10.925   9.874  69.676  1.00  0.00    -0.285 A  
HETATM    9  C   UNL     1     -11.206  11.230  69.469  1.00  0.00    -0.337 A  
ENDROOT
BRANCH   7  10
HETATM   10  S   UNL     1     -11.139   7.498  71.062  1.00  0.00    -0.262 S  
HETATM   11  O   UNL     1     -10.569   7.367  72.384  1.00  0.00    -0.219 OA 
HETATM   12  O   UNL     1     -12.310   6.733  70.680  1.00  0.00    -0.359 OA 
BRANCH  10  13
HETATM   13  N   UNL     1      -9.973   7.109  69.937  1.00  0.00    -0.180 N  
HETATM   14  H   UNL     1      -9.832   7.745  69.152  1.00  0.00     0.000 HD 
HETATM   15  C   UNL     1      -9.176   5.960  70.011  1.00  0.00    -0.148 C  
HETATM   16  O   UNL     1      -9.262   5.141  70.912  1.00  0.00    -0.139 OA 
BRANCH  15  17
HETATM   17  C   UNL     1      -8.164   5.799  68.938  1.00  0.00    -0.101 A  
HETATM   18  C   UNL     1      -7.846   4.489  68.550  1.00  0.00    -0.079 A  
HETATM   19  C   UNL     1      -6.914   4.258  67.539  1.00  0.00    -0.063 A  
HETATM   20  C   UNL     1      -6.299   5.335  66.903  1.00  0.00    -0.040 A  
HETATM   21  C   UNL     1      -6.609   6.642  67.284  1.00  0.00    -0.054 A  
HETATM   22  C   UNL     1      -7.536   6.879  68.306  1.00  0.00    -0.107 A  
ENDBRANCH  15  17
ENDBRANCH  10  13
ENDBRANCH   7  10
TORSDOF 3
ENDMDL
MODEL      140
REMARK 921   NORMALIZED FREE ENERGY PREDICTED BY IDOCK:   -3.51 KCAL/MOL
REMARK 922        TOTAL FREE ENERGY PREDICTED BY IDOCK:   -4.45 KCAL/MOL
REMARK 923 INTER-LIGAND FREE ENERGY PREDICTED BY IDOCK:   -4.15 KCAL/MOL
REMARK 924 INTRA-LIGAND FREE ENERGY PREDICTED BY IDOCK:   -0.30 KCAL/MOL
REMARK 927      BINDING AFFINITY PREDICTED BY RF-SCORE:    0.00 PKD
ROOT
HETATM    1  N   UNL     1     -11.718  12.347  69.839  1.00  0.00    -0.475 NA 
HETATM    2  H2  UNL     1     -11.398  12.759  70.716  1.00  0.00     0.000 HD 
HETATM    3  C   UNL     1     -11.292  11.013  69.795  1.00  0.00    -0.292 A  
HETATM    4  H1  UNL     1     -11.482  12.984  69.078  1.00  0.00     0.000 HD 
HETATM    5  C   UNL     1     -11.615  10.139  70.838  1.00  0.00    -0.459 A  
HETATM    6  C   UNL     1     -11.283   8.783  70.763  1.00  0.00    -0.309 A  
HETATM    7  C   UNL     1     -10.673   8.285  69.609  1.00  0.00    -0.194 A  
HETATM    8  C   UNL     1     -10.409   9.131  68.531  1.00  0.00    -0.236 A  
HETATM    9  C   UNL     1     -10.740  10.488  68.622  1.00  0.00    -0.247 A  
ENDROOT
BRANCH   7  10
HETATM   10  S   UNL     1     -10.214   6.570  69.539  1.00  0.00    -0.198 S  
HETATM   11  O   UNL     1      -8.994   6.366  70.288  1.00  0.00    -0.152 OA 
HETATM   12  O   UNL     1     -11.408   5.807  69.845  1.00  0.00    -0.287 OA 
BRANCH  10  13
HETATM   13  N   UNL     1      -9.905   6.280  67.928  1.00  0.00    -0.121 N  
HETATM   14  H   UNL     1      -9.982   7.060  67.275  1.00  0.00     0.000 HD 
HETATM   15  C   UNL     1      -9.546   5.025  67.420  1.00  0.00    -0.145 C  
HETATM   16  O   UNL     1      -9.421   4.031  68.117  1.00  0.00    -0.157 OA 
BRANCH  15  17
HETATM   17  C   UNL     1      -9.274   4.966  65.962  1.00  0.00    -0.151 A  
HETATM   18  C   UNL     1      -9.988   4.016  65.216  1.00  0.00    -0.193 A  
HETATM   19  C   UNL     1      -9.796   3.910  63.840  1.00  0.00    -0.176 A  
HETATM   20  C   UNL     1      -8.896   4.757  63.198  1.00  0.00    -0.117 A  
HETATM   21  C   UNL     1      -8.180   5.704  63.933  1.00  0.00    -0.094 A  
HETATM   22  C   UNL     1      -8.360   5.808  65.317  1.00  0.00    -0.146 A  
ENDBRANCH  15  17
ENDBRANCH  10  13
ENDBRANCH   7  10
TORSDOF 3
ENDMDL
MODEL      141
REMARK 921   NORMALIZED FREE ENERGY PREDICTED BY IDOCK:   -3.47 KCAL/MOL
REMARK 922        TOTAL FREE ENERGY PREDICTED BY IDOCK:   -4.40 KCAL/MOL
REMARK 923 INTER-LIGAND FREE ENERGY PREDICTED BY IDOCK:   -4.68 KCAL/MOL
REMARK 924 INTRA-LIGAND FREE ENERGY PREDICTED BY IDOCK:    0.29 KCAL/MOL
REMARK 927      BINDING AFFINITY PREDICTED BY RF-SCORE:    0.00 PKD
ROOT
HETATM    1  N   UNL     1     -10.253   7.897  70.414  1.00  0.00    -0.195 NA 
HETATM    2  H2  UNL     1      -9.247   7.903  70.248  1.00  0.00     0.000 HD 
HETATM    3  C   UNL     1     -10.699   9.224  70.476  1.00  0.00    -0.257 A  
HETATM    4  H1  UNL     1     -10.449   7.256  71.183  1.00  0.00     0.000 HD 
HETATM    5  C   UNL     1     -10.431  10.103  69.422  1.00  0.00    -0.254 A  
HETATM    6  C   UNL     1     -10.952  11.401  69.422  1.00  0.00    -0.260 A  
HETATM    7  C   UNL     1     -11.798  11.803  70.459  1.00  0.00    -0.192 A  
HETATM    8  C   UNL     1     -12.132  10.914  71.481  1.00  0.00    -0.125 A  
HETATM    9  C   UNL     1     -11.597   9.620  71.471  1.00  0.00    -0.451 A  
ENDROOT
BRANCH   7  10
HETATM   10  S   UNL     1     -12.421  13.467  70.476  1.00  0.00    -0.262 S  
HETATM   11  O   UNL     1     -13.809  13.459  70.880  1.00  0.00     0.349 OA 
HETATM   12  O   UNL     1     -11.446  14.269  71.190  1.00  0.00    -0.110 OA 
BRANCH  10  13
HETATM   13  N   UNL     1     -12.329  13.969  68.891  1.00  0.00    -0.508 N  
HETATM   14  H   UNL     1     -13.175  13.928  68.323  1.00  0.00     0.000 HD 
HETATM   15  C   UNL     1     -11.155  14.445  68.294  1.00  0.00    -0.259 C  
HETATM   16  O   UNL     1     -10.092  14.539  68.887  1.00  0.00    -0.234 OA 
BRANCH  15  17
HETATM   17  C   UNL     1     -11.272  14.882  66.881  1.00  0.00    -0.343 A  
HETATM   18  C   UNL     1     -12.183  14.188  66.070  1.00  0.00    -0.464 A  
HETATM   19  C   UNL     1     -12.358  14.551  64.735  1.00  0.00    -0.403 A  
HETATM   20  C   UNL     1     -11.631  15.613  64.204  1.00  0.00    -0.082 A  
HETATM   21  C   UNL     1     -10.722  16.309  65.003  1.00  0.00    -0.319 A  
HETATM   22  C   UNL     1     -10.534  15.942  66.341  1.00  0.00    -0.311 A  
ENDBRANCH  15  17
ENDBRANCH  10  13
ENDBRANCH   7  10
TORSDOF 3
ENDMDL
MODEL      142
REMARK 921   NORMALIZED FREE ENERGY PREDICTED BY IDOCK:   -3.44 KCAL/MOL
REMARK 922        TOTAL FREE ENERGY PREDICTED BY IDOCK:   -4.37 KCAL/MOL
REMARK 923 INTER-LIGAND FREE ENERGY PREDICTED BY IDOCK:   -4.07 KCAL/MOL
REMARK 924 INTRA-LIGAND FREE ENERGY PREDICTED BY IDOCK:   -0.30 KCAL/MOL
REMARK 927      BINDING AFFINITY PREDICTED BY RF-SCORE:    0.00 PKD
ROOT
HETATM    1  N   UNL     1      -7.934   5.471  64.776  1.00  0.00    -0.107 NA 
HETATM    2  H2  UNL     1      -7.438   5.304  63.900  1.00  0.00     0.000 HD 
HETATM    3  C   UNL     1      -7.634   6.767  65.214  1.00  0.00    -0.092 A  
HETATM    4  H1  UNL     1      -7.777   4.674  65.392  1.00  0.00     0.000 HD 
HETATM    5  C   UNL     1      -7.850   7.861  64.369  1.00  0.00    -0.139 A  
HETATM    6  C   UNL     1      -7.650   9.168  64.824  1.00  0.00    -0.108 A  
HETATM    7  C   UNL     1      -7.287   9.385  66.156  1.00  0.00    -0.096 A  
HETATM    8  C   UNL     1      -7.138   8.308  67.031  1.00  0.00    -0.079 A  
HETATM    9  C   UNL     1      -7.334   7.004  66.559  1.00  0.00    -0.083 A  
ENDROOT
BRANCH   7  10
HETATM   10  S   UNL     1      -6.992  11.045  66.716  1.00  0.00    -0.139 S  
HETATM   11  O   UNL     1      -7.017  11.079  68.162  1.00  0.00    -0.066 OA 
HETATM   12  O   UNL     1      -5.840  11.533  65.983  1.00  0.00    -0.152 OA 
BRANCH  10  13
HETATM   13  N   UNL     1      -8.285  11.922  66.140  1.00  0.00    -0.377 N  
HETATM   14  H   UNL     1      -8.108  12.629  65.426  1.00  0.00     0.000 HD 
HETATM   15  C   UNL     1      -9.603  11.744  66.580  1.00  0.00    -0.205 C  
HETATM   16  O   UNL     1      -9.921  10.922  67.425  1.00  0.00    -0.180 OA 
BRANCH  15  17
HETATM   17  C   UNL     1     -10.630  12.591  65.926  1.00  0.00    -0.292 A  
HETATM   18  C   UNL     1     -10.506  12.793  64.543  1.00  0.00    -0.392 A  
HETATM   19  C   UNL     1     -11.441  13.566  63.856  1.00  0.00    -0.289 A  
HETATM   20  C   UNL     1     -12.509  14.136  64.544  1.00  0.00    -0.350 A  
HETATM   21  C   UNL     1     -12.640  13.942  65.920  1.00  0.00    -0.498 A  
HETATM   22  C   UNL     1     -11.698  13.175  66.617  1.00  0.00    -0.427 A  
ENDBRANCH  15  17
ENDBRANCH  10  13
ENDBRANCH   7  10
TORSDOF 3
ENDMDL
MODEL      143
REMARK 921   NORMALIZED FREE ENERGY PREDICTED BY IDOCK:   -3.43 KCAL/MOL
REMARK 922        TOTAL FREE ENERGY PREDICTED BY IDOCK:   -4.35 KCAL/MOL
REMARK 923 INTER-LIGAND FREE ENERGY PREDICTED BY IDOCK:   -4.21 KCAL/MOL
REMARK 924 INTRA-LIGAND FREE ENERGY PREDICTED BY IDOCK:   -0.14 KCAL/MOL
REMARK 927      BINDING AFFINITY PREDICTED BY RF-SCORE:    0.00 PKD
ROOT
HETATM    1  N   UNL     1     -12.371  10.803  69.371  1.00  0.00    -0.631 NA 
HETATM    2  H2  UNL     1     -11.995  10.696  68.428  1.00  0.00     0.000 HD 
HETATM    3  C   UNL     1     -11.702   9.910  70.217  1.00  0.00    -0.216 A  
HETATM    4  H1  UNL     1     -13.389  10.790  69.316  1.00  0.00     0.000 HD 
HETATM    5  C   UNL     1     -10.305   9.929  70.293  1.00  0.00    -0.339 A  
HETATM    6  C   UNL     1      -9.627   9.114  71.205  1.00  0.00    -0.347 A  
HETATM    7  C   UNL     1     -10.357   8.315  72.089  1.00  0.00    -0.300 A  
HETATM    8  C   UNL     1     -11.752   8.340  72.074  1.00  0.00    -0.407 A  
HETATM    9  C   UNL     1     -12.417   9.155  71.151  1.00  0.00    -0.315 A  
ENDROOT
BRANCH   7  10
HETATM   10  S   UNL     1      -9.488   7.249  73.215  1.00  0.00    -0.219 S  
HETATM   11  O   UNL     1      -8.177   7.795  73.483  1.00  0.00    -0.145 OA 
HETATM   12  O   UNL     1     -10.404   6.954  74.299  1.00  0.00    -0.346 OA 
BRANCH  10  13
HETATM   13  N   UNL     1      -9.309   5.815  72.386  1.00  0.00    -0.144 N  
HETATM   14  H   UNL     1      -9.987   5.072  72.559  1.00  0.00     0.000 HD 
HETATM   15  C   UNL     1      -8.282   5.573  71.467  1.00  0.00    -0.119 C  
HETATM   16  O   UNL     1      -7.426   6.396  71.185  1.00  0.00    -0.082 OA 
BRANCH  15  17
HETATM   17  C   UNL     1      -8.304   4.248  70.797  1.00  0.00    -0.091 A  
HETATM   18  C   UNL     1      -9.464   3.474  70.950  1.00  0.00    -0.236 A  
HETATM   19  C   UNL     1      -9.564   2.225  70.340  1.00  0.00    -0.107 A  
HETATM   20  C   UNL     1      -8.510   1.744  69.566  1.00  0.00    -0.080 A  
HETATM   21  C   UNL     1      -7.351   2.507  69.410  1.00  0.00    -0.044 A  
HETATM   22  C   UNL     1      -7.241   3.758  70.030  1.00  0.00    -0.042 A  
ENDBRANCH  15  17
ENDBRANCH  10  13
ENDBRANCH   7  10
TORSDOF 3
ENDMDL
MODEL      144
REMARK 921   NORMALIZED FREE ENERGY PREDICTED BY IDOCK:   -3.39 KCAL/MOL
REMARK 922        TOTAL FREE ENERGY PREDICTED BY IDOCK:   -4.31 KCAL/MOL
REMARK 923 INTER-LIGAND FREE ENERGY PREDICTED BY IDOCK:   -4.09 KCAL/MOL
REMARK 924 INTRA-LIGAND FREE ENERGY PREDICTED BY IDOCK:   -0.22 KCAL/MOL
REMARK 927      BINDING AFFINITY PREDICTED BY RF-SCORE:    0.00 PKD
ROOT
HETATM    1  N   UNL     1      -5.125  17.177  69.818  1.00  0.00    -0.160 NA 
HETATM    2  H2  UNL     1      -4.108  17.172  69.895  1.00  0.00     0.000 HD 
HETATM    3  C   UNL     1      -5.526  15.998  69.176  1.00  0.00    -0.111 A  
HETATM    4  H1  UNL     1      -5.416  18.083  69.451  1.00  0.00     0.000 HD 
HETATM    5  C   UNL     1      -5.128  14.755  69.679  1.00  0.00    -0.088 A  
HETATM    6  C   UNL     1      -5.599  13.569  69.109  1.00  0.00    -0.075 A  
HETATM    7  C   UNL     1      -6.524  13.626  68.063  1.00  0.00    -0.138 A  
HETATM    8  C   UNL     1      -6.985  14.858  67.598  1.00  0.00    -0.207 A  
HETATM    9  C   UNL     1      -6.499  16.039  68.173  1.00  0.00    -0.132 A  
ENDROOT
BRANCH   7  10
HETATM   10  S   UNL     1      -7.085  12.115  67.315  1.00  0.00    -0.124 S  
HETATM   11  O   UNL     1      -6.100  11.653  66.362  1.00  0.00    -0.101 OA 
HETATM   12  O   UNL     1      -7.530  11.257  68.395  1.00  0.00    -0.095 OA 
BRANCH  10  13
HETATM   13  N   UNL     1      -8.468  12.540  66.490  1.00  0.00    -0.413 N  
HETATM   14  H   UNL     1      -8.939  13.405  66.753  1.00  0.00     0.000 HD 
HETATM   15  C   UNL     1      -9.020  11.774  65.455  1.00  0.00     0.104 C  
HETATM   16  O   UNL     1      -8.532  10.727  65.061  1.00  0.00    -0.163 OA 
BRANCH  15  17
HETATM   17  C   UNL     1     -10.237  12.330  64.811  1.00  0.00    -0.308 A  
HETATM   18  C   UNL     1     -10.613  13.633  65.171  1.00  0.00    -0.371 A  
HETATM   19  C   UNL     1     -11.736  14.227  64.598  1.00  0.00    -0.439 A  
HETATM   20  C   UNL     1     -12.486  13.527  63.656  1.00  0.00    -0.278 A  
HETATM   21  C   UNL     1     -12.120  12.230  63.293  1.00  0.00    -0.518 A  
HETATM   22  C   UNL     1     -10.999  11.624  63.873  1.00  0.00    -0.478 A  
ENDBRANCH  15  17
ENDBRANCH  10  13
ENDBRANCH   7  10
TORSDOF 3
ENDMDL
MODEL      145
REMARK 921   NORMALIZED FREE ENERGY PREDICTED BY IDOCK:   -3.37 KCAL/MOL
REMARK 922        TOTAL FREE ENERGY PREDICTED BY IDOCK:   -4.29 KCAL/MOL
REMARK 923 INTER-LIGAND FREE ENERGY PREDICTED BY IDOCK:   -4.08 KCAL/MOL
REMARK 924 INTRA-LIGAND FREE ENERGY PREDICTED BY IDOCK:   -0.21 KCAL/MOL
REMARK 927      BINDING AFFINITY PREDICTED BY RF-SCORE:    0.00 PKD
ROOT
HETATM    1  N   UNL     1      -8.421  15.560  67.420  1.00  0.00    -0.168 NA 
HETATM    2  H2  UNL     1      -7.698  15.895  66.783  1.00  0.00     0.000 HD 
HETATM    3  C   UNL     1      -8.554  14.176  67.248  1.00  0.00    -0.218 A  
HETATM    4  H1  UNL     1      -9.236  16.166  67.331  1.00  0.00     0.000 HD 
HETATM    5  C   UNL     1      -7.436  13.344  67.371  1.00  0.00    -0.134 A  
HETATM    6  C   UNL     1      -7.569  11.953  67.301  1.00  0.00    -0.154 A  
HETATM    7  C   UNL     1      -8.839  11.388  67.166  1.00  0.00    -0.156 A  
HETATM    8  C   UNL     1      -9.971  12.203  67.114  1.00  0.00    -0.210 A  
HETATM    9  C   UNL     1      -9.823  13.594  67.178  1.00  0.00    -0.242 A  
ENDROOT
BRANCH   7  10
HETATM   10  S   UNL     1      -8.995   9.623  67.033  1.00  0.00    -0.135 S  
HETATM   11  O   UNL     1     -10.059   9.300  66.109  1.00  0.00    -0.288 OA 
HETATM   12  O   UNL     1      -7.657   9.101  66.835  1.00  0.00    -0.090 OA 
BRANCH  10  13
HETATM   13  N   UNL     1      -9.443   9.122  68.558  1.00  0.00    -0.145 N  
HETATM   14  H   UNL     1      -9.346   9.783  69.329  1.00  0.00     0.000 HD 
HETATM   15  C   UNL     1      -9.945   7.846  68.839  1.00  0.00    -0.190 C  
HETATM   16  O   UNL     1     -10.106   6.986  67.988  1.00  0.00    -0.155 OA 
BRANCH  15  17
HETATM   17  C   UNL     1     -10.326   7.592  70.251  1.00  0.00    -0.215 A  
HETATM   18  C   UNL     1     -10.196   6.277  70.722  1.00  0.00    -0.238 A  
HETATM   19  C   UNL     1     -10.521   5.964  72.041  1.00  0.00    -0.259 A  
HETATM   20  C   UNL     1     -10.971   6.964  72.900  1.00  0.00    -0.315 A  
HETATM   21  C   UNL     1     -11.105   8.275  72.440  1.00  0.00    -0.447 A  
HETATM   22  C   UNL     1     -10.789   8.593  71.113  1.00  0.00    -0.320 A  
ENDBRANCH  15  17
ENDBRANCH  10  13
ENDBRANCH   7  10
TORSDOF 3
ENDMDL
MODEL      146
REMARK 921   NORMALIZED FREE ENERGY PREDICTED BY IDOCK:   -3.36 KCAL/MOL
REMARK 922        TOTAL FREE ENERGY PREDICTED BY IDOCK:   -4.27 KCAL/MOL
REMARK 923 INTER-LIGAND FREE ENERGY PREDICTED BY IDOCK:   -4.10 KCAL/MOL
REMARK 924 INTRA-LIGAND FREE ENERGY PREDICTED BY IDOCK:   -0.17 KCAL/MOL
REMARK 927      BINDING AFFINITY PREDICTED BY RF-SCORE:    0.00 PKD
ROOT
HETATM    1  N   UNL     1      -8.787   2.276  71.835  1.00  0.00    -0.071 NA 
HETATM    2  H2  UNL     1      -7.868   2.067  72.226  1.00  0.00     0.000 HD 
HETATM    3  C   UNL     1      -9.089   3.617  72.107  1.00  0.00    -0.107 A  
HETATM    4  H1  UNL     1      -9.433   1.540  72.118  1.00  0.00     0.000 HD 
HETATM    5  C   UNL     1      -8.203   4.628  71.718  1.00  0.00    -0.105 A  
HETATM    6  C   UNL     1      -8.534   5.975  71.893  1.00  0.00    -0.133 A  
HETATM    7  C   UNL     1      -9.788   6.315  72.408  1.00  0.00    -0.164 A  
HETATM    8  C   UNL     1     -10.710   5.320  72.733  1.00  0.00    -0.292 A  
HETATM    9  C   UNL     1     -10.362   3.974  72.560  1.00  0.00    -0.223 A  
ENDROOT
BRANCH   7  10
HETATM   10  S   UNL     1     -10.184   8.028  72.669  1.00  0.00    -0.327 S  
HETATM   11  O   UNL     1     -11.580   8.151  73.024  1.00  0.00    -0.309 OA 
HETATM   12  O   UNL     1      -9.149   8.568  73.529  1.00  0.00    -0.183 OA 
BRANCH  10  13
HETATM   13  N   UNL     1      -9.945   8.747  71.186  1.00  0.00    -0.224 N  
HETATM   14  H   UNL     1      -9.344   9.570  71.141  1.00  0.00     0.000 HD 
HETATM   15  C   UNL     1     -10.524   8.286  69.997  1.00  0.00    -0.231 C  
HETATM   16  O   UNL     1     -11.253   7.309  69.941  1.00  0.00    -0.244 OA 
BRANCH  15  17
HETATM   17  C   UNL     1     -10.167   9.034  68.765  1.00  0.00    -0.226 A  
HETATM   18  C   UNL     1     -10.346   8.373  67.541  1.00  0.00    -0.333 A  
HETATM   19  C   UNL     1     -10.046   9.015  66.341  1.00  0.00    -0.351 A  
HETATM   20  C   UNL     1      -9.572  10.325  66.355  1.00  0.00    -0.233 A  
HETATM   21  C   UNL     1      -9.390  10.990  67.569  1.00  0.00    -0.167 A  
HETATM   22  C   UNL     1      -9.680  10.346  68.778  1.00  0.00    -0.184 A  
ENDBRANCH  15  17
ENDBRANCH  10  13
ENDBRANCH   7  10
TORSDOF 3
ENDMDL
MODEL      147
REMARK 921   NORMALIZED FREE ENERGY PREDICTED BY IDOCK:   -3.36 KCAL/MOL
REMARK 922        TOTAL FREE ENERGY PREDICTED BY IDOCK:   -4.27 KCAL/MOL
REMARK 923 INTER-LIGAND FREE ENERGY PREDICTED BY IDOCK:   -3.99 KCAL/MOL
REMARK 924 INTRA-LIGAND FREE ENERGY PREDICTED BY IDOCK:   -0.28 KCAL/MOL
REMARK 927      BINDING AFFINITY PREDICTED BY RF-SCORE:    0.00 PKD
ROOT
HETATM    1  N   UNL     1      -8.974  14.980  69.242  1.00  0.00    -0.357 NA 
HETATM    2  H2  UNL     1      -8.066  15.446  69.240  1.00  0.00     0.000 HD 
HETATM    3  C   UNL     1      -8.955  13.970  68.272  1.00  0.00    -0.190 A  
HETATM    4  H1  UNL     1      -9.703  15.694  69.221  1.00  0.00     0.000 HD 
HETATM    5  C   UNL     1      -7.957  12.990  68.300  1.00  0.00    -0.151 A  
HETATM    6  C   UNL     1      -7.980  11.920  67.400  1.00  0.00    -0.162 A  
HETATM    7  C   UNL     1      -9.044  11.797  66.503  1.00  0.00    -0.203 A  
HETATM    8  C   UNL     1     -10.084  12.726  66.512  1.00  0.00    -0.264 A  
HETATM    9  C   UNL     1     -10.044  13.797  67.413  1.00  0.00    -0.244 A  
ENDROOT
BRANCH   7  10
HETATM   10  S   UNL     1      -9.043  10.459  65.334  1.00  0.00    -0.203 S  
HETATM   11  O   UNL     1     -10.251  10.510  64.540  1.00  0.00    -0.348 OA 
HETATM   12  O   UNL     1      -7.739  10.460  64.700  1.00  0.00    -0.140 OA 
BRANCH  10  13
HETATM   13  N   UNL     1      -9.078   9.080  66.269  1.00  0.00    -0.166 N  
HETATM   14  H   UNL     1      -8.283   8.443  66.215  1.00  0.00     0.000 HD 
HETATM   15  C   UNL     1     -10.136   8.748  67.124  1.00  0.00    -0.252 C  
HETATM   16  O   UNL     1     -11.128   9.445  67.264  1.00  0.00    -0.085 OA 
BRANCH  15  17
HETATM   17  C   UNL     1      -9.974   7.498  67.906  1.00  0.00    -0.203 A  
HETATM   18  C   UNL     1      -8.712   6.886  67.882  1.00  0.00    -0.121 A  
HETATM   19  C   UNL     1      -8.480   5.717  68.604  1.00  0.00    -0.105 A  
HETATM   20  C   UNL     1      -9.505   5.154  69.360  1.00  0.00    -0.198 A  
HETATM   21  C   UNL     1     -10.765   5.755  69.389  1.00  0.00    -0.397 A  
HETATM   22  C   UNL     1     -11.006   6.924  68.658  1.00  0.00    -0.203 A  
ENDBRANCH  15  17
ENDBRANCH  10  13
ENDBRANCH   7  10
TORSDOF 3
ENDMDL
MODEL      148
REMARK 921   NORMALIZED FREE ENERGY PREDICTED BY IDOCK:   -3.33 KCAL/MOL
REMARK 922        TOTAL FREE ENERGY PREDICTED BY IDOCK:   -4.23 KCAL/MOL
REMARK 923 INTER-LIGAND FREE ENERGY PREDICTED BY IDOCK:   -3.95 KCAL/MOL
REMARK 924 INTRA-LIGAND FREE ENERGY PREDICTED BY IDOCK:   -0.28 KCAL/MOL
REMARK 927      BINDING AFFINITY PREDICTED BY RF-SCORE:    0.00 PKD
ROOT
HETATM    1  N   UNL     1      -7.968  13.304  68.617  1.00  0.00    -0.285 NA 
HETATM    2  H2  UNL     1      -8.798  13.841  68.872  1.00  0.00     0.000 HD 
HETATM    3  C   UNL     1      -8.348  11.971  68.419  1.00  0.00    -0.151 A  
HETATM    4  H1  UNL     1      -7.223  13.531  69.275  1.00  0.00     0.000 HD 
HETATM    5  C   UNL     1      -9.370  11.659  67.517  1.00  0.00    -0.168 A  
HETATM    6  C   UNL     1      -9.695  10.329  67.235  1.00  0.00    -0.199 A  
HETATM    7  C   UNL     1      -8.949   9.300  67.816  1.00  0.00    -0.126 A  
HETATM    8  C   UNL     1      -7.880   9.596  68.662  1.00  0.00    -0.081 A  
HETATM    9  C   UNL     1      -7.571  10.932  68.942  1.00  0.00    -0.128 A  
ENDROOT
BRANCH   7  10
HETATM   10  S   UNL     1      -9.395   7.611  67.487  1.00  0.00    -0.142 S  
HETATM   11  O   UNL     1     -10.588   7.577  66.671  1.00  0.00    -0.268 OA 
HETATM   12  O   UNL     1      -8.184   6.937  67.060  1.00  0.00    -0.117 OA 
BRANCH  10  13
HETATM   13  N   UNL     1      -9.752   6.969  68.982  1.00  0.00    -0.145 N  
HETATM   14  H   UNL     1      -9.749   7.595  69.788  1.00  0.00     0.000 HD 
HETATM   15  C   UNL     1     -10.056   5.618  69.194  1.00  0.00    -0.208 C  
HETATM   16  O   UNL     1     -10.091   4.790  68.298  1.00  0.00    -0.123 OA 
BRANCH  15  17
HETATM   17  C   UNL     1     -10.384   5.236  70.590  1.00  0.00    -0.324 A  
HETATM   18  C   UNL     1      -9.878   4.013  71.054  1.00  0.00    -0.230 A  
HETATM   19  C   UNL     1     -10.133   3.592  72.359  1.00  0.00    -0.233 A  
HETATM   20  C   UNL     1     -10.889   4.394  73.210  1.00  0.00    -0.336 A  
HETATM   21  C   UNL     1     -11.399   5.612  72.756  1.00  0.00    -0.350 A  
HETATM   22  C   UNL     1     -11.154   6.034  71.444  1.00  0.00    -0.336 A  
ENDBRANCH  15  17
ENDBRANCH  10  13
ENDBRANCH   7  10
TORSDOF 3
ENDMDL
MODEL      149
REMARK 921   NORMALIZED FREE ENERGY PREDICTED BY IDOCK:   -3.31 KCAL/MOL
REMARK 922        TOTAL FREE ENERGY PREDICTED BY IDOCK:   -4.21 KCAL/MOL
REMARK 923 INTER-LIGAND FREE ENERGY PREDICTED BY IDOCK:   -3.94 KCAL/MOL
REMARK 924 INTRA-LIGAND FREE ENERGY PREDICTED BY IDOCK:   -0.28 KCAL/MOL
REMARK 927      BINDING AFFINITY PREDICTED BY RF-SCORE:    0.00 PKD
ROOT
HETATM    1  N   UNL     1      -9.463  10.739  65.217  1.00  0.00    -0.204 NA 
HETATM    2  H2  UNL     1      -9.810  10.110  64.493  1.00  0.00     0.000 HD 
HETATM    3  C   UNL     1      -9.967  10.311  66.452  1.00  0.00    -0.229 A  
HETATM    4  H1  UNL     1      -9.614  11.700  64.909  1.00  0.00     0.000 HD 
HETATM    5  C   UNL     1      -9.760   8.994  66.876  1.00  0.00    -0.260 A  
HETATM    6  C   UNL     1     -10.169   8.578  68.146  1.00  0.00    -0.254 A  
HETATM    7  C   UNL     1     -10.738   9.505  69.024  1.00  0.00    -0.202 A  
HETATM    8  C   UNL     1     -10.885  10.839  68.643  1.00  0.00    -0.260 A  
HETATM    9  C   UNL     1     -10.477  11.239  67.364  1.00  0.00    -0.247 A  
ENDROOT
BRANCH   7  10
HETATM   10  S   UNL     1     -11.295   8.959  70.621  1.00  0.00    -0.238 S  
HETATM   11  O   UNL     1     -11.829  10.084  71.356  1.00  0.00    -0.370 OA 
HETATM   12  O   UNL     1     -12.096   7.771  70.399  1.00  0.00    -0.006 OA 
BRANCH  10  13
HETATM   13  N   UNL     1      -9.917   8.425  71.390  1.00  0.00    -0.197 N  
HETATM   14  H   UNL     1      -9.027   8.518  70.901  1.00  0.00     0.000 HD 
HETATM   15  C   UNL     1      -9.914   7.856  72.670  1.00  0.00    -0.266 C  
HETATM   16  O   UNL     1     -10.923   7.705  73.339  1.00  0.00    -0.371 OA 
BRANCH  15  17
HETATM   17  C   UNL     1      -8.585   7.472  73.209  1.00  0.00    -0.203 A  
HETATM   18  C   UNL     1      -7.908   8.427  73.981  1.00  0.00    -0.215 A  
HETATM   19  C   UNL     1      -6.662   8.134  74.533  1.00  0.00    -0.157 A  
HETATM   20  C   UNL     1      -6.087   6.882  74.323  1.00  0.00    -0.071 A  
HETATM   21  C   UNL     1      -6.754   5.926  73.554  1.00  0.00    -0.079 A  
HETATM   22  C   UNL     1      -8.001   6.219  72.989  1.00  0.00    -0.107 A  
ENDBRANCH  15  17
ENDBRANCH  10  13
ENDBRANCH   7  10
TORSDOF 3
ENDMDL
MODEL      150
REMARK 921   NORMALIZED FREE ENERGY PREDICTED BY IDOCK:   -3.27 KCAL/MOL
REMARK 922        TOTAL FREE ENERGY PREDICTED BY IDOCK:   -4.17 KCAL/MOL
REMARK 923 INTER-LIGAND FREE ENERGY PREDICTED BY IDOCK:   -4.12 KCAL/MOL
REMARK 924 INTRA-LIGAND FREE ENERGY PREDICTED BY IDOCK:   -0.05 KCAL/MOL
REMARK 927      BINDING AFFINITY PREDICTED BY RF-SCORE:    0.00 PKD
ROOT
HETATM    1  N   UNL     1     -11.031   5.731  67.087  1.00  0.00    -0.464 NA 
HETATM    2  H2  UNL     1     -11.982   5.920  66.769  1.00  0.00     0.000 HD 
HETATM    3  C   UNL     1     -10.244   6.859  66.825  1.00  0.00    -0.206 A  
HETATM    4  H1  UNL     1     -10.749   4.817  66.733  1.00  0.00     0.000 HD 
HETATM    5  C   UNL     1     -10.630   8.112  67.311  1.00  0.00    -0.344 A  
HETATM    6  C   UNL     1      -9.807   9.230  67.143  1.00  0.00    -0.251 A  
HETATM    7  C   UNL     1      -8.558   9.080  66.534  1.00  0.00    -0.120 A  
HETATM    8  C   UNL     1      -8.127   7.823  66.109  1.00  0.00    -0.113 A  
HETATM    9  C   UNL     1      -8.966   6.714  66.277  1.00  0.00    -0.168 A  
ENDROOT
BRANCH   7  10
HETATM   10  S   UNL     1      -7.535  10.512  66.285  1.00  0.00    -0.137 S  
HETATM   11  O   UNL     1      -6.470  10.521  67.263  1.00  0.00    -0.067 OA 
HETATM   12  O   UNL     1      -7.240  10.570  64.867  1.00  0.00    -0.089 OA 
BRANCH  10  13
HETATM   13  N   UNL     1      -8.542  11.806  66.580  1.00  0.00    -0.263 N  
HETATM   14  H   UNL     1      -9.537  11.697  66.381  1.00  0.00     0.000 HD 
HETATM   15  C   UNL     1      -8.098  13.035  67.084  1.00  0.00    -0.107 C  
HETATM   16  O   UNL     1      -6.932  13.266  67.358  1.00  0.00    -0.160 OA 
BRANCH  15  17
HETATM   17  C   UNL     1      -9.146  14.060  67.317  1.00  0.00    -0.224 A  
HETATM   18  C   UNL     1      -9.770  14.063  68.573  1.00  0.00    -0.215 A  
HETATM   19  C   UNL     1     -10.754  15.005  68.871  1.00  0.00    -0.240 A  
HETATM   20  C   UNL     1     -11.115  15.955  67.918  1.00  0.00    -0.317 A  
HETATM   21  C   UNL     1     -10.500  15.959  66.665  1.00  0.00    -0.306 A  
HETATM   22  C   UNL     1      -9.519  15.008  66.357  1.00  0.00    -0.325 A  
ENDBRANCH  15  17
ENDBRANCH  10  13
ENDBRANCH   7  10
TORSDOF 3
ENDMDL
MODEL      151
REMARK 921   NORMALIZED FREE ENERGY PREDICTED BY IDOCK:   -3.18 KCAL/MOL
REMARK 922        TOTAL FREE ENERGY PREDICTED BY IDOCK:   -4.06 KCAL/MOL
REMARK 923 INTER-LIGAND FREE ENERGY PREDICTED BY IDOCK:   -4.26 KCAL/MOL
REMARK 924 INTRA-LIGAND FREE ENERGY PREDICTED BY IDOCK:    0.20 KCAL/MOL
REMARK 927      BINDING AFFINITY PREDICTED BY RF-SCORE:    0.00 PKD
ROOT
HETATM    1  N   UNL     1      -9.749   9.612  63.731  1.00  0.00    -0.413 NA 
HETATM    2  H2  UNL     1      -9.733  10.565  63.367  1.00  0.00     0.000 HD 
HETATM    3  C   UNL     1      -9.624   9.668  65.125  1.00  0.00    -0.254 A  
HETATM    4  H1  UNL     1      -9.101   9.047  63.182  1.00  0.00     0.000 HD 
HETATM    5  C   UNL     1     -10.513  10.442  65.878  1.00  0.00    -0.196 A  
HETATM    6  C   UNL     1     -10.465  10.432  67.275  1.00  0.00    -0.304 A  
HETATM    7  C   UNL     1      -9.556   9.593  67.926  1.00  0.00    -0.139 A  
HETATM    8  C   UNL     1      -8.712   8.761  67.190  1.00  0.00    -0.127 A  
HETATM    9  C   UNL     1      -8.767   8.788  65.791  1.00  0.00    -0.209 A  
ENDROOT
BRANCH   7  10
HETATM   10  S   UNL     1      -9.471   9.617  69.701  1.00  0.00    -0.223 S  
HETATM   11  O   UNL     1      -8.211  10.195  70.116  1.00  0.00    -0.135 OA 
HETATM   12  O   UNL     1     -10.728  10.165  70.171  1.00  0.00    -0.273 OA 
BRANCH  10  13
HETATM   13  N   UNL     1      -9.495   8.013  70.148  1.00  0.00    -0.160 N  
HETATM   14  H   UNL     1      -8.875   7.368  69.657  1.00  0.00     0.000 HD 
HETATM   15  C   UNL     1     -10.317   7.500  71.159  1.00  0.00    -0.200 C  
HETATM   16  O   UNL     1     -11.088   8.188  71.808  1.00  0.00    -0.246 OA 
BRANCH  15  17
HETATM   17  C   UNL     1     -10.175   6.051  71.443  1.00  0.00    -0.253 A  
HETATM   18  C   UNL     1      -9.962   5.202  70.347  1.00  0.00    -0.316 A  
HETATM   19  C   UNL     1      -9.805   3.830  70.536  1.00  0.00    -0.147 A  
HETATM   20  C   UNL     1      -9.853   3.297  71.823  1.00  0.00    -0.229 A  
HETATM   21  C   UNL     1     -10.066   4.135  72.919  1.00  0.00    -0.217 A  
HETATM   22  C   UNL     1     -10.234   5.513  72.734  1.00  0.00    -0.216 A  
ENDBRANCH  15  17
ENDBRANCH  10  13
ENDBRANCH   7  10
TORSDOF 3
ENDMDL
MODEL      152
REMARK 921   NORMALIZED FREE ENERGY PREDICTED BY IDOCK:   -3.17 KCAL/MOL
REMARK 922        TOTAL FREE ENERGY PREDICTED BY IDOCK:   -4.05 KCAL/MOL
REMARK 923 INTER-LIGAND FREE ENERGY PREDICTED BY IDOCK:   -3.90 KCAL/MOL
REMARK 924 INTRA-LIGAND FREE ENERGY PREDICTED BY IDOCK:   -0.15 KCAL/MOL
REMARK 927      BINDING AFFINITY PREDICTED BY RF-SCORE:    0.00 PKD
ROOT
HETATM    1  N   UNL     1      -9.409   2.995  69.253  1.00  0.00    -0.155 NA 
HETATM    2  H2  UNL     1     -10.194   2.954  68.603  1.00  0.00     0.000 HD 
HETATM    3  C   UNL     1      -9.332   4.294  69.773  1.00  0.00    -0.161 A  
HETATM    4  H1  UNL     1      -8.595   2.576  68.802  1.00  0.00     0.000 HD 
HETATM    5  C   UNL     1     -10.447   4.868  70.391  1.00  0.00    -0.164 A  
HETATM    6  C   UNL     1     -10.360   6.123  71.001  1.00  0.00    -0.260 A  
HETATM    7  C   UNL     1      -9.129   6.783  71.045  1.00  0.00    -0.156 A  
HETATM    8  C   UNL     1      -7.991   6.190  70.496  1.00  0.00    -0.111 A  
HETATM    9  C   UNL     1      -8.096   4.937  69.881  1.00  0.00    -0.073 A  
ENDROOT
BRANCH   7  10
HETATM   10  S   UNL     1      -9.034   8.397  71.784  1.00  0.00    -0.217 S  
HETATM   11  O   UNL     1     -10.135   8.571  72.705  1.00  0.00    -0.255 OA 
HETATM   12  O   UNL     1      -7.664   8.573  72.224  1.00  0.00    -0.211 OA 
BRANCH  10  13
HETATM   13  N   UNL     1      -9.229   9.456  70.513  1.00  0.00    -0.255 N  
HETATM   14  H   UNL     1      -8.394   9.875  70.105  1.00  0.00     0.000 HD 
HETATM   15  C   UNL     1     -10.474   9.803  69.976  1.00  0.00    -0.270 C  
HETATM   16  O   UNL     1     -11.532   9.353  70.388  1.00  0.00    -0.256 OA 
BRANCH  15  17
HETATM   17  C   UNL     1     -10.449  10.734  68.820  1.00  0.00    -0.221 A  
HETATM   18  C   UNL     1      -9.452  11.721  68.816  1.00  0.00    -0.037 A  
HETATM   19  C   UNL     1      -9.357  12.623  67.757  1.00  0.00    -0.198 A  
HETATM   20  C   UNL     1     -10.252  12.541  66.693  1.00  0.00    -0.243 A  
HETATM   21  C   UNL     1     -11.249  11.563  66.691  1.00  0.00    -0.336 A  
HETATM   22  C   UNL     1     -11.356  10.661  67.756  1.00  0.00    -0.320 A  
ENDBRANCH  15  17
ENDBRANCH  10  13
ENDBRANCH   7  10
TORSDOF 3
ENDMDL
MODEL      153
REMARK 921   NORMALIZED FREE ENERGY PREDICTED BY IDOCK:   -3.16 KCAL/MOL
REMARK 922        TOTAL FREE ENERGY PREDICTED BY IDOCK:   -4.03 KCAL/MOL
REMARK 923 INTER-LIGAND FREE ENERGY PREDICTED BY IDOCK:   -3.72 KCAL/MOL
REMARK 924 INTRA-LIGAND FREE ENERGY PREDICTED BY IDOCK:   -0.32 KCAL/MOL
REMARK 927      BINDING AFFINITY PREDICTED BY RF-SCORE:    0.00 PKD
ROOT
HETATM    1  N   UNL     1     -12.101  12.730  66.280  1.00  0.00    -0.527 NA 
HETATM    2  H2  UNL     1     -13.039  12.355  66.422  1.00  0.00     0.000 HD 
HETATM    3  C   UNL     1     -11.194  11.937  66.995  1.00  0.00    -0.323 A  
HETATM    4  H1  UNL     1     -12.130  13.738  66.433  1.00  0.00     0.000 HD 
HETATM    5  C   UNL     1     -11.154  10.555  66.784  1.00  0.00    -0.061 A  
HETATM    6  C   UNL     1     -10.190   9.763  67.416  1.00  0.00    -0.284 A  
HETATM    7  C   UNL     1      -9.221  10.368  68.220  1.00  0.00    -0.149 A  
HETATM    8  C   UNL     1      -9.204  11.753  68.382  1.00  0.00    -0.175 A  
HETATM    9  C   UNL     1     -10.180  12.533  67.750  1.00  0.00    -0.217 A  
ENDROOT
BRANCH   7  10
HETATM   10  S   UNL     1      -8.026   9.351  69.054  1.00  0.00    -0.094 S  
HETATM   11  O   UNL     1      -7.302   8.561  68.083  1.00  0.00    -0.088 OA 
HETATM   12  O   UNL     1      -7.322  10.213  69.983  1.00  0.00    -0.146 OA 
BRANCH  10  13
HETATM   13  N   UNL     1      -8.933   8.326  70.005  1.00  0.00    -0.141 N  
HETATM   14  H   UNL     1      -9.948   8.360  69.915  1.00  0.00     0.000 HD 
HETATM   15  C   UNL     1      -8.379   7.422  70.920  1.00  0.00    -0.115 C  
HETATM   16  O   UNL     1      -7.177   7.300  71.098  1.00  0.00    -0.070 OA 
BRANCH  15  17
HETATM   17  C   UNL     1      -9.342   6.564  71.653  1.00  0.00    -0.147 A  
HETATM   18  C   UNL     1     -10.701   6.712  71.336  1.00  0.00    -0.264 A  
HETATM   19  C   UNL     1     -11.663   5.930  71.973  1.00  0.00    -0.255 A  
HETATM   20  C   UNL     1     -11.275   4.991  72.925  1.00  0.00    -0.344 A  
HETATM   21  C   UNL     1      -9.925   4.838  73.248  1.00  0.00    -0.184 A  
HETATM   22  C   UNL     1      -8.955   5.627  72.618  1.00  0.00    -0.132 A  
ENDBRANCH  15  17
ENDBRANCH  10  13
ENDBRANCH   7  10
TORSDOF 3
ENDMDL
MODEL      154
REMARK 921   NORMALIZED FREE ENERGY PREDICTED BY IDOCK:   -3.14 KCAL/MOL
REMARK 922        TOTAL FREE ENERGY PREDICTED BY IDOCK:   -4.01 KCAL/MOL
REMARK 923 INTER-LIGAND FREE ENERGY PREDICTED BY IDOCK:   -3.84 KCAL/MOL
REMARK 924 INTRA-LIGAND FREE ENERGY PREDICTED BY IDOCK:   -0.17 KCAL/MOL
REMARK 927      BINDING AFFINITY PREDICTED BY RF-SCORE:    0.00 PKD
ROOT
HETATM    1  N   UNL     1      -7.334   2.720  70.771  1.00  0.00    -0.033 NA 
HETATM    2  H2  UNL     1      -7.079   3.475  71.409  1.00  0.00     0.000 HD 
HETATM    3  C   UNL     1      -7.882   3.286  69.613  1.00  0.00    -0.049 A  
HETATM    4  H1  UNL     1      -7.857   2.018  71.294  1.00  0.00     0.000 HD 
HETATM    5  C   UNL     1      -7.164   4.248  68.895  1.00  0.00    -0.055 A  
HETATM    6  C   UNL     1      -7.653   4.750  67.685  1.00  0.00    -0.079 A  
HETATM    7  C   UNL     1      -8.843   4.242  67.159  1.00  0.00    -0.113 A  
HETATM    8  C   UNL     1      -9.534   3.231  67.828  1.00  0.00    -0.217 A  
HETATM    9  C   UNL     1      -9.037   2.743  69.042  1.00  0.00    -0.202 A  
ENDROOT
BRANCH   7  10
HETATM   10  S   UNL     1      -9.481   4.916  65.643  1.00  0.00    -0.142 S  
HETATM   11  O   UNL     1      -8.605   4.558  64.550  1.00  0.00    -0.127 OA 
HETATM   12  O   UNL     1     -10.892   4.584  65.602  1.00  0.00    -0.270 OA 
BRANCH  10  13
HETATM   13  N   UNL     1      -9.422   6.567  65.857  1.00  0.00    -0.387 N  
HETATM   14  H   UNL     1      -8.785   7.105  65.269  1.00  0.00     0.000 HD 
HETATM   15  C   UNL     1     -10.196   7.256  66.798  1.00  0.00    -0.235 C  
HETATM   16  O   UNL     1     -10.991   6.707  67.544  1.00  0.00    -0.309 OA 
BRANCH  15  17
HETATM   17  C   UNL     1     -10.036   8.731  66.819  1.00  0.00    -0.359 A  
HETATM   18  C   UNL     1      -9.496   9.333  65.673  1.00  0.00    -0.324 A  
HETATM   19  C   UNL     1      -9.329  10.715  65.613  1.00  0.00    -0.239 A  
HETATM   20  C   UNL     1      -9.706  11.507  66.696  1.00  0.00    -0.221 A  
HETATM   21  C   UNL     1     -10.243  10.917  67.841  1.00  0.00    -0.205 A  
HETATM   22  C   UNL     1     -10.404   9.527  67.910  1.00  0.00    -0.276 A  
ENDBRANCH  15  17
ENDBRANCH  10  13
ENDBRANCH   7  10
TORSDOF 3
ENDMDL
MODEL      155
REMARK 921   NORMALIZED FREE ENERGY PREDICTED BY IDOCK:   -3.11 KCAL/MOL
REMARK 922        TOTAL FREE ENERGY PREDICTED BY IDOCK:   -3.98 KCAL/MOL
REMARK 923 INTER-LIGAND FREE ENERGY PREDICTED BY IDOCK:   -3.71 KCAL/MOL
REMARK 924 INTRA-LIGAND FREE ENERGY PREDICTED BY IDOCK:   -0.27 KCAL/MOL
REMARK 927      BINDING AFFINITY PREDICTED BY RF-SCORE:    0.00 PKD
ROOT
HETATM    1  N   UNL     1     -11.506   5.373  73.425  1.00  0.00    -0.490 NA 
HETATM    2  H2  UNL     1     -12.519   5.332  73.541  1.00  0.00     0.000 HD 
HETATM    3  C   UNL     1     -11.218   5.404  72.054  1.00  0.00    -0.089 A  
HETATM    4  H1  UNL     1     -11.084   4.660  74.020  1.00  0.00     0.000 HD 
HETATM    5  C   UNL     1     -11.796   6.382  71.238  1.00  0.00    -0.333 A  
HETATM    6  C   UNL     1     -11.443   6.488  69.890  1.00  0.00    -0.467 A  
HETATM    7  C   UNL     1     -10.459   5.645  69.366  1.00  0.00    -0.297 A  
HETATM    8  C   UNL     1      -9.822   4.713  70.186  1.00  0.00    -0.306 A  
HETATM    9  C   UNL     1     -10.191   4.612  71.533  1.00  0.00    -0.224 A  
ENDROOT
BRANCH   7  10
HETATM   10  S   UNL     1     -10.048   5.756  67.641  1.00  0.00    -0.192 S  
HETATM   11  O   UNL     1      -9.393   4.537  67.221  1.00  0.00    -0.128 OA 
HETATM   12  O   UNL     1     -11.236   6.232  66.960  1.00  0.00    -0.336 OA 
BRANCH  10  13
HETATM   13  N   UNL     1      -8.954   7.009  67.547  1.00  0.00    -0.118 N  
HETATM   14  H   UNL     1      -8.767   7.549  68.392  1.00  0.00     0.000 HD 
HETATM   15  C   UNL     1      -8.276   7.361  66.374  1.00  0.00    -0.122 C  
HETATM   16  O   UNL     1      -8.424   6.776  65.313  1.00  0.00    -0.133 OA 
BRANCH  15  17
HETATM   17  C   UNL     1      -7.311   8.483  66.490  1.00  0.00    -0.084 A  
HETATM   18  C   UNL     1      -7.108   9.273  65.349  1.00  0.00    -0.086 A  
HETATM   19  C   UNL     1      -6.227  10.353  65.385  1.00  0.00    -0.127 A  
HETATM   20  C   UNL     1      -5.548  10.654  66.563  1.00  0.00    -0.073 A  
HETATM   21  C   UNL     1      -5.742   9.872  67.703  1.00  0.00    -0.039 A  
HETATM   22  C   UNL     1      -6.618   8.780  67.669  1.00  0.00    -0.062 A  
ENDBRANCH  15  17
ENDBRANCH  10  13
ENDBRANCH   7  10
TORSDOF 3
ENDMDL
MODEL      156
REMARK 921   NORMALIZED FREE ENERGY PREDICTED BY IDOCK:   -3.06 KCAL/MOL
REMARK 922        TOTAL FREE ENERGY PREDICTED BY IDOCK:   -3.92 KCAL/MOL
REMARK 923 INTER-LIGAND FREE ENERGY PREDICTED BY IDOCK:   -3.69 KCAL/MOL
REMARK 924 INTRA-LIGAND FREE ENERGY PREDICTED BY IDOCK:   -0.23 KCAL/MOL
REMARK 927      BINDING AFFINITY PREDICTED BY RF-SCORE:    0.00 PKD
ROOT
HETATM    1  N   UNL     1      -9.870  10.419  66.219  1.00  0.00    -0.208 NA 
HETATM    2  H2  UNL     1     -10.287   9.916  65.435  1.00  0.00     0.000 HD 
HETATM    3  C   UNL     1     -10.252   9.781  67.406  1.00  0.00    -0.230 A  
HETATM    4  H1  UNL     1     -10.047  11.415  66.094  1.00  0.00     0.000 HD 
HETATM    5  C   UNL     1     -10.009   8.415  67.578  1.00  0.00    -0.259 A  
HETATM    6  C   UNL     1     -10.294   7.785  68.793  1.00  0.00    -0.219 A  
HETATM    7  C   UNL     1     -10.772   8.542  69.866  1.00  0.00    -0.224 A  
HETATM    8  C   UNL     1     -10.951   9.919  69.733  1.00  0.00    -0.304 A  
HETATM    9  C   UNL     1     -10.669  10.535  68.507  1.00  0.00    -0.259 A  
ENDROOT
BRANCH   7  10
HETATM   10  S   UNL     1     -11.173   7.727  71.394  1.00  0.00    -0.252 S  
HETATM   11  O   UNL     1     -11.363   8.714  72.433  1.00  0.00    -0.359 OA 
HETATM   12  O   UNL     1     -12.212   6.761  71.090  1.00  0.00    -0.368 OA 
BRANCH  10  13
HETATM   13  N   UNL     1      -9.823   6.822  71.758  1.00  0.00    -0.165 N  
HETATM   14  H   UNL     1      -9.127   6.680  71.026  1.00  0.00     0.000 HD 
HETATM   15  C   UNL     1      -9.590   6.244  73.012  1.00  0.00    -0.153 C  
HETATM   16  O   UNL     1     -10.357   6.358  73.955  1.00  0.00    -0.293 OA 
BRANCH  15  17
HETATM   17  C   UNL     1      -8.314   5.502  73.162  1.00  0.00    -0.118 A  
HETATM   18  C   UNL     1      -7.687   5.064  71.986  1.00  0.00    -0.104 A  
HETATM   19  C   UNL     1      -6.478   4.373  72.046  1.00  0.00    -0.022 A  
HETATM   20  C   UNL     1      -5.883   4.121  73.281  1.00  0.00    -0.011 A  
HETATM   21  C   UNL     1      -6.501   4.553  74.456  1.00  0.00    -0.058 A  
HETATM   22  C   UNL     1      -7.721   5.238  74.402  1.00  0.00    -0.089 A  
ENDBRANCH  15  17
ENDBRANCH  10  13
ENDBRANCH   7  10
TORSDOF 3
ENDMDL
MODEL      157
REMARK 921   NORMALIZED FREE ENERGY PREDICTED BY IDOCK:   -2.97 KCAL/MOL
REMARK 922        TOTAL FREE ENERGY PREDICTED BY IDOCK:   -3.81 KCAL/MOL
REMARK 923 INTER-LIGAND FREE ENERGY PREDICTED BY IDOCK:   -3.50 KCAL/MOL
REMARK 924 INTRA-LIGAND FREE ENERGY PREDICTED BY IDOCK:   -0.31 KCAL/MOL
REMARK 927      BINDING AFFINITY PREDICTED BY RF-SCORE:    0.00 PKD
ROOT
HETATM    1  N   UNL     1      -8.836  10.455  65.913  1.00  0.00    -0.157 NA 
HETATM    2  H2  UNL     1      -9.527  10.483  65.162  1.00  0.00     0.000 HD 
HETATM    3  C   UNL     1      -9.481  10.054  67.091  1.00  0.00    -0.155 A  
HETATM    4  H1  UNL     1      -8.302  11.323  65.893  1.00  0.00     0.000 HD 
HETATM    5  C   UNL     1     -10.213   8.863  67.119  1.00  0.00    -0.339 A  
HETATM    6  C   UNL     1     -10.779   8.400  68.310  1.00  0.00    -0.084 A  
HETATM    7  C   UNL     1     -10.561   9.104  69.497  1.00  0.00    -0.223 A  
HETATM    8  C   UNL     1      -9.772  10.255  69.498  1.00  0.00    -0.235 A  
HETATM    9  C   UNL     1      -9.218  10.712  68.296  1.00  0.00    -0.153 A  
ENDROOT
BRANCH   7  10
HETATM   10  S   UNL     1     -11.319   8.533  70.999  1.00  0.00    -0.276 S  
HETATM   11  O   UNL     1     -10.758   9.246  72.125  1.00  0.00    -0.201 OA 
HETATM   12  O   UNL     1     -12.750   8.525  70.765  1.00  0.00     0.016 OA 
BRANCH  10  13
HETATM   13  N   UNL     1     -10.882   6.930  71.111  1.00  0.00    -0.236 N  
HETATM   14  H   UNL     1     -10.369   6.516  70.332  1.00  0.00     0.000 HD 
HETATM   15  C   UNL     1     -11.178   6.119  72.214  1.00  0.00    -0.289 C  
HETATM   16  O   UNL     1     -11.780   6.519  73.197  1.00  0.00     0.121 OA 
BRANCH  15  17
HETATM   17  C   UNL     1     -10.675   4.724  72.151  1.00  0.00    -0.150 A  
HETATM   18  C   UNL     1     -10.006   4.337  70.981  1.00  0.00    -0.223 A  
HETATM   19  C   UNL     1      -9.493   3.047  70.855  1.00  0.00    -0.229 A  
HETATM   20  C   UNL     1      -9.639   2.137  71.900  1.00  0.00    -0.196 A  
HETATM   21  C   UNL     1     -10.306   2.514  73.067  1.00  0.00    -0.235 A  
HETATM   22  C   UNL     1     -10.832   3.805  73.196  1.00  0.00    -0.257 A  
ENDBRANCH  15  17
ENDBRANCH  10  13
ENDBRANCH   7  10
TORSDOF 3
ENDMDL
MODEL      158
REMARK 921   NORMALIZED FREE ENERGY PREDICTED BY IDOCK:   -2.96 KCAL/MOL
REMARK 922        TOTAL FREE ENERGY PREDICTED BY IDOCK:   -3.80 KCAL/MOL
REMARK 923 INTER-LIGAND FREE ENERGY PREDICTED BY IDOCK:   -3.60 KCAL/MOL
REMARK 924 INTRA-LIGAND FREE ENERGY PREDICTED BY IDOCK:   -0.20 KCAL/MOL
REMARK 927      BINDING AFFINITY PREDICTED BY RF-SCORE:    0.00 PKD
ROOT
HETATM    1  N   UNL     1      -6.055  12.158  70.407  1.00  0.00    -0.406 NA 
HETATM    2  H2  UNL     1      -6.453  13.097  70.427  1.00  0.00     0.000 HD 
HETATM    3  C   UNL     1      -6.897  11.337  69.645  1.00  0.00    -0.095 A  
HETATM    4  H1  UNL     1      -5.808  11.892  71.360  1.00  0.00     0.000 HD 
HETATM    5  C   UNL     1      -7.236  11.701  68.338  1.00  0.00    -0.088 A  
HETATM    6  C   UNL     1      -7.993  10.846  67.531  1.00  0.00    -0.115 A  
HETATM    7  C   UNL     1      -8.365   9.590  68.017  1.00  0.00    -0.118 A  
HETATM    8  C   UNL     1      -7.973   9.184  69.293  1.00  0.00    -0.097 A  
HETATM    9  C   UNL     1      -7.221  10.053  70.093  1.00  0.00    -0.167 A  
ENDROOT
BRANCH   7  10
HETATM   10  S   UNL     1      -9.365   8.527  67.003  1.00  0.00    -0.172 S  
HETATM   11  O   UNL     1     -10.748   8.938  67.089  1.00  0.00    -0.265 OA 
HETATM   12  O   UNL     1      -8.699   8.431  65.719  1.00  0.00    -0.153 OA 
BRANCH  10  13
HETATM   13  N   UNL     1      -9.213   7.018  67.693  1.00  0.00    -0.121 N  
HETATM   14  H   UNL     1      -8.448   6.865  68.349  1.00  0.00     0.000 HD 
HETATM   15  C   UNL     1     -10.077   5.950  67.422  1.00  0.00    -0.169 C  
HETATM   16  O   UNL     1     -11.025   6.032  66.657  1.00  0.00    -0.293 OA 
BRANCH  15  17
HETATM   17  C   UNL     1      -9.808   4.690  68.159  1.00  0.00    -0.170 A  
HETATM   18  C   UNL     1      -9.479   3.560  67.395  1.00  0.00    -0.234 A  
HETATM   19  C   UNL     1      -9.200   2.345  68.018  1.00  0.00    -0.254 A  
HETATM   20  C   UNL     1      -9.239   2.252  69.407  1.00  0.00    -0.187 A  
HETATM   21  C   UNL     1      -9.566   3.371  70.175  1.00  0.00    -0.211 A  
HETATM   22  C   UNL     1      -9.858   4.592  69.554  1.00  0.00    -0.286 A  
ENDBRANCH  15  17
ENDBRANCH  10  13
ENDBRANCH   7  10
TORSDOF 3
ENDMDL
MODEL      159
REMARK 921   NORMALIZED FREE ENERGY PREDICTED BY IDOCK:   -2.90 KCAL/MOL
REMARK 922        TOTAL FREE ENERGY PREDICTED BY IDOCK:   -3.73 KCAL/MOL
REMARK 923 INTER-LIGAND FREE ENERGY PREDICTED BY IDOCK:   -3.55 KCAL/MOL
REMARK 924 INTRA-LIGAND FREE ENERGY PREDICTED BY IDOCK:   -0.18 KCAL/MOL
REMARK 927      BINDING AFFINITY PREDICTED BY RF-SCORE:    0.00 PKD
ROOT
HETATM    1  N   UNL     1      -6.646  13.325  69.219  1.00  0.00    -0.140 NA 
HETATM    2  H2  UNL     1      -7.276  14.006  69.644  1.00  0.00     0.000 HD 
HETATM    3  C   UNL     1      -7.363  12.145  68.986  1.00  0.00     0.000 A  
HETATM    4  H1  UNL     1      -5.783  13.301  69.763  1.00  0.00     0.000 HD 
HETATM    5  C   UNL     1      -8.545  12.178  68.240  1.00  0.00    -0.175 A  
HETATM    6  C   UNL     1      -9.220  10.997  67.915  1.00  0.00    -0.155 A  
HETATM    7  C   UNL     1      -8.674   9.767  68.290  1.00  0.00    -0.119 A  
HETATM    8  C   UNL     1      -7.458   9.714  68.972  1.00  0.00    -0.075 A  
HETATM    9  C   UNL     1      -6.798  10.905  69.297  1.00  0.00    -0.105 A  
ENDROOT
BRANCH   7  10
HETATM   10  S   UNL     1      -9.559   8.273  67.912  1.00  0.00    -0.157 S  
HETATM   11  O   UNL     1     -10.841   8.604  67.331  1.00  0.00    -0.211 OA 
HETATM   12  O   UNL     1      -8.630   7.405  67.213  1.00  0.00    -0.117 OA 
BRANCH  10  13
HETATM   13  N   UNL     1      -9.813   7.546  69.389  1.00  0.00    -0.164 N  
HETATM   14  H   UNL     1      -9.521   6.576  69.505  1.00  0.00     0.000 HD 
HETATM   15  C   UNL     1     -10.407   8.193  70.480  1.00  0.00    -0.202 C  
HETATM   16  O   UNL     1     -10.786   9.353  70.446  1.00  0.00    -0.224 OA 
BRANCH  15  17
HETATM   17  C   UNL     1     -10.518   7.398  71.728  1.00  0.00    -0.221 A  
HETATM   18  C   UNL     1      -9.804   7.857  72.845  1.00  0.00    -0.348 A  
HETATM   19  C   UNL     1      -9.870   7.170  74.056  1.00  0.00    -0.314 A  
HETATM   20  C   UNL     1     -10.656   6.025  74.162  1.00  0.00    -0.152 A  
HETATM   21  C   UNL     1     -11.369   5.560  73.055  1.00  0.00    -0.323 A  
HETATM   22  C   UNL     1     -11.298   6.240  71.833  1.00  0.00    -0.348 A  
ENDBRANCH  15  17
ENDBRANCH  10  13
ENDBRANCH   7  10
TORSDOF 3
ENDMDL
MODEL      160
REMARK 921   NORMALIZED FREE ENERGY PREDICTED BY IDOCK:   -2.86 KCAL/MOL
REMARK 922        TOTAL FREE ENERGY PREDICTED BY IDOCK:   -3.69 KCAL/MOL
REMARK 923 INTER-LIGAND FREE ENERGY PREDICTED BY IDOCK:   -3.56 KCAL/MOL
REMARK 924 INTRA-LIGAND FREE ENERGY PREDICTED BY IDOCK:   -0.13 KCAL/MOL
REMARK 927      BINDING AFFINITY PREDICTED BY RF-SCORE:    0.00 PKD
ROOT
HETATM    1  N   UNL     1     -12.935  12.464  62.881  1.00  0.00    -0.408 NA 
HETATM    2  H2  UNL     1     -13.365  13.281  62.448  1.00  0.00     0.000 HD 
HETATM    3  C   UNL     1     -11.962  12.904  63.788  1.00  0.00    -0.512 A  
HETATM    4  H1  UNL     1     -12.685  11.803  62.145  1.00  0.00     0.000 HD 
HETATM    5  C   UNL     1     -12.303  13.809  64.797  1.00  0.00    -0.420 A  
HETATM    6  C   UNL     1     -11.370  14.183  65.769  1.00  0.00    -0.317 A  
HETATM    7  C   UNL     1     -10.100  13.599  65.765  1.00  0.00    -0.298 A  
HETATM    8  C   UNL     1      -9.768  12.640  64.807  1.00  0.00     0.053 A  
HETATM    9  C   UNL     1     -10.711  12.282  63.835  1.00  0.00    -0.463 A  
ENDROOT
BRANCH   7  10
HETATM   10  S   UNL     1      -8.904  14.110  66.976  1.00  0.00    -0.199 S  
HETATM   11  O   UNL     1      -7.984  15.052  66.379  1.00  0.00     0.199 OA 
HETATM   12  O   UNL     1      -9.647  14.457  68.173  1.00  0.00    -0.205 OA 
BRANCH  10  13
HETATM   13  N   UNL     1      -8.071  12.720  67.361  1.00  0.00    -0.178 N  
HETATM   14  H   UNL     1      -7.095  12.649  67.072  1.00  0.00     0.000 HD 
HETATM   15  C   UNL     1      -8.635  11.645  68.059  1.00  0.00    -0.152 C  
HETATM   16  O   UNL     1      -9.791  11.634  68.453  1.00  0.00    -0.193 OA 
BRANCH  15  17
HETATM   17  C   UNL     1      -7.729  10.505  68.344  1.00  0.00    -0.104 A  
HETATM   18  C   UNL     1      -7.080   9.914  67.249  1.00  0.00    -0.085 A  
HETATM   19  C   UNL     1      -6.203   8.848  67.440  1.00  0.00    -0.055 A  
HETATM   20  C   UNL     1      -5.962   8.369  68.725  1.00  0.00    -0.044 A  
HETATM   21  C   UNL     1      -6.605   8.950  69.820  1.00  0.00    -0.041 A  
HETATM   22  C   UNL     1      -7.495  10.015  69.634  1.00  0.00    -0.134 A  
ENDBRANCH  15  17
ENDBRANCH  10  13
ENDBRANCH   7  10
TORSDOF 3
ENDMDL
MODEL      161
REMARK 921   NORMALIZED FREE ENERGY PREDICTED BY IDOCK:   -2.85 KCAL/MOL
REMARK 922        TOTAL FREE ENERGY PREDICTED BY IDOCK:   -3.67 KCAL/MOL
REMARK 923 INTER-LIGAND FREE ENERGY PREDICTED BY IDOCK:   -3.65 KCAL/MOL
REMARK 924 INTRA-LIGAND FREE ENERGY PREDICTED BY IDOCK:   -0.02 KCAL/MOL
REMARK 927      BINDING AFFINITY PREDICTED BY RF-SCORE:    0.00 PKD
ROOT
HETATM    1  N   UNL     1      -9.765   9.773  64.744  1.00  0.00    -0.422 NA 
HETATM    2  H2  UNL     1      -9.744  10.738  64.411  1.00  0.00     0.000 HD 
HETATM    3  C   UNL     1      -8.991   9.691  65.909  1.00  0.00    -0.167 A  
HETATM    4  H1  UNL     1      -9.570   9.156  63.956  1.00  0.00     0.000 HD 
HETATM    5  C   UNL     1      -9.258  10.537  66.990  1.00  0.00    -0.167 A  
HETATM    6  C   UNL     1      -8.560  10.401  68.194  1.00  0.00    -0.125 A  
HETATM    7  C   UNL     1      -7.628   9.371  68.337  1.00  0.00    -0.082 A  
HETATM    8  C   UNL     1      -7.402   8.474  67.293  1.00  0.00    -0.088 A  
HETATM    9  C   UNL     1      -8.103   8.627  66.090  1.00  0.00    -0.108 A  
ENDROOT
BRANCH   7  10
HETATM   10  S   UNL     1      -6.713   9.231  69.855  1.00  0.00    -0.056 S  
HETATM   11  O   UNL     1      -5.403   8.684  69.581  1.00  0.00    -0.030 OA 
HETATM   12  O   UNL     1      -6.859  10.497  70.546  1.00  0.00    -0.312 OA 
BRANCH  10  13
HETATM   13  N   UNL     1      -7.571   8.131  70.766  1.00  0.00    -0.068 N  
HETATM   14  H   UNL     1      -7.174   7.201  70.896  1.00  0.00     0.000 HD 
HETATM   15  C   UNL     1      -8.807   8.412  71.361  1.00  0.00    -0.181 C  
HETATM   16  O   UNL     1      -9.364   9.494  71.270  1.00  0.00    -0.229 OA 
BRANCH  15  17
HETATM   17  C   UNL     1      -9.406   7.319  72.167  1.00  0.00    -0.156 A  
HETATM   18  C   UNL     1      -9.697   7.601  73.510  1.00  0.00    -0.358 A  
HETATM   19  C   UNL     1     -10.274   6.629  74.326  1.00  0.00    -0.354 A  
HETATM   20  C   UNL     1     -10.570   5.372  73.804  1.00  0.00    -0.325 A  
HETATM   21  C   UNL     1     -10.282   5.083  72.469  1.00  0.00    -0.247 A  
HETATM   22  C   UNL     1      -9.694   6.052  71.647  1.00  0.00    -0.180 A  
ENDBRANCH  15  17
ENDBRANCH  10  13
ENDBRANCH   7  10
TORSDOF 3
ENDMDL
MODEL      162
REMARK 921   NORMALIZED FREE ENERGY PREDICTED BY IDOCK:   -2.78 KCAL/MOL
REMARK 922        TOTAL FREE ENERGY PREDICTED BY IDOCK:   -3.60 KCAL/MOL
REMARK 923 INTER-LIGAND FREE ENERGY PREDICTED BY IDOCK:   -3.41 KCAL/MOL
REMARK 924 INTRA-LIGAND FREE ENERGY PREDICTED BY IDOCK:   -0.19 KCAL/MOL
REMARK 927      BINDING AFFINITY PREDICTED BY RF-SCORE:    0.00 PKD
ROOT
HETATM    1  N   UNL     1     -11.419   5.240  73.116  1.00  0.00    -0.483 NA 
HETATM    2  H2  UNL     1     -12.362   4.857  73.046  1.00  0.00     0.000 HD 
HETATM    3  C   UNL     1     -11.047   5.733  71.858  1.00  0.00    -0.248 A  
HETATM    4  H1  UNL     1     -10.829   4.558  73.592  1.00  0.00     0.000 HD 
HETATM    5  C   UNL     1     -11.856   6.669  71.205  1.00  0.00    -0.403 A  
HETATM    6  C   UNL     1     -11.452   7.245  69.997  1.00  0.00    -0.142 A  
HETATM    7  C   UNL     1     -10.199   6.925  69.467  1.00  0.00    -0.186 A  
HETATM    8  C   UNL     1      -9.351   6.049  70.144  1.00  0.00    -0.172 A  
HETATM    9  C   UNL     1      -9.772   5.474  71.349  1.00  0.00    -0.205 A  
ENDROOT
BRANCH   7  10
HETATM   10  S   UNL     1      -9.710   7.627  67.909  1.00  0.00    -0.153 S  
HETATM   11  O   UNL     1     -10.769   8.474  67.408  1.00  0.00    -0.264 OA 
HETATM   12  O   UNL     1      -8.368   8.145  68.089  1.00  0.00    -0.127 OA 
BRANCH  10  13
HETATM   13  N   UNL     1      -9.545   6.320  66.890  1.00  0.00    -0.142 N  
HETATM   14  H   UNL     1      -9.993   5.443  67.155  1.00  0.00     0.000 HD 
HETATM   15  C   UNL     1      -8.825   6.358  65.689  1.00  0.00    -0.058 C  
HETATM   16  O   UNL     1      -8.258   7.358  65.278  1.00  0.00    -0.130 OA 
BRANCH  15  17
HETATM   17  C   UNL     1      -8.819   5.105  64.893  1.00  0.00    -0.118 A  
HETATM   18  C   UNL     1      -9.410   3.974  65.475  1.00  0.00    -0.159 A  
HETATM   19  C   UNL     1      -9.453   2.765  64.782  1.00  0.00    -0.128 A  
HETATM   20  C   UNL     1      -8.914   2.680  63.501  1.00  0.00    -0.092 A  
HETATM   21  C   UNL     1      -8.322   3.801  62.914  1.00  0.00    -0.081 A  
HETATM   22  C   UNL     1      -8.266   5.015  63.610  1.00  0.00    -0.117 A  
ENDBRANCH  15  17
ENDBRANCH  10  13
ENDBRANCH   7  10
TORSDOF 3
ENDMDL
MODEL      163
REMARK 921   NORMALIZED FREE ENERGY PREDICTED BY IDOCK:   -2.78 KCAL/MOL
REMARK 922        TOTAL FREE ENERGY PREDICTED BY IDOCK:   -3.59 KCAL/MOL
REMARK 923 INTER-LIGAND FREE ENERGY PREDICTED BY IDOCK:   -3.32 KCAL/MOL
REMARK 924 INTRA-LIGAND FREE ENERGY PREDICTED BY IDOCK:   -0.27 KCAL/MOL
REMARK 927      BINDING AFFINITY PREDICTED BY RF-SCORE:    0.00 PKD
ROOT
HETATM    1  N   UNL     1      -9.254   3.322  71.933  1.00  0.00    -0.109 NA 
HETATM    2  H2  UNL     1      -8.269   3.223  72.181  1.00  0.00     0.000 HD 
HETATM    3  C   UNL     1      -9.347   4.160  70.814  1.00  0.00    -0.153 A  
HETATM    4  H1  UNL     1      -9.779   3.541  72.780  1.00  0.00     0.000 HD 
HETATM    5  C   UNL     1      -8.628   3.860  69.652  1.00  0.00    -0.107 A  
HETATM    6  C   UNL     1      -8.785   4.629  68.495  1.00  0.00    -0.113 A  
HETATM    7  C   UNL     1      -9.715   5.672  68.483  1.00  0.00    -0.136 A  
HETATM    8  C   UNL     1     -10.492   5.937  69.611  1.00  0.00    -0.346 A  
HETATM    9  C   UNL     1     -10.318   5.164  70.765  1.00  0.00    -0.294 A  
ENDROOT
BRANCH   7  10
HETATM   10  S   UNL     1      -9.878   6.673  67.023  1.00  0.00    -0.171 S  
HETATM   11  O   UNL     1      -8.974   6.190  66.003  1.00  0.00    -0.155 OA 
HETATM   12  O   UNL     1     -11.299   6.793  66.758  1.00  0.00    -0.239 OA 
BRANCH  10  13
HETATM   13  N   UNL     1      -9.387   8.193  67.495  1.00  0.00    -0.139 N  
HETATM   14  H   UNL     1      -8.954   8.295  68.413  1.00  0.00     0.000 HD 
HETATM   15  C   UNL     1      -9.535   9.337  66.702  1.00  0.00    -0.191 C  
HETATM   16  O   UNL     1     -10.034   9.322  65.588  1.00  0.00    -0.277 OA 
BRANCH  15  17
HETATM   17  C   UNL     1      -9.005  10.600  67.275  1.00  0.00    -0.141 A  
HETATM   18  C   UNL     1      -7.919  10.496  68.156  1.00  0.00    -0.111 A  
HETATM   19  C   UNL     1      -7.357  11.639  68.723  1.00  0.00    -0.118 A  
HETATM   20  C   UNL     1      -7.872  12.894  68.407  1.00  0.00    -0.133 A  
HETATM   21  C   UNL     1      -8.954  13.007  67.531  1.00  0.00    -0.193 A  
HETATM   22  C   UNL     1      -9.528  11.861  66.967  1.00  0.00    -0.192 A  
ENDBRANCH  15  17
ENDBRANCH  10  13
ENDBRANCH   7  10
TORSDOF 3
ENDMDL
MODEL      164
REMARK 921   NORMALIZED FREE ENERGY PREDICTED BY IDOCK:   -2.73 KCAL/MOL
REMARK 922        TOTAL FREE ENERGY PREDICTED BY IDOCK:   -3.54 KCAL/MOL
REMARK 923 INTER-LIGAND FREE ENERGY PREDICTED BY IDOCK:   -3.31 KCAL/MOL
REMARK 924 INTRA-LIGAND FREE ENERGY PREDICTED BY IDOCK:   -0.22 KCAL/MOL
REMARK 927      BINDING AFFINITY PREDICTED BY RF-SCORE:    0.00 PKD
ROOT
HETATM    1  N   UNL     1      -7.416   3.240  69.874  1.00  0.00    -0.044 NA 
HETATM    2  H2  UNL     1      -6.886   3.687  70.623  1.00  0.00     0.000 HD 
HETATM    3  C   UNL     1      -7.498   4.131  68.797  1.00  0.00    -0.055 A  
HETATM    4  H1  UNL     1      -8.266   2.842  70.274  1.00  0.00     0.000 HD 
HETATM    5  C   UNL     1      -6.333   4.676  68.247  1.00  0.00    -0.037 A  
HETATM    6  C   UNL     1      -6.390   5.489  67.111  1.00  0.00    -0.039 A  
HETATM    7  C   UNL     1      -7.619   5.711  66.484  1.00  0.00    -0.092 A  
HETATM    8  C   UNL     1      -8.780   5.115  66.978  1.00  0.00    -0.103 A  
HETATM    9  C   UNL     1      -8.709   4.310  68.121  1.00  0.00    -0.118 A  
ENDROOT
BRANCH   7  10
HETATM   10  S   UNL     1      -7.690   6.780  65.066  1.00  0.00    -0.114 S  
HETATM   11  O   UNL     1      -6.393   7.380  64.849  1.00  0.00    -0.037 OA 
HETATM   12  O   UNL     1      -8.346   6.030  64.012  1.00  0.00    -0.085 OA 
BRANCH  10  13
HETATM   13  N   UNL     1      -8.768   7.976  65.492  1.00  0.00    -0.292 N  
HETATM   14  H   UNL     1      -9.362   7.821  66.307  1.00  0.00     0.000 HD 
HETATM   15  C   UNL     1      -8.904   9.183  64.795  1.00  0.00    -0.158 C  
HETATM   16  O   UNL     1      -8.238   9.468  63.812  1.00  0.00    -0.140 OA 
BRANCH  15  17
HETATM   17  C   UNL     1      -9.891  10.146  65.344  1.00  0.00    -0.375 A  
HETATM   18  C   UNL     1     -10.156  10.076  66.720  1.00  0.00    -0.286 A  
HETATM   19  C   UNL     1     -11.061  10.957  67.310  1.00  0.00    -0.350 A  
HETATM   20  C   UNL     1     -11.702  11.917  66.532  1.00  0.00    -0.247 A  
HETATM   21  C   UNL     1     -11.446  11.993  65.161  1.00  0.00    -0.344 A  
HETATM   22  C   UNL     1     -10.545  11.104  64.561  1.00  0.00    -0.397 A  
ENDBRANCH  15  17
ENDBRANCH  10  13
ENDBRANCH   7  10
TORSDOF 3
ENDMDL
MODEL      165
REMARK 921   NORMALIZED FREE ENERGY PREDICTED BY IDOCK:   -2.62 KCAL/MOL
REMARK 922        TOTAL FREE ENERGY PREDICTED BY IDOCK:   -3.40 KCAL/MOL
REMARK 923 INTER-LIGAND FREE ENERGY PREDICTED BY IDOCK:   -3.28 KCAL/MOL
REMARK 924 INTRA-LIGAND FREE ENERGY PREDICTED BY IDOCK:   -0.12 KCAL/MOL
REMARK 927      BINDING AFFINITY PREDICTED BY RF-SCORE:    0.00 PKD
ROOT
HETATM    1  N   UNL     1     -10.982  10.833  66.629  1.00  0.00    -0.166 NA 
HETATM    2  H2  UNL     1     -11.404  11.738  66.840  1.00  0.00     0.000 HD 
HETATM    3  C   UNL     1     -10.283  10.396  67.761  1.00  0.00    -0.193 A  
HETATM    4  H1  UNL     1     -10.506  10.902  65.729  1.00  0.00     0.000 HD 
HETATM    5  C   UNL     1     -10.935  10.300  68.994  1.00  0.00    -0.274 A  
HETATM    6  C   UNL     1     -10.280   9.773  70.111  1.00  0.00    -0.328 A  
HETATM    7  C   UNL     1      -8.979   9.282  69.978  1.00  0.00    -0.198 A  
HETATM    8  C   UNL     1      -8.340   9.304  68.738  1.00  0.00    -0.117 A  
HETATM    9  C   UNL     1      -9.006   9.842  67.630  1.00  0.00    -0.133 A  
ENDROOT
BRANCH   7  10
HETATM   10  S   UNL     1      -8.137   8.653  71.412  1.00  0.00    -0.144 S  
HETATM   11  O   UNL     1      -6.805   9.213  71.474  1.00  0.00    -0.210 OA 
HETATM   12  O   UNL     1      -9.053   8.792  72.527  1.00  0.00    -0.367 OA 
BRANCH  10  13
HETATM   13  N   UNL     1      -8.014   7.013  71.144  1.00  0.00    -0.103 N  
HETATM   14  H   UNL     1      -7.087   6.622  70.975  1.00  0.00     0.000 HD 
HETATM   15  C   UNL     1      -9.111   6.143  71.139  1.00  0.00    -0.146 C  
HETATM   16  O   UNL     1     -10.258   6.510  71.337  1.00  0.00    -0.195 OA 
BRANCH  15  17
HETATM   17  C   UNL     1      -8.803   4.708  70.920  1.00  0.00    -0.149 A  
HETATM   18  C   UNL     1      -9.506   3.777  71.699  1.00  0.00    -0.213 A  
HETATM   19  C   UNL     1      -9.282   2.410  71.539  1.00  0.00    -0.176 A  
HETATM   20  C   UNL     1      -8.359   1.964  70.596  1.00  0.00    -0.074 A  
HETATM   21  C   UNL     1      -7.654   2.884  69.818  1.00  0.00    -0.044 A  
HETATM   22  C   UNL     1      -7.868   4.258  69.981  1.00  0.00    -0.052 A  
ENDBRANCH  15  17
ENDBRANCH  10  13
ENDBRANCH   7  10
TORSDOF 3
ENDMDL
MODEL      166
REMARK 921   NORMALIZED FREE ENERGY PREDICTED BY IDOCK:   -2.58 KCAL/MOL
REMARK 922        TOTAL FREE ENERGY PREDICTED BY IDOCK:   -3.36 KCAL/MOL
REMARK 923 INTER-LIGAND FREE ENERGY PREDICTED BY IDOCK:   -3.41 KCAL/MOL
REMARK 924 INTRA-LIGAND FREE ENERGY PREDICTED BY IDOCK:    0.06 KCAL/MOL
REMARK 927      BINDING AFFINITY PREDICTED BY RF-SCORE:    0.00 PKD
ROOT
HETATM    1  N   UNL     1      -9.478   2.523  71.353  1.00  0.00    -0.133 NA 
HETATM    2  H2  UNL     1      -8.490   2.267  71.330  1.00  0.00     0.000 HD 
HETATM    3  C   UNL     1      -9.582   3.902  71.134  1.00  0.00    -0.174 A  
HETATM    4  H1  UNL     1      -9.900   2.103  72.182  1.00  0.00     0.000 HD 
HETATM    5  C   UNL     1      -9.004   4.478  69.998  1.00  0.00    -0.145 A  
HETATM    6  C   UNL     1      -9.183   5.835  69.713  1.00  0.00    -0.161 A  
HETATM    7  C   UNL     1      -9.998   6.611  70.542  1.00  0.00    -0.179 A  
HETATM    8  C   UNL     1     -10.640   6.035  71.639  1.00  0.00    -0.286 A  
HETATM    9  C   UNL     1     -10.445   4.676  71.916  1.00  0.00    -0.172 A  
ENDROOT
BRANCH   7  10
HETATM   10  S   UNL     1     -10.185   8.344  70.199  1.00  0.00    -0.200 S  
HETATM   11  O   UNL     1     -11.583   8.704  70.282  1.00  0.00    -0.155 OA 
HETATM   12  O   UNL     1      -9.193   9.036  70.998  1.00  0.00    -0.226 OA 
BRANCH  10  13
HETATM   13  N   UNL     1      -9.682   8.520  68.621  1.00  0.00    -0.160 N  
HETATM   14  H   UNL     1      -8.832   8.036  68.331  1.00  0.00     0.000 HD 
HETATM   15  C   UNL     1     -10.359   9.295  67.672  1.00  0.00    -0.253 C  
HETATM   16  O   UNL     1     -11.386   9.909  67.916  1.00  0.00    -0.158 OA 
BRANCH  15  17
HETATM   17  C   UNL     1      -9.781   9.304  66.305  1.00  0.00    -0.340 A  
HETATM   18  C   UNL     1      -9.237   8.101  65.833  1.00  0.00    -0.158 A  
HETATM   19  C   UNL     1      -8.688   8.028  64.553  1.00  0.00     0.241 A  
HETATM   20  C   UNL     1      -8.686   9.155  63.734  1.00  0.00    -0.150 A  
HETATM   21  C   UNL     1      -9.225  10.357  64.197  1.00  0.00    -0.298 A  
HETATM   22  C   UNL     1      -9.768  10.439  65.485  1.00  0.00    -0.307 A  
ENDBRANCH  15  17
ENDBRANCH  10  13
ENDBRANCH   7  10
TORSDOF 3
ENDMDL
MODEL      167
REMARK 921   NORMALIZED FREE ENERGY PREDICTED BY IDOCK:   -2.56 KCAL/MOL
REMARK 922        TOTAL FREE ENERGY PREDICTED BY IDOCK:   -3.33 KCAL/MOL
REMARK 923 INTER-LIGAND FREE ENERGY PREDICTED BY IDOCK:   -3.00 KCAL/MOL
REMARK 924 INTRA-LIGAND FREE ENERGY PREDICTED BY IDOCK:   -0.33 KCAL/MOL
REMARK 927      BINDING AFFINITY PREDICTED BY RF-SCORE:    0.00 PKD
ROOT
HETATM    1  N   UNL     1     -10.513   3.374  73.587  1.00  0.00    -0.157 NA 
HETATM    2  H2  UNL     1      -9.681   2.858  73.874  1.00  0.00     0.000 HD 
HETATM    3  C   UNL     1     -10.213   4.080  72.415  1.00  0.00    -0.162 A  
HETATM    4  H1  UNL     1     -10.883   3.867  74.400  1.00  0.00     0.000 HD 
HETATM    5  C   UNL     1      -9.707   3.404  71.300  1.00  0.00    -0.227 A  
HETATM    6  C   UNL     1      -9.495   4.075  70.092  1.00  0.00    -0.258 A  
HETATM    7  C   UNL     1      -9.849   5.423  69.981  1.00  0.00    -0.207 A  
HETATM    8  C   UNL     1     -10.422   6.092  71.063  1.00  0.00    -0.285 A  
HETATM    9  C   UNL     1     -10.622   5.409  72.269  1.00  0.00    -0.280 A  
ENDROOT
BRANCH   7  10
HETATM   10  S   UNL     1      -9.537   6.281  68.457  1.00  0.00    -0.127 S  
HETATM   11  O   UNL     1     -10.736   6.971  68.036  1.00  0.00    -0.210 OA 
HETATM   12  O   UNL     1      -8.290   7.000  68.632  1.00  0.00    -0.120 OA 
BRANCH  10  13
HETATM   13  N   UNL     1      -9.200   5.077  67.355  1.00  0.00    -0.115 N  
HETATM   14  H   UNL     1      -9.251   4.108  67.671  1.00  0.00     0.000 HD 
HETATM   15  C   UNL     1      -8.851   5.321  66.021  1.00  0.00    -0.141 C  
HETATM   16  O   UNL     1      -8.768   6.441  65.544  1.00  0.00    -0.141 OA 
BRANCH  15  17
HETATM   17  C   UNL     1      -8.622   4.121  65.178  1.00  0.00    -0.116 A  
HETATM   18  C   UNL     1      -8.944   4.226  63.816  1.00  0.00    -0.138 A  
HETATM   19  C   UNL     1      -8.744   3.146  62.958  1.00  0.00    -0.089 A  
HETATM   20  C   UNL     1      -8.214   1.956  63.453  1.00  0.00    -0.072 A  
HETATM   21  C   UNL     1      -7.892   1.843  64.807  1.00  0.00    -0.069 A  
HETATM   22  C   UNL     1      -8.101   2.921  65.675  1.00  0.00    -0.087 A  
ENDBRANCH  15  17
ENDBRANCH  10  13
ENDBRANCH   7  10
TORSDOF 3
ENDMDL
MODEL      168
REMARK 921   NORMALIZED FREE ENERGY PREDICTED BY IDOCK:   -2.55 KCAL/MOL
REMARK 922        TOTAL FREE ENERGY PREDICTED BY IDOCK:   -3.33 KCAL/MOL
REMARK 923 INTER-LIGAND FREE ENERGY PREDICTED BY IDOCK:   -3.10 KCAL/MOL
REMARK 924 INTRA-LIGAND FREE ENERGY PREDICTED BY IDOCK:   -0.22 KCAL/MOL
REMARK 927      BINDING AFFINITY PREDICTED BY RF-SCORE:    0.00 PKD
ROOT
HETATM    1  N   UNL     1     -10.496   5.057  65.328  1.00  0.00    -0.430 NA 
HETATM    2  H2  UNL     1     -11.218   4.337  65.365  1.00  0.00     0.000 HD 
HETATM    3  C   UNL     1     -10.558   5.806  66.510  1.00  0.00    -0.229 A  
HETATM    4  H1  UNL     1     -10.552   5.524  64.423  1.00  0.00     0.000 HD 
HETATM    5  C   UNL     1     -10.480   5.166  67.751  1.00  0.00    -0.112 A  
HETATM    6  C   UNL     1     -10.440   5.907  68.937  1.00  0.00    -0.325 A  
HETATM    7  C   UNL     1     -10.420   7.303  68.877  1.00  0.00    -0.206 A  
HETATM    8  C   UNL     1     -10.424   7.955  67.643  1.00  0.00    -0.303 A  
HETATM    9  C   UNL     1     -10.471   7.201  66.465  1.00  0.00    -0.055 A  
ENDROOT
BRANCH   7  10
HETATM   10  S   UNL     1     -10.414   8.237  70.388  1.00  0.00    -0.219 S  
HETATM   11  O   UNL     1      -9.753   9.505  70.170  1.00  0.00    -0.214 OA 
HETATM   12  O   UNL     1     -11.764   8.186  70.914  1.00  0.00    -0.283 OA 
BRANCH  10  13
HETATM   13  N   UNL     1      -9.495   7.331  71.442  1.00  0.00    -0.160 N  
HETATM   14  H   UNL     1      -9.972   6.850  72.204  1.00  0.00     0.000 HD 
HETATM   15  C   UNL     1      -8.105   7.194  71.340  1.00  0.00    -0.106 C  
HETATM   16  O   UNL     1      -7.442   7.724  70.463  1.00  0.00    -0.071 OA 
BRANCH  15  17
HETATM   17  C   UNL     1      -7.461   6.316  72.348  1.00  0.00    -0.093 A  
HETATM   18  C   UNL     1      -6.127   5.948  72.117  1.00  0.00    -0.040 A  
HETATM   19  C   UNL     1      -5.451   5.137  73.026  1.00  0.00    -0.017 A  
HETATM   20  C   UNL     1      -6.100   4.694  74.177  1.00  0.00    -0.041 A  
HETATM   21  C   UNL     1      -7.427   5.055  74.415  1.00  0.00    -0.086 A  
HETATM   22  C   UNL     1      -8.115   5.861  73.499  1.00  0.00    -0.111 A  
ENDBRANCH  15  17
ENDBRANCH  10  13
ENDBRANCH   7  10
TORSDOF 3
ENDMDL
MODEL      169
REMARK 921   NORMALIZED FREE ENERGY PREDICTED BY IDOCK:   -2.42 KCAL/MOL
REMARK 922        TOTAL FREE ENERGY PREDICTED BY IDOCK:   -3.17 KCAL/MOL
REMARK 923 INTER-LIGAND FREE ENERGY PREDICTED BY IDOCK:   -2.94 KCAL/MOL
REMARK 924 INTRA-LIGAND FREE ENERGY PREDICTED BY IDOCK:   -0.23 KCAL/MOL
REMARK 927      BINDING AFFINITY PREDICTED BY RF-SCORE:    0.00 PKD
ROOT
HETATM    1  N   UNL     1      -9.969  10.123  63.346  1.00  0.00    -0.495 NA 
HETATM    2  H2  UNL     1     -10.091  11.136  63.333  1.00  0.00     0.000 HD 
HETATM    3  C   UNL     1      -9.140   9.791  64.425  1.00  0.00    -0.248 A  
HETATM    4  H1  UNL     1      -9.730   9.815  62.404  1.00  0.00     0.000 HD 
HETATM    5  C   UNL     1      -9.468  10.213  65.717  1.00  0.00    -0.262 A  
HETATM    6  C   UNL     1      -8.706   9.808  66.817  1.00  0.00    -0.140 A  
HETATM    7  C   UNL     1      -7.640   8.924  66.629  1.00  0.00    -0.089 A  
HETATM    8  C   UNL     1      -7.344   8.438  65.355  1.00  0.00    -0.084 A  
HETATM    9  C   UNL     1      -8.112   8.858  64.261  1.00  0.00    -0.158 A  
ENDROOT
BRANCH   7  10
HETATM   10  S   UNL     1      -6.648   8.448  68.025  1.00  0.00    -0.058 S  
HETATM   11  O   UNL     1      -5.648   7.493  67.604  1.00  0.00    -0.031 OA 
HETATM   12  O   UNL     1      -6.266   9.673  68.700  1.00  0.00    -0.043 OA 
BRANCH  10  13
HETATM   13  N   UNL     1      -7.711   7.689  69.058  1.00  0.00    -0.114 N  
HETATM   14  H   UNL     1      -8.710   7.781  68.875  1.00  0.00     0.000 HD 
HETATM   15  C   UNL     1      -7.309   6.930  70.165  1.00  0.00    -0.081 C  
HETATM   16  O   UNL     1      -6.140   6.753  70.467  1.00  0.00    -0.026 OA 
BRANCH  15  17
HETATM   17  C   UNL     1      -8.397   6.297  70.951  1.00  0.00    -0.127 A  
HETATM   18  C   UNL     1      -9.540   5.887  70.248  1.00  0.00    -0.199 A  
HETATM   19  C   UNL     1     -10.598   5.272  70.915  1.00  0.00    -0.247 A  
HETATM   20  C   UNL     1     -10.518   5.055  72.289  1.00  0.00    -0.275 A  
HETATM   21  C   UNL     1      -9.385   5.461  72.997  1.00  0.00    -0.142 A  
HETATM   22  C   UNL     1      -8.324   6.088  72.333  1.00  0.00    -0.116 A  
ENDBRANCH  15  17
ENDBRANCH  10  13
ENDBRANCH   7  10
TORSDOF 3
ENDMDL
MODEL      170
REMARK 921   NORMALIZED FREE ENERGY PREDICTED BY IDOCK:   -2.41 KCAL/MOL
REMARK 922        TOTAL FREE ENERGY PREDICTED BY IDOCK:   -3.16 KCAL/MOL
REMARK 923 INTER-LIGAND FREE ENERGY PREDICTED BY IDOCK:   -2.89 KCAL/MOL
REMARK 924 INTRA-LIGAND FREE ENERGY PREDICTED BY IDOCK:   -0.27 KCAL/MOL
REMARK 927      BINDING AFFINITY PREDICTED BY RF-SCORE:    0.00 PKD
ROOT
HETATM    1  N   UNL     1      -9.160   8.971  64.622  1.00  0.00    -0.434 NA 
HETATM    2  H2  UNL     1      -8.638   9.826  64.432  1.00  0.00     0.000 HD 
HETATM    3  C   UNL     1      -8.517   8.280  65.657  1.00  0.00    -0.158 A  
HETATM    4  H1  UNL     1      -9.347   8.504  63.735  1.00  0.00     0.000 HD 
HETATM    5  C   UNL     1      -8.261   8.920  66.874  1.00  0.00    -0.112 A  
HETATM    6  C   UNL     1      -7.710   8.217  67.949  1.00  0.00    -0.103 A  
HETATM    7  C   UNL     1      -7.467   6.846  67.825  1.00  0.00    -0.098 A  
HETATM    8  C   UNL     1      -7.785   6.179  66.642  1.00  0.00    -0.103 A  
HETATM    9  C   UNL     1      -8.329   6.897  65.570  1.00  0.00    -0.138 A  
ENDROOT
BRANCH   7  10
HETATM   10  S   UNL     1      -6.726   5.969  69.181  1.00  0.00    -0.062 S  
HETATM   11  O   UNL     1      -6.193   4.711  68.708  1.00  0.00    -0.029 OA 
HETATM   12  O   UNL     1      -5.880   6.918  69.878  1.00  0.00    -0.022 OA 
BRANCH  10  13
HETATM   13  N   UNL     1      -7.988   5.656  70.222  1.00  0.00    -0.101 N  
HETATM   14  H   UNL     1      -8.901   6.058  70.007  1.00  0.00     0.000 HD 
HETATM   15  C   UNL     1      -7.866   4.873  71.377  1.00  0.00    -0.104 C  
HETATM   16  O   UNL     1      -6.822   4.343  71.720  1.00  0.00    -0.032 OA 
BRANCH  15  17
HETATM   17  C   UNL     1      -9.109   4.673  72.164  1.00  0.00    -0.151 A  
HETATM   18  C   UNL     1      -9.408   3.363  72.566  1.00  0.00    -0.157 A  
HETATM   19  C   UNL     1     -10.550   3.099  73.320  1.00  0.00    -0.269 A  
HETATM   20  C   UNL     1     -11.398   4.143  73.683  1.00  0.00    -0.270 A  
HETATM   21  C   UNL     1     -11.109   5.450  73.285  1.00  0.00    -0.352 A  
HETATM   22  C   UNL     1      -9.968   5.719  72.519  1.00  0.00    -0.194 A  
ENDBRANCH  15  17
ENDBRANCH  10  13
ENDBRANCH   7  10
TORSDOF 3
ENDMDL
MODEL      171
REMARK 921   NORMALIZED FREE ENERGY PREDICTED BY IDOCK:   -2.37 KCAL/MOL
REMARK 922        TOTAL FREE ENERGY PREDICTED BY IDOCK:   -3.11 KCAL/MOL
REMARK 923 INTER-LIGAND FREE ENERGY PREDICTED BY IDOCK:   -2.82 KCAL/MOL
REMARK 924 INTRA-LIGAND FREE ENERGY PREDICTED BY IDOCK:   -0.29 KCAL/MOL
REMARK 927      BINDING AFFINITY PREDICTED BY RF-SCORE:    0.00 PKD
ROOT
HETATM    1  N   UNL     1     -10.491   3.388  73.581  1.00  0.00    -0.157 NA 
HETATM    2  H2  UNL     1      -9.676   2.811  73.790  1.00  0.00     0.000 HD 
HETATM    3  C   UNL     1     -10.176   4.225  72.503  1.00  0.00    -0.174 A  
HETATM    4  H1  UNL     1     -10.836   3.787  74.454  1.00  0.00     0.000 HD 
HETATM    5  C   UNL     1      -9.703   3.679  71.305  1.00  0.00    -0.239 A  
HETATM    6  C   UNL     1      -9.478   4.489  70.189  1.00  0.00    -0.237 A  
HETATM    7  C   UNL     1      -9.785   5.851  70.253  1.00  0.00    -0.169 A  
HETATM    8  C   UNL     1     -10.325   6.397  71.417  1.00  0.00    -0.240 A  
HETATM    9  C   UNL     1     -10.538   5.575  72.530  1.00  0.00    -0.272 A  
ENDROOT
BRANCH   7  10
HETATM   10  S   UNL     1      -9.455   6.883  68.844  1.00  0.00    -0.135 S  
HETATM   11  O   UNL     1      -8.721   6.128  67.854  1.00  0.00    -0.114 OA 
HETATM   12  O   UNL     1     -10.705   7.534  68.504  1.00  0.00    -0.170 OA 
BRANCH  10  13
HETATM   13  N   UNL     1      -8.472   8.095  69.429  1.00  0.00    -0.126 N  
HETATM   14  H   UNL     1      -8.207   8.066  70.413  1.00  0.00     0.000 HD 
HETATM   15  C   UNL     1      -7.991   9.150  68.644  1.00  0.00    -0.101 C  
HETATM   16  O   UNL     1      -8.245   9.273  67.457  1.00  0.00    -0.113 OA 
BRANCH  15  17
HETATM   17  C   UNL     1      -7.097  10.117  69.329  1.00  0.00    -0.076 A  
HETATM   18  C   UNL     1      -7.260  11.474  69.013  1.00  0.00    -0.106 A  
HETATM   19  C   UNL     1      -6.467  12.442  69.626  1.00  0.00    -0.063 A  
HETATM   20  C   UNL     1      -5.510  12.062  70.565  1.00  0.00    -0.156 A  
HETATM   21  C   UNL     1      -5.340  10.713  70.884  1.00  0.00    -0.100 A  
HETATM   22  C   UNL     1      -6.127   9.735  70.263  1.00  0.00    -0.068 A  
ENDBRANCH  15  17
ENDBRANCH  10  13
ENDBRANCH   7  10
TORSDOF 3
ENDMDL
MODEL      172
REMARK 921   NORMALIZED FREE ENERGY PREDICTED BY IDOCK:   -2.31 KCAL/MOL
REMARK 922        TOTAL FREE ENERGY PREDICTED BY IDOCK:   -3.04 KCAL/MOL
REMARK 923 INTER-LIGAND FREE ENERGY PREDICTED BY IDOCK:   -2.76 KCAL/MOL
REMARK 924 INTRA-LIGAND FREE ENERGY PREDICTED BY IDOCK:   -0.28 KCAL/MOL
REMARK 927      BINDING AFFINITY PREDICTED BY RF-SCORE:    0.00 PKD
ROOT
HETATM    1  N   UNL     1      -9.377   4.897  71.663  1.00  0.00    -0.144 NA 
HETATM    2  H2  UNL     1      -9.917   4.141  71.241  1.00  0.00     0.000 HD 
HETATM    3  C   UNL     1      -9.476   6.025  70.838  1.00  0.00    -0.168 A  
HETATM    4  H1  UNL     1      -8.460   4.533  71.922  1.00  0.00     0.000 HD 
HETATM    5  C   UNL     1     -10.733   6.525  70.483  1.00  0.00    -0.305 A  
HETATM    6  C   UNL     1     -10.851   7.706  69.744  1.00  0.00    -0.222 A  
HETATM    7  C   UNL     1      -9.701   8.425  69.407  1.00  0.00    -0.177 A  
HETATM    8  C   UNL     1      -8.445   7.977  69.816  1.00  0.00    -0.127 A  
HETATM    9  C   UNL     1      -8.341   6.789  70.550  1.00  0.00    -0.129 A  
ENDROOT
BRANCH   7  10
HETATM   10  S   UNL     1      -9.854   9.901  68.429  1.00  0.00    -0.156 S  
HETATM   11  O   UNL     1     -11.161   9.937  67.811  1.00  0.00    -0.269 OA 
HETATM   12  O   UNL     1      -9.397  10.999  69.259  1.00  0.00    -0.087 OA 
BRANCH  10  13
HETATM   13  N   UNL     1      -8.703   9.740  67.236  1.00  0.00    -0.132 N  
HETATM   14  H   UNL     1      -7.937  10.413  67.213  1.00  0.00     0.000 HD 
HETATM   15  C   UNL     1      -8.729   8.733  66.263  1.00  0.00    -0.147 C  
HETATM   16  O   UNL     1      -9.598   7.877  66.207  1.00  0.00    -0.195 OA 
BRANCH  15  17
HETATM   17  C   UNL     1      -7.598   8.726  65.303  1.00  0.00    -0.091 A  
HETATM   18  C   UNL     1      -7.884   8.356  63.980  1.00  0.00    -0.146 A  
HETATM   19  C   UNL     1      -6.876   8.339  63.017  1.00  0.00    -0.086 A  
HETATM   20  C   UNL     1      -5.577   8.698  63.368  1.00  0.00    -0.068 A  
HETATM   21  C   UNL     1      -5.282   9.066  64.682  1.00  0.00    -0.049 A  
HETATM   22  C   UNL     1      -6.289   9.075  65.656  1.00  0.00    -0.063 A  
ENDBRANCH  15  17
ENDBRANCH  10  13
ENDBRANCH   7  10
TORSDOF 3
ENDMDL
MODEL      173
REMARK 921   NORMALIZED FREE ENERGY PREDICTED BY IDOCK:   -2.18 KCAL/MOL
REMARK 922        TOTAL FREE ENERGY PREDICTED BY IDOCK:   -2.89 KCAL/MOL
REMARK 923 INTER-LIGAND FREE ENERGY PREDICTED BY IDOCK:   -2.97 KCAL/MOL
REMARK 924 INTRA-LIGAND FREE ENERGY PREDICTED BY IDOCK:    0.08 KCAL/MOL
REMARK 927      BINDING AFFINITY PREDICTED BY RF-SCORE:    0.00 PKD
ROOT
HETATM    1  N   UNL     1     -10.609   5.115  65.091  1.00  0.00    -0.178 NA 
HETATM    2  H2  UNL     1     -11.403   4.476  65.033  1.00  0.00     0.000 HD 
HETATM    3  C   UNL     1     -10.587   5.679  66.373  1.00  0.00    -0.191 A  
HETATM    4  H1  UNL     1     -10.620   5.717  64.268  1.00  0.00     0.000 HD 
HETATM    5  C   UNL     1     -10.572   4.853  67.502  1.00  0.00     0.060 A  
HETATM    6  C   UNL     1     -10.450   5.397  68.784  1.00  0.00    -0.219 A  
HETATM    7  C   UNL     1     -10.283   6.776  68.935  1.00  0.00    -0.175 A  
HETATM    8  C   UNL     1     -10.223   7.605  67.814  1.00  0.00    -0.259 A  
HETATM    9  C   UNL     1     -10.354   7.047  66.536  1.00  0.00    -0.107 A  
ENDROOT
BRANCH   7  10
HETATM   10  S   UNL     1     -10.172   7.464  70.569  1.00  0.00    -0.194 S  
HETATM   11  O   UNL     1      -8.890   8.112  70.735  1.00  0.00    -0.134 OA 
HETATM   12  O   UNL     1     -11.406   8.191  70.798  1.00  0.00    -0.271 OA 
BRANCH  10  13
HETATM   13  N   UNL     1     -10.241   6.148  71.588  1.00  0.00    -0.194 N  
HETATM   14  H   UNL     1     -11.098   5.995  72.119  1.00  0.00     0.000 HD 
HETATM   15  C   UNL     1      -9.187   5.241  71.756  1.00  0.00    -0.138 C  
HETATM   16  O   UNL     1      -8.123   5.332  71.164  1.00  0.00    -0.104 OA 
BRANCH  15  17
HETATM   17  C   UNL     1      -9.443   4.108  72.679  1.00  0.00    -0.168 A  
HETATM   18  C   UNL     1      -8.521   3.051  72.666  1.00  0.00    -0.077 A  
HETATM   19  C   UNL     1      -8.688   1.958  73.515  1.00  0.00    -0.062 A  
HETATM   20  C   UNL     1      -9.773   1.917  74.388  1.00  0.00    -0.114 A  
HETATM   21  C   UNL     1     -10.696   2.964  74.407  1.00  0.00    -0.157 A  
HETATM   22  C   UNL     1     -10.539   4.059  73.549  1.00  0.00    -0.282 A  
ENDBRANCH  15  17
ENDBRANCH  10  13
ENDBRANCH   7  10
TORSDOF 3
ENDMDL
MODEL      174
REMARK 921   NORMALIZED FREE ENERGY PREDICTED BY IDOCK:   -2.16 KCAL/MOL
REMARK 922        TOTAL FREE ENERGY PREDICTED BY IDOCK:   -2.86 KCAL/MOL
REMARK 923 INTER-LIGAND FREE ENERGY PREDICTED BY IDOCK:   -2.53 KCAL/MOL
REMARK 924 INTRA-LIGAND FREE ENERGY PREDICTED BY IDOCK:   -0.33 KCAL/MOL
REMARK 927      BINDING AFFINITY PREDICTED BY RF-SCORE:    0.00 PKD
ROOT
HETATM    1  N   UNL     1      -9.825   6.342  74.046  1.00  0.00    -0.207 NA 
HETATM    2  H2  UNL     1     -10.465   5.557  74.170  1.00  0.00     0.000 HD 
HETATM    3  C   UNL     1     -10.339   7.179  73.048  1.00  0.00    -0.271 A  
HETATM    4  H1  UNL     1      -8.877   5.975  73.968  1.00  0.00     0.000 HD 
HETATM    5  C   UNL     1     -11.639   7.683  73.156  1.00  0.00    -0.012 A  
HETATM    6  C   UNL     1     -12.132   8.597  72.220  1.00  0.00    -0.443 A  
HETATM    7  C   UNL     1     -11.295   9.057  71.199  1.00  0.00    -0.307 A  
HETATM    8  C   UNL     1      -9.973   8.618  71.121  1.00  0.00    -0.289 A  
HETATM    9  C   UNL     1      -9.495   7.697  72.061  1.00  0.00    -0.194 A  
ENDROOT
BRANCH   7  10
HETATM   10  S   UNL     1     -11.941  10.186  69.988  1.00  0.00    -0.078 S  
HETATM   11  O   UNL     1     -13.166   9.651  69.435  1.00  0.00     1.630 OA 
HETATM   12  O   UNL     1     -11.914  11.504  70.591  1.00  0.00    -0.361 OA 
BRANCH  10  13
HETATM   13  N   UNL     1     -10.786  10.226  68.788  1.00  0.00    -0.218 N  
HETATM   14  H   UNL     1      -9.903   9.743  68.955  1.00  0.00     0.000 HD 
HETATM   15  C   UNL     1     -10.960  10.884  67.565  1.00  0.00    -0.293 C  
HETATM   16  O   UNL     1     -11.980  11.484  67.266  1.00  0.00    -0.605 OA 
BRANCH  15  17
HETATM   17  C   UNL     1      -9.835  10.781  66.603  1.00  0.00    -0.241 A  
HETATM   18  C   UNL     1      -8.580  10.427  67.121  1.00  0.00    -0.130 A  
HETATM   19  C   UNL     1      -7.479  10.297  66.277  1.00  0.00    -0.118 A  
HETATM   20  C   UNL     1      -7.624  10.512  64.909  1.00  0.00    -0.006 A  
HETATM   21  C   UNL     1      -8.869  10.865  64.384  1.00  0.00    -0.070 A  
HETATM   22  C   UNL     1      -9.977  11.008  65.229  1.00  0.00    -0.320 A  
ENDBRANCH  15  17
ENDBRANCH  10  13
ENDBRANCH   7  10
TORSDOF 3
ENDMDL
MODEL      175
REMARK 921   NORMALIZED FREE ENERGY PREDICTED BY IDOCK:   -1.94 KCAL/MOL
REMARK 922        TOTAL FREE ENERGY PREDICTED BY IDOCK:   -2.60 KCAL/MOL
REMARK 923 INTER-LIGAND FREE ENERGY PREDICTED BY IDOCK:   -2.55 KCAL/MOL
REMARK 924 INTRA-LIGAND FREE ENERGY PREDICTED BY IDOCK:   -0.05 KCAL/MOL
REMARK 927      BINDING AFFINITY PREDICTED BY RF-SCORE:    0.00 PKD
ROOT
HETATM    1  N   UNL     1      -8.326   4.537  71.671  1.00  0.00    -0.101 NA 
HETATM    2  H2  UNL     1      -7.467   5.045  71.884  1.00  0.00     0.000 HD 
HETATM    3  C   UNL     1      -8.562   4.628  70.293  1.00  0.00    -0.081 A  
HETATM    4  H1  UNL     1      -9.045   4.829  72.333  1.00  0.00     0.000 HD 
HETATM    5  C   UNL     1      -7.576   4.228  69.385  1.00  0.00    -0.054 A  
HETATM    6  C   UNL     1      -7.832   4.218  68.010  1.00  0.00    -0.079 A  
HETATM    7  C   UNL     1      -9.105   4.556  67.544  1.00  0.00    -0.121 A  
HETATM    8  C   UNL     1     -10.119   4.887  68.442  1.00  0.00    -0.148 A  
HETATM    9  C   UNL     1      -9.847   4.900  69.816  1.00  0.00    -0.292 A  
ENDROOT
BRANCH   7  10
HETATM   10  S   UNL     1      -9.409   4.584  65.793  1.00  0.00    -0.175 S  
HETATM   11  O   UNL     1      -8.769   3.444  65.174  1.00  0.00    -0.112 OA 
HETATM   12  O   UNL     1     -10.829   4.820  65.622  1.00  0.00    -0.274 OA 
BRANCH  10  13
HETATM   13  N   UNL     1      -8.663   5.972  65.256  1.00  0.00    -0.304 N  
HETATM   14  H   UNL     1      -8.583   6.757  65.903  1.00  0.00     0.000 HD 
HETATM   15  C   UNL     1      -8.139   6.123  63.966  1.00  0.00    -0.074 C  
HETATM   16  O   UNL     1      -8.177   5.244  63.120  1.00  0.00    -0.102 OA 
BRANCH  15  17
HETATM   17  C   UNL     1      -7.476   7.420  63.679  1.00  0.00    -0.104 A  
HETATM   18  C   UNL     1      -7.713   8.472  64.576  1.00  0.00    -0.126 A  
HETATM   19  C   UNL     1      -7.115   9.715  64.379  1.00  0.00    -0.118 A  
HETATM   20  C   UNL     1      -6.269   9.914  63.290  1.00  0.00    -0.123 A  
HETATM   21  C   UNL     1      -6.029   8.873  62.391  1.00  0.00    -0.091 A  
HETATM   22  C   UNL     1      -6.636   7.624  62.578  1.00  0.00    -0.072 A  
ENDBRANCH  15  17
ENDBRANCH  10  13
ENDBRANCH   7  10
TORSDOF 3
ENDMDL
MODEL      176
REMARK 921   NORMALIZED FREE ENERGY PREDICTED BY IDOCK:   -1.89 KCAL/MOL
REMARK 922        TOTAL FREE ENERGY PREDICTED BY IDOCK:   -2.55 KCAL/MOL
REMARK 923 INTER-LIGAND FREE ENERGY PREDICTED BY IDOCK:   -2.39 KCAL/MOL
REMARK 924 INTRA-LIGAND FREE ENERGY PREDICTED BY IDOCK:   -0.15 KCAL/MOL
REMARK 927      BINDING AFFINITY PREDICTED BY RF-SCORE:    0.00 PKD
ROOT
HETATM    1  N   UNL     1      -9.493   4.148  72.066  1.00  0.00    -0.130 NA 
HETATM    2  H2  UNL     1      -8.531   3.811  72.117  1.00  0.00     0.000 HD 
HETATM    3  C   UNL     1      -9.527   5.264  71.221  1.00  0.00    -0.151 A  
HETATM    4  H1  UNL     1      -9.862   4.214  73.015  1.00  0.00     0.000 HD 
HETATM    5  C   UNL     1      -9.022   5.174  69.920  1.00  0.00    -0.139 A  
HETATM    6  C   UNL     1      -9.137   6.247  69.031  1.00  0.00    -0.129 A  
HETATM    7  C   UNL     1      -9.816   7.401  69.430  1.00  0.00    -0.168 A  
HETATM    8  C   UNL     1     -10.388   7.479  70.700  1.00  0.00    -0.211 A  
HETATM    9  C   UNL     1     -10.259   6.399  71.582  1.00  0.00    -0.221 A  
ENDROOT
BRANCH   7  10
HETATM   10  S   UNL     1      -9.920   8.778  68.311  1.00  0.00    -0.182 S  
HETATM   11  O   UNL     1      -9.653   8.326  66.964  1.00  0.00    -0.163 OA 
HETATM   12  O   UNL     1     -11.149   9.479  68.628  1.00  0.00    -0.121 OA 
BRANCH  10  13
HETATM   13  N   UNL     1      -8.694   9.801  68.784  1.00  0.00    -0.124 N  
HETATM   14  H   UNL     1      -7.928   9.412  69.335  1.00  0.00     0.000 HD 
HETATM   15  C   UNL     1      -8.655  11.165  68.468  1.00  0.00    -0.157 C  
HETATM   16  O   UNL     1      -9.518  11.725  67.810  1.00  0.00    -0.172 OA 
BRANCH  15  17
HETATM   17  C   UNL     1      -7.464  11.911  68.945  1.00  0.00    -0.060 A  
HETATM   18  C   UNL     1      -6.342  11.156  69.316  1.00  0.00    -0.076 A  
HETATM   19  C   UNL     1      -5.182  11.787  69.761  1.00  0.00    -0.070 A  
HETATM   20  C   UNL     1      -5.131  13.177  69.830  1.00  0.00    -0.082 A  
HETATM   21  C   UNL     1      -6.244  13.937  69.463  1.00  0.00    -0.115 A  
HETATM   22  C   UNL     1      -7.416  13.308  69.026  1.00  0.00     0.077 A  
ENDBRANCH  15  17
ENDBRANCH  10  13
ENDBRANCH   7  10
TORSDOF 3
ENDMDL
MODEL      177
REMARK 921   NORMALIZED FREE ENERGY PREDICTED BY IDOCK:   -0.74 KCAL/MOL
REMARK 922        TOTAL FREE ENERGY PREDICTED BY IDOCK:   -1.19 KCAL/MOL
REMARK 923 INTER-LIGAND FREE ENERGY PREDICTED BY IDOCK:   -1.40 KCAL/MOL
REMARK 924 INTRA-LIGAND FREE ENERGY PREDICTED BY IDOCK:    0.21 KCAL/MOL
REMARK 927      BINDING AFFINITY PREDICTED BY RF-SCORE:    0.00 PKD
ROOT
HETATM    1  N   UNL     1      -9.825   6.098  74.159  1.00  0.00    -0.208 NA 
HETATM    2  H2  UNL     1     -10.553   5.384  74.159  1.00  0.00     0.000 HD 
HETATM    3  C   UNL     1     -10.065   6.974  73.092  1.00  0.00    -0.227 A  
HETATM    4  H1  UNL     1      -8.920   5.636  74.246  1.00  0.00     0.000 HD 
HETATM    5  C   UNL     1     -11.306   7.609  72.972  1.00  0.00    -0.334 A  
HETATM    6  C   UNL     1     -11.529   8.560  71.972  1.00  0.00    -0.431 A  
HETATM    7  C   UNL     1     -10.482   8.922  71.120  1.00  0.00    -0.266 A  
HETATM    8  C   UNL     1      -9.219   8.351  71.274  1.00  0.00    -0.228 A  
HETATM    9  C   UNL     1      -9.012   7.394  72.275  1.00  0.00    -0.154 A  
ENDROOT
BRANCH   7  10
HETATM   10  S   UNL     1     -10.785  10.099  69.824  1.00  0.00    -0.297 S  
HETATM   11  O   UNL     1     -11.999   9.743  69.122  1.00  0.00     0.307 OA 
HETATM   12  O   UNL     1     -10.627  11.415  70.411  1.00  0.00     0.753 OA 
BRANCH  10  13
HETATM   13  N   UNL     1      -9.496   9.923  68.783  1.00  0.00    -0.152 N  
HETATM   14  H   UNL     1      -9.629   9.358  67.944  1.00  0.00     0.000 HD 
HETATM   15  C   UNL     1      -8.242  10.508  68.996  1.00  0.00    -0.145 C  
HETATM   16  O   UNL     1      -7.982  11.205  69.963  1.00  0.00     0.476 OA 
BRANCH  15  17
HETATM   17  C   UNL     1      -7.225  10.271  67.941  1.00  0.00    -0.085 A  
HETATM   18  C   UNL     1      -6.846   8.941  67.705  1.00  0.00    -0.070 A  
HETATM   19  C   UNL     1      -5.907   8.638  66.721  1.00  0.00    -0.052 A  
HETATM   20  C   UNL     1      -5.344   9.662  65.961  1.00  0.00    -0.036 A  
HETATM   21  C   UNL     1      -5.714  10.988  66.190  1.00  0.00    -0.143 A  
HETATM   22  C   UNL     1      -6.650  11.299  67.185  1.00  0.00    -0.106 A  
ENDBRANCH  15  17
ENDBRANCH  10  13
ENDBRANCH   7  10
TORSDOF 3
ENDMDL
MODEL      178
REMARK 921   NORMALIZED FREE ENERGY PREDICTED BY IDOCK:    2.18 KCAL/MOL
REMARK 922        TOTAL FREE ENERGY PREDICTED BY IDOCK:    2.24 KCAL/MOL
REMARK 923 INTER-LIGAND FREE ENERGY PREDICTED BY IDOCK:   -0.17 KCAL/MOL
REMARK 924 INTRA-LIGAND FREE ENERGY PREDICTED BY IDOCK:    2.41 KCAL/MOL
REMARK 927      BINDING AFFINITY PREDICTED BY RF-SCORE:    0.00 PKD
ROOT
HETATM    1  N   UNL     1     -12.926  15.076  65.848  1.00  0.00     0.382 NA 
HETATM    2  H2  UNL     1     -13.351  15.429  64.990  1.00  0.00     0.000 HD 
HETATM    3  C   UNL     1     -11.605  15.538  65.909  1.00  0.00     0.201 A  
HETATM    4  H1  UNL     1     -13.122  14.078  65.918  1.00  0.00     0.000 HD 
HETATM    5  C   UNL     1     -11.335  16.907  65.814  1.00  0.00     0.689 A  
HETATM    6  C   UNL     1     -10.033  17.392  65.972  1.00  0.00    -0.230 A  
HETATM    7  C   UNL     1      -9.001  16.504  66.287  1.00  0.00    -0.324 A  
HETATM    8  C   UNL     1      -9.267  15.145  66.456  1.00  0.00    -0.318 A  
HETATM    9  C   UNL     1     -10.574  14.673  66.288  1.00  0.00    -0.306 A  
ENDROOT
BRANCH   7  10
HETATM   10  S   UNL     1      -7.342  17.122  66.443  1.00  0.00    -0.297 S  
HETATM   11  O   UNL     1      -6.619  16.881  65.214  1.00  0.00     1.144 OA 
HETATM   12  O   UNL     1      -7.446  18.460  66.992  1.00  0.00    -0.207 OA 
BRANCH  10  13
HETATM   13  N   UNL     1      -6.659  16.201  67.652  1.00  0.00    -0.140 N  
HETATM   14  H   UNL     1      -5.643  16.123  67.682  1.00  0.00     0.000 HD 
HETATM   15  C   UNL     1      -7.404  15.529  68.629  1.00  0.00    -0.125 C  
HETATM   16  O   UNL     1      -8.623  15.564  68.686  1.00  0.00    -0.160 OA 
BRANCH  15  17
HETATM   17  C   UNL     1      -6.621  14.787  69.649  1.00  0.00    -0.161 A  
HETATM   18  C   UNL     1      -6.056  15.537  70.692  1.00  0.00     0.125 A  
HETATM   19  C   UNL     1      -5.320  14.908  71.695  1.00  0.00    -0.053 A  
HETATM   20  C   UNL     1      -5.148  13.526  71.666  1.00  0.00    -0.177 A  
HETATM   21  C   UNL     1      -5.706  12.772  70.631  1.00  0.00    -0.156 A  
HETATM   22  C   UNL     1      -6.438  13.400  69.616  1.00  0.00    -0.056 A  
ENDBRANCH  15  17
ENDBRANCH  10  13
ENDBRANCH   7  10
TORSDOF 3
ENDMDL
MODEL      179
REMARK 921   NORMALIZED FREE ENERGY PREDICTED BY IDOCK:   17.91 KCAL/MOL
REMARK 922        TOTAL FREE ENERGY PREDICTED BY IDOCK:   20.73 KCAL/MOL
REMARK 923 INTER-LIGAND FREE ENERGY PREDICTED BY IDOCK:   18.19 KCAL/MOL
REMARK 924 INTRA-LIGAND FREE ENERGY PREDICTED BY IDOCK:    2.54 KCAL/MOL
REMARK 927      BINDING AFFINITY PREDICTED BY RF-SCORE:    0.00 PKD
ROOT
HETATM    1  N   UNL     1      -9.626  18.766  67.569  1.00  0.00    -0.297 NA 
HETATM    2  H2  UNL     1     -10.623  18.977  67.637  1.00  0.00     0.000 HD 
HETATM    3  C   UNL     1      -9.316  17.789  68.524  1.00  0.00    -0.295 A  
HETATM    4  H1  UNL     1      -9.111  19.646  67.552  1.00  0.00     0.000 HD 
HETATM    5  C   UNL     1     -10.023  16.582  68.547  1.00  0.00    -0.251 A  
HETATM    6  C   UNL     1      -9.661  15.558  69.428  1.00  0.00    -0.279 A  
HETATM    7  C   UNL     1      -8.544  15.721  70.252  1.00  0.00     1.135 A  
HETATM    8  C   UNL     1      -7.786  16.891  70.189  1.00  0.00     1.960 A  
HETATM    9  C   UNL     1      -8.165  17.911  69.307  1.00  0.00     0.248 A  
ENDROOT
BRANCH   7  10
HETATM   10  S   UNL     1      -8.116  14.434  71.400  1.00  0.00     5.285 S  
HETATM   11  O   UNL     1      -7.033  14.882  72.246  1.00  0.00     1.782 OA 
HETATM   12  O   UNL     1      -9.360  13.960  71.976  1.00  0.00     7.476 OA 
BRANCH  10  13
HETATM   13  N   UNL     1      -7.566  13.183  70.447  1.00  0.00     1.845 N  
HETATM   14  H   UNL     1      -7.064  12.419  70.899  1.00  0.00     0.000 HD 
HETATM   15  C   UNL     1      -7.755  13.123  69.061  1.00  0.00     0.178 C  
HETATM   16  O   UNL     1      -8.347  13.982  68.426  1.00  0.00    -0.154 OA 
BRANCH  15  17
HETATM   17  C   UNL     1      -7.227  11.913  68.383  1.00  0.00    -0.091 A  
HETATM   18  C   UNL     1      -5.845  11.686  68.463  1.00  0.00    -0.049 A  
HETATM   19  C   UNL     1      -5.278  10.563  67.863  1.00  0.00    -0.037 A  
HETATM   20  C   UNL     1      -6.088   9.655  67.185  1.00  0.00    -0.063 A  
HETATM   21  C   UNL     1      -7.465   9.873  67.099  1.00  0.00    -0.091 A  
HETATM   22  C   UNL     1      -8.038  11.005  67.691  1.00  0.00    -0.116 A  
ENDBRANCH  15  17
ENDBRANCH  10  13
ENDBRANCH   7  10
TORSDOF 3
ENDMDL
