MODEL        1
REMARK 921   NORMALIZED FREE ENERGY PREDICTED BY IDOCK:   -6.58 KCAL/MOL
REMARK 922        TOTAL FREE ENERGY PREDICTED BY IDOCK:   -9.69 KCAL/MOL
REMARK 923 INTER-LIGAND FREE ENERGY PREDICTED BY IDOCK:   -8.89 KCAL/MOL
REMARK 924 INTRA-LIGAND FREE ENERGY PREDICTED BY IDOCK:   -0.80 KCAL/MOL
REMARK 927      BINDING AFFINITY PREDICTED BY RF-SCORE:    0.00 PKD
ROOT
HETATM    1  O   UNL     1     -14.061   7.156  71.525  1.00  0.00    -0.395 OA 
HETATM    2  S   UNL     1     -13.948   8.759  71.481  1.00  0.00    -0.263 S  
HETATM    3  C   UNL     1     -12.127   8.760  71.229  1.00  0.00    -0.296 C  
HETATM    4  O   UNL     1     -14.234   9.205  72.884  1.00  0.00    -0.512 OA 
ENDROOT
BRANCH   3   5
HETATM    5  N   UNL     1     -11.686  10.152  71.149  1.00  0.00    -0.369 NA 
HETATM    6  H   UNL     1     -11.425  10.679  71.982  1.00  0.00     0.000 HD 
BRANCH   5   7
HETATM    7  C   UNL     1     -11.639  10.729  69.870  1.00  0.00    -0.331 A  
HETATM    8  C   UNL     1     -12.021  12.053  69.617  1.00  0.00    -0.360 A  
HETATM    9  C   UNL     1     -11.974  12.589  68.326  1.00  0.00    -0.274 A  
HETATM   10  C   UNL     1     -11.523  11.800  67.268  1.00  0.00    -0.303 A  
HETATM   11  C   UNL     1     -11.012  10.527  67.514  1.00  0.00    -0.365 A  
HETATM   12  C   UNL     1     -11.061  10.005  68.814  1.00  0.00    -0.219 A  
BRANCH  10  13
HETATM   13  S   UNL     1     -11.551  12.458  65.613  1.00  0.00    -0.399 S  
HETATM   14  O   UNL     1     -10.703  11.611  64.792  1.00  0.00    -0.285 OA 
HETATM   15  O   UNL     1     -12.947  12.664  65.263  1.00  0.00    -0.657 OA 
BRANCH  13  16
HETATM   16  C   UNL     1     -10.766  14.062  65.653  1.00  0.00    -0.303 A  
HETATM   17  C   UNL     1     -11.371  15.139  65.005  1.00  0.00    -0.381 A  
HETATM   18  C   UNL     1     -10.799  16.416  65.092  1.00  0.00    -0.289 A  
HETATM   19  C   UNL     1      -9.650  16.650  65.864  1.00  0.00    -0.214 A  
HETATM   20  C   UNL     1      -9.580  14.252  66.363  1.00  0.00    -0.317 A  
HETATM   21  C   UNL     1      -9.023  15.537  66.450  1.00  0.00    -0.359 A  
BRANCH  19  22
HETATM   22  N   UNL     1      -9.037  17.924  65.971  1.00  0.00    -0.518 NA 
HETATM   23  H   UNL     1      -8.084  18.104  65.655  1.00  0.00     0.000 HD 
BRANCH  22  24
HETATM   24  C   UNL     1      -9.885  18.969  66.572  1.00  0.00    -0.369 C  
HETATM   25  S   UNL     1      -9.822  18.754  68.401  1.00  0.00    -0.400 S  
HETATM   26  O   UNL     1     -10.387  19.995  69.021  1.00  0.00    -0.382 OA 
HETATM   27  O   UNL     1      -8.216  18.873  68.480  1.00  0.00    -0.331 OA 
ENDBRANCH  22  24
ENDBRANCH  19  22
ENDBRANCH  13  16
ENDBRANCH  10  13
ENDBRANCH   5   7
ENDBRANCH   3   5
TORSDOF 6
ENDMDL
MODEL        2
REMARK 921   NORMALIZED FREE ENERGY PREDICTED BY IDOCK:   -6.46 KCAL/MOL
REMARK 922        TOTAL FREE ENERGY PREDICTED BY IDOCK:   -9.52 KCAL/MOL
REMARK 923 INTER-LIGAND FREE ENERGY PREDICTED BY IDOCK:   -8.73 KCAL/MOL
REMARK 924 INTRA-LIGAND FREE ENERGY PREDICTED BY IDOCK:   -0.79 KCAL/MOL
REMARK 927      BINDING AFFINITY PREDICTED BY RF-SCORE:    0.00 PKD
ROOT
HETATM    1  O   UNL     1     -10.357  19.823  68.953  1.00  0.00    -0.396 OA 
HETATM    2  S   UNL     1     -10.491  19.341  67.425  1.00  0.00    -0.482 S  
HETATM    3  C   UNL     1      -8.991  18.279  67.486  1.00  0.00    -0.253 C  
HETATM    4  O   UNL     1     -10.178  20.557  66.607  1.00  0.00    -0.357 OA 
ENDROOT
BRANCH   3   5
HETATM    5  N   UNL     1      -8.823  17.664  66.169  1.00  0.00    -0.490 NA 
HETATM    6  H   UNL     1      -8.274  18.114  65.436  1.00  0.00     0.000 HD 
BRANCH   5   7
HETATM    7  C   UNL     1      -9.454  16.428  65.962  1.00  0.00    -0.310 A  
HETATM    8  C   UNL     1     -10.654  16.294  65.250  1.00  0.00    -0.357 A  
HETATM    9  C   UNL     1     -11.260  15.046  65.077  1.00  0.00    -0.413 A  
HETATM   10  C   UNL     1     -10.655  13.906  65.604  1.00  0.00    -0.301 A  
HETATM   11  C   UNL     1      -9.396  13.994  66.197  1.00  0.00    -0.143 A  
HETATM   12  C   UNL     1      -8.799  15.250  66.360  1.00  0.00    -0.311 A  
BRANCH  10  13
HETATM   13  S   UNL     1     -11.477  12.332  65.458  1.00  0.00    -0.357 S  
HETATM   14  O   UNL     1     -12.881  12.594  65.200  1.00  0.00    -0.721 OA 
HETATM   15  O   UNL     1     -10.694  11.530  64.532  1.00  0.00    -0.299 OA 
BRANCH  13  16
HETATM   16  C   UNL     1     -11.403  11.532  67.054  1.00  0.00    -0.269 A  
HETATM   17  C   UNL     1     -10.799  10.279  67.167  1.00  0.00    -0.278 A  
HETATM   18  C   UNL     1     -10.673   9.676  68.426  1.00  0.00    -0.251 A  
HETATM   19  C   UNL     1     -11.097  10.330  69.594  1.00  0.00    -0.274 A  
HETATM   20  C   UNL     1     -11.903  12.169  68.189  1.00  0.00    -0.362 A  
HETATM   21  C   UNL     1     -11.762  11.560  69.445  1.00  0.00    -0.413 A  
BRANCH  19  22
HETATM   22  N   UNL     1     -10.994   9.751  70.884  1.00  0.00    -0.326 NA 
HETATM   23  H   UNL     1     -10.172   9.230  71.188  1.00  0.00     0.000 HD 
BRANCH  22  24
HETATM   24  C   UNL     1     -12.167   9.961  71.751  1.00  0.00    -0.341 C  
HETATM   25  S   UNL     1     -13.334   8.566  71.458  1.00  0.00    -0.254 S  
HETATM   26  O   UNL     1     -14.346   8.585  72.563  1.00  0.00    -0.469 OA 
HETATM   27  O   UNL     1     -12.253   7.427  71.824  1.00  0.00    -0.301 OA 
ENDBRANCH  22  24
ENDBRANCH  19  22
ENDBRANCH  13  16
ENDBRANCH  10  13
ENDBRANCH   5   7
ENDBRANCH   3   5
TORSDOF 6
ENDMDL
MODEL        3
REMARK 921   NORMALIZED FREE ENERGY PREDICTED BY IDOCK:   -6.46 KCAL/MOL
REMARK 922        TOTAL FREE ENERGY PREDICTED BY IDOCK:   -9.52 KCAL/MOL
REMARK 923 INTER-LIGAND FREE ENERGY PREDICTED BY IDOCK:   -8.67 KCAL/MOL
REMARK 924 INTRA-LIGAND FREE ENERGY PREDICTED BY IDOCK:   -0.85 KCAL/MOL
REMARK 927      BINDING AFFINITY PREDICTED BY RF-SCORE:    0.00 PKD
ROOT
HETATM    1  O   UNL     1     -12.987   6.668  71.879  1.00  0.00    -0.306 OA 
HETATM    2  S   UNL     1     -11.586   7.031  71.179  1.00  0.00    -0.330 S  
HETATM    3  C   UNL     1     -11.820   8.848  71.340  1.00  0.00    -0.317 C  
HETATM    4  O   UNL     1     -11.764   6.655  69.739  1.00  0.00    -0.332 OA 
ENDROOT
BRANCH   3   5
HETATM    5  N   UNL     1     -10.650   9.504  70.759  1.00  0.00    -0.295 NA 
HETATM    6  H   UNL     1      -9.746   9.500  71.230  1.00  0.00     0.000 HD 
BRANCH   5   7
HETATM    7  C   UNL     1     -10.830  10.140  69.520  1.00  0.00    -0.255 A  
HETATM    8  C   UNL     1     -10.438   9.565  68.304  1.00  0.00    -0.265 A  
HETATM    9  C   UNL     1     -10.621  10.236  67.091  1.00  0.00    -0.320 A  
HETATM   10  C   UNL     1     -11.222  11.495  67.083  1.00  0.00    -0.301 A  
HETATM   11  C   UNL     1     -11.743  12.028  68.261  1.00  0.00    -0.396 A  
HETATM   12  C   UNL     1     -11.555  11.342  69.468  1.00  0.00    -0.399 A  
BRANCH  10  13
HETATM   13  S   UNL     1     -11.371  12.383  65.546  1.00  0.00    -0.360 S  
HETATM   14  O   UNL     1     -10.569  11.685  64.558  1.00  0.00    -0.282 OA 
HETATM   15  O   UNL     1     -12.791  12.604  65.321  1.00  0.00    -0.656 OA 
BRANCH  13  16
HETATM   16  C   UNL     1     -10.609  13.984  65.769  1.00  0.00    -0.299 A  
HETATM   17  C   UNL     1      -9.424  14.084  66.498  1.00  0.00    -0.295 A  
HETATM   18  C   UNL     1      -8.781  15.323  66.617  1.00  0.00    -0.327 A  
HETATM   19  C   UNL     1      -9.277  16.468  65.973  1.00  0.00    -0.260 A  
HETATM   20  C   UNL     1     -11.165  15.120  65.183  1.00  0.00    -0.392 A  
HETATM   21  C   UNL     1     -10.507  16.354  65.302  1.00  0.00    -0.285 A  
BRANCH  19  22
HETATM   22  N   UNL     1      -8.661  17.740  66.076  1.00  0.00    -0.520 NA 
HETATM   23  H   UNL     1      -7.675  17.892  65.862  1.00  0.00     0.000 HD 
BRANCH  22  24
HETATM   24  C   UNL     1      -9.555  18.827  66.513  1.00  0.00    -0.348 C  
HETATM   25  S   UNL     1      -9.779  18.664  68.335  1.00  0.00    -0.385 S  
HETATM   26  O   UNL     1     -10.391  19.939  68.830  1.00  0.00    -0.414 OA 
HETATM   27  O   UNL     1      -8.202  18.737  68.657  1.00  0.00    -0.331 OA 
ENDBRANCH  22  24
ENDBRANCH  19  22
ENDBRANCH  13  16
ENDBRANCH  10  13
ENDBRANCH   5   7
ENDBRANCH   3   5
TORSDOF 6
ENDMDL
MODEL        4
REMARK 921   NORMALIZED FREE ENERGY PREDICTED BY IDOCK:   -6.39 KCAL/MOL
REMARK 922        TOTAL FREE ENERGY PREDICTED BY IDOCK:   -9.43 KCAL/MOL
REMARK 923 INTER-LIGAND FREE ENERGY PREDICTED BY IDOCK:   -8.66 KCAL/MOL
REMARK 924 INTRA-LIGAND FREE ENERGY PREDICTED BY IDOCK:   -0.77 KCAL/MOL
REMARK 927      BINDING AFFINITY PREDICTED BY RF-SCORE:    0.00 PKD
ROOT
HETATM    1  O   UNL     1     -11.115   6.192  72.478  1.00  0.00    -0.246 OA 
HETATM    2  S   UNL     1     -10.983   7.752  72.841  1.00  0.00    -0.376 S  
HETATM    3  C   UNL     1     -11.603   8.325  71.207  1.00  0.00    -0.281 C  
HETATM    4  O   UNL     1      -9.508   8.011  72.906  1.00  0.00    -0.225 OA 
ENDROOT
BRANCH   3   5
HETATM    5  N   UNL     1     -11.600   9.787  71.214  1.00  0.00    -0.373 NA 
HETATM    6  H   UNL     1     -11.642  10.317  72.085  1.00  0.00     0.000 HD 
BRANCH   5   7
HETATM    7  C   UNL     1     -11.538  10.427  69.966  1.00  0.00    -0.301 A  
HETATM    8  C   UNL     1     -11.959  11.748  69.766  1.00  0.00    -0.392 A  
HETATM    9  C   UNL     1     -11.896  12.347  68.504  1.00  0.00    -0.352 A  
HETATM   10  C   UNL     1     -11.388  11.627  67.423  1.00  0.00    -0.300 A  
HETATM   11  C   UNL     1     -10.838  10.361  67.623  1.00  0.00    -0.361 A  
HETATM   12  C   UNL     1     -10.905   9.776  68.894  1.00  0.00    -0.220 A  
BRANCH  10  13
HETATM   13  S   UNL     1     -11.392  12.363  65.801  1.00  0.00    -0.368 S  
HETATM   14  O   UNL     1     -10.558  11.539  64.945  1.00  0.00    -0.279 OA 
HETATM   15  O   UNL     1     -12.782  12.615  65.455  1.00  0.00    -0.635 OA 
BRANCH  13  16
HETATM   16  C   UNL     1     -10.574  13.946  65.921  1.00  0.00    -0.293 A  
HETATM   17  C   UNL     1      -9.348  14.037  66.582  1.00  0.00    -0.292 A  
HETATM   18  C   UNL     1      -8.665  15.260  66.620  1.00  0.00    -0.327 A  
HETATM   19  C   UNL     1      -9.163  16.395  65.959  1.00  0.00    -0.293 A  
HETATM   20  C   UNL     1     -11.129  15.077  65.323  1.00  0.00    -0.391 A  
HETATM   21  C   UNL     1     -10.430  16.294  65.359  1.00  0.00    -0.365 A  
BRANCH  19  22
HETATM   22  N   UNL     1      -8.506  17.651  65.980  1.00  0.00    -0.528 NA 
HETATM   23  H   UNL     1      -7.545  17.774  65.661  1.00  0.00     0.000 HD 
BRANCH  22  24
HETATM   24  C   UNL     1      -9.319  18.765  66.499  1.00  0.00    -0.336 C  
HETATM   25  S   UNL     1      -9.553  18.491  68.306  1.00  0.00    -0.360 S  
HETATM   26  O   UNL     1     -10.070  19.769  68.893  1.00  0.00    -0.455 OA 
HETATM   27  O   UNL     1      -7.974  18.428  68.623  1.00  0.00    -0.306 OA 
ENDBRANCH  22  24
ENDBRANCH  19  22
ENDBRANCH  13  16
ENDBRANCH  10  13
ENDBRANCH   5   7
ENDBRANCH   3   5
TORSDOF 6
ENDMDL
MODEL        5
REMARK 921   NORMALIZED FREE ENERGY PREDICTED BY IDOCK:   -6.25 KCAL/MOL
REMARK 922        TOTAL FREE ENERGY PREDICTED BY IDOCK:   -9.24 KCAL/MOL
REMARK 923 INTER-LIGAND FREE ENERGY PREDICTED BY IDOCK:   -8.57 KCAL/MOL
REMARK 924 INTRA-LIGAND FREE ENERGY PREDICTED BY IDOCK:   -0.68 KCAL/MOL
REMARK 927      BINDING AFFINITY PREDICTED BY RF-SCORE:    0.00 PKD
ROOT
HETATM    1  O   UNL     1     -11.143   5.979  71.355  1.00  0.00    -0.272 OA 
HETATM    2  S   UNL     1     -11.771   7.424  71.675  1.00  0.00    -0.293 S  
HETATM    3  C   UNL     1     -10.651   8.318  70.524  1.00  0.00    -0.219 C  
HETATM    4  O   UNL     1     -11.348   7.727  73.081  1.00  0.00    -0.374 OA 
ENDROOT
BRANCH   3   5
HETATM    5  N   UNL     1     -10.983   9.740  70.589  1.00  0.00    -0.307 NA 
HETATM    6  H   UNL     1     -11.127  10.215  71.480  1.00  0.00     0.000 HD 
BRANCH   5   7
HETATM    7  C   UNL     1     -11.094  10.422  69.367  1.00  0.00    -0.254 A  
HETATM    8  C   UNL     1     -11.725  11.667  69.243  1.00  0.00    -0.396 A  
HETATM    9  C   UNL     1     -11.830  12.309  68.006  1.00  0.00    -0.368 A  
HETATM   10  C   UNL     1     -11.280  11.712  66.871  1.00  0.00    -0.313 A  
HETATM   11  C   UNL     1     -10.530  10.543  66.990  1.00  0.00    -0.304 A  
HETATM   12  C   UNL     1     -10.431   9.913  68.237  1.00  0.00    -0.246 A  
BRANCH  10  13
HETATM   13  S   UNL     1     -11.493  12.490  65.282  1.00  0.00    -0.347 S  
HETATM   14  O   UNL     1     -10.650  11.786  64.334  1.00  0.00    -0.276 OA 
HETATM   15  O   UNL     1     -12.925  12.602  65.055  1.00  0.00    -0.812 OA 
BRANCH  13  16
HETATM   16  C   UNL     1     -10.838  14.148  65.399  1.00  0.00    -0.337 A  
HETATM   17  C   UNL     1     -11.472  15.187  64.716  1.00  0.00    -0.383 A  
HETATM   18  C   UNL     1     -11.008  16.501  64.859  1.00  0.00    -0.223 A  
HETATM   19  C   UNL     1      -9.942  16.809  65.719  1.00  0.00    -0.215 A  
HETATM   20  C   UNL     1      -9.728  14.416  66.199  1.00  0.00    -0.335 A  
HETATM   21  C   UNL     1      -9.278  15.738  66.342  1.00  0.00    -0.347 A  
BRANCH  19  22
HETATM   22  N   UNL     1      -9.438  18.124  65.885  1.00  0.00    -0.498 NA 
HETATM   23  H   UNL     1      -8.525  18.412  65.531  1.00  0.00     0.000 HD 
BRANCH  22  24
HETATM   24  C   UNL     1     -10.335  19.043  66.607  1.00  0.00    -0.428 C  
HETATM   25  S   UNL     1      -9.845  19.019  68.383  1.00  0.00    -0.414 S  
HETATM   26  O   UNL     1     -10.508  20.186  69.051  1.00  0.00    -0.297 OA 
HETATM   27  O   UNL     1      -8.318  19.445  68.092  1.00  0.00    -0.307 OA 
ENDBRANCH  22  24
ENDBRANCH  19  22
ENDBRANCH  13  16
ENDBRANCH  10  13
ENDBRANCH   5   7
ENDBRANCH   3   5
TORSDOF 6
ENDMDL
MODEL        6
REMARK 921   NORMALIZED FREE ENERGY PREDICTED BY IDOCK:   -6.23 KCAL/MOL
REMARK 922        TOTAL FREE ENERGY PREDICTED BY IDOCK:   -9.21 KCAL/MOL
REMARK 923 INTER-LIGAND FREE ENERGY PREDICTED BY IDOCK:   -8.44 KCAL/MOL
REMARK 924 INTRA-LIGAND FREE ENERGY PREDICTED BY IDOCK:   -0.78 KCAL/MOL
REMARK 927      BINDING AFFINITY PREDICTED BY RF-SCORE:    0.00 PKD
ROOT
HETATM    1  O   UNL     1     -10.665   7.505  73.418  1.00  0.00    -0.387 OA 
HETATM    2  S   UNL     1     -10.592   8.374  72.067  1.00  0.00    -0.343 S  
HETATM    3  C   UNL     1     -12.413   8.388  71.816  1.00  0.00    -0.335 C  
HETATM    4  O   UNL     1      -9.980   7.458  71.051  1.00  0.00    -0.184 OA 
ENDROOT
BRANCH   3   5
HETATM    5  N   UNL     1     -12.691   9.141  70.593  1.00  0.00    -0.475 NA 
HETATM    6  H   UNL     1     -12.960   8.674  69.727  1.00  0.00     0.000 HD 
BRANCH   5   7
HETATM    7  C   UNL     1     -12.571  10.538  70.668  1.00  0.00    -0.369 A  
HETATM    8  C   UNL     1     -11.914  11.299  69.692  1.00  0.00    -0.423 A  
HETATM    9  C   UNL     1     -11.801  12.688  69.808  1.00  0.00    -0.379 A  
HETATM   10  C   UNL     1     -12.367  13.336  70.905  1.00  0.00    -0.329 A  
HETATM   11  C   UNL     1     -13.140  12.620  71.818  1.00  0.00    -0.461 A  
HETATM   12  C   UNL     1     -13.247  11.229  71.686  1.00  0.00    -0.431 A  
BRANCH  10  13
HETATM   13  S   UNL     1     -12.143  15.094  71.095  1.00  0.00    -0.372 S  
HETATM   14  O   UNL     1     -13.425  15.727  70.844  1.00  0.00    -0.568 OA 
HETATM   15  O   UNL     1     -11.454  15.298  72.358  1.00  0.00    -0.454 OA 
BRANCH  13  16
HETATM   16  C   UNL     1     -11.051  15.644  69.792  1.00  0.00    -0.313 A  
HETATM   17  C   UNL     1     -11.590  16.204  68.634  1.00  0.00    -0.283 A  
HETATM   18  C   UNL     1     -10.740  16.703  67.639  1.00  0.00    -0.306 A  
HETATM   19  C   UNL     1      -9.345  16.701  67.802  1.00  0.00    -0.222 A  
HETATM   20  C   UNL     1      -9.667  15.558  69.946  1.00  0.00    -0.169 A  
HETATM   21  C   UNL     1      -8.826  16.071  68.946  1.00  0.00    -0.233 A  
BRANCH  19  22
HETATM   22  N   UNL     1      -8.451  17.189  66.816  1.00  0.00    -0.219 NA 
HETATM   23  H   UNL     1      -8.453  16.848  65.855  1.00  0.00     0.000 HD 
BRANCH  22  24
HETATM   24  C   UNL     1      -7.519  18.229  67.287  1.00  0.00    -0.213 C  
HETATM   25  S   UNL     1      -7.595  19.629  66.091  1.00  0.00    -0.323 S  
HETATM   26  O   UNL     1      -6.928  20.808  66.733  1.00  0.00    -0.277 OA 
HETATM   27  O   UNL     1      -9.185  19.838  66.252  1.00  0.00    -0.369 OA 
ENDBRANCH  22  24
ENDBRANCH  19  22
ENDBRANCH  13  16
ENDBRANCH  10  13
ENDBRANCH   5   7
ENDBRANCH   3   5
TORSDOF 6
ENDMDL
MODEL        7
REMARK 921   NORMALIZED FREE ENERGY PREDICTED BY IDOCK:   -6.21 KCAL/MOL
REMARK 922        TOTAL FREE ENERGY PREDICTED BY IDOCK:   -9.18 KCAL/MOL
REMARK 923 INTER-LIGAND FREE ENERGY PREDICTED BY IDOCK:   -8.51 KCAL/MOL
REMARK 924 INTRA-LIGAND FREE ENERGY PREDICTED BY IDOCK:   -0.67 KCAL/MOL
REMARK 927      BINDING AFFINITY PREDICTED BY RF-SCORE:    0.00 PKD
ROOT
HETATM    1  O   UNL     1     -14.404   8.958  72.567  1.00  0.00    -0.579 OA 
HETATM    2  S   UNL     1     -12.846   8.972  72.171  1.00  0.00    -0.417 S  
HETATM    3  C   UNL     1     -12.969  10.524  71.193  1.00  0.00    -0.411 C  
HETATM    4  O   UNL     1     -12.677   7.825  71.222  1.00  0.00    -0.310 OA 
ENDROOT
BRANCH   3   5
HETATM    5  N   UNL     1     -11.640  10.826  70.662  1.00  0.00    -0.364 NA 
HETATM    6  H   UNL     1     -10.792  10.554  71.160  1.00  0.00     0.000 HD 
BRANCH   5   7
HETATM    7  C   UNL     1     -11.587  11.507  69.436  1.00  0.00    -0.321 A  
HETATM    8  C   UNL     1     -11.310  10.866  68.221  1.00  0.00    -0.374 A  
HETATM    9  C   UNL     1     -11.252  11.581  67.020  1.00  0.00    -0.365 A  
HETATM   10  C   UNL     1     -11.491  12.955  67.023  1.00  0.00    -0.339 A  
HETATM   11  C   UNL     1     -11.900  13.590  68.194  1.00  0.00    -0.400 A  
HETATM   12  C   UNL     1     -11.958  12.860  69.388  1.00  0.00    -0.327 A  
BRANCH  10  13
HETATM   13  S   UNL     1     -11.327  13.875  65.506  1.00  0.00    -0.316 S  
HETATM   14  O   UNL     1     -10.419  13.139  64.645  1.00  0.00    -0.357 OA 
HETATM   15  O   UNL     1     -12.672  14.194  65.058  1.00  0.00    -0.631 OA 
BRANCH  13  16
HETATM   16  C   UNL     1     -10.510  15.416  65.892  1.00  0.00    -0.340 A  
HETATM   17  C   UNL     1     -11.134  16.623  65.574  1.00  0.00     0.072 A  
HETATM   18  C   UNL     1     -10.534  17.836  65.938  1.00  0.00    -0.251 A  
HETATM   19  C   UNL     1      -9.334  17.866  66.666  1.00  0.00    -0.286 A  
HETATM   20  C   UNL     1      -9.279  15.420  66.547  1.00  0.00    -0.323 A  
HETATM   21  C   UNL     1      -8.692  16.640  66.914  1.00  0.00    -0.241 A  
BRANCH  19  22
HETATM   22  N   UNL     1      -8.691  19.072  67.046  1.00  0.00    -0.286 NA 
HETATM   23  H   UNL     1      -8.433  19.793  66.372  1.00  0.00     0.000 HD 
BRANCH  22  24
HETATM   24  C   UNL     1      -8.427  19.203  68.489  1.00  0.00    -0.364 C  
HETATM   25  S   UNL     1      -6.646  19.631  68.693  1.00  0.00    -0.299 S  
HETATM   26  O   UNL     1      -6.452  20.098  70.104  1.00  0.00    -0.357 OA 
HETATM   27  O   UNL     1      -6.733  20.947  67.765  1.00  0.00    -0.324 OA 
ENDBRANCH  22  24
ENDBRANCH  19  22
ENDBRANCH  13  16
ENDBRANCH  10  13
ENDBRANCH   5   7
ENDBRANCH   3   5
TORSDOF 6
ENDMDL
MODEL        8
REMARK 921   NORMALIZED FREE ENERGY PREDICTED BY IDOCK:   -6.14 KCAL/MOL
REMARK 922        TOTAL FREE ENERGY PREDICTED BY IDOCK:   -9.10 KCAL/MOL
REMARK 923 INTER-LIGAND FREE ENERGY PREDICTED BY IDOCK:   -8.42 KCAL/MOL
REMARK 924 INTRA-LIGAND FREE ENERGY PREDICTED BY IDOCK:   -0.68 KCAL/MOL
REMARK 927      BINDING AFFINITY PREDICTED BY RF-SCORE:    0.00 PKD
ROOT
HETATM    1  O   UNL     1      -9.135  19.960  65.757  1.00  0.00    -0.335 OA 
HETATM    2  S   UNL     1     -10.392  19.176  66.383  1.00  0.00    -0.478 S  
HETATM    3  C   UNL     1      -9.463  18.587  67.857  1.00  0.00    -0.296 C  
HETATM    4  O   UNL     1     -10.617  18.011  65.467  1.00  0.00    -0.639 OA 
ENDROOT
BRANCH   3   5
HETATM    5  N   UNL     1     -10.379  17.792  68.675  1.00  0.00    -0.367 NA 
HETATM    6  H   UNL     1     -10.945  18.218  69.409  1.00  0.00     0.000 HD 
BRANCH   5   7
HETATM    7  C   UNL     1     -10.441  16.417  68.402  1.00  0.00    -0.298 A  
HETATM    8  C   UNL     1      -9.325  15.667  68.007  1.00  0.00    -0.193 A  
HETATM    9  C   UNL     1      -9.428  14.301  67.729  1.00  0.00    -0.216 A  
HETATM   10  C   UNL     1     -10.661  13.661  67.864  1.00  0.00    -0.249 A  
HETATM   11  C   UNL     1     -11.754  14.353  68.385  1.00  0.00    -0.367 A  
HETATM   12  C   UNL     1     -11.633  15.721  68.662  1.00  0.00    -0.392 A  
BRANCH  10  13
HETATM   13  S   UNL     1     -10.807  11.942  67.423  1.00  0.00    -0.257 S  
HETATM   14  O   UNL     1     -12.137  11.743  66.875  1.00  0.00    -0.566 OA 
HETATM   15  O   UNL     1      -9.629  11.604  66.640  1.00  0.00    -0.195 OA 
BRANCH  13  16
HETATM   16  C   UNL     1     -10.741  10.987  68.931  1.00  0.00    -0.211 A  
HETATM   17  C   UNL     1     -11.845  10.972  69.784  1.00  0.00    -0.421 A  
HETATM   18  C   UNL     1     -11.829  10.170  70.933  1.00  0.00    -0.468 A  
HETATM   19  C   UNL     1     -10.739   9.335  71.224  1.00  0.00    -0.352 A  
HETATM   20  C   UNL     1      -9.613  10.226  69.238  1.00  0.00    -0.239 A  
HETATM   21  C   UNL     1      -9.613   9.420  70.387  1.00  0.00    -0.319 A  
BRANCH  19  22
HETATM   22  N   UNL     1     -10.681   8.515  72.380  1.00  0.00    -0.342 NA 
HETATM   23  H   UNL     1     -10.025   8.685  73.142  1.00  0.00     0.000 HD 
BRANCH  22  24
HETATM   24  C   UNL     1     -11.643   7.399  72.394  1.00  0.00    -0.284 C  
HETATM   25  S   UNL     1     -10.745   5.897  72.972  1.00  0.00    -0.271 S  
HETATM   26  O   UNL     1     -11.772   4.861  73.315  1.00  0.00    -0.312 OA 
HETATM   27  O   UNL     1     -10.267   6.569  74.357  1.00  0.00    -0.351 OA 
ENDBRANCH  22  24
ENDBRANCH  19  22
ENDBRANCH  13  16
ENDBRANCH  10  13
ENDBRANCH   5   7
ENDBRANCH   3   5
TORSDOF 6
ENDMDL
MODEL        9
REMARK 921   NORMALIZED FREE ENERGY PREDICTED BY IDOCK:   -6.14 KCAL/MOL
REMARK 922        TOTAL FREE ENERGY PREDICTED BY IDOCK:   -9.09 KCAL/MOL
REMARK 923 INTER-LIGAND FREE ENERGY PREDICTED BY IDOCK:   -8.59 KCAL/MOL
REMARK 924 INTRA-LIGAND FREE ENERGY PREDICTED BY IDOCK:   -0.49 KCAL/MOL
REMARK 927      BINDING AFFINITY PREDICTED BY RF-SCORE:    0.00 PKD
ROOT
HETATM    1  O   UNL     1      -8.476  20.557  67.190  1.00  0.00    -0.336 OA 
HETATM    2  S   UNL     1      -9.915  19.959  67.584  1.00  0.00    -0.441 S  
HETATM    3  C   UNL     1      -9.251  18.317  68.074  1.00  0.00    -0.290 C  
HETATM    4  O   UNL     1     -10.641  19.808  66.281  1.00  0.00    -0.472 OA 
ENDROOT
BRANCH   3   5
HETATM    5  N   UNL     1     -10.376  17.488  68.504  1.00  0.00    -0.369 NA 
HETATM    6  H   UNL     1     -10.913  17.709  69.343  1.00  0.00     0.000 HD 
BRANCH   5   7
HETATM    7  C   UNL     1     -10.684  16.374  67.707  1.00  0.00    -0.328 A  
HETATM    8  C   UNL     1     -11.646  15.421  68.068  1.00  0.00    -0.303 A  
HETATM    9  C   UNL     1     -11.914  14.316  67.254  1.00  0.00    -0.439 A  
HETATM   10  C   UNL     1     -11.228  14.163  66.050  1.00  0.00    -0.319 A  
HETATM   11  C   UNL     1     -10.366  15.164  65.605  1.00  0.00    -0.379 A  
HETATM   12  C   UNL     1     -10.110  16.268  66.429  1.00  0.00    -0.318 A  
BRANCH  10  13
HETATM   13  S   UNL     1     -11.508  12.707  65.061  1.00  0.00    -0.344 S  
HETATM   14  O   UNL     1     -12.944  12.542  64.925  1.00  0.00    -0.821 OA 
HETATM   15  O   UNL     1     -10.665  12.827  63.883  1.00  0.00    -0.406 OA 
BRANCH  13  16
HETATM   16  C   UNL     1     -10.929  11.298  65.994  1.00  0.00    -0.174 A  
HETATM   17  C   UNL     1     -11.290  11.167  67.336  1.00  0.00    -0.329 A  
HETATM   18  C   UNL     1     -10.899  10.030  68.055  1.00  0.00    -0.311 A  
HETATM   19  C   UNL     1     -10.191   8.985  67.440  1.00  0.00    -0.245 A  
HETATM   20  C   UNL     1     -10.159  10.311  65.380  1.00  0.00    -0.354 A  
HETATM   21  C   UNL     1      -9.782   9.172  66.109  1.00  0.00    -0.357 A  
BRANCH  19  22
HETATM   22  N   UNL     1      -9.772   7.823  68.135  1.00  0.00    -0.151 NA 
HETATM   23  H   UNL     1      -9.240   7.076  67.687  1.00  0.00     0.000 HD 
BRANCH  22  24
HETATM   24  C   UNL     1     -10.162   7.777  69.556  1.00  0.00    -0.207 C  
HETATM   25  S   UNL     1     -11.209   6.280  69.798  1.00  0.00    -0.423 S  
HETATM   26  O   UNL     1     -11.320   6.041  71.273  1.00  0.00    -0.285 OA 
HETATM   27  O   UNL     1     -10.093   5.262  69.235  1.00  0.00    -0.194 OA 
ENDBRANCH  22  24
ENDBRANCH  19  22
ENDBRANCH  13  16
ENDBRANCH  10  13
ENDBRANCH   5   7
ENDBRANCH   3   5
TORSDOF 6
ENDMDL
MODEL       10
REMARK 921   NORMALIZED FREE ENERGY PREDICTED BY IDOCK:   -6.09 KCAL/MOL
REMARK 922        TOTAL FREE ENERGY PREDICTED BY IDOCK:   -9.03 KCAL/MOL
REMARK 923 INTER-LIGAND FREE ENERGY PREDICTED BY IDOCK:   -8.53 KCAL/MOL
REMARK 924 INTRA-LIGAND FREE ENERGY PREDICTED BY IDOCK:   -0.50 KCAL/MOL
REMARK 927      BINDING AFFINITY PREDICTED BY RF-SCORE:    0.00 PKD
ROOT
HETATM    1  O   UNL     1      -6.185   7.508  65.417  1.00  0.00    -0.038 OA 
HETATM    2  S   UNL     1      -7.791   7.516  65.350  1.00  0.00    -0.124 S  
HETATM    3  C   UNL     1      -7.870   8.902  64.145  1.00  0.00    -0.135 C  
HETATM    4  O   UNL     1      -8.232   8.025  66.689  1.00  0.00    -0.104 OA 
ENDROOT
BRANCH   3   5
HETATM    5  N   UNL     1      -9.280   9.172  63.863  1.00  0.00    -0.349 NA 
HETATM    6  H   UNL     1      -9.882   8.471  63.432  1.00  0.00     0.000 HD 
BRANCH   5   7
HETATM    7  C   UNL     1      -9.764  10.442  64.216  1.00  0.00    -0.326 A  
HETATM    8  C   UNL     1      -9.327  11.135  65.353  1.00  0.00    -0.243 A  
HETATM    9  C   UNL     1      -9.843  12.392  65.680  1.00  0.00    -0.235 A  
HETATM   10  C   UNL     1     -10.799  12.982  64.853  1.00  0.00    -0.323 A  
HETATM   11  C   UNL     1     -11.150  12.375  63.648  1.00  0.00    -0.535 A  
HETATM   12  C   UNL     1     -10.621  11.117  63.331  1.00  0.00    -0.340 A  
BRANCH  10  13
HETATM   13  S   UNL     1     -11.520  14.542  65.321  1.00  0.00    -0.367 S  
HETATM   14  O   UNL     1     -10.545  15.578  65.031  1.00  0.00    -0.413 OA 
HETATM   15  O   UNL     1     -12.846  14.591  64.729  1.00  0.00    -0.603 OA 
BRANCH  13  16
HETATM   16  C   UNL     1     -11.725  14.533  67.096  1.00  0.00    -0.399 A  
HETATM   17  C   UNL     1     -12.066  13.344  67.742  1.00  0.00    -0.299 A  
HETATM   18  C   UNL     1     -12.160  13.311  69.139  1.00  0.00    -0.283 A  
HETATM   19  C   UNL     1     -11.866  14.443  69.917  1.00  0.00    -0.323 A  
HETATM   20  C   UNL     1     -11.504  15.692  67.840  1.00  0.00    -0.253 A  
HETATM   21  C   UNL     1     -11.591  15.644  69.240  1.00  0.00    -0.375 A  
BRANCH  19  22
HETATM   22  N   UNL     1     -11.956  14.452  71.332  1.00  0.00    -0.423 NA 
HETATM   23  H   UNL     1     -12.189  13.620  71.874  1.00  0.00     0.000 HD 
BRANCH  22  24
HETATM   24  C   UNL     1     -11.686  15.758  71.960  1.00  0.00    -0.479 C  
HETATM   25  S   UNL     1     -12.857  15.951  73.370  1.00  0.00    -0.619 S  
HETATM   26  O   UNL     1     -12.369  17.093  74.209  1.00  0.00    -0.456 OA 
HETATM   27  O   UNL     1     -12.389  14.592  74.100  1.00  0.00    -0.482 OA 
ENDBRANCH  22  24
ENDBRANCH  19  22
ENDBRANCH  13  16
ENDBRANCH  10  13
ENDBRANCH   5   7
ENDBRANCH   3   5
TORSDOF 6
ENDMDL
MODEL       11
REMARK 921   NORMALIZED FREE ENERGY PREDICTED BY IDOCK:   -6.06 KCAL/MOL
REMARK 922        TOTAL FREE ENERGY PREDICTED BY IDOCK:   -8.98 KCAL/MOL
REMARK 923 INTER-LIGAND FREE ENERGY PREDICTED BY IDOCK:   -8.78 KCAL/MOL
REMARK 924 INTRA-LIGAND FREE ENERGY PREDICTED BY IDOCK:   -0.20 KCAL/MOL
REMARK 927      BINDING AFFINITY PREDICTED BY RF-SCORE:    0.00 PKD
ROOT
HETATM    1  O   UNL     1     -12.501  14.471  74.344  1.00  0.00    -0.248 OA 
HETATM    2  S   UNL     1     -12.813  15.728  73.391  1.00  0.00    -0.616 S  
HETATM    3  C   UNL     1     -11.574  15.246  72.121  1.00  0.00    -0.444 C  
HETATM    4  O   UNL     1     -12.291  16.918  74.137  1.00  0.00    -0.533 OA 
ENDROOT
BRANCH   3   5
HETATM    5  N   UNL     1     -11.609  16.249  71.057  1.00  0.00    -0.578 NA 
HETATM    6  H   UNL     1     -11.634  17.248  71.265  1.00  0.00     0.000 HD 
BRANCH   5   7
HETATM    7  C   UNL     1     -11.607  15.773  69.737  1.00  0.00    -0.355 A  
HETATM    8  C   UNL     1     -10.993  16.459  68.680  1.00  0.00    -0.345 A  
HETATM    9  C   UNL     1     -11.024  15.960  67.375  1.00  0.00    -0.257 A  
HETATM   10  C   UNL     1     -11.661  14.746  67.115  1.00  0.00    -0.359 A  
HETATM   11  C   UNL     1     -12.160  13.980  68.167  1.00  0.00    -0.307 A  
HETATM   12  C   UNL     1     -12.117  14.492  69.471  1.00  0.00    -0.348 A  
BRANCH  10  13
HETATM   13  S   UNL     1     -11.775  14.160  65.437  1.00  0.00    -0.361 S  
HETATM   14  O   UNL     1     -13.185  14.042  65.111  1.00  0.00    -0.768 OA 
HETATM   15  O   UNL     1     -10.901  14.999  64.635  1.00  0.00    -0.373 OA 
BRANCH  13  16
HETATM   16  C   UNL     1     -11.112  12.501  65.396  1.00  0.00    -0.302 A  
HETATM   17  C   UNL     1     -10.660  11.972  64.187  1.00  0.00    -0.398 A  
HETATM   18  C   UNL     1     -10.073  10.700  64.158  1.00  0.00    -0.402 A  
HETATM   19  C   UNL     1      -9.881   9.958  65.335  1.00  0.00    -0.313 A  
HETATM   20  C   UNL     1     -11.004  11.753  66.568  1.00  0.00    -0.342 A  
HETATM   21  C   UNL     1     -10.405  10.485  66.528  1.00  0.00    -0.294 A  
BRANCH  19  22
HETATM   22  N   UNL     1      -9.298   8.666  65.347  1.00  0.00    -0.440 NA 
HETATM   23  H   UNL     1      -9.849   7.816  65.470  1.00  0.00     0.000 HD 
BRANCH  22  24
HETATM   24  C   UNL     1      -7.836   8.645  65.167  1.00  0.00    -0.110 C  
HETATM   25  S   UNL     1      -7.439   7.289  63.984  1.00  0.00    -0.106 S  
HETATM   26  O   UNL     1      -6.022   7.480  63.537  1.00  0.00    -0.051 OA 
HETATM   27  O   UNL     1      -8.388   7.867  62.816  1.00  0.00    -0.130 OA 
ENDBRANCH  22  24
ENDBRANCH  19  22
ENDBRANCH  13  16
ENDBRANCH  10  13
ENDBRANCH   5   7
ENDBRANCH   3   5
TORSDOF 6
ENDMDL
MODEL       12
REMARK 921   NORMALIZED FREE ENERGY PREDICTED BY IDOCK:   -6.02 KCAL/MOL
REMARK 922        TOTAL FREE ENERGY PREDICTED BY IDOCK:   -8.93 KCAL/MOL
REMARK 923 INTER-LIGAND FREE ENERGY PREDICTED BY IDOCK:   -8.27 KCAL/MOL
REMARK 924 INTRA-LIGAND FREE ENERGY PREDICTED BY IDOCK:   -0.66 KCAL/MOL
REMARK 927      BINDING AFFINITY PREDICTED BY RF-SCORE:    0.00 PKD
ROOT
HETATM    1  O   UNL     1      -8.571   8.760  72.844  1.00  0.00    -0.398 OA 
HETATM    2  S   UNL     1      -9.720   8.029  71.989  1.00  0.00    -0.225 S  
HETATM    3  C   UNL     1      -9.649   9.236  70.605  1.00  0.00    -0.273 C  
HETATM    4  O   UNL     1     -10.984   8.264  72.760  1.00  0.00    -0.354 OA 
ENDROOT
BRANCH   3   5
HETATM    5  N   UNL     1     -10.636   8.830  69.605  1.00  0.00    -0.221 NA 
HETATM    6  H   UNL     1     -11.142   7.948  69.681  1.00  0.00     0.000 HD 
BRANCH   5   7
HETATM    7  C   UNL     1     -10.855   9.713  68.535  1.00  0.00    -0.161 A  
HETATM    8  C   UNL     1     -11.538  10.928  68.678  1.00  0.00    -0.373 A  
HETATM    9  C   UNL     1     -11.749  11.775  67.586  1.00  0.00    -0.320 A  
HETATM   10  C   UNL     1     -11.257  11.418  66.331  1.00  0.00    -0.183 A  
HETATM   11  C   UNL     1     -10.460  10.283  66.190  1.00  0.00    -0.200 A  
HETATM   12  C   UNL     1     -10.253   9.447  67.295  1.00  0.00    -0.308 A  
BRANCH  10  13
HETATM   13  S   UNL     1     -11.606  12.457  64.926  1.00  0.00    -0.349 S  
HETATM   14  O   UNL     1     -10.917  11.890  63.781  1.00  0.00    -0.350 OA 
HETATM   15  O   UNL     1     -13.046  12.656  64.895  1.00  0.00    -0.850 OA 
BRANCH  13  16
HETATM   16  C   UNL     1     -10.851  14.048  65.227  1.00  0.00    -0.347 A  
HETATM   17  C   UNL     1     -11.438  15.198  64.698  1.00  0.00    -0.363 A  
HETATM   18  C   UNL     1     -10.893  16.456  64.988  1.00  0.00    -0.289 A  
HETATM   19  C   UNL     1      -9.790  16.593  65.847  1.00  0.00    -0.273 A  
HETATM   20  C   UNL     1      -9.708  14.150  66.020  1.00  0.00    -0.297 A  
HETATM   21  C   UNL     1      -9.178  15.416  66.311  1.00  0.00    -0.354 A  
BRANCH  19  22
HETATM   22  N   UNL     1      -9.206  17.846  66.159  1.00  0.00    -0.501 NA 
HETATM   23  H   UNL     1      -8.796  18.453  65.449  1.00  0.00     0.000 HD 
BRANCH  22  24
HETATM   24  C   UNL     1      -9.236  18.204  67.588  1.00  0.00    -0.259 C  
HETATM   25  S   UNL     1      -9.792  19.956  67.712  1.00  0.00    -0.424 S  
HETATM   26  O   UNL     1     -10.152  20.215  69.144  1.00  0.00    -0.297 OA 
HETATM   27  O   UNL     1     -11.169  19.702  66.914  1.00  0.00    -0.299 OA 
ENDBRANCH  22  24
ENDBRANCH  19  22
ENDBRANCH  13  16
ENDBRANCH  10  13
ENDBRANCH   5   7
ENDBRANCH   3   5
TORSDOF 6
ENDMDL
MODEL       13
REMARK 921   NORMALIZED FREE ENERGY PREDICTED BY IDOCK:   -6.00 KCAL/MOL
REMARK 922        TOTAL FREE ENERGY PREDICTED BY IDOCK:   -8.90 KCAL/MOL
REMARK 923 INTER-LIGAND FREE ENERGY PREDICTED BY IDOCK:   -8.28 KCAL/MOL
REMARK 924 INTRA-LIGAND FREE ENERGY PREDICTED BY IDOCK:   -0.61 KCAL/MOL
REMARK 927      BINDING AFFINITY PREDICTED BY RF-SCORE:    0.00 PKD
ROOT
HETATM    1  O   UNL     1      -5.695  20.764  65.387  1.00  0.00    -0.203 OA 
HETATM    2  S   UNL     1      -6.353  20.087  66.689  1.00  0.00    -0.196 S  
HETATM    3  C   UNL     1      -7.934  19.678  65.845  1.00  0.00    -0.258 C  
HETATM    4  O   UNL     1      -6.599  21.225  67.634  1.00  0.00    -0.423 OA 
ENDROOT
BRANCH   3   5
HETATM    5  N   UNL     1      -8.804  19.018  66.818  1.00  0.00    -0.298 NA 
HETATM    6  H   UNL     1      -8.954  19.406  67.750  1.00  0.00     0.000 HD 
BRANCH   5   7
HETATM    7  C   UNL     1      -9.422  17.826  66.409  1.00  0.00    -0.264 A  
HETATM    8  C   UNL     1     -10.546  17.799  65.573  1.00  0.00    -0.044 A  
HETATM    9  C   UNL     1     -11.143  16.591  65.198  1.00  0.00    -0.134 A  
HETATM   10  C   UNL     1     -10.603  15.386  65.647  1.00  0.00    -0.364 A  
HETATM   11  C   UNL     1      -9.409  15.381  66.366  1.00  0.00    -0.331 A  
HETATM   12  C   UNL     1      -8.820  16.598  66.731  1.00  0.00    -0.259 A  
BRANCH  10  13
HETATM   13  S   UNL     1     -11.420  13.856  65.241  1.00  0.00    -0.328 S  
HETATM   14  O   UNL     1     -12.806  14.166  64.943  1.00  0.00    -0.687 OA 
HETATM   15  O   UNL     1     -10.588  13.180  64.258  1.00  0.00    -0.403 OA 
BRANCH  13  16
HETATM   16  C   UNL     1     -11.439  12.844  66.713  1.00  0.00    -0.340 A  
HETATM   17  C   UNL     1     -11.891  13.390  67.916  1.00  0.00    -0.392 A  
HETATM   18  C   UNL     1     -11.977  12.585  69.059  1.00  0.00    -0.280 A  
HETATM   19  C   UNL     1     -11.666  11.216  69.012  1.00  0.00    -0.339 A  
HETATM   20  C   UNL     1     -11.051  11.506  66.658  1.00  0.00    -0.355 A  
HETATM   21  C   UNL     1     -11.151  10.707  67.808  1.00  0.00    -0.385 A  
BRANCH  19  22
HETATM   22  N   UNL     1     -11.733  10.370  70.148  1.00  0.00    -0.290 NA 
HETATM   23  H   UNL     1     -11.006   9.691  70.371  1.00  0.00     0.000 HD 
BRANCH  22  24
HETATM   24  C   UNL     1     -12.936  10.548  70.981  1.00  0.00    -0.383 C  
HETATM   25  S   UNL     1     -13.353   8.910  71.715  1.00  0.00    -0.406 S  
HETATM   26  O   UNL     1     -14.344   9.147  72.814  1.00  0.00    -0.563 OA 
HETATM   27  O   UNL     1     -11.911   8.719  72.409  1.00  0.00    -0.357 OA 
ENDBRANCH  22  24
ENDBRANCH  19  22
ENDBRANCH  13  16
ENDBRANCH  10  13
ENDBRANCH   5   7
ENDBRANCH   3   5
TORSDOF 6
ENDMDL
MODEL       14
REMARK 921   NORMALIZED FREE ENERGY PREDICTED BY IDOCK:   -5.99 KCAL/MOL
REMARK 922        TOTAL FREE ENERGY PREDICTED BY IDOCK:   -8.88 KCAL/MOL
REMARK 923 INTER-LIGAND FREE ENERGY PREDICTED BY IDOCK:   -8.15 KCAL/MOL
REMARK 924 INTRA-LIGAND FREE ENERGY PREDICTED BY IDOCK:   -0.74 KCAL/MOL
REMARK 927      BINDING AFFINITY PREDICTED BY RF-SCORE:    0.00 PKD
ROOT
HETATM    1  O   UNL     1     -10.741   5.007  66.360  1.00  0.00    -0.300 OA 
HETATM    2  S   UNL     1     -11.011   6.391  67.133  1.00  0.00    -0.350 S  
HETATM    3  C   UNL     1      -9.273   6.971  66.985  1.00  0.00    -0.147 C  
HETATM    4  O   UNL     1     -11.261   5.996  68.557  1.00  0.00    -0.299 OA 
ENDROOT
BRANCH   3   5
HETATM    5  N   UNL     1      -9.181   8.280  67.632  1.00  0.00    -0.137 NA 
HETATM    6  H   UNL     1      -8.707   8.400  68.527  1.00  0.00     0.000 HD 
BRANCH   5   7
HETATM    7  C   UNL     1      -9.775   9.361  66.963  1.00  0.00    -0.178 A  
HETATM    8  C   UNL     1     -10.647  10.260  67.592  1.00  0.00    -0.312 A  
HETATM    9  C   UNL     1     -11.232  11.317  66.889  1.00  0.00    -0.300 A  
HETATM   10  C   UNL     1     -10.932  11.498  65.539  1.00  0.00    -0.229 A  
HETATM   11  C   UNL     1      -9.966  10.701  64.926  1.00  0.00    -0.382 A  
HETATM   12  C   UNL     1      -9.385   9.648  65.645  1.00  0.00    -0.296 A  
BRANCH  10  13
HETATM   13  S   UNL     1     -11.748  12.791  64.626  1.00  0.00    -0.380 S  
HETATM   14  O   UNL     1     -11.421  12.609  63.223  1.00  0.00    -0.483 OA 
HETATM   15  O   UNL     1     -13.134  12.808  65.064  1.00  0.00    -0.811 OA 
BRANCH  13  16
HETATM   16  C   UNL     1     -11.013  14.345  65.113  1.00  0.00    -0.373 A  
HETATM   17  C   UNL     1      -9.874  14.344  65.917  1.00  0.00    -0.336 A  
HETATM   18  C   UNL     1      -9.249  15.555  66.245  1.00  0.00    -0.364 A  
HETATM   19  C   UNL     1      -9.717  16.777  65.737  1.00  0.00    -0.128 A  
HETATM   20  C   UNL     1     -11.544  15.552  64.658  1.00  0.00    -0.281 A  
HETATM   21  C   UNL     1     -10.904  16.757  64.985  1.00  0.00    -0.131 A  
BRANCH  19  22
HETATM   22  N   UNL     1      -9.118  18.023  66.051  1.00  0.00    -0.521 NA 
HETATM   23  H   UNL     1      -8.127  18.212  65.897  1.00  0.00     0.000 HD 
BRANCH  22  24
HETATM   24  C   UNL     1     -10.038  19.026  66.616  1.00  0.00    -0.392 C  
HETATM   25  S   UNL     1      -9.871  18.964  68.450  1.00  0.00    -0.400 S  
HETATM   26  O   UNL     1     -10.530  20.191  69.005  1.00  0.00    -0.297 OA 
HETATM   27  O   UNL     1      -8.284  19.243  68.436  1.00  0.00    -0.322 OA 
ENDBRANCH  22  24
ENDBRANCH  19  22
ENDBRANCH  13  16
ENDBRANCH  10  13
ENDBRANCH   5   7
ENDBRANCH   3   5
TORSDOF 6
ENDMDL
MODEL       15
REMARK 921   NORMALIZED FREE ENERGY PREDICTED BY IDOCK:   -5.95 KCAL/MOL
REMARK 922        TOTAL FREE ENERGY PREDICTED BY IDOCK:   -8.83 KCAL/MOL
REMARK 923 INTER-LIGAND FREE ENERGY PREDICTED BY IDOCK:   -8.01 KCAL/MOL
REMARK 924 INTRA-LIGAND FREE ENERGY PREDICTED BY IDOCK:   -0.82 KCAL/MOL
REMARK 927      BINDING AFFINITY PREDICTED BY RF-SCORE:    0.00 PKD
ROOT
HETATM    1  O   UNL     1     -13.149   6.829  71.580  1.00  0.00    -0.310 OA 
HETATM    2  S   UNL     1     -11.718   7.494  71.273  1.00  0.00    -0.296 S  
HETATM    3  C   UNL     1     -11.324   6.340  69.897  1.00  0.00    -0.434 C  
HETATM    4  O   UNL     1     -10.864   7.134  72.452  1.00  0.00    -0.225 OA 
ENDROOT
BRANCH   3   5
HETATM    5  N   UNL     1     -10.005   6.698  69.375  1.00  0.00    -0.154 NA 
HETATM    6  H   UNL     1      -9.218   6.051  69.426  1.00  0.00     0.000 HD 
BRANCH   5   7
HETATM    7  C   UNL     1      -9.875   7.972  68.802  1.00  0.00    -0.172 A  
HETATM    8  C   UNL     1      -8.935   8.914  69.243  1.00  0.00    -0.144 A  
HETATM    9  C   UNL     1      -8.844  10.179  68.657  1.00  0.00    -0.136 A  
HETATM   10  C   UNL     1      -9.691  10.512  67.599  1.00  0.00    -0.165 A  
HETATM   11  C   UNL     1     -10.539   9.549  67.054  1.00  0.00    -0.271 A  
HETATM   12  C   UNL     1     -10.616   8.283  67.650  1.00  0.00    -0.264 A  
BRANCH  10  13
HETATM   13  S   UNL     1      -9.633  12.156  66.915  1.00  0.00    -0.211 S  
HETATM   14  O   UNL     1      -8.269  12.636  67.047  1.00  0.00    -0.171 OA 
HETATM   15  O   UNL     1     -10.269  12.093  65.609  1.00  0.00    -0.243 OA 
BRANCH  13  16
HETATM   16  C   UNL     1     -10.636  13.209  67.951  1.00  0.00    -0.234 A  
HETATM   17  C   UNL     1     -11.371  12.647  68.995  1.00  0.00    -0.345 A  
HETATM   18  C   UNL     1     -12.104  13.474  69.857  1.00  0.00    -0.408 A  
HETATM   19  C   UNL     1     -12.077  14.872  69.725  1.00  0.00    -0.314 A  
HETATM   20  C   UNL     1     -10.654  14.589  67.750  1.00  0.00    -0.250 A  
HETATM   21  C   UNL     1     -11.384  15.408  68.626  1.00  0.00    -0.337 A  
BRANCH  19  22
HETATM   22  N   UNL     1     -12.810  15.742  70.571  1.00  0.00    -0.638 NA 
HETATM   23  H   UNL     1     -13.730  16.106  70.321  1.00  0.00     0.000 HD 
BRANCH  22  24
HETATM   24  C   UNL     1     -12.141  16.079  71.840  1.00  0.00    -0.514 C  
HETATM   25  S   UNL     1     -13.365  15.839  73.196  1.00  0.00    -0.549 S  
HETATM   26  O   UNL     1     -12.611  15.844  74.491  1.00  0.00    -0.662 OA 
HETATM   27  O   UNL     1     -13.658  14.299  72.823  1.00  0.00    -0.565 OA 
ENDBRANCH  22  24
ENDBRANCH  19  22
ENDBRANCH  13  16
ENDBRANCH  10  13
ENDBRANCH   5   7
ENDBRANCH   3   5
TORSDOF 6
ENDMDL
MODEL       16
REMARK 921   NORMALIZED FREE ENERGY PREDICTED BY IDOCK:   -5.95 KCAL/MOL
REMARK 922        TOTAL FREE ENERGY PREDICTED BY IDOCK:   -8.83 KCAL/MOL
REMARK 923 INTER-LIGAND FREE ENERGY PREDICTED BY IDOCK:   -8.07 KCAL/MOL
REMARK 924 INTRA-LIGAND FREE ENERGY PREDICTED BY IDOCK:   -0.76 KCAL/MOL
REMARK 927      BINDING AFFINITY PREDICTED BY RF-SCORE:    0.00 PKD
ROOT
HETATM    1  O   UNL     1      -7.643   6.910  67.325  1.00  0.00    -0.103 OA 
HETATM    2  S   UNL     1      -8.680   6.988  66.099  1.00  0.00    -0.138 S  
HETATM    3  C   UNL     1      -8.052   8.606  65.492  1.00  0.00    -0.114 C  
HETATM    4  O   UNL     1     -10.018   7.207  66.737  1.00  0.00    -0.204 OA 
ENDROOT
BRANCH   3   5
HETATM    5  N   UNL     1      -8.837   8.979  64.316  1.00  0.00    -0.409 NA 
HETATM    6  H   UNL     1      -8.795   8.439  63.453  1.00  0.00     0.000 HD 
BRANCH   5   7
HETATM    7  C   UNL     1      -9.651  10.117  64.433  1.00  0.00    -0.302 A  
HETATM    8  C   UNL     1     -10.116  10.838  63.325  1.00  0.00    -0.314 A  
HETATM    9  C   UNL     1     -10.913  11.976  63.482  1.00  0.00    -0.514 A  
HETATM   10  C   UNL     1     -11.272  12.396  64.762  1.00  0.00    -0.310 A  
HETATM   11  C   UNL     1     -10.936  11.621  65.872  1.00  0.00    -0.334 A  
HETATM   12  C   UNL     1     -10.140  10.482  65.699  1.00  0.00    -0.333 A  
BRANCH  10  13
HETATM   13  S   UNL     1     -12.212  13.896  64.960  1.00  0.00    -0.438 S  
HETATM   14  O   UNL     1     -12.336  14.510  63.650  1.00  0.00    -0.704 OA 
HETATM   15  O   UNL     1     -13.398  13.554  65.729  1.00  0.00    -0.327 OA 
BRANCH  13  16
HETATM   16  C   UNL     1     -11.238  15.021  65.949  1.00  0.00    -0.313 A  
HETATM   17  C   UNL     1     -11.480  15.117  67.319  1.00  0.00    -0.284 A  
HETATM   18  C   UNL     1     -10.673  15.942  68.114  1.00  0.00    -0.302 A  
HETATM   19  C   UNL     1      -9.585  16.643  67.569  1.00  0.00    -0.242 A  
HETATM   20  C   UNL     1     -10.211  15.766  65.369  1.00  0.00    -0.380 A  
HETATM   21  C   UNL     1      -9.405  16.582  66.177  1.00  0.00    -0.339 A  
BRANCH  19  22
HETATM   22  N   UNL     1      -8.751  17.493  68.338  1.00  0.00    -0.270 NA 
HETATM   23  H   UNL     1      -8.429  17.247  69.274  1.00  0.00     0.000 HD 
BRANCH  22  24
HETATM   24  C   UNL     1      -8.385  18.760  67.680  1.00  0.00    -0.271 C  
HETATM   25  S   UNL     1      -9.895  19.815  67.622  1.00  0.00    -0.416 S  
HETATM   26  O   UNL     1      -9.460  21.207  67.277  1.00  0.00    -0.293 OA 
HETATM   27  O   UNL     1     -10.131  19.773  69.216  1.00  0.00    -0.417 OA 
ENDBRANCH  22  24
ENDBRANCH  19  22
ENDBRANCH  13  16
ENDBRANCH  10  13
ENDBRANCH   5   7
ENDBRANCH   3   5
TORSDOF 6
ENDMDL
MODEL       17
REMARK 921   NORMALIZED FREE ENERGY PREDICTED BY IDOCK:   -5.91 KCAL/MOL
REMARK 922        TOTAL FREE ENERGY PREDICTED BY IDOCK:   -8.78 KCAL/MOL
REMARK 923 INTER-LIGAND FREE ENERGY PREDICTED BY IDOCK:   -8.11 KCAL/MOL
REMARK 924 INTRA-LIGAND FREE ENERGY PREDICTED BY IDOCK:   -0.67 KCAL/MOL
REMARK 927      BINDING AFFINITY PREDICTED BY RF-SCORE:    0.00 PKD
ROOT
HETATM    1  O   UNL     1      -9.544  20.931  67.214  1.00  0.00    -0.435 OA 
HETATM    2  S   UNL     1      -8.911  19.493  67.554  1.00  0.00    -0.315 S  
HETATM    3  C   UNL     1     -10.539  18.697  67.864  1.00  0.00    -0.349 C  
HETATM    4  O   UNL     1      -8.215  19.677  68.869  1.00  0.00    -0.327 OA 
ENDROOT
BRANCH   3   5
HETATM    5  N   UNL     1     -10.294  17.300  68.222  1.00  0.00    -0.340 NA 
HETATM    6  H   UNL     1      -9.849  17.044  69.103  1.00  0.00     0.000 HD 
BRANCH   5   7
HETATM    7  C   UNL     1     -10.702  16.328  67.294  1.00  0.00    -0.265 A  
HETATM    8  C   UNL     1     -10.305  16.343  65.951  1.00  0.00    -0.378 A  
HETATM    9  C   UNL     1     -10.743  15.365  65.053  1.00  0.00    -0.460 A  
HETATM   10  C   UNL     1     -11.577  14.341  65.501  1.00  0.00    -0.338 A  
HETATM   11  C   UNL     1     -11.876  14.227  66.858  1.00  0.00    -0.458 A  
HETATM   12  C   UNL     1     -11.426  15.212  67.746  1.00  0.00    -0.329 A  
BRANCH  10  13
HETATM   13  S   UNL     1     -12.205  13.150  64.334  1.00  0.00    -0.393 S  
HETATM   14  O   UNL     1     -13.404  12.566  64.909  1.00  0.00    -0.702 OA 
HETATM   15  O   UNL     1     -12.254  13.811  63.040  1.00  0.00    -0.534 OA 
BRANCH  13  16
HETATM   16  C   UNL     1     -11.012  11.826  64.216  1.00  0.00    -0.359 A  
HETATM   17  C   UNL     1     -10.694  11.084  65.354  1.00  0.00    -0.222 A  
HETATM   18  C   UNL     1      -9.813   9.998  65.256  1.00  0.00    -0.388 A  
HETATM   19  C   UNL     1      -9.276   9.604  64.020  1.00  0.00    -0.148 A  
HETATM   20  C   UNL     1     -10.432  11.504  62.989  1.00  0.00    -0.255 A  
HETATM   21  C   UNL     1      -9.559  10.408  62.902  1.00  0.00    -0.331 A  
BRANCH  19  22
HETATM   22  N   UNL     1      -8.377   8.517  63.880  1.00  0.00    -0.331 NA 
HETATM   23  H   UNL     1      -8.214   8.049  62.988  1.00  0.00     0.000 HD 
BRANCH  22  24
HETATM   24  C   UNL     1      -7.694   8.117  65.122  1.00  0.00    -0.107 C  
HETATM   25  S   UNL     1      -8.469   6.550  65.704  1.00  0.00    -0.122 S  
HETATM   26  O   UNL     1      -7.571   5.963  66.752  1.00  0.00    -0.095 OA 
HETATM   27  O   UNL     1      -8.178   5.756  64.332  1.00  0.00    -0.132 OA 
ENDBRANCH  22  24
ENDBRANCH  19  22
ENDBRANCH  13  16
ENDBRANCH  10  13
ENDBRANCH   5   7
ENDBRANCH   3   5
TORSDOF 6
ENDMDL
MODEL       18
REMARK 921   NORMALIZED FREE ENERGY PREDICTED BY IDOCK:   -5.91 KCAL/MOL
REMARK 922        TOTAL FREE ENERGY PREDICTED BY IDOCK:   -8.78 KCAL/MOL
REMARK 923 INTER-LIGAND FREE ENERGY PREDICTED BY IDOCK:   -8.22 KCAL/MOL
REMARK 924 INTRA-LIGAND FREE ENERGY PREDICTED BY IDOCK:   -0.56 KCAL/MOL
REMARK 927      BINDING AFFINITY PREDICTED BY RF-SCORE:    0.00 PKD
ROOT
HETATM    1  O   UNL     1      -8.533  20.650  67.310  1.00  0.00    -0.336 OA 
HETATM    2  S   UNL     1      -9.907  19.979  67.806  1.00  0.00    -0.421 S  
HETATM    3  C   UNL     1      -9.131  18.362  68.210  1.00  0.00    -0.312 C  
HETATM    4  O   UNL     1     -10.728  19.815  66.562  1.00  0.00    -0.469 OA 
ENDROOT
BRANCH   3   5
HETATM    5  N   UNL     1     -10.180  17.474  68.712  1.00  0.00    -0.362 NA 
HETATM    6  H   UNL     1     -10.605  17.615  69.628  1.00  0.00     0.000 HD 
BRANCH   5   7
HETATM    7  C   UNL     1     -10.574  16.420  67.872  1.00  0.00    -0.320 A  
HETATM    8  C   UNL     1     -11.578  15.506  68.218  1.00  0.00    -0.344 A  
HETATM    9  C   UNL     1     -11.933  14.460  67.361  1.00  0.00    -0.407 A  
HETATM   10  C   UNL     1     -11.292  14.329  66.129  1.00  0.00    -0.342 A  
HETATM   11  C   UNL     1     -10.387  15.301  65.706  1.00  0.00    -0.364 A  
HETATM   12  C   UNL     1     -10.044  16.346  66.573  1.00  0.00    -0.304 A  
BRANCH  10  13
HETATM   13  S   UNL     1     -11.684  12.942  65.081  1.00  0.00    -0.373 S  
HETATM   14  O   UNL     1     -13.129  12.800  65.069  1.00  0.00    -0.811 OA 
HETATM   15  O   UNL     1     -10.951  13.129  63.840  1.00  0.00    -0.381 OA 
BRANCH  13  16
HETATM   16  C   UNL     1     -11.044  11.471  65.867  1.00  0.00    -0.214 A  
HETATM   17  C   UNL     1     -11.341  11.223  67.207  1.00  0.00    -0.329 A  
HETATM   18  C   UNL     1     -10.903  10.037  67.811  1.00  0.00    -0.337 A  
HETATM   19  C   UNL     1     -10.209   9.059  67.080  1.00  0.00    -0.265 A  
HETATM   20  C   UNL     1     -10.289  10.552  65.139  1.00  0.00    -0.310 A  
HETATM   21  C   UNL     1      -9.864   9.363  65.752  1.00  0.00    -0.345 A  
BRANCH  19  22
HETATM   22  N   UNL     1      -9.743   7.850  67.656  1.00  0.00    -0.150 NA 
HETATM   23  H   UNL     1      -8.905   7.805  68.235  1.00  0.00     0.000 HD 
BRANCH  22  24
HETATM   24  C   UNL     1     -10.564   6.664  67.354  1.00  0.00    -0.301 C  
HETATM   25  S   UNL     1      -9.544   5.528  66.323  1.00  0.00    -0.140 S  
HETATM   26  O   UNL     1     -10.231   4.197  66.302  1.00  0.00    -0.178 OA 
HETATM   27  O   UNL     1      -8.349   5.429  67.400  1.00  0.00    -0.104 OA 
ENDBRANCH  22  24
ENDBRANCH  19  22
ENDBRANCH  13  16
ENDBRANCH  10  13
ENDBRANCH   5   7
ENDBRANCH   3   5
TORSDOF 6
ENDMDL
MODEL       19
REMARK 921   NORMALIZED FREE ENERGY PREDICTED BY IDOCK:   -5.90 KCAL/MOL
REMARK 922        TOTAL FREE ENERGY PREDICTED BY IDOCK:   -8.76 KCAL/MOL
REMARK 923 INTER-LIGAND FREE ENERGY PREDICTED BY IDOCK:   -8.10 KCAL/MOL
REMARK 924 INTRA-LIGAND FREE ENERGY PREDICTED BY IDOCK:   -0.66 KCAL/MOL
REMARK 927      BINDING AFFINITY PREDICTED BY RF-SCORE:    0.00 PKD
ROOT
HETATM    1  O   UNL     1      -9.059   8.759  72.677  1.00  0.00    -0.354 OA 
HETATM    2  S   UNL     1     -10.286   8.279  71.755  1.00  0.00    -0.255 S  
HETATM    3  C   UNL     1     -10.250   9.778  70.691  1.00  0.00    -0.220 C  
HETATM    4  O   UNL     1     -11.491   8.357  72.644  1.00  0.00    -0.380 OA 
ENDROOT
BRANCH   3   5
HETATM    5  N   UNL     1     -11.311   9.646  69.693  1.00  0.00    -0.415 NA 
HETATM    6  H   UNL     1     -12.036   8.933  69.776  1.00  0.00     0.000 HD 
BRANCH   5   7
HETATM    7  C   UNL     1     -11.285  10.546  68.617  1.00  0.00    -0.270 A  
HETATM    8  C   UNL     1     -11.742  11.867  68.717  1.00  0.00    -0.379 A  
HETATM    9  C   UNL     1     -11.713  12.731  67.618  1.00  0.00    -0.422 A  
HETATM   10  C   UNL     1     -11.204  12.281  66.400  1.00  0.00    -0.324 A  
HETATM   11  C   UNL     1     -10.620  11.018  66.311  1.00  0.00    -0.295 A  
HETATM   12  C   UNL     1     -10.653  10.165  67.422  1.00  0.00    -0.329 A  
BRANCH  10  13
HETATM   13  S   UNL     1     -11.253  13.356  64.980  1.00  0.00    -0.331 S  
HETATM   14  O   UNL     1     -10.441  12.746  63.943  1.00  0.00    -0.418 OA 
HETATM   15  O   UNL     1     -12.651  13.668  64.734  1.00  0.00    -0.590 OA 
BRANCH  13  16
HETATM   16  C   UNL     1     -10.433  14.879  65.426  1.00  0.00    -0.384 A  
HETATM   17  C   UNL     1     -11.046  16.099  65.137  1.00  0.00    -0.256 A  
HETATM   18  C   UNL     1     -10.445  17.297  65.546  1.00  0.00    -0.135 A  
HETATM   19  C   UNL     1      -9.255  17.298  66.292  1.00  0.00    -0.215 A  
HETATM   20  C   UNL     1      -9.211  14.856  66.097  1.00  0.00    -0.268 A  
HETATM   21  C   UNL     1      -8.623  16.061  66.510  1.00  0.00    -0.344 A  
BRANCH  19  22
HETATM   22  N   UNL     1      -8.611  18.487  66.717  1.00  0.00    -0.275 NA 
HETATM   23  H   UNL     1      -8.367  19.241  66.074  1.00  0.00     0.000 HD 
BRANCH  22  24
HETATM   24  C   UNL     1      -8.323  18.551  68.161  1.00  0.00    -0.296 C  
HETATM   25  S   UNL     1      -6.768  19.517  68.377  1.00  0.00    -0.292 S  
HETATM   26  O   UNL     1      -6.657  19.876  69.827  1.00  0.00    -0.344 OA 
HETATM   27  O   UNL     1      -7.328  20.818  67.607  1.00  0.00    -0.308 OA 
ENDBRANCH  22  24
ENDBRANCH  19  22
ENDBRANCH  13  16
ENDBRANCH  10  13
ENDBRANCH   5   7
ENDBRANCH   3   5
TORSDOF 6
ENDMDL
MODEL       20
REMARK 921   NORMALIZED FREE ENERGY PREDICTED BY IDOCK:   -5.89 KCAL/MOL
REMARK 922        TOTAL FREE ENERGY PREDICTED BY IDOCK:   -8.75 KCAL/MOL
REMARK 923 INTER-LIGAND FREE ENERGY PREDICTED BY IDOCK:   -7.93 KCAL/MOL
REMARK 924 INTRA-LIGAND FREE ENERGY PREDICTED BY IDOCK:   -0.82 KCAL/MOL
REMARK 927      BINDING AFFINITY PREDICTED BY RF-SCORE:    0.00 PKD
ROOT
HETATM    1  O   UNL     1      -5.914   6.136  65.028  1.00  0.00    -0.024 OA 
HETATM    2  S   UNL     1      -7.201   6.379  64.096  1.00  0.00    -0.071 S  
HETATM    3  C   UNL     1      -6.888   8.180  63.898  1.00  0.00    -0.074 C  
HETATM    4  O   UNL     1      -8.378   6.198  65.007  1.00  0.00    -0.142 OA 
ENDROOT
BRANCH   3   5
HETATM    5  N   UNL     1      -7.950   8.730  63.055  1.00  0.00    -0.153 NA 
HETATM    6  H   UNL     1      -8.026   8.488  62.068  1.00  0.00     0.000 HD 
BRANCH   5   7
HETATM    7  C   UNL     1      -8.857   9.606  63.671  1.00  0.00    -0.232 A  
HETATM    8  C   UNL     1      -9.083   9.621  65.054  1.00  0.00    -0.284 A  
HETATM    9  C   UNL     1     -10.007  10.499  65.629  1.00  0.00    -0.332 A  
HETATM   10  C   UNL     1     -10.706  11.393  64.819  1.00  0.00    -0.298 A  
HETATM   11  C   UNL     1     -10.402  11.491  63.461  1.00  0.00    -0.484 A  
HETATM   12  C   UNL     1      -9.471  10.607  62.900  1.00  0.00    -0.367 A  
BRANCH  10  13
HETATM   13  S   UNL     1     -11.946  12.447  65.544  1.00  0.00    -0.321 S  
HETATM   14  O   UNL     1     -13.065  12.504  64.622  1.00  0.00    -0.845 OA 
HETATM   15  O   UNL     1     -12.140  11.992  66.912  1.00  0.00    -0.608 OA 
BRANCH  13  16
HETATM   16  C   UNL     1     -11.275  14.101  65.619  1.00  0.00    -0.308 A  
HETATM   17  C   UNL     1     -11.552  15.002  64.591  1.00  0.00    -0.386 A  
HETATM   18  C   UNL     1     -11.090  16.322  64.676  1.00  0.00    -0.259 A  
HETATM   19  C   UNL     1     -10.391  16.779  65.805  1.00  0.00    -0.305 A  
HETATM   20  C   UNL     1     -10.516  14.508  66.717  1.00  0.00    -0.270 A  
HETATM   21  C   UNL     1     -10.067  15.835  66.795  1.00  0.00    -0.276 A  
BRANCH  19  22
HETATM   22  N   UNL     1      -9.901  18.104  65.926  1.00  0.00    -0.547 NA 
HETATM   23  H   UNL     1     -10.390  18.909  65.534  1.00  0.00     0.000 HD 
BRANCH  22  24
HETATM   24  C   UNL     1      -8.630  18.228  66.662  1.00  0.00    -0.273 C  
HETATM   25  S   UNL     1      -8.818  19.607  67.869  1.00  0.00    -0.325 S  
HETATM   26  O   UNL     1      -7.679  19.516  68.839  1.00  0.00    -0.358 OA 
HETATM   27  O   UNL     1     -10.107  18.962  68.589  1.00  0.00    -0.388 OA 
ENDBRANCH  22  24
ENDBRANCH  19  22
ENDBRANCH  13  16
ENDBRANCH  10  13
ENDBRANCH   5   7
ENDBRANCH   3   5
TORSDOF 6
ENDMDL
MODEL       21
REMARK 921   NORMALIZED FREE ENERGY PREDICTED BY IDOCK:   -5.89 KCAL/MOL
REMARK 922        TOTAL FREE ENERGY PREDICTED BY IDOCK:   -8.75 KCAL/MOL
REMARK 923 INTER-LIGAND FREE ENERGY PREDICTED BY IDOCK:   -7.94 KCAL/MOL
REMARK 924 INTRA-LIGAND FREE ENERGY PREDICTED BY IDOCK:   -0.82 KCAL/MOL
REMARK 927      BINDING AFFINITY PREDICTED BY RF-SCORE:    0.00 PKD
ROOT
HETATM    1  O   UNL     1     -11.941   6.764  71.558  1.00  0.00    -0.314 OA 
HETATM    2  S   UNL     1     -11.975   8.042  72.532  1.00  0.00    -0.269 S  
HETATM    3  C   UNL     1     -13.272   8.916  71.564  1.00  0.00    -0.327 C  
HETATM    4  O   UNL     1     -10.665   8.736  72.305  1.00  0.00    -0.344 OA 
ENDROOT
BRANCH   3   5
HETATM    5  N   UNL     1     -13.541  10.192  72.226  1.00  0.00    -0.557 NA 
HETATM    6  H   UNL     1     -14.062  10.240  73.102  1.00  0.00     0.000 HD 
BRANCH   5   7
HETATM    7  C   UNL     1     -13.050  11.348  71.598  1.00  0.00    -0.393 A  
HETATM    8  C   UNL     1     -13.276  12.639  72.095  1.00  0.00    -0.527 A  
HETATM    9  C   UNL     1     -12.782  13.767  71.433  1.00  0.00    -0.450 A  
HETATM   10  C   UNL     1     -12.034  13.611  70.267  1.00  0.00    -0.327 A  
HETATM   11  C   UNL     1     -11.682  12.335  69.828  1.00  0.00    -0.368 A  
HETATM   12  C   UNL     1     -12.180  11.214  70.504  1.00  0.00    -0.475 A  
BRANCH  10  13
HETATM   13  S   UNL     1     -11.484  15.055  69.380  1.00  0.00    -0.321 S  
HETATM   14  O   UNL     1     -12.619  15.953  69.260  1.00  0.00     0.036 OA 
HETATM   15  O   UNL     1     -10.255  15.500  70.016  1.00  0.00    -0.301 OA 
BRANCH  13  16
HETATM   16  C   UNL     1     -11.073  14.546  67.717  1.00  0.00    -0.285 A  
HETATM   17  C   UNL     1      -9.736  14.355  67.368  1.00  0.00    -0.220 A  
HETATM   18  C   UNL     1      -9.408  13.887  66.089  1.00  0.00    -0.124 A  
HETATM   19  C   UNL     1     -10.404  13.554  65.157  1.00  0.00    -0.353 A  
HETATM   20  C   UNL     1     -12.079  14.297  66.784  1.00  0.00    -0.446 A  
HETATM   21  C   UNL     1     -11.739  13.819  65.509  1.00  0.00    -0.356 A  
BRANCH  19  22
HETATM   22  N   UNL     1     -10.114  13.085  63.851  1.00  0.00    -0.757 NA 
HETATM   23  H   UNL     1      -9.695  13.678  63.134  1.00  0.00     0.000 HD 
BRANCH  22  24
HETATM   24  C   UNL     1     -10.463  11.674  63.608  1.00  0.00    -0.429 C  
HETATM   25  S   UNL     1      -9.066  10.904  62.686  1.00  0.00    -0.343 S  
HETATM   26  O   UNL     1      -9.255   9.418  62.739  1.00  0.00    -0.210 OA 
HETATM   27  O   UNL     1      -7.965  11.283  63.800  1.00  0.00     0.526 OA 
ENDBRANCH  22  24
ENDBRANCH  19  22
ENDBRANCH  13  16
ENDBRANCH  10  13
ENDBRANCH   5   7
ENDBRANCH   3   5
TORSDOF 6
ENDMDL
MODEL       22
REMARK 921   NORMALIZED FREE ENERGY PREDICTED BY IDOCK:   -5.89 KCAL/MOL
REMARK 922        TOTAL FREE ENERGY PREDICTED BY IDOCK:   -8.75 KCAL/MOL
REMARK 923 INTER-LIGAND FREE ENERGY PREDICTED BY IDOCK:   -8.55 KCAL/MOL
REMARK 924 INTRA-LIGAND FREE ENERGY PREDICTED BY IDOCK:   -0.20 KCAL/MOL
REMARK 927      BINDING AFFINITY PREDICTED BY RF-SCORE:    0.00 PKD
ROOT
HETATM    1  O   UNL     1      -7.453  20.947  67.077  1.00  0.00    -0.306 OA 
HETATM    2  S   UNL     1      -7.566  19.631  67.993  1.00  0.00    -0.304 S  
HETATM    3  C   UNL     1      -9.399  19.543  67.880  1.00  0.00    -0.333 C  
HETATM    4  O   UNL     1      -7.197  20.088  69.373  1.00  0.00    -0.239 OA 
ENDROOT
BRANCH   3   5
HETATM    5  N   UNL     1      -9.841  18.386  68.658  1.00  0.00    -0.364 NA 
HETATM    6  H   UNL     1      -9.817  18.388  69.678  1.00  0.00     0.000 HD 
BRANCH   5   7
HETATM    7  C   UNL     1     -10.300  17.274  67.935  1.00  0.00    -0.360 A  
HETATM    8  C   UNL     1     -11.105  16.277  68.502  1.00  0.00    -0.368 A  
HETATM    9  C   UNL     1     -11.531  15.175  67.753  1.00  0.00    -0.329 A  
HETATM   10  C   UNL     1     -11.168  15.071  66.411  1.00  0.00    -0.310 A  
HETATM   11  C   UNL     1     -10.483  16.115  65.789  1.00  0.00    -0.384 A  
HETATM   12  C   UNL     1     -10.067  17.214  66.551  1.00  0.00    -0.313 A  
BRANCH  10  13
HETATM   13  S   UNL     1     -11.637  13.623  65.486  1.00  0.00    -0.336 S  
HETATM   14  O   UNL     1     -13.078  13.664  65.313  1.00  0.00    -0.735 OA 
HETATM   15  O   UNL     1     -10.757  13.554  64.331  1.00  0.00    -0.408 OA 
BRANCH  13  16
HETATM   16  C   UNL     1     -11.297  12.195  66.506  1.00  0.00    -0.350 A  
HETATM   17  C   UNL     1     -11.745  12.172  67.827  1.00  0.00    -0.390 A  
HETATM   18  C   UNL     1     -11.546  11.029  68.612  1.00  0.00    -0.385 A  
HETATM   19  C   UNL     1     -10.946   9.876  68.081  1.00  0.00    -0.207 A  
HETATM   20  C   UNL     1     -10.629  11.091  65.977  1.00  0.00    -0.275 A  
HETATM   21  C   UNL     1     -10.444   9.948  66.770  1.00  0.00    -0.261 A  
BRANCH  19  22
HETATM   22  N   UNL     1     -10.719   8.702  68.844  1.00  0.00    -0.402 NA 
HETATM   23  H   UNL     1     -10.718   7.769  68.430  1.00  0.00     0.000 HD 
BRANCH  22  24
HETATM   24  C   UNL     1     -10.486   8.934  70.280  1.00  0.00    -0.210 C  
HETATM   25  S   UNL     1     -11.871   8.147  71.204  1.00  0.00    -0.257 S  
HETATM   26  O   UNL     1     -11.470   8.078  72.647  1.00  0.00    -0.381 OA 
HETATM   27  O   UNL     1     -11.622   6.685  70.572  1.00  0.00    -0.345 OA 
ENDBRANCH  22  24
ENDBRANCH  19  22
ENDBRANCH  13  16
ENDBRANCH  10  13
ENDBRANCH   5   7
ENDBRANCH   3   5
TORSDOF 6
ENDMDL
MODEL       23
REMARK 921   NORMALIZED FREE ENERGY PREDICTED BY IDOCK:   -5.85 KCAL/MOL
REMARK 922        TOTAL FREE ENERGY PREDICTED BY IDOCK:   -8.70 KCAL/MOL
REMARK 923 INTER-LIGAND FREE ENERGY PREDICTED BY IDOCK:   -7.92 KCAL/MOL
REMARK 924 INTRA-LIGAND FREE ENERGY PREDICTED BY IDOCK:   -0.79 KCAL/MOL
REMARK 927      BINDING AFFINITY PREDICTED BY RF-SCORE:    0.00 PKD
ROOT
HETATM    1  O   UNL     1     -11.028   4.695  72.690  1.00  0.00    -0.187 OA 
HETATM    2  S   UNL     1     -10.510   6.128  73.202  1.00  0.00    -0.251 S  
HETATM    3  C   UNL     1     -11.801   7.071  72.294  1.00  0.00    -0.233 C  
HETATM    4  O   UNL     1      -9.197   6.335  72.509  1.00  0.00    -0.142 OA 
ENDROOT
BRANCH   3   5
HETATM    5  N   UNL     1     -11.591   8.493  72.564  1.00  0.00    -0.354 NA 
HETATM    6  H   UNL     1     -11.570   8.859  73.517  1.00  0.00     0.000 HD 
BRANCH   5   7
HETATM    7  C   UNL     1     -11.419   9.331  71.451  1.00  0.00    -0.369 A  
HETATM    8  C   UNL     1     -12.354  10.307  71.081  1.00  0.00    -0.501 A  
HETATM    9  C   UNL     1     -12.156  11.113  69.956  1.00  0.00    -0.437 A  
HETATM   10  C   UNL     1     -10.997  10.962  69.194  1.00  0.00    -0.239 A  
HETATM   11  C   UNL     1      -9.991  10.094  69.618  1.00  0.00    -0.262 A  
HETATM   12  C   UNL     1     -10.203   9.295  70.749  1.00  0.00    -0.353 A  
BRANCH  10  13
HETATM   13  S   UNL     1     -10.791  11.929  67.713  1.00  0.00    -0.223 S  
HETATM   14  O   UNL     1      -9.504  11.579  67.139  1.00  0.00    -0.175 OA 
HETATM   15  O   UNL     1     -12.010  11.777  66.936  1.00  0.00    -0.605 OA 
BRANCH  13  16
HETATM   16  C   UNL     1     -10.673  13.644  68.197  1.00  0.00    -0.248 A  
HETATM   17  C   UNL     1      -9.416  14.223  68.374  1.00  0.00    -0.213 A  
HETATM   18  C   UNL     1      -9.312  15.586  68.684  1.00  0.00    -0.201 A  
HETATM   19  C   UNL     1     -10.451  16.402  68.772  1.00  0.00    -0.300 A  
HETATM   20  C   UNL     1     -11.824  14.416  68.354  1.00  0.00    -0.354 A  
HETATM   21  C   UNL     1     -11.707  15.782  68.655  1.00  0.00    -0.353 A  
BRANCH  19  22
HETATM   22  N   UNL     1     -10.389  17.782  69.090  1.00  0.00    -0.397 NA 
HETATM   23  H   UNL     1     -11.074  18.239  69.693  1.00  0.00     0.000 HD 
BRANCH  22  24
HETATM   24  C   UNL     1      -9.258  18.507  68.484  1.00  0.00    -0.335 C  
HETATM   25  S   UNL     1      -9.644  18.749  66.699  1.00  0.00    -0.349 S  
HETATM   26  O   UNL     1      -8.682  19.765  66.163  1.00  0.00    -0.362 OA 
HETATM   27  O   UNL     1     -11.035  19.515  66.980  1.00  0.00    -0.477 OA 
ENDBRANCH  22  24
ENDBRANCH  19  22
ENDBRANCH  13  16
ENDBRANCH  10  13
ENDBRANCH   5   7
ENDBRANCH   3   5
TORSDOF 6
ENDMDL
MODEL       24
REMARK 921   NORMALIZED FREE ENERGY PREDICTED BY IDOCK:   -5.84 KCAL/MOL
REMARK 922        TOTAL FREE ENERGY PREDICTED BY IDOCK:   -8.68 KCAL/MOL
REMARK 923 INTER-LIGAND FREE ENERGY PREDICTED BY IDOCK:   -7.93 KCAL/MOL
REMARK 924 INTRA-LIGAND FREE ENERGY PREDICTED BY IDOCK:   -0.76 KCAL/MOL
REMARK 927      BINDING AFFINITY PREDICTED BY RF-SCORE:    0.00 PKD
ROOT
HETATM    1  O   UNL     1     -12.786   7.207  71.838  1.00  0.00    -0.318 OA 
HETATM    2  S   UNL     1     -13.557   8.617  71.793  1.00  0.00    -0.410 S  
HETATM    3  C   UNL     1     -12.029   9.599  71.507  1.00  0.00    -0.406 C  
HETATM    4  O   UNL     1     -14.017   8.852  73.200  1.00  0.00    -0.293 OA 
ENDROOT
BRANCH   3   5
HETATM    5  N   UNL     1     -12.411  11.008  71.419  1.00  0.00    -0.354 NA 
HETATM    6  H   UNL     1     -12.854  11.492  72.201  1.00  0.00     0.000 HD 
BRANCH   5   7
HETATM    7  C   UNL     1     -12.141  11.663  70.207  1.00  0.00    -0.358 A  
HETATM    8  C   UNL     1     -12.137  13.059  70.080  1.00  0.00    -0.377 A  
HETATM    9  C   UNL     1     -11.877  13.676  68.853  1.00  0.00    -0.402 A  
HETATM   10  C   UNL     1     -11.597  12.893  67.733  1.00  0.00    -0.343 A  
HETATM   11  C   UNL     1     -11.462  11.511  67.863  1.00  0.00    -0.372 A  
HETATM   12  C   UNL     1     -11.721  10.908  69.100  1.00  0.00    -0.397 A  
BRANCH  10  13
HETATM   13  S   UNL     1     -11.355  13.679  66.153  1.00  0.00    -0.320 S  
HETATM   14  O   UNL     1     -10.755  12.701  65.265  1.00  0.00    -0.277 OA 
HETATM   15  O   UNL     1     -12.612  14.320  65.803  1.00  0.00    -0.454 OA 
BRANCH  13  16
HETATM   16  C   UNL     1     -10.138  14.969  66.371  1.00  0.00    -0.276 A  
HETATM   17  C   UNL     1      -8.914  14.665  66.967  1.00  0.00    -0.258 A  
HETATM   18  C   UNL     1      -7.927  15.653  67.077  1.00  0.00    -0.268 A  
HETATM   19  C   UNL     1      -8.121  16.941  66.551  1.00  0.00    -0.291 A  
HETATM   20  C   UNL     1     -10.386  16.262  65.909  1.00  0.00    -0.381 A  
HETATM   21  C   UNL     1      -9.386  17.240  66.016  1.00  0.00    -0.128 A  
BRANCH  19  22
HETATM   22  N   UNL     1      -7.151  17.969  66.648  1.00  0.00    -0.197 NA 
HETATM   23  H   UNL     1      -6.237  17.825  67.079  1.00  0.00     0.000 HD 
BRANCH  22  24
HETATM   24  C   UNL     1      -7.563  19.264  66.079  1.00  0.00    -0.272 C  
HETATM   25  S   UNL     1      -6.159  19.903  65.072  1.00  0.00    -0.265 S  
HETATM   26  O   UNL     1      -6.682  21.024  64.226  1.00  0.00    -0.221 OA 
HETATM   27  O   UNL     1      -6.081  18.596  64.132  1.00  0.00    -0.287 OA 
ENDBRANCH  22  24
ENDBRANCH  19  22
ENDBRANCH  13  16
ENDBRANCH  10  13
ENDBRANCH   5   7
ENDBRANCH   3   5
TORSDOF 6
ENDMDL
MODEL       25
REMARK 921   NORMALIZED FREE ENERGY PREDICTED BY IDOCK:   -5.76 KCAL/MOL
REMARK 922        TOTAL FREE ENERGY PREDICTED BY IDOCK:   -8.57 KCAL/MOL
REMARK 923 INTER-LIGAND FREE ENERGY PREDICTED BY IDOCK:   -7.84 KCAL/MOL
REMARK 924 INTRA-LIGAND FREE ENERGY PREDICTED BY IDOCK:   -0.73 KCAL/MOL
REMARK 927      BINDING AFFINITY PREDICTED BY RF-SCORE:    0.00 PKD
ROOT
HETATM    1  O   UNL     1     -13.110  13.976  65.303  1.00  0.00    -0.782 OA 
HETATM    2  S   UNL     1     -12.426  12.856  64.375  1.00  0.00    -0.347 S  
HETATM    3  C   UNL     1     -10.717  13.243  64.931  1.00  0.00    -0.351 C  
HETATM    4  O   UNL     1     -12.595  13.360  62.973  1.00  0.00    -0.669 OA 
ENDROOT
BRANCH   3   5
HETATM    5  N   UNL     1      -9.802  12.345  64.226  1.00  0.00    -0.548 NA 
HETATM    6  H   UNL     1      -9.353  12.620  63.352  1.00  0.00     0.000 HD 
BRANCH   5   7
HETATM    7  C   UNL     1      -9.571  11.090  64.809  1.00  0.00    -0.248 A  
HETATM    8  C   UNL     1     -10.137  10.702  66.031  1.00  0.00    -0.308 A  
HETATM    9  C   UNL     1      -9.872   9.447  66.589  1.00  0.00    -0.309 A  
HETATM   10  C   UNL     1      -9.044   8.552  65.911  1.00  0.00    -0.183 A  
HETATM   11  C   UNL     1      -8.580   8.861  64.633  1.00  0.00    -0.169 A  
HETATM   12  C   UNL     1      -8.857  10.121  64.086  1.00  0.00    -0.243 A  
BRANCH  10  13
HETATM   13  S   UNL     1      -8.638   6.991  66.667  1.00  0.00    -0.130 S  
HETATM   14  O   UNL     1      -9.228   5.944  65.852  1.00  0.00    -0.157 OA 
HETATM   15  O   UNL     1      -7.208   7.006  66.926  1.00  0.00    -0.073 OA 
BRANCH  13  16
HETATM   16  C   UNL     1      -9.469   6.922  68.247  1.00  0.00    -0.126 A  
HETATM   17  C   UNL     1      -8.877   7.520  69.361  1.00  0.00    -0.136 A  
HETATM   18  C   UNL     1      -9.554   7.533  70.588  1.00  0.00    -0.171 A  
HETATM   19  C   UNL     1     -10.847   6.999  70.714  1.00  0.00    -0.246 A  
HETATM   20  C   UNL     1     -10.719   6.316  68.364  1.00  0.00    -0.356 A  
HETATM   21  C   UNL     1     -11.391   6.344  69.596  1.00  0.00    -0.479 A  
BRANCH  19  22
HETATM   22  N   UNL     1     -11.561   6.987  71.938  1.00  0.00    -0.273 NA 
HETATM   23  H   UNL     1     -11.912   6.127  72.361  1.00  0.00     0.000 HD 
BRANCH  22  24
HETATM   24  C   UNL     1     -11.756   8.311  72.554  1.00  0.00    -0.383 C  
HETATM   25  S   UNL     1     -12.898   9.267  71.469  1.00  0.00    -0.364 S  
HETATM   26  O   UNL     1     -13.367  10.460  72.247  1.00  0.00    -0.396 OA 
HETATM   27  O   UNL     1     -14.074   8.167  71.533  1.00  0.00    -0.392 OA 
ENDBRANCH  22  24
ENDBRANCH  19  22
ENDBRANCH  13  16
ENDBRANCH  10  13
ENDBRANCH   5   7
ENDBRANCH   3   5
TORSDOF 6
ENDMDL
MODEL       26
REMARK 921   NORMALIZED FREE ENERGY PREDICTED BY IDOCK:   -5.75 KCAL/MOL
REMARK 922        TOTAL FREE ENERGY PREDICTED BY IDOCK:   -8.56 KCAL/MOL
REMARK 923 INTER-LIGAND FREE ENERGY PREDICTED BY IDOCK:   -7.80 KCAL/MOL
REMARK 924 INTRA-LIGAND FREE ENERGY PREDICTED BY IDOCK:   -0.77 KCAL/MOL
REMARK 927      BINDING AFFINITY PREDICTED BY RF-SCORE:    0.00 PKD
ROOT
HETATM    1  O   UNL     1     -10.450  19.858  68.626  1.00  0.00    -0.400 OA 
HETATM    2  S   UNL     1     -10.676  19.076  67.240  1.00  0.00    -0.413 S  
HETATM    3  C   UNL     1      -8.972  18.386  67.194  1.00  0.00    -0.268 C  
HETATM    4  O   UNL     1     -10.781  20.152  66.202  1.00  0.00    -0.353 OA 
ENDROOT
BRANCH   3   5
HETATM    5  N   UNL     1      -8.847  17.581  65.979  1.00  0.00    -0.525 NA 
HETATM    6  H   UNL     1      -8.285  17.893  65.187  1.00  0.00     0.000 HD 
BRANCH   5   7
HETATM    7  C   UNL     1      -9.538  16.359  65.955  1.00  0.00    -0.319 A  
HETATM    8  C   UNL     1      -9.356  15.362  66.923  1.00  0.00    -0.255 A  
HETATM    9  C   UNL     1     -10.051  14.151  66.858  1.00  0.00    -0.258 A  
HETATM   10  C   UNL     1     -10.960  13.932  65.822  1.00  0.00    -0.285 A  
HETATM   11  C   UNL     1     -11.259  14.958  64.926  1.00  0.00    -0.415 A  
HETATM   12  C   UNL     1     -10.556  16.167  65.007  1.00  0.00    -0.301 A  
BRANCH  10  13
HETATM   13  S   UNL     1     -11.776  12.354  65.693  1.00  0.00    -0.396 S  
HETATM   14  O   UNL     1     -12.007  11.870  67.042  1.00  0.00    -0.615 OA 
HETATM   15  O   UNL     1     -12.887  12.526  64.771  1.00  0.00    -0.755 OA 
BRANCH  13  16
HETATM   16  C   UNL     1     -10.628  11.210  64.941  1.00  0.00    -0.289 A  
HETATM   17  C   UNL     1     -10.281  11.368  63.599  1.00  0.00    -0.448 A  
HETATM   18  C   UNL     1      -9.327  10.519  63.021  1.00  0.00    -0.343 A  
HETATM   19  C   UNL     1      -8.669   9.537  63.779  1.00  0.00    -0.217 A  
HETATM   20  C   UNL     1     -10.046  10.192  65.697  1.00  0.00    -0.324 A  
HETATM   21  C   UNL     1      -9.086   9.355  65.109  1.00  0.00    -0.280 A  
BRANCH  19  22
HETATM   22  N   UNL     1      -7.705   8.655  63.229  1.00  0.00    -0.127 NA 
HETATM   23  H   UNL     1      -7.087   8.924  62.464  1.00  0.00     0.000 HD 
BRANCH  22  24
HETATM   24  C   UNL     1      -7.664   7.319  63.850  1.00  0.00    -0.120 C  
HETATM   25  S   UNL     1      -5.899   6.798  63.936  1.00  0.00    -0.032 S  
HETATM   26  O   UNL     1      -5.820   5.621  64.861  1.00  0.00    -0.020 OA 
HETATM   27  O   UNL     1      -5.433   8.093  64.776  1.00  0.00    -0.039 OA 
ENDBRANCH  22  24
ENDBRANCH  19  22
ENDBRANCH  13  16
ENDBRANCH  10  13
ENDBRANCH   5   7
ENDBRANCH   3   5
TORSDOF 6
ENDMDL
MODEL       27
REMARK 921   NORMALIZED FREE ENERGY PREDICTED BY IDOCK:   -5.75 KCAL/MOL
REMARK 922        TOTAL FREE ENERGY PREDICTED BY IDOCK:   -8.56 KCAL/MOL
REMARK 923 INTER-LIGAND FREE ENERGY PREDICTED BY IDOCK:   -8.25 KCAL/MOL
REMARK 924 INTRA-LIGAND FREE ENERGY PREDICTED BY IDOCK:   -0.31 KCAL/MOL
REMARK 927      BINDING AFFINITY PREDICTED BY RF-SCORE:    0.00 PKD
ROOT
HETATM    1  O   UNL     1      -7.400   9.503  62.360  1.00  0.00    -0.102 OA 
HETATM    2  S   UNL     1      -8.944   9.517  62.805  1.00  0.00    -0.166 S  
HETATM    3  C   UNL     1      -9.116  11.340  62.644  1.00  0.00    -0.283 C  
HETATM    4  O   UNL     1      -8.930   9.168  64.263  1.00  0.00    -0.163 OA 
ENDROOT
BRANCH   3   5
HETATM    5  N   UNL     1     -10.489  11.695  63.005  1.00  0.00    -0.675 NA 
HETATM    6  H   UNL     1     -11.267  11.539  62.364  1.00  0.00     0.000 HD 
BRANCH   5   7
HETATM    7  C   UNL     1     -10.684  12.260  64.275  1.00  0.00    -0.351 A  
HETATM    8  C   UNL     1     -11.938  12.683  64.736  1.00  0.00    -0.458 A  
HETATM    9  C   UNL     1     -12.092  13.255  66.002  1.00  0.00    -0.491 A  
HETATM   10  C   UNL     1     -10.982  13.393  66.836  1.00  0.00    -0.284 A  
HETATM   11  C   UNL     1      -9.752  12.858  66.455  1.00  0.00    -0.257 A  
HETATM   12  C   UNL     1      -9.614  12.284  65.185  1.00  0.00    -0.015 A  
BRANCH  10  13
HETATM   13  S   UNL     1     -11.166  14.204  68.411  1.00  0.00    -0.282 S  
HETATM   14  O   UNL     1      -9.835  14.502  68.907  1.00  0.00    -0.224 OA 
HETATM   15  O   UNL     1     -12.140  15.267  68.228  1.00  0.00    -0.212 OA 
BRANCH  13  16
HETATM   16  C   UNL     1     -11.870  13.021  69.550  1.00  0.00    -0.323 A  
HETATM   17  C   UNL     1     -11.777  11.658  69.269  1.00  0.00    -0.396 A  
HETATM   18  C   UNL     1     -12.263  10.721  70.191  1.00  0.00    -0.425 A  
HETATM   19  C   UNL     1     -12.800  11.122  71.425  1.00  0.00    -0.439 A  
HETATM   20  C   UNL     1     -12.470  13.449  70.734  1.00  0.00    -0.418 A  
HETATM   21  C   UNL     1     -12.944  12.501  71.654  1.00  0.00    -0.405 A  
BRANCH  19  22
HETATM   22  N   UNL     1     -13.308  10.206  72.380  1.00  0.00    -0.587 NA 
HETATM   23  H   UNL     1     -13.398  10.436  73.370  1.00  0.00     0.000 HD 
BRANCH  22  24
HETATM   24  C   UNL     1     -13.699   8.895  71.832  1.00  0.00    -0.439 C  
HETATM   25  S   UNL     1     -12.165   7.890  71.644  1.00  0.00    -0.318 S  
HETATM   26  O   UNL     1     -12.582   6.468  71.421  1.00  0.00    -0.266 OA 
HETATM   27  O   UNL     1     -11.743   8.024  73.194  1.00  0.00    -0.268 OA 
ENDBRANCH  22  24
ENDBRANCH  19  22
ENDBRANCH  13  16
ENDBRANCH  10  13
ENDBRANCH   5   7
ENDBRANCH   3   5
TORSDOF 6
ENDMDL
MODEL       28
REMARK 921   NORMALIZED FREE ENERGY PREDICTED BY IDOCK:   -5.71 KCAL/MOL
REMARK 922        TOTAL FREE ENERGY PREDICTED BY IDOCK:   -8.51 KCAL/MOL
REMARK 923 INTER-LIGAND FREE ENERGY PREDICTED BY IDOCK:   -7.87 KCAL/MOL
REMARK 924 INTRA-LIGAND FREE ENERGY PREDICTED BY IDOCK:   -0.64 KCAL/MOL
REMARK 927      BINDING AFFINITY PREDICTED BY RF-SCORE:    0.00 PKD
ROOT
HETATM    1  O   UNL     1     -10.457  16.714  64.913  1.00  0.00    -0.657 OA 
HETATM    2  S   UNL     1     -10.766  15.312  65.637  1.00  0.00    -0.388 S  
HETATM    3  C   UNL     1     -12.176  14.896  64.532  1.00  0.00    -0.382 C  
HETATM    4  O   UNL     1     -11.311  15.684  66.983  1.00  0.00    -0.209 OA 
ENDROOT
BRANCH   3   5
HETATM    5  N   UNL     1     -12.711  13.603  64.956  1.00  0.00    -0.681 NA 
HETATM    6  H   UNL     1     -13.712  13.459  65.096  1.00  0.00     0.000 HD 
BRANCH   5   7
HETATM    7  C   UNL     1     -11.784  12.570  65.163  1.00  0.00    -0.378 A  
HETATM    8  C   UNL     1     -11.533  12.012  66.423  1.00  0.00    -0.417 A  
HETATM    9  C   UNL     1     -10.591  10.993  66.592  1.00  0.00    -0.315 A  
HETATM   10  C   UNL     1      -9.896  10.505  65.485  1.00  0.00    -0.265 A  
HETATM   11  C   UNL     1     -10.224  10.948  64.204  1.00  0.00    -0.424 A  
HETATM   12  C   UNL     1     -11.174  11.966  64.051  1.00  0.00    -0.470 A  
BRANCH  10  13
HETATM   13  S   UNL     1      -8.633   9.271  65.718  1.00  0.00    -0.161 S  
HETATM   14  O   UNL     1      -8.515   8.527  64.477  1.00  0.00    -0.161 OA 
HETATM   15  O   UNL     1      -7.479   9.949  66.285  1.00  0.00    -0.098 OA 
BRANCH  13  16
HETATM   16  C   UNL     1      -9.228   8.111  66.941  1.00  0.00    -0.160 A  
HETATM   17  C   UNL     1      -8.510   7.932  68.124  1.00  0.00    -0.124 A  
HETATM   18  C   UNL     1      -9.006   7.079  69.118  1.00  0.00    -0.134 A  
HETATM   19  C   UNL     1     -10.244   6.433  68.974  1.00  0.00    -0.183 A  
HETATM   20  C   UNL     1     -10.423   7.421  66.739  1.00  0.00    -0.316 A  
HETATM   21  C   UNL     1     -10.914   6.577  67.747  1.00  0.00    -0.407 A  
BRANCH  19  22
HETATM   22  N   UNL     1     -10.776   5.556  69.954  1.00  0.00    -0.323 NA 
HETATM   23  H   UNL     1     -11.320   4.727  69.712  1.00  0.00     0.000 HD 
BRANCH  22  24
HETATM   24  C   UNL     1     -10.483   5.935  71.347  1.00  0.00    -0.236 C  
HETATM   25  S   UNL     1     -11.401   7.493  71.706  1.00  0.00    -0.264 S  
HETATM   26  O   UNL     1     -11.387   7.693  73.191  1.00  0.00    -0.360 OA 
HETATM   27  O   UNL     1     -12.839   6.875  71.323  1.00  0.00    -0.359 OA 
ENDBRANCH  22  24
ENDBRANCH  19  22
ENDBRANCH  13  16
ENDBRANCH  10  13
ENDBRANCH   5   7
ENDBRANCH   3   5
TORSDOF 6
ENDMDL
MODEL       29
REMARK 921   NORMALIZED FREE ENERGY PREDICTED BY IDOCK:   -5.65 KCAL/MOL
REMARK 922        TOTAL FREE ENERGY PREDICTED BY IDOCK:   -8.42 KCAL/MOL
REMARK 923 INTER-LIGAND FREE ENERGY PREDICTED BY IDOCK:   -7.95 KCAL/MOL
REMARK 924 INTRA-LIGAND FREE ENERGY PREDICTED BY IDOCK:   -0.47 KCAL/MOL
REMARK 927      BINDING AFFINITY PREDICTED BY RF-SCORE:    0.00 PKD
ROOT
HETATM    1  O   UNL     1      -7.081  20.053  66.971  1.00  0.00    -0.213 OA 
HETATM    2  S   UNL     1      -7.592  18.847  67.903  1.00  0.00    -0.265 S  
HETATM    3  C   UNL     1      -9.330  18.946  67.313  1.00  0.00    -0.293 C  
HETATM    4  O   UNL     1      -7.533  19.387  69.300  1.00  0.00    -0.337 OA 
ENDROOT
BRANCH   3   5
HETATM    5  N   UNL     1     -10.101  17.921  68.015  1.00  0.00    -0.338 NA 
HETATM    6  H   UNL     1     -10.419  18.055  68.975  1.00  0.00     0.000 HD 
BRANCH   5   7
HETATM    7  C   UNL     1     -10.383  16.743  67.305  1.00  0.00    -0.304 A  
HETATM    8  C   UNL     1      -9.824  16.456  66.053  1.00  0.00    -0.362 A  
HETATM    9  C   UNL     1     -10.140  15.279  65.369  1.00  0.00    -0.397 A  
HETATM   10  C   UNL     1     -11.014  14.358  65.947  1.00  0.00    -0.312 A  
HETATM   11  C   UNL     1     -11.477  14.556  67.247  1.00  0.00    -0.381 A  
HETATM   12  C   UNL     1     -11.148  15.739  67.922  1.00  0.00    -0.326 A  
BRANCH  10  13
HETATM   13  S   UNL     1     -11.483  12.903  65.033  1.00  0.00    -0.330 S  
HETATM   14  O   UNL     1     -12.934  12.867  64.984  1.00  0.00    -0.777 OA 
HETATM   15  O   UNL     1     -10.704  12.905  63.806  1.00  0.00    -0.397 OA 
BRANCH  13  16
HETATM   16  C   UNL     1     -10.979  11.479  65.986  1.00  0.00    -0.259 A  
HETATM   17  C   UNL     1     -10.048  10.588  65.451  1.00  0.00    -0.358 A  
HETATM   18  C   UNL     1      -9.594   9.508  66.219  1.00  0.00    -0.287 A  
HETATM   19  C   UNL     1     -10.018   9.326  67.545  1.00  0.00    -0.202 A  
HETATM   20  C   UNL     1     -11.476  11.277  67.274  1.00  0.00    -0.265 A  
HETATM   21  C   UNL     1     -11.006  10.197  68.037  1.00  0.00    -0.326 A  
BRANCH  19  22
HETATM   22  N   UNL     1      -9.588   8.243  68.352  1.00  0.00    -0.143 NA 
HETATM   23  H   UNL     1      -8.822   7.626  68.081  1.00  0.00     0.000 HD 
BRANCH  22  24
HETATM   24  C   UNL     1     -10.333   8.077  69.612  1.00  0.00    -0.220 C  
HETATM   25  S   UNL     1     -11.190   6.447  69.543  1.00  0.00    -0.394 S  
HETATM   26  O   UNL     1     -11.657   6.123  70.929  1.00  0.00    -0.310 OA 
HETATM   27  O   UNL     1      -9.836   5.610  69.289  1.00  0.00    -0.151 OA 
ENDBRANCH  22  24
ENDBRANCH  19  22
ENDBRANCH  13  16
ENDBRANCH  10  13
ENDBRANCH   5   7
ENDBRANCH   3   5
TORSDOF 6
ENDMDL
MODEL       30
REMARK 921   NORMALIZED FREE ENERGY PREDICTED BY IDOCK:   -5.64 KCAL/MOL
REMARK 922        TOTAL FREE ENERGY PREDICTED BY IDOCK:   -8.42 KCAL/MOL
REMARK 923 INTER-LIGAND FREE ENERGY PREDICTED BY IDOCK:   -7.66 KCAL/MOL
REMARK 924 INTRA-LIGAND FREE ENERGY PREDICTED BY IDOCK:   -0.75 KCAL/MOL
REMARK 927      BINDING AFFINITY PREDICTED BY RF-SCORE:    0.00 PKD
ROOT
HETATM    1  O   UNL     1      -5.468   8.822  62.548  1.00  0.00    -0.074 OA 
HETATM    2  S   UNL     1      -6.890   8.253  63.038  1.00  0.00    -0.087 S  
HETATM    3  C   UNL     1      -7.844   9.673  62.364  1.00  0.00    -0.115 C  
HETATM    4  O   UNL     1      -6.858   8.368  64.532  1.00  0.00    -0.068 OA 
ENDROOT
BRANCH   3   5
HETATM    5  N   UNL     1      -9.257   9.447  62.667  1.00  0.00    -0.537 NA 
HETATM    6  H   UNL     1      -9.769   8.659  62.270  1.00  0.00     0.000 HD 
BRANCH   5   7
HETATM    7  C   UNL     1      -9.874  10.365  63.531  1.00  0.00    -0.205 A  
HETATM    8  C   UNL     1      -9.831  10.247  64.927  1.00  0.00    -0.404 A  
HETATM    9  C   UNL     1     -10.470  11.174  65.755  1.00  0.00    -0.305 A  
HETATM   10  C   UNL     1     -11.152  12.251  65.187  1.00  0.00    -0.317 A  
HETATM   11  C   UNL     1     -11.096  12.466  63.811  1.00  0.00    -0.506 A  
HETATM   12  C   UNL     1     -10.447  11.530  62.994  1.00  0.00    -0.255 A  
BRANCH  10  13
HETATM   13  S   UNL     1     -12.040  13.379  66.242  1.00  0.00    -0.408 S  
HETATM   14  O   UNL     1     -13.084  13.994  65.443  1.00  0.00    -0.763 OA 
HETATM   15  O   UNL     1     -12.373  12.650  67.455  1.00  0.00    -0.322 OA 
BRANCH  13  16
HETATM   16  C   UNL     1     -10.918  14.693  66.697  1.00  0.00    -0.323 A  
HETATM   17  C   UNL     1     -10.811  15.071  68.036  1.00  0.00    -0.270 A  
HETATM   18  C   UNL     1      -9.882  16.051  68.411  1.00  0.00    -0.213 A  
HETATM   19  C   UNL     1      -9.014  16.631  67.473  1.00  0.00    -0.200 A  
HETATM   20  C   UNL     1     -10.121  15.309  65.733  1.00  0.00    -0.384 A  
HETATM   21  C   UNL     1      -9.189  16.282  66.122  1.00  0.00    -0.376 A  
BRANCH  19  22
HETATM   22  N   UNL     1      -8.067  17.631  67.811  1.00  0.00    -0.220 NA 
HETATM   23  H   UNL     1      -7.350  17.490  68.523  1.00  0.00     0.000 HD 
BRANCH  22  24
HETATM   24  C   UNL     1      -8.198  18.888  67.055  1.00  0.00    -0.270 C  
HETATM   25  S   UNL     1      -9.819  19.641  67.502  1.00  0.00    -0.405 S  
HETATM   26  O   UNL     1      -9.808  21.059  67.015  1.00  0.00    -0.283 OA 
HETATM   27  O   UNL     1      -9.502  19.679  69.082  1.00  0.00    -0.351 OA 
ENDBRANCH  22  24
ENDBRANCH  19  22
ENDBRANCH  13  16
ENDBRANCH  10  13
ENDBRANCH   5   7
ENDBRANCH   3   5
TORSDOF 6
ENDMDL
MODEL       31
REMARK 921   NORMALIZED FREE ENERGY PREDICTED BY IDOCK:   -5.63 KCAL/MOL
REMARK 922        TOTAL FREE ENERGY PREDICTED BY IDOCK:   -8.40 KCAL/MOL
REMARK 923 INTER-LIGAND FREE ENERGY PREDICTED BY IDOCK:   -8.12 KCAL/MOL
REMARK 924 INTRA-LIGAND FREE ENERGY PREDICTED BY IDOCK:   -0.28 KCAL/MOL
REMARK 927      BINDING AFFINITY PREDICTED BY RF-SCORE:    0.00 PKD
ROOT
HETATM    1  O   UNL     1     -10.346   6.497  73.558  1.00  0.00    -0.230 OA 
HETATM    2  S   UNL     1     -10.377   7.076  72.058  1.00  0.00    -0.199 S  
HETATM    3  C   UNL     1     -12.005   7.906  72.267  1.00  0.00    -0.337 C  
HETATM    4  O   UNL     1     -10.566   5.874  71.183  1.00  0.00    -0.225 OA 
ENDROOT
BRANCH   3   5
HETATM    5  N   UNL     1     -12.339   8.561  71.003  1.00  0.00    -0.467 NA 
HETATM    6  H   UNL     1     -12.513   8.024  70.153  1.00  0.00     0.000 HD 
BRANCH   5   7
HETATM    7  C   UNL     1     -12.410   9.963  71.015  1.00  0.00    -0.357 A  
HETATM    8  C   UNL     1     -11.802  10.765  70.040  1.00  0.00    -0.424 A  
HETATM    9  C   UNL     1     -11.882  12.159  70.093  1.00  0.00    -0.368 A  
HETATM   10  C   UNL     1     -12.595  12.771  71.125  1.00  0.00    -0.271 A  
HETATM   11  C   UNL     1     -13.320  11.994  72.028  1.00  0.00    -0.447 A  
HETATM   12  C   UNL     1     -13.234  10.598  71.959  1.00  0.00    -0.473 A  
BRANCH  10  13
HETATM   13  S   UNL     1     -12.619  14.548  71.239  1.00  0.00    -0.370 S  
HETATM   14  O   UNL     1     -14.001  14.976  71.116  1.00  0.00    -0.427 OA 
HETATM   15  O   UNL     1     -11.837  14.907  72.411  1.00  0.00    -0.339 OA 
BRANCH  13  16
HETATM   16  C   UNL     1     -11.767  15.194  69.807  1.00  0.00    -0.319 A  
HETATM   17  C   UNL     1     -10.696  16.071  69.983  1.00  0.00    -0.328 A  
HETATM   18  C   UNL     1      -9.977  16.526  68.870  1.00  0.00    -0.262 A  
HETATM   19  C   UNL     1     -10.279  16.079  67.573  1.00  0.00    -0.275 A  
HETATM   20  C   UNL     1     -12.137  14.795  68.523  1.00  0.00    -0.210 A  
HETATM   21  C   UNL     1     -11.404  15.250  67.417  1.00  0.00    -0.285 A  
BRANCH  19  22
HETATM   22  N   UNL     1      -9.581  16.522  66.422  1.00  0.00    -0.268 NA 
HETATM   23  H   UNL     1      -8.642  16.198  66.189  1.00  0.00     0.000 HD 
BRANCH  22  24
HETATM   24  C   UNL     1     -10.317  17.486  65.585  1.00  0.00    -0.134 C  
HETATM   25  S   UNL     1     -10.250  19.122  66.430  1.00  0.00    -0.469 S  
HETATM   26  O   UNL     1     -10.686  20.160  65.440  1.00  0.00    -0.337 OA 
HETATM   27  O   UNL     1      -8.639  19.164  66.482  1.00  0.00    -0.299 OA 
ENDBRANCH  22  24
ENDBRANCH  19  22
ENDBRANCH  13  16
ENDBRANCH  10  13
ENDBRANCH   5   7
ENDBRANCH   3   5
TORSDOF 6
ENDMDL
MODEL       32
REMARK 921   NORMALIZED FREE ENERGY PREDICTED BY IDOCK:   -5.61 KCAL/MOL
REMARK 922        TOTAL FREE ENERGY PREDICTED BY IDOCK:   -8.38 KCAL/MOL
REMARK 923 INTER-LIGAND FREE ENERGY PREDICTED BY IDOCK:   -7.57 KCAL/MOL
REMARK 924 INTRA-LIGAND FREE ENERGY PREDICTED BY IDOCK:   -0.81 KCAL/MOL
REMARK 927      BINDING AFFINITY PREDICTED BY RF-SCORE:    0.00 PKD
ROOT
HETATM    1  O   UNL     1      -8.027  20.534  66.751  1.00  0.00    -0.273 OA 
HETATM    2  S   UNL     1      -7.694  19.315  67.745  1.00  0.00    -0.279 S  
HETATM    3  C   UNL     1      -7.553  18.074  66.396  1.00  0.00    -0.262 C  
HETATM    4  O   UNL     1      -8.970  19.064  68.491  1.00  0.00    -0.332 OA 
ENDROOT
BRANCH   3   5
HETATM    5  N   UNL     1      -7.242  16.782  67.006  1.00  0.00    -0.179 NA 
HETATM    6  H   UNL     1      -6.392  16.640  67.553  1.00  0.00     0.000 HD 
BRANCH   5   7
HETATM    7  C   UNL     1      -8.167  15.746  66.804  1.00  0.00    -0.267 A  
HETATM    8  C   UNL     1      -9.276  15.870  65.956  1.00  0.00    -0.372 A  
HETATM    9  C   UNL     1     -10.185  14.821  65.791  1.00  0.00    -0.359 A  
HETATM   10  C   UNL     1      -9.980  13.618  66.467  1.00  0.00    -0.288 A  
HETATM   11  C   UNL     1      -8.816  13.423  67.209  1.00  0.00    -0.220 A  
HETATM   12  C   UNL     1      -7.912  14.482  67.361  1.00  0.00    -0.221 A  
BRANCH  10  13
HETATM   13  S   UNL     1     -11.188  12.316  66.324  1.00  0.00    -0.339 S  
HETATM   14  O   UNL     1     -12.485  12.943  66.137  1.00  0.00    -0.485 OA 
HETATM   15  O   UNL     1     -10.678  11.371  65.344  1.00  0.00    -0.277 OA 
BRANCH  13  16
HETATM   16  C   UNL     1     -11.264  11.471  67.896  1.00  0.00    -0.279 A  
HETATM   17  C   UNL     1     -11.909  12.080  68.973  1.00  0.00    -0.372 A  
HETATM   18  C   UNL     1     -12.035  11.395  70.189  1.00  0.00    -0.460 A  
HETATM   19  C   UNL     1     -11.569  10.079  70.336  1.00  0.00    -0.302 A  
HETATM   20  C   UNL     1     -10.723  10.194  68.040  1.00  0.00    -0.305 A  
HETATM   21  C   UNL     1     -10.864   9.514  69.259  1.00  0.00    -0.211 A  
BRANCH  19  22
HETATM   22  N   UNL     1     -11.671   9.355  71.551  1.00  0.00    -0.369 NA 
HETATM   23  H   UNL     1     -12.391   9.549  72.248  1.00  0.00     0.000 HD 
BRANCH  22  24
HETATM   24  C   UNL     1     -10.656   8.302  71.730  1.00  0.00    -0.259 C  
HETATM   25  S   UNL     1     -11.544   6.732  72.110  1.00  0.00    -0.286 S  
HETATM   26  O   UNL     1     -10.563   5.610  71.954  1.00  0.00    -0.218 OA 
HETATM   27  O   UNL     1     -12.437   6.772  70.770  1.00  0.00    -0.351 OA 
ENDBRANCH  22  24
ENDBRANCH  19  22
ENDBRANCH  13  16
ENDBRANCH  10  13
ENDBRANCH   5   7
ENDBRANCH   3   5
TORSDOF 6
ENDMDL
MODEL       33
REMARK 921   NORMALIZED FREE ENERGY PREDICTED BY IDOCK:   -5.60 KCAL/MOL
REMARK 922        TOTAL FREE ENERGY PREDICTED BY IDOCK:   -8.36 KCAL/MOL
REMARK 923 INTER-LIGAND FREE ENERGY PREDICTED BY IDOCK:   -7.58 KCAL/MOL
REMARK 924 INTRA-LIGAND FREE ENERGY PREDICTED BY IDOCK:   -0.77 KCAL/MOL
REMARK 927      BINDING AFFINITY PREDICTED BY RF-SCORE:    0.00 PKD
ROOT
HETATM    1  O   UNL     1      -8.413   2.434  65.481  1.00  0.00    -0.094 OA 
HETATM    2  S   UNL     1      -8.543   4.036  65.436  1.00  0.00    -0.116 S  
HETATM    3  C   UNL     1      -8.126   4.256  67.213  1.00  0.00    -0.100 C  
HETATM    4  O   UNL     1     -10.008   4.300  65.255  1.00  0.00    -0.196 OA 
ENDROOT
BRANCH   3   5
HETATM    5  N   UNL     1      -8.165   5.688  67.509  1.00  0.00    -0.102 NA 
HETATM    6  H   UNL     1      -7.561   6.351  67.022  1.00  0.00     0.000 HD 
BRANCH   5   7
HETATM    7  C   UNL     1      -9.073   6.107  68.494  1.00  0.00    -0.117 A  
HETATM    8  C   UNL     1     -10.460   5.950  68.369  1.00  0.00    -0.294 A  
HETATM    9  C   UNL     1     -11.334   6.393  69.365  1.00  0.00    -0.443 A  
HETATM   10  C   UNL     1     -10.822   6.988  70.518  1.00  0.00    -0.251 A  
HETATM   11  C   UNL     1      -9.444   7.034  70.727  1.00  0.00    -0.161 A  
HETATM   12  C   UNL     1      -8.580   6.582  69.721  1.00  0.00    -0.136 A  
BRANCH  10  13
HETATM   13  S   UNL     1     -11.943   7.632  71.743  1.00  0.00    -0.313 S  
HETATM   14  O   UNL     1     -13.226   6.981  71.547  1.00  0.00    -0.375 OA 
HETATM   15  O   UNL     1     -11.262   7.549  73.025  1.00  0.00    -0.361 OA 
BRANCH  13  16
HETATM   16  C   UNL     1     -12.201   9.363  71.385  1.00  0.00    -0.356 A  
HETATM   17  C   UNL     1     -13.095  10.100  72.163  1.00  0.00    -0.463 A  
HETATM   18  C   UNL     1     -13.250  11.474  71.936  1.00  0.00    -0.479 A  
HETATM   19  C   UNL     1     -12.485  12.144  70.967  1.00  0.00    -0.269 A  
HETATM   20  C   UNL     1     -11.486   9.990  70.365  1.00  0.00    -0.389 A  
HETATM   21  C   UNL     1     -11.643  11.368  70.152  1.00  0.00    -0.368 A  
BRANCH  19  22
HETATM   22  N   UNL     1     -12.618  13.530  70.702  1.00  0.00    -0.305 NA 
HETATM   23  H   UNL     1     -12.104  13.999  69.956  1.00  0.00     0.000 HD 
BRANCH  22  24
HETATM   24  C   UNL     1     -13.559  14.242  71.586  1.00  0.00    -0.381 C  
HETATM   25  S   UNL     1     -12.562  15.183  72.817  1.00  0.00    -0.431 S  
HETATM   26  O   UNL     1     -13.479  16.162  73.486  1.00  0.00    -0.638 OA 
HETATM   27  O   UNL     1     -11.731  15.997  71.702  1.00  0.00    -0.444 OA 
ENDBRANCH  22  24
ENDBRANCH  19  22
ENDBRANCH  13  16
ENDBRANCH  10  13
ENDBRANCH   5   7
ENDBRANCH   3   5
TORSDOF 6
ENDMDL
MODEL       34
REMARK 921   NORMALIZED FREE ENERGY PREDICTED BY IDOCK:   -5.58 KCAL/MOL
REMARK 922        TOTAL FREE ENERGY PREDICTED BY IDOCK:   -8.34 KCAL/MOL
REMARK 923 INTER-LIGAND FREE ENERGY PREDICTED BY IDOCK:   -7.69 KCAL/MOL
REMARK 924 INTRA-LIGAND FREE ENERGY PREDICTED BY IDOCK:   -0.65 KCAL/MOL
REMARK 927      BINDING AFFINITY PREDICTED BY RF-SCORE:    0.00 PKD
ROOT
HETATM    1  O   UNL     1     -10.220  20.131  68.827  1.00  0.00    -0.395 OA 
HETATM    2  S   UNL     1      -9.857  20.024  67.264  1.00  0.00    -0.455 S  
HETATM    3  C   UNL     1     -10.544  18.328  67.081  1.00  0.00    -0.367 C  
HETATM    4  O   UNL     1      -8.361  19.937  67.220  1.00  0.00    -0.298 OA 
ENDROOT
BRANCH   3   5
HETATM    5  N   UNL     1     -10.354  17.915  65.691  1.00  0.00    -0.617 NA 
HETATM    6  H   UNL     1     -10.042  18.572  64.976  1.00  0.00     0.000 HD 
BRANCH   5   7
HETATM    7  C   UNL     1     -10.620  16.570  65.388  1.00  0.00    -0.276 A  
HETATM    8  C   UNL     1     -11.622  16.176  64.490  1.00  0.00    -0.164 A  
HETATM    9  C   UNL     1     -11.868  14.826  64.224  1.00  0.00    -0.335 A  
HETATM   10  C   UNL     1     -11.093  13.848  64.846  1.00  0.00    -0.369 A  
HETATM   11  C   UNL     1     -10.005  14.216  65.636  1.00  0.00    -0.331 A  
HETATM   12  C   UNL     1      -9.768  15.574  65.891  1.00  0.00    -0.392 A  
BRANCH  10  13
HETATM   13  S   UNL     1     -11.469  12.128  64.573  1.00  0.00    -0.330 S  
HETATM   14  O   UNL     1     -12.901  12.023  64.359  1.00  0.00    -0.506 OA 
HETATM   15  O   UNL     1     -10.536  11.645  63.568  1.00  0.00    -0.372 OA 
BRANCH  13  16
HETATM   16  C   UNL     1     -11.124  11.250  66.090  1.00  0.00    -0.143 A  
HETATM   17  C   UNL     1     -11.727  11.667  67.277  1.00  0.00    -0.255 A  
HETATM   18  C   UNL     1     -11.518  10.941  68.458  1.00  0.00    -0.380 A  
HETATM   19  C   UNL     1     -10.752   9.765  68.466  1.00  0.00    -0.215 A  
HETATM   20  C   UNL     1     -10.294  10.129  66.086  1.00  0.00    -0.237 A  
HETATM   21  C   UNL     1     -10.101   9.405  67.273  1.00  0.00    -0.285 A  
BRANCH  19  22
HETATM   22  N   UNL     1     -10.511   9.008  69.640  1.00  0.00    -0.218 NA 
HETATM   23  H   UNL     1     -10.922   8.087  69.794  1.00  0.00     0.000 HD 
BRANCH  22  24
HETATM   24  C   UNL     1      -9.621   9.654  70.621  1.00  0.00    -0.147 C  
HETATM   25  S   UNL     1      -8.487   8.360  71.281  1.00  0.00    -0.164 S  
HETATM   26  O   UNL     1      -7.376   9.060  72.004  1.00  0.00    -0.331 OA 
HETATM   27  O   UNL     1      -7.922   7.944  69.830  1.00  0.00    -0.105 OA 
ENDBRANCH  22  24
ENDBRANCH  19  22
ENDBRANCH  13  16
ENDBRANCH  10  13
ENDBRANCH   5   7
ENDBRANCH   3   5
TORSDOF 6
ENDMDL
MODEL       35
REMARK 921   NORMALIZED FREE ENERGY PREDICTED BY IDOCK:   -5.52 KCAL/MOL
REMARK 922        TOTAL FREE ENERGY PREDICTED BY IDOCK:   -8.26 KCAL/MOL
REMARK 923 INTER-LIGAND FREE ENERGY PREDICTED BY IDOCK:   -7.57 KCAL/MOL
REMARK 924 INTRA-LIGAND FREE ENERGY PREDICTED BY IDOCK:   -0.68 KCAL/MOL
REMARK 927      BINDING AFFINITY PREDICTED BY RF-SCORE:    0.00 PKD
ROOT
HETATM    1  O   UNL     1     -11.079   1.798  72.745  1.00  0.00    -0.135 OA 
HETATM    2  S   UNL     1      -9.988   2.961  72.946  1.00  0.00    -0.143 S  
HETATM    3  C   UNL     1     -11.236   4.250  73.348  1.00  0.00    -0.268 C  
HETATM    4  O   UNL     1      -9.453   3.231  71.572  1.00  0.00    -0.123 OA 
ENDROOT
BRANCH   3   5
HETATM    5  N   UNL     1     -10.523   5.504  73.594  1.00  0.00    -0.242 NA 
HETATM    6  H   UNL     1     -10.103   5.710  74.500  1.00  0.00     0.000 HD 
BRANCH   5   7
HETATM    7  C   UNL     1     -10.446   6.408  72.523  1.00  0.00    -0.202 A  
HETATM    8  C   UNL     1     -11.235   6.295  71.371  1.00  0.00    -0.349 A  
HETATM    9  C   UNL     1     -11.120   7.208  70.318  1.00  0.00    -0.303 A  
HETATM   10  C   UNL     1     -10.216   8.265  70.419  1.00  0.00    -0.201 A  
HETATM   11  C   UNL     1      -9.518   8.478  71.607  1.00  0.00    -0.316 A  
HETATM   12  C   UNL     1      -9.648   7.557  72.655  1.00  0.00    -0.220 A  
BRANCH  10  13
HETATM   13  S   UNL     1     -10.007   9.373  69.039  1.00  0.00    -0.184 S  
HETATM   14  O   UNL     1      -8.589   9.653  68.914  1.00  0.00    -0.119 OA 
HETATM   15  O   UNL     1     -10.748   8.803  67.924  1.00  0.00    -0.203 OA 
BRANCH  13  16
HETATM   16  C   UNL     1     -10.788  10.922  69.465  1.00  0.00    -0.238 A  
HETATM   17  C   UNL     1     -10.437  12.081  68.772  1.00  0.00    -0.207 A  
HETATM   18  C   UNL     1     -11.094  13.287  69.050  1.00  0.00    -0.291 A  
HETATM   19  C   UNL     1     -12.143  13.348  69.982  1.00  0.00    -0.334 A  
HETATM   20  C   UNL     1     -11.773  10.971  70.451  1.00  0.00    -0.437 A  
HETATM   21  C   UNL     1     -12.431  12.182  70.714  1.00  0.00    -0.362 A  
BRANCH  19  22
HETATM   22  N   UNL     1     -12.828  14.548  70.298  1.00  0.00    -0.530 NA 
HETATM   23  H   UNL     1     -13.649  14.864  69.782  1.00  0.00     0.000 HD 
BRANCH  22  24
HETATM   24  C   UNL     1     -12.261  15.305  71.428  1.00  0.00    -0.352 C  
HETATM   25  S   UNL     1     -13.633  15.664  72.603  1.00  0.00    -0.561 S  
HETATM   26  O   UNL     1     -13.017  16.119  73.892  1.00  0.00    -0.642 OA 
HETATM   27  O   UNL     1     -14.038  14.115  72.791  1.00  0.00    -0.610 OA 
ENDBRANCH  22  24
ENDBRANCH  19  22
ENDBRANCH  13  16
ENDBRANCH  10  13
ENDBRANCH   5   7
ENDBRANCH   3   5
TORSDOF 6
ENDMDL
MODEL       36
REMARK 921   NORMALIZED FREE ENERGY PREDICTED BY IDOCK:   -5.52 KCAL/MOL
REMARK 922        TOTAL FREE ENERGY PREDICTED BY IDOCK:   -8.25 KCAL/MOL
REMARK 923 INTER-LIGAND FREE ENERGY PREDICTED BY IDOCK:   -7.70 KCAL/MOL
REMARK 924 INTRA-LIGAND FREE ENERGY PREDICTED BY IDOCK:   -0.55 KCAL/MOL
REMARK 927      BINDING AFFINITY PREDICTED BY RF-SCORE:    0.00 PKD
ROOT
HETATM    1  O   UNL     1     -12.987  15.972  73.975  1.00  0.00    -0.626 OA 
HETATM    2  S   UNL     1     -12.968  15.617  72.407  1.00  0.00    -0.471 S  
HETATM    3  C   UNL     1     -13.297  13.827  72.668  1.00  0.00    -0.514 C  
HETATM    4  O   UNL     1     -11.538  15.781  71.990  1.00  0.00    -0.413 OA 
ENDROOT
BRANCH   3   5
HETATM    5  N   UNL     1     -13.339  13.183  71.356  1.00  0.00    -0.211 NA 
HETATM    6  H   UNL     1     -13.722  13.659  70.539  1.00  0.00     0.000 HD 
BRANCH   5   7
HETATM    7  C   UNL     1     -12.827  11.879  71.274  1.00  0.00    -0.290 A  
HETATM    8  C   UNL     1     -13.331  10.814  72.033  1.00  0.00    -0.403 A  
HETATM    9  C   UNL     1     -12.785   9.530  71.935  1.00  0.00    -0.496 A  
HETATM   10  C   UNL     1     -11.731   9.294  71.053  1.00  0.00    -0.311 A  
HETATM   11  C   UNL     1     -11.303  10.302  70.190  1.00  0.00    -0.388 A  
HETATM   12  C   UNL     1     -11.862  11.582  70.297  1.00  0.00    -0.431 A  
BRANCH  10  13
HETATM   13  S   UNL     1     -10.981   7.679  70.997  1.00  0.00    -0.252 S  
HETATM   14  O   UNL     1      -9.823   7.705  71.874  1.00  0.00    -0.161 OA 
HETATM   15  O   UNL     1     -12.044   6.711  71.209  1.00  0.00    -0.348 OA 
BRANCH  13  16
HETATM   16  C   UNL     1     -10.351   7.431  69.344  1.00  0.00    -0.210 A  
HETATM   17  C   UNL     1     -11.092   6.678  68.433  1.00  0.00    -0.281 A  
HETATM   18  C   UNL     1     -10.641   6.538  67.114  1.00  0.00    -0.398 A  
HETATM   19  C   UNL     1      -9.476   7.183  66.668  1.00  0.00    -0.170 A  
HETATM   20  C   UNL     1      -9.149   8.018  68.949  1.00  0.00    -0.144 A  
HETATM   21  C   UNL     1      -8.713   7.879  67.623  1.00  0.00    -0.126 A  
BRANCH  19  22
HETATM   22  N   UNL     1      -8.982   7.060  65.345  1.00  0.00    -0.369 NA 
HETATM   23  H   UNL     1      -9.408   6.442  64.655  1.00  0.00     0.000 HD 
BRANCH  22  24
HETATM   24  C   UNL     1      -7.806   7.895  65.043  1.00  0.00    -0.120 C  
HETATM   25  S   UNL     1      -8.304   9.113  63.753  1.00  0.00    -0.175 S  
HETATM   26  O   UNL     1      -7.240  10.167  63.692  1.00  0.00    -0.133 OA 
HETATM   27  O   UNL     1      -9.521   9.716  64.620  1.00  0.00    -0.263 OA 
ENDBRANCH  22  24
ENDBRANCH  19  22
ENDBRANCH  13  16
ENDBRANCH  10  13
ENDBRANCH   5   7
ENDBRANCH   3   5
TORSDOF 6
ENDMDL
MODEL       37
REMARK 921   NORMALIZED FREE ENERGY PREDICTED BY IDOCK:   -5.51 KCAL/MOL
REMARK 922        TOTAL FREE ENERGY PREDICTED BY IDOCK:   -8.24 KCAL/MOL
REMARK 923 INTER-LIGAND FREE ENERGY PREDICTED BY IDOCK:   -7.63 KCAL/MOL
REMARK 924 INTRA-LIGAND FREE ENERGY PREDICTED BY IDOCK:   -0.62 KCAL/MOL
REMARK 927      BINDING AFFINITY PREDICTED BY RF-SCORE:    0.00 PKD
ROOT
HETATM    1  O   UNL     1     -13.264   6.801  71.929  1.00  0.00    -0.291 OA 
HETATM    2  S   UNL     1     -12.020   7.816  71.847  1.00  0.00    -0.315 S  
HETATM    3  C   UNL     1     -11.402   7.145  70.250  1.00  0.00    -0.269 C  
HETATM    4  O   UNL     1     -11.091   7.377  72.938  1.00  0.00    -0.319 OA 
ENDROOT
BRANCH   3   5
HETATM    5  N   UNL     1     -10.203   7.897  69.882  1.00  0.00    -0.205 NA 
HETATM    6  H   UNL     1      -9.285   7.652  70.251  1.00  0.00     0.000 HD 
BRANCH   5   7
HETATM    7  C   UNL     1     -10.378   8.972  68.996  1.00  0.00    -0.219 A  
HETATM    8  C   UNL     1     -10.737  10.259  69.421  1.00  0.00    -0.272 A  
HETATM    9  C   UNL     1     -10.916  11.302  68.507  1.00  0.00    -0.266 A  
HETATM   10  C   UNL     1     -10.716  11.069  67.146  1.00  0.00    -0.265 A  
HETATM   11  C   UNL     1     -10.228   9.837  66.713  1.00  0.00    -0.300 A  
HETATM   12  C   UNL     1     -10.049   8.802  67.641  1.00  0.00    -0.273 A  
BRANCH  10  13
HETATM   13  S   UNL     1     -11.032  12.376  65.979  1.00  0.00    -0.302 S  
HETATM   14  O   UNL     1     -10.057  12.253  64.910  1.00  0.00    -0.275 OA 
HETATM   15  O   UNL     1     -12.455  12.347  65.686  1.00  0.00    -0.640 OA 
BRANCH  13  16
HETATM   16  C   UNL     1     -10.684  13.927  66.795  1.00  0.00    -0.281 A  
HETATM   17  C   UNL     1     -11.677  14.538  67.561  1.00  0.00    -0.413 A  
HETATM   18  C   UNL     1     -11.391  15.717  68.262  1.00  0.00    -0.354 A  
HETATM   19  C   UNL     1     -10.103  16.277  68.254  1.00  0.00    -0.243 A  
HETATM   20  C   UNL     1      -9.418  14.505  66.707  1.00  0.00    -0.284 A  
HETATM   21  C   UNL     1      -9.141  15.680  67.421  1.00  0.00    -0.203 A  
BRANCH  19  22
HETATM   22  N   UNL     1      -9.776  17.472  68.943  1.00  0.00    -0.286 NA 
HETATM   23  H   UNL     1     -10.312  17.809  69.743  1.00  0.00     0.000 HD 
BRANCH  22  24
HETATM   24  C   UNL     1      -8.602  18.188  68.416  1.00  0.00    -0.299 C  
HETATM   25  S   UNL     1      -9.216  19.514  67.292  1.00  0.00    -0.328 S  
HETATM   26  O   UNL     1      -8.073  20.448  67.029  1.00  0.00    -0.321 OA 
HETATM   27  O   UNL     1     -10.143  20.203  68.416  1.00  0.00    -0.406 OA 
ENDBRANCH  22  24
ENDBRANCH  19  22
ENDBRANCH  13  16
ENDBRANCH  10  13
ENDBRANCH   5   7
ENDBRANCH   3   5
TORSDOF 6
ENDMDL
MODEL       38
REMARK 921   NORMALIZED FREE ENERGY PREDICTED BY IDOCK:   -5.51 KCAL/MOL
REMARK 922        TOTAL FREE ENERGY PREDICTED BY IDOCK:   -8.23 KCAL/MOL
REMARK 923 INTER-LIGAND FREE ENERGY PREDICTED BY IDOCK:   -7.95 KCAL/MOL
REMARK 924 INTRA-LIGAND FREE ENERGY PREDICTED BY IDOCK:   -0.28 KCAL/MOL
REMARK 927      BINDING AFFINITY PREDICTED BY RF-SCORE:    0.00 PKD
ROOT
HETATM    1  O   UNL     1      -7.609   4.617  65.001  1.00  0.00    -0.075 OA 
HETATM    2  S   UNL     1      -7.583   5.533  63.680  1.00  0.00    -0.078 S  
HETATM    3  C   UNL     1      -7.697   7.116  64.609  1.00  0.00    -0.112 C  
HETATM    4  O   UNL     1      -8.900   5.281  63.009  1.00  0.00    -0.071 OA 
ENDROOT
BRANCH   3   5
HETATM    5  N   UNL     1      -7.700   8.207  63.636  1.00  0.00    -0.136 NA 
HETATM    6  H   UNL     1      -7.157   8.156  62.774  1.00  0.00     0.000 HD 
BRANCH   5   7
HETATM    7  C   UNL     1      -8.485   9.329  63.945  1.00  0.00    -0.190 A  
HETATM    8  C   UNL     1      -8.373  10.028  65.155  1.00  0.00    -0.156 A  
HETATM    9  C   UNL     1      -9.183  11.132  65.433  1.00  0.00    -0.225 A  
HETATM   10  C   UNL     1     -10.111  11.564  64.485  1.00  0.00    -0.278 A  
HETATM   11  C   UNL     1     -10.148  10.971  63.224  1.00  0.00    -0.400 A  
HETATM   12  C   UNL     1      -9.327   9.868  62.958  1.00  0.00    -0.226 A  
BRANCH  10  13
HETATM   13  S   UNL     1     -11.202  12.916  64.881  1.00  0.00    -0.314 S  
HETATM   14  O   UNL     1     -10.520  14.147  64.525  1.00  0.00    -0.408 OA 
HETATM   15  O   UNL     1     -12.497  12.597  64.302  1.00  0.00    -0.510 OA 
BRANCH  13  16
HETATM   16  C   UNL     1     -11.402  12.949  66.656  1.00  0.00    -0.317 A  
HETATM   17  C   UNL     1     -11.537  14.175  67.309  1.00  0.00    -0.399 A  
HETATM   18  C   UNL     1     -11.766  14.208  68.691  1.00  0.00    -0.385 A  
HETATM   19  C   UNL     1     -11.913  13.026  69.434  1.00  0.00    -0.281 A  
HETATM   20  C   UNL     1     -11.467  11.762  67.384  1.00  0.00    -0.375 A  
HETATM   21  C   UNL     1     -11.705  11.807  68.766  1.00  0.00    -0.389 A  
BRANCH  19  22
HETATM   22  N   UNL     1     -12.137  13.018  70.834  1.00  0.00    -0.465 NA 
HETATM   23  H   UNL     1     -12.241  12.155  71.369  1.00  0.00     0.000 HD 
BRANCH  22  24
HETATM   24  C   UNL     1     -12.209  14.351  71.457  1.00  0.00    -0.334 C  
HETATM   25  S   UNL     1     -13.976  14.685  71.859  1.00  0.00    -0.533 S  
HETATM   26  O   UNL     1     -14.014  15.861  72.786  1.00  0.00    -0.581 OA 
HETATM   27  O   UNL     1     -14.145  13.361  72.763  1.00  0.00    -0.715 OA 
ENDBRANCH  22  24
ENDBRANCH  19  22
ENDBRANCH  13  16
ENDBRANCH  10  13
ENDBRANCH   5   7
ENDBRANCH   3   5
TORSDOF 6
ENDMDL
MODEL       39
REMARK 921   NORMALIZED FREE ENERGY PREDICTED BY IDOCK:   -5.50 KCAL/MOL
REMARK 922        TOTAL FREE ENERGY PREDICTED BY IDOCK:   -8.22 KCAL/MOL
REMARK 923 INTER-LIGAND FREE ENERGY PREDICTED BY IDOCK:   -7.61 KCAL/MOL
REMARK 924 INTRA-LIGAND FREE ENERGY PREDICTED BY IDOCK:   -0.61 KCAL/MOL
REMARK 927      BINDING AFFINITY PREDICTED BY RF-SCORE:    0.00 PKD
ROOT
HETATM    1  O   UNL     1      -6.754   9.766  63.725  1.00  0.00    -0.109 OA 
HETATM    2  S   UNL     1      -8.153   8.979  63.815  1.00  0.00    -0.171 S  
HETATM    3  C   UNL     1      -7.565   7.801  65.098  1.00  0.00    -0.094 C  
HETATM    4  O   UNL     1      -8.268   8.245  62.513  1.00  0.00    -0.172 OA 
ENDROOT
BRANCH   3   5
HETATM    5  N   UNL     1      -8.668   6.894  65.414  1.00  0.00    -0.347 NA 
HETATM    6  H   UNL     1      -9.014   6.217  64.734  1.00  0.00     0.000 HD 
BRANCH   5   7
HETATM    7  C   UNL     1      -9.228   7.000  66.697  1.00  0.00    -0.158 A  
HETATM    8  C   UNL     1     -10.464   6.434  67.038  1.00  0.00    -0.349 A  
HETATM    9  C   UNL     1     -10.996   6.573  68.323  1.00  0.00    -0.362 A  
HETATM   10  C   UNL     1     -10.280   7.272  69.295  1.00  0.00    -0.193 A  
HETATM   11  C   UNL     1      -8.991   7.727  69.020  1.00  0.00    -0.145 A  
HETATM   12  C   UNL     1      -8.469   7.577  67.729  1.00  0.00    -0.118 A  
BRANCH  10  13
HETATM   13  S   UNL     1     -11.003   7.523  70.903  1.00  0.00    -0.258 S  
HETATM   14  O   UNL     1     -12.125   6.609  71.026  1.00  0.00    -0.369 OA 
HETATM   15  O   UNL     1      -9.915   7.488  71.867  1.00  0.00    -0.169 OA 
BRANCH  13  16
HETATM   16  C   UNL     1     -11.695   9.169  70.936  1.00  0.00    -0.284 A  
HETATM   17  C   UNL     1     -12.682   9.482  71.871  1.00  0.00    -0.496 A  
HETATM   18  C   UNL     1     -13.179  10.789  71.951  1.00  0.00    -0.524 A  
HETATM   19  C   UNL     1     -12.668  11.815  71.140  1.00  0.00    -0.305 A  
HETATM   20  C   UNL     1     -11.225  10.152  70.065  1.00  0.00    -0.361 A  
HETATM   21  C   UNL     1     -11.723  11.460  70.162  1.00  0.00    -0.414 A  
BRANCH  19  22
HETATM   22  N   UNL     1     -13.149  13.148  71.186  1.00  0.00    -0.188 NA 
HETATM   23  H   UNL     1     -13.303  13.706  70.345  1.00  0.00     0.000 HD 
BRANCH  22  24
HETATM   24  C   UNL     1     -13.409  13.665  72.541  1.00  0.00    -0.534 C  
HETATM   25  S   UNL     1     -12.647  15.339  72.654  1.00  0.00    -0.420 S  
HETATM   26  O   UNL     1     -13.193  16.001  73.883  1.00  0.00    -0.591 OA 
HETATM   27  O   UNL     1     -13.463  15.928  71.395  1.00  0.00    -0.481 OA 
ENDBRANCH  22  24
ENDBRANCH  19  22
ENDBRANCH  13  16
ENDBRANCH  10  13
ENDBRANCH   5   7
ENDBRANCH   3   5
TORSDOF 6
ENDMDL
MODEL       40
REMARK 921   NORMALIZED FREE ENERGY PREDICTED BY IDOCK:   -5.49 KCAL/MOL
REMARK 922        TOTAL FREE ENERGY PREDICTED BY IDOCK:   -8.22 KCAL/MOL
REMARK 923 INTER-LIGAND FREE ENERGY PREDICTED BY IDOCK:   -7.49 KCAL/MOL
REMARK 924 INTRA-LIGAND FREE ENERGY PREDICTED BY IDOCK:   -0.73 KCAL/MOL
REMARK 927      BINDING AFFINITY PREDICTED BY RF-SCORE:    0.00 PKD
ROOT
HETATM    1  O   UNL     1     -10.735   5.858  73.034  1.00  0.00    -0.227 OA 
HETATM    2  S   UNL     1     -10.430   7.424  73.231  1.00  0.00    -0.375 S  
HETATM    3  C   UNL     1     -11.500   7.949  71.832  1.00  0.00    -0.280 C  
HETATM    4  O   UNL     1      -8.997   7.593  72.822  1.00  0.00    -0.136 OA 
ENDROOT
BRANCH   3   5
HETATM    5  N   UNL     1     -11.432   9.407  71.738  1.00  0.00    -0.386 NA 
HETATM    6  H   UNL     1     -11.447   9.997  72.570  1.00  0.00     0.000 HD 
BRANCH   5   7
HETATM    7  C   UNL     1     -11.346   9.955  70.449  1.00  0.00    -0.307 A  
HETATM    8  C   UNL     1     -10.774   9.272  69.367  1.00  0.00    -0.222 A  
HETATM    9  C   UNL     1     -10.692   9.857  68.100  1.00  0.00    -0.279 A  
HETATM   10  C   UNL     1     -11.206  11.138  67.897  1.00  0.00    -0.302 A  
HETATM   11  C   UNL     1     -11.899  11.783  68.920  1.00  0.00    -0.381 A  
HETATM   12  C   UNL     1     -11.976  11.182  70.183  1.00  0.00    -0.449 A  
BRANCH  10  13
HETATM   13  S   UNL     1     -11.019  11.913  66.304  1.00  0.00    -0.312 S  
HETATM   14  O   UNL     1     -10.231  11.021  65.473  1.00  0.00    -0.248 OA 
HETATM   15  O   UNL     1     -12.344  12.336  65.881  1.00  0.00    -0.618 OA 
BRANCH  13  16
HETATM   16  C   UNL     1     -10.033  13.386  66.530  1.00  0.00    -0.286 A  
HETATM   17  C   UNL     1      -8.812  13.299  67.200  1.00  0.00    -0.223 A  
HETATM   18  C   UNL     1      -7.999  14.434  67.320  1.00  0.00    -0.204 A  
HETATM   19  C   UNL     1      -8.362  15.656  66.733  1.00  0.00    -0.278 A  
HETATM   20  C   UNL     1     -10.453  14.607  66.004  1.00  0.00    -0.313 A  
HETATM   21  C   UNL     1      -9.626  15.734  66.122  1.00  0.00    -0.364 A  
BRANCH  19  22
HETATM   22  N   UNL     1      -7.571  16.828  66.837  1.00  0.00    -0.192 NA 
HETATM   23  H   UNL     1      -7.195  17.312  66.022  1.00  0.00     0.000 HD 
BRANCH  22  24
HETATM   24  C   UNL     1      -7.335  17.294  68.216  1.00  0.00    -0.214 C  
HETATM   25  S   UNL     1      -7.042  19.111  68.148  1.00  0.00    -0.267 S  
HETATM   26  O   UNL     1      -7.144  19.638  69.547  1.00  0.00    -0.343 OA 
HETATM   27  O   UNL     1      -8.442  19.432  67.416  1.00  0.00    -0.285 OA 
ENDBRANCH  22  24
ENDBRANCH  19  22
ENDBRANCH  13  16
ENDBRANCH  10  13
ENDBRANCH   5   7
ENDBRANCH   3   5
TORSDOF 6
ENDMDL
MODEL       41
REMARK 921   NORMALIZED FREE ENERGY PREDICTED BY IDOCK:   -5.46 KCAL/MOL
REMARK 922        TOTAL FREE ENERGY PREDICTED BY IDOCK:   -8.18 KCAL/MOL
REMARK 923 INTER-LIGAND FREE ENERGY PREDICTED BY IDOCK:   -7.46 KCAL/MOL
REMARK 924 INTRA-LIGAND FREE ENERGY PREDICTED BY IDOCK:   -0.72 KCAL/MOL
REMARK 927      BINDING AFFINITY PREDICTED BY RF-SCORE:    0.00 PKD
ROOT
HETATM    1  O   UNL     1      -9.459   4.638  73.276  1.00  0.00    -0.122 OA 
HETATM    2  S   UNL     1     -10.809   5.251  72.655  1.00  0.00    -0.260 S  
HETATM    3  C   UNL     1     -10.198   5.200  70.922  1.00  0.00    -0.229 C  
HETATM    4  O   UNL     1     -10.829   6.680  73.110  1.00  0.00    -0.264 OA 
ENDROOT
BRANCH   3   5
HETATM    5  N   UNL     1     -11.255   5.728  70.059  1.00  0.00    -0.274 NA 
HETATM    6  H   UNL     1     -12.204   5.356  70.088  1.00  0.00     0.000 HD 
BRANCH   5   7
HETATM    7  C   UNL     1     -10.900   6.770  69.188  1.00  0.00    -0.258 A  
HETATM    8  C   UNL     1     -10.852   6.617  67.796  1.00  0.00    -0.372 A  
HETATM    9  C   UNL     1     -10.480   7.675  66.961  1.00  0.00    -0.419 A  
HETATM   10  C   UNL     1     -10.166   8.915  67.517  1.00  0.00    -0.248 A  
HETATM   11  C   UNL     1     -10.336   9.131  68.884  1.00  0.00    -0.232 A  
HETATM   12  C   UNL     1     -10.714   8.062  69.707  1.00  0.00    -0.231 A  
BRANCH  10  13
HETATM   13  S   UNL     1      -9.606  10.233  66.458  1.00  0.00    -0.190 S  
HETATM   14  O   UNL     1      -8.177  10.385  66.668  1.00  0.00    -0.123 OA 
HETATM   15  O   UNL     1     -10.131   9.961  65.130  1.00  0.00    -0.309 OA 
BRANCH  13  16
HETATM   16  C   UNL     1     -10.359  11.748  67.032  1.00  0.00    -0.214 A  
HETATM   17  C   UNL     1     -11.618  12.113  66.555  1.00  0.00    -0.425 A  
HETATM   18  C   UNL     1     -12.247  13.261  67.053  1.00  0.00    -0.310 A  
HETATM   19  C   UNL     1     -11.659  14.034  68.068  1.00  0.00    -0.337 A  
HETATM   20  C   UNL     1      -9.718  12.540  67.985  1.00  0.00    -0.215 A  
HETATM   21  C   UNL     1     -10.363  13.683  68.483  1.00  0.00    -0.244 A  
BRANCH  19  22
HETATM   22  N   UNL     1     -12.260  15.206  68.593  1.00  0.00    -0.597 NA 
HETATM   23  H   UNL     1     -13.124  15.596  68.217  1.00  0.00     0.000 HD 
BRANCH  22  24
HETATM   24  C   UNL     1     -11.539  15.816  69.724  1.00  0.00    -0.355 C  
HETATM   25  S   UNL     1     -12.603  15.647  71.219  1.00  0.00    -0.459 S  
HETATM   26  O   UNL     1     -11.751  15.946  72.415  1.00  0.00    -0.444 OA 
HETATM   27  O   UNL     1     -12.716  14.043  71.105  1.00  0.00    -0.326 OA 
ENDBRANCH  22  24
ENDBRANCH  19  22
ENDBRANCH  13  16
ENDBRANCH  10  13
ENDBRANCH   5   7
ENDBRANCH   3   5
TORSDOF 6
ENDMDL
MODEL       42
REMARK 921   NORMALIZED FREE ENERGY PREDICTED BY IDOCK:   -5.46 KCAL/MOL
REMARK 922        TOTAL FREE ENERGY PREDICTED BY IDOCK:   -8.18 KCAL/MOL
REMARK 923 INTER-LIGAND FREE ENERGY PREDICTED BY IDOCK:   -7.44 KCAL/MOL
REMARK 924 INTRA-LIGAND FREE ENERGY PREDICTED BY IDOCK:   -0.74 KCAL/MOL
REMARK 927      BINDING AFFINITY PREDICTED BY RF-SCORE:    0.00 PKD
ROOT
HETATM    1  O   UNL     1     -10.690  19.753  65.702  1.00  0.00    -0.505 OA 
HETATM    2  S   UNL     1      -9.969  18.411  66.216  1.00  0.00    -0.340 S  
HETATM    3  C   UNL     1     -10.534  18.610  67.954  1.00  0.00    -0.385 C  
HETATM    4  O   UNL     1      -8.502  18.712  66.155  1.00  0.00    -0.432 OA 
ENDROOT
BRANCH   3   5
HETATM    5  N   UNL     1     -10.010  17.485  68.727  1.00  0.00    -0.332 NA 
HETATM    6  H   UNL     1      -9.517  17.626  69.609  1.00  0.00     0.000 HD 
BRANCH   5   7
HETATM    7  C   UNL     1     -10.218  16.201  68.199  1.00  0.00    -0.247 A  
HETATM    8  C   UNL     1      -9.167  15.344  67.845  1.00  0.00    -0.180 A  
HETATM    9  C   UNL     1      -9.414  14.077  67.307  1.00  0.00    -0.231 A  
HETATM   10  C   UNL     1     -10.729  13.644  67.134  1.00  0.00    -0.277 A  
HETATM   11  C   UNL     1     -11.787  14.422  67.603  1.00  0.00    -0.412 A  
HETATM   12  C   UNL     1     -11.524  15.687  68.143  1.00  0.00    -0.325 A  
BRANCH  10  13
HETATM   13  S   UNL     1     -11.038  12.067  66.366  1.00  0.00    -0.331 S  
HETATM   14  O   UNL     1     -12.397  12.089  65.855  1.00  0.00    -0.463 OA 
HETATM   15  O   UNL     1      -9.920  11.804  65.475  1.00  0.00    -0.229 OA 
BRANCH  13  16
HETATM   16  C   UNL     1     -11.005  10.824  67.648  1.00  0.00    -0.306 A  
HETATM   17  C   UNL     1     -10.484   9.561  67.367  1.00  0.00    -0.336 A  
HETATM   18  C   UNL     1     -10.388   8.603  68.386  1.00  0.00    -0.239 A  
HETATM   19  C   UNL     1     -10.761   8.902  69.706  1.00  0.00    -0.225 A  
HETATM   20  C   UNL     1     -11.455  11.122  68.934  1.00  0.00    -0.363 A  
HETATM   21  C   UNL     1     -11.345  10.157  69.948  1.00  0.00    -0.335 A  
BRANCH  19  22
HETATM   22  N   UNL     1     -10.687   7.959  70.762  1.00  0.00    -0.219 NA 
HETATM   23  H   UNL     1     -11.426   7.853  71.457  1.00  0.00     0.000 HD 
BRANCH  22  24
HETATM   24  C   UNL     1      -9.460   7.143  70.777  1.00  0.00    -0.164 C  
HETATM   25  S   UNL     1      -8.069   8.239  71.286  1.00  0.00    -0.132 S  
HETATM   26  O   UNL     1      -6.906   7.359  71.634  1.00  0.00    -0.053 OA 
HETATM   27  O   UNL     1      -8.763   8.677  72.673  1.00  0.00    -0.380 OA 
ENDBRANCH  22  24
ENDBRANCH  19  22
ENDBRANCH  13  16
ENDBRANCH  10  13
ENDBRANCH   5   7
ENDBRANCH   3   5
TORSDOF 6
ENDMDL
MODEL       43
REMARK 921   NORMALIZED FREE ENERGY PREDICTED BY IDOCK:   -5.44 KCAL/MOL
REMARK 922        TOTAL FREE ENERGY PREDICTED BY IDOCK:   -8.15 KCAL/MOL
REMARK 923 INTER-LIGAND FREE ENERGY PREDICTED BY IDOCK:   -7.58 KCAL/MOL
REMARK 924 INTRA-LIGAND FREE ENERGY PREDICTED BY IDOCK:   -0.57 KCAL/MOL
REMARK 927      BINDING AFFINITY PREDICTED BY RF-SCORE:    0.00 PKD
ROOT
HETATM    1  O   UNL     1     -12.642  15.182  63.960  1.00  0.00    -0.791 OA 
HETATM    2  S   UNL     1     -12.305  13.738  64.583  1.00  0.00    -0.344 S  
HETATM    3  C   UNL     1     -10.508  14.083  64.761  1.00  0.00    -0.421 C  
HETATM    4  O   UNL     1     -12.493  12.775  63.450  1.00  0.00    -0.682 OA 
ENDROOT
BRANCH   3   5
HETATM    5  N   UNL     1      -9.877  12.893  65.331  1.00  0.00    -0.459 NA 
HETATM    6  H   UNL     1      -9.068  12.455  64.891  1.00  0.00     0.000 HD 
BRANCH   5   7
HETATM    7  C   UNL     1     -10.438  12.383  66.512  1.00  0.00    -0.230 A  
HETATM    8  C   UNL     1     -10.775  11.032  66.674  1.00  0.00    -0.305 A  
HETATM    9  C   UNL     1     -11.346  10.563  67.861  1.00  0.00    -0.297 A  
HETATM   10  C   UNL     1     -11.570  11.449  68.916  1.00  0.00    -0.323 A  
HETATM   11  C   UNL     1     -11.120  12.765  68.830  1.00  0.00    -0.303 A  
HETATM   12  C   UNL     1     -10.546  13.220  67.635  1.00  0.00    -0.242 A  
BRANCH  10  13
HETATM   13  S   UNL     1     -12.380  10.865  70.391  1.00  0.00    -0.353 S  
HETATM   14  O   UNL     1     -12.498  11.991  71.299  1.00  0.00    -0.307 OA 
HETATM   15  O   UNL     1     -13.562  10.134  69.964  1.00  0.00     0.227 OA 
BRANCH  13  16
HETATM   16  C   UNL     1     -11.285   9.697  71.184  1.00  0.00    -0.384 A  
HETATM   17  C   UNL     1     -11.783   8.856  72.181  1.00  0.00    -0.411 A  
HETATM   18  C   UNL     1     -10.950   7.889  72.758  1.00  0.00    -0.456 A  
HETATM   19  C   UNL     1      -9.628   7.708  72.318  1.00  0.00    -0.165 A  
HETATM   20  C   UNL     1      -9.953   9.590  70.784  1.00  0.00    -0.334 A  
HETATM   21  C   UNL     1      -9.132   8.611  71.362  1.00  0.00    -0.295 A  
BRANCH  19  22
HETATM   22  N   UNL     1      -8.752   6.746  72.882  1.00  0.00    -0.121 NA 
HETATM   23  H   UNL     1      -7.748   6.904  72.974  1.00  0.00     0.000 HD 
BRANCH  22  24
HETATM   24  C   UNL     1      -9.403   5.501  73.323  1.00  0.00    -0.131 C  
HETATM   25  S   UNL     1      -9.919   4.576  71.815  1.00  0.00    -0.188 S  
HETATM   26  O   UNL     1     -10.261   3.179  72.237  1.00  0.00    -0.161 OA 
HETATM   27  O   UNL     1      -8.435   4.532  71.189  1.00  0.00    -0.101 OA 
ENDBRANCH  22  24
ENDBRANCH  19  22
ENDBRANCH  13  16
ENDBRANCH  10  13
ENDBRANCH   5   7
ENDBRANCH   3   5
TORSDOF 6
ENDMDL
MODEL       44
REMARK 921   NORMALIZED FREE ENERGY PREDICTED BY IDOCK:   -5.44 KCAL/MOL
REMARK 922        TOTAL FREE ENERGY PREDICTED BY IDOCK:   -8.14 KCAL/MOL
REMARK 923 INTER-LIGAND FREE ENERGY PREDICTED BY IDOCK:   -7.37 KCAL/MOL
REMARK 924 INTRA-LIGAND FREE ENERGY PREDICTED BY IDOCK:   -0.77 KCAL/MOL
REMARK 927      BINDING AFFINITY PREDICTED BY RF-SCORE:    0.00 PKD
ROOT
HETATM    1  O   UNL     1     -10.703   2.509  73.918  1.00  0.00    -0.147 OA 
HETATM    2  S   UNL     1     -10.219   3.986  74.328  1.00  0.00    -0.212 S  
HETATM    3  C   UNL     1     -11.454   4.835  73.263  1.00  0.00    -0.273 C  
HETATM    4  O   UNL     1      -8.866   4.138  73.701  1.00  0.00    -0.094 OA 
ENDROOT
BRANCH   3   5
HETATM    5  N   UNL     1     -11.262   6.277  73.416  1.00  0.00    -0.449 NA 
HETATM    6  H   UNL     1     -11.552   6.767  74.263  1.00  0.00     0.000 HD 
BRANCH   5   7
HETATM    7  C   UNL     1     -10.661   6.954  72.343  1.00  0.00    -0.226 A  
HETATM    8  C   UNL     1     -10.741   6.504  71.019  1.00  0.00    -0.289 A  
HETATM    9  C   UNL     1     -10.117   7.197  69.977  1.00  0.00    -0.194 A  
HETATM   10  C   UNL     1      -9.414   8.371  70.254  1.00  0.00    -0.164 A  
HETATM   11  C   UNL     1      -9.433   8.910  71.539  1.00  0.00    -0.347 A  
HETATM   12  C   UNL     1     -10.067   8.206  72.571  1.00  0.00    -0.370 A  
BRANCH  10  13
HETATM   13  S   UNL     1      -8.545   9.201  68.938  1.00  0.00    -0.132 S  
HETATM   14  O   UNL     1      -7.612  10.129  69.549  1.00  0.00    -0.107 OA 
HETATM   15  O   UNL     1      -8.072   8.171  68.028  1.00  0.00    -0.124 OA 
BRANCH  13  16
HETATM   16  C   UNL     1      -9.732  10.197  68.050  1.00  0.00    -0.142 A  
HETATM   17  C   UNL     1     -10.751  10.842  68.752  1.00  0.00    -0.243 A  
HETATM   18  C   UNL     1     -11.643  11.682  68.073  1.00  0.00    -0.383 A  
HETATM   19  C   UNL     1     -11.505  11.935  66.699  1.00  0.00    -0.314 A  
HETATM   20  C   UNL     1      -9.619  10.371  66.670  1.00  0.00    -0.219 A  
HETATM   21  C   UNL     1     -10.513  11.223  66.003  1.00  0.00    -0.310 A  
BRANCH  19  22
HETATM   22  N   UNL     1     -12.390  12.773  65.975  1.00  0.00    -0.554 NA 
HETATM   23  H   UNL     1     -13.155  12.405  65.409  1.00  0.00     0.000 HD 
BRANCH  22  24
HETATM   24  C   UNL     1     -12.121  14.216  66.104  1.00  0.00    -0.435 C  
HETATM   25  S   UNL     1     -11.180  14.743  64.609  1.00  0.00    -0.301 S  
HETATM   26  O   UNL     1     -11.203  16.241  64.566  1.00  0.00    -0.626 OA 
HETATM   27  O   UNL     1     -12.299  14.220  63.573  1.00  0.00    -0.714 OA 
ENDBRANCH  22  24
ENDBRANCH  19  22
ENDBRANCH  13  16
ENDBRANCH  10  13
ENDBRANCH   5   7
ENDBRANCH   3   5
TORSDOF 6
ENDMDL
MODEL       45
REMARK 921   NORMALIZED FREE ENERGY PREDICTED BY IDOCK:   -5.42 KCAL/MOL
REMARK 922        TOTAL FREE ENERGY PREDICTED BY IDOCK:   -8.11 KCAL/MOL
REMARK 923 INTER-LIGAND FREE ENERGY PREDICTED BY IDOCK:   -7.57 KCAL/MOL
REMARK 924 INTRA-LIGAND FREE ENERGY PREDICTED BY IDOCK:   -0.54 KCAL/MOL
REMARK 927      BINDING AFFINITY PREDICTED BY RF-SCORE:    0.00 PKD
ROOT
HETATM    1  O   UNL     1     -12.300  15.849  73.585  1.00  0.00    -0.465 OA 
HETATM    2  S   UNL     1     -13.244  14.811  72.800  1.00  0.00    -0.507 S  
HETATM    3  C   UNL     1     -12.027  14.510  71.455  1.00  0.00    -0.291 C  
HETATM    4  O   UNL     1     -14.362  15.644  72.251  1.00  0.00    -0.539 OA 
ENDROOT
BRANCH   3   5
HETATM    5  N   UNL     1     -12.620  13.555  70.520  1.00  0.00    -0.279 NA 
HETATM    6  H   UNL     1     -13.117  13.864  69.684  1.00  0.00     0.000 HD 
BRANCH   5   7
HETATM    7  C   UNL     1     -12.472  12.193  70.826  1.00  0.00    -0.271 A  
HETATM    8  C   UNL     1     -13.263  11.536  71.778  1.00  0.00    -0.456 A  
HETATM    9  C   UNL     1     -13.077  10.181  72.067  1.00  0.00    -0.538 A  
HETATM   10  C   UNL     1     -12.100   9.458  71.383  1.00  0.00    -0.363 A  
HETATM   11  C   UNL     1     -11.394  10.053  70.338  1.00  0.00    -0.392 A  
HETATM   12  C   UNL     1     -11.594  11.410  70.058  1.00  0.00    -0.382 A  
BRANCH  10  13
HETATM   13  S   UNL     1     -11.806   7.755  71.818  1.00  0.00    -0.305 S  
HETATM   14  O   UNL     1     -11.085   7.744  73.078  1.00  0.00    -0.398 OA 
HETATM   15  O   UNL     1     -13.077   7.061  71.689  1.00  0.00    -0.377 OA 
BRANCH  13  16
HETATM   16  C   UNL     1     -10.694   7.069  70.600  1.00  0.00    -0.231 A  
HETATM   17  C   UNL     1      -9.317   7.210  70.770  1.00  0.00    -0.160 A  
HETATM   18  C   UNL     1      -8.436   6.614  69.858  1.00  0.00    -0.139 A  
HETATM   19  C   UNL     1      -8.908   5.827  68.795  1.00  0.00    -0.110 A  
HETATM   20  C   UNL     1     -11.192   6.358  69.508  1.00  0.00    -0.477 A  
HETATM   21  C   UNL     1     -10.299   5.757  68.607  1.00  0.00    -0.283 A  
BRANCH  19  22
HETATM   22  N   UNL     1      -8.050   5.214  67.848  1.00  0.00    -0.098 NA 
HETATM   23  H   UNL     1      -7.296   4.583  68.117  1.00  0.00     0.000 HD 
BRANCH  22  24
HETATM   24  C   UNL     1      -8.333   5.559  66.443  1.00  0.00    -0.111 C  
HETATM   25  S   UNL     1      -8.217   4.009  65.454  1.00  0.00    -0.102 S  
HETATM   26  O   UNL     1      -8.831   4.282  64.114  1.00  0.00    -0.130 OA 
HETATM   27  O   UNL     1      -9.320   3.225  66.330  1.00  0.00    -0.165 OA 
ENDBRANCH  22  24
ENDBRANCH  19  22
ENDBRANCH  13  16
ENDBRANCH  10  13
ENDBRANCH   5   7
ENDBRANCH   3   5
TORSDOF 6
ENDMDL
MODEL       46
REMARK 921   NORMALIZED FREE ENERGY PREDICTED BY IDOCK:   -5.41 KCAL/MOL
REMARK 922        TOTAL FREE ENERGY PREDICTED BY IDOCK:   -8.10 KCAL/MOL
REMARK 923 INTER-LIGAND FREE ENERGY PREDICTED BY IDOCK:   -7.31 KCAL/MOL
REMARK 924 INTRA-LIGAND FREE ENERGY PREDICTED BY IDOCK:   -0.79 KCAL/MOL
REMARK 927      BINDING AFFINITY PREDICTED BY RF-SCORE:    0.00 PKD
ROOT
HETATM    1  O   UNL     1      -6.983   6.520  69.411  1.00  0.00    -0.066 OA 
HETATM    2  S   UNL     1      -7.436   7.989  69.882  1.00  0.00    -0.080 S  
HETATM    3  C   UNL     1      -9.088   7.884  69.083  1.00  0.00    -0.145 C  
HETATM    4  O   UNL     1      -6.582   8.930  69.087  1.00  0.00    -0.046 OA 
ENDROOT
BRANCH   3   5
HETATM    5  N   UNL     1      -9.790   9.142  69.338  1.00  0.00    -0.168 NA 
HETATM    6  H   UNL     1      -9.959   9.476  70.286  1.00  0.00     0.000 HD 
BRANCH   5   7
HETATM    7  C   UNL     1     -10.220   9.866  68.215  1.00  0.00    -0.176 A  
HETATM    8  C   UNL     1      -9.736   9.626  66.922  1.00  0.00    -0.240 A  
HETATM    9  C   UNL     1     -10.177  10.378  65.829  1.00  0.00    -0.305 A  
HETATM   10  C   UNL     1     -11.133  11.376  66.020  1.00  0.00    -0.173 A  
HETATM   11  C   UNL     1     -11.728  11.544  67.270  1.00  0.00    -0.193 A  
HETATM   12  C   UNL     1     -11.278  10.779  68.354  1.00  0.00    -0.345 A  
BRANCH  10  13
HETATM   13  S   UNL     1     -11.626  12.391  64.641  1.00  0.00    -0.358 S  
HETATM   14  O   UNL     1     -10.912  11.914  63.471  1.00  0.00    -0.396 OA 
HETATM   15  O   UNL     1     -13.078  12.440  64.650  1.00  0.00    -0.825 OA 
BRANCH  13  16
HETATM   16  C   UNL     1     -11.031  14.048  64.948  1.00  0.00    -0.392 A  
HETATM   17  C   UNL     1     -11.751  15.138  64.457  1.00  0.00    -0.331 A  
HETATM   18  C   UNL     1     -11.332  16.442  64.754  1.00  0.00    -0.154 A  
HETATM   19  C   UNL     1     -10.224  16.681  65.583  1.00  0.00    -0.262 A  
HETATM   20  C   UNL     1      -9.882  14.258  65.710  1.00  0.00    -0.314 A  
HETATM   21  C   UNL     1      -9.478  15.568  66.008  1.00  0.00    -0.387 A  
BRANCH  19  22
HETATM   22  N   UNL     1      -9.764  17.984  65.900  1.00  0.00    -0.536 NA 
HETATM   23  H   UNL     1      -9.019  18.446  65.378  1.00  0.00     0.000 HD 
BRANCH  22  24
HETATM   24  C   UNL     1     -10.446  18.619  67.042  1.00  0.00    -0.407 C  
HETATM   25  S   UNL     1      -9.235  18.721  68.427  1.00  0.00    -0.351 S  
HETATM   26  O   UNL     1      -9.799  19.658  69.452  1.00  0.00    -0.383 OA 
HETATM   27  O   UNL     1      -8.147  19.549  67.574  1.00  0.00    -0.276 OA 
ENDBRANCH  22  24
ENDBRANCH  19  22
ENDBRANCH  13  16
ENDBRANCH  10  13
ENDBRANCH   5   7
ENDBRANCH   3   5
TORSDOF 6
ENDMDL
MODEL       47
REMARK 921   NORMALIZED FREE ENERGY PREDICTED BY IDOCK:   -5.40 KCAL/MOL
REMARK 922        TOTAL FREE ENERGY PREDICTED BY IDOCK:   -8.10 KCAL/MOL
REMARK 923 INTER-LIGAND FREE ENERGY PREDICTED BY IDOCK:   -7.28 KCAL/MOL
REMARK 924 INTRA-LIGAND FREE ENERGY PREDICTED BY IDOCK:   -0.81 KCAL/MOL
REMARK 927      BINDING AFFINITY PREDICTED BY RF-SCORE:    0.00 PKD
ROOT
HETATM    1  O   UNL     1     -13.194   8.814  71.921  1.00  0.00    -0.335 OA 
HETATM    2  S   UNL     1     -11.705   8.374  71.504  1.00  0.00    -0.308 S  
HETATM    3  C   UNL     1     -12.236   6.774  70.771  1.00  0.00    -0.297 C  
HETATM    4  O   UNL     1     -11.007   8.094  72.801  1.00  0.00    -0.369 OA 
ENDROOT
BRANCH   3   5
HETATM    5  N   UNL     1     -11.042   6.090  70.275  1.00  0.00    -0.347 NA 
HETATM    6  H   UNL     1     -10.738   5.197  70.664  1.00  0.00     0.000 HD 
BRANCH   5   7
HETATM    7  C   UNL     1     -10.334   6.721  69.240  1.00  0.00    -0.200 A  
HETATM    8  C   UNL     1      -9.017   7.175  69.385  1.00  0.00    -0.136 A  
HETATM    9  C   UNL     1      -8.349   7.813  68.335  1.00  0.00    -0.125 A  
HETATM   10  C   UNL     1      -8.994   7.986  67.111  1.00  0.00    -0.135 A  
HETATM   11  C   UNL     1     -10.252   7.424  66.899  1.00  0.00    -0.346 A  
HETATM   12  C   UNL     1     -10.907   6.784  67.959  1.00  0.00    -0.306 A  
BRANCH  10  13
HETATM   13  S   UNL     1      -8.172   8.878  65.806  1.00  0.00    -0.121 S  
HETATM   14  O   UNL     1      -6.883   9.309  66.317  1.00  0.00    -0.080 OA 
HETATM   15  O   UNL     1      -8.253   8.051  64.613  1.00  0.00    -0.148 OA 
BRANCH  13  16
HETATM   16  C   UNL     1      -9.109  10.366  65.492  1.00  0.00    -0.177 A  
HETATM   17  C   UNL     1      -9.688  10.562  64.238  1.00  0.00    -0.391 A  
HETATM   18  C   UNL     1     -10.484  11.691  64.005  1.00  0.00    -0.418 A  
HETATM   19  C   UNL     1     -10.758  12.613  65.028  1.00  0.00    -0.293 A  
HETATM   20  C   UNL     1      -9.303  11.307  66.503  1.00  0.00    -0.201 A  
HETATM   21  C   UNL     1     -10.110  12.429  66.261  1.00  0.00    -0.257 A  
BRANCH  19  22
HETATM   22  N   UNL     1     -11.552  13.771  64.830  1.00  0.00    -0.337 NA 
HETATM   23  H   UNL     1     -12.066  13.945  63.966  1.00  0.00     0.000 HD 
BRANCH  22  24
HETATM   24  C   UNL     1     -11.578  14.705  65.970  1.00  0.00    -0.328 C  
HETATM   25  S   UNL     1     -10.496  16.135  65.545  1.00  0.00    -0.349 S  
HETATM   26  O   UNL     1     -10.785  17.227  66.529  1.00  0.00    -0.221 OA 
HETATM   27  O   UNL     1     -11.296  16.491  64.192  1.00  0.00    -1.060 OA 
ENDBRANCH  22  24
ENDBRANCH  19  22
ENDBRANCH  13  16
ENDBRANCH  10  13
ENDBRANCH   5   7
ENDBRANCH   3   5
TORSDOF 6
ENDMDL
MODEL       48
REMARK 921   NORMALIZED FREE ENERGY PREDICTED BY IDOCK:   -5.39 KCAL/MOL
REMARK 922        TOTAL FREE ENERGY PREDICTED BY IDOCK:   -8.08 KCAL/MOL
REMARK 923 INTER-LIGAND FREE ENERGY PREDICTED BY IDOCK:   -7.31 KCAL/MOL
REMARK 924 INTRA-LIGAND FREE ENERGY PREDICTED BY IDOCK:   -0.77 KCAL/MOL
REMARK 927      BINDING AFFINITY PREDICTED BY RF-SCORE:    0.00 PKD
ROOT
HETATM    1  O   UNL     1      -7.328  20.341  65.373  1.00  0.00    -0.284 OA 
HETATM    2  S   UNL     1      -7.384  18.997  66.253  1.00  0.00    -0.270 S  
HETATM    3  C   UNL     1      -8.308  19.779  67.636  1.00  0.00    -0.317 C  
HETATM    4  O   UNL     1      -5.971  18.766  66.697  1.00  0.00    -0.157 OA 
ENDROOT
BRANCH   3   5
HETATM    5  N   UNL     1      -8.527  18.760  68.662  1.00  0.00    -0.342 NA 
HETATM    6  H   UNL     1      -8.238  18.905  69.630  1.00  0.00     0.000 HD 
BRANCH   5   7
HETATM    7  C   UNL     1      -9.152  17.572  68.252  1.00  0.00    -0.274 A  
HETATM    8  C   UNL     1      -8.541  16.315  68.353  1.00  0.00    -0.200 A  
HETATM    9  C   UNL     1      -9.189  15.155  67.920  1.00  0.00    -0.184 A  
HETATM   10  C   UNL     1     -10.479  15.241  67.394  1.00  0.00    -0.270 A  
HETATM   11  C   UNL     1     -11.159  16.457  67.409  1.00  0.00    -0.062 A  
HETATM   12  C   UNL     1     -10.497  17.611  67.849  1.00  0.00    -0.392 A  
BRANCH  10  13
HETATM   13  S   UNL     1     -11.266  13.773  66.762  1.00  0.00    -0.326 S  
HETATM   14  O   UNL     1     -12.591  14.150  66.306  1.00  0.00    -0.449 OA 
HETATM   15  O   UNL     1     -10.322  13.146  65.850  1.00  0.00    -0.279 OA 
BRANCH  13  16
HETATM   16  C   UNL     1     -11.509  12.654  68.134  1.00  0.00    -0.313 A  
HETATM   17  C   UNL     1     -11.234  11.296  67.970  1.00  0.00    -0.351 A  
HETATM   18  C   UNL     1     -11.354  10.423  69.059  1.00  0.00    -0.279 A  
HETATM   19  C   UNL     1     -11.696  10.894  70.337  1.00  0.00    -0.350 A  
HETATM   20  C   UNL     1     -11.926  13.136  69.374  1.00  0.00    -0.347 A  
HETATM   21  C   UNL     1     -12.032  12.254  70.460  1.00  0.00    -0.296 A  
BRANCH  19  22
HETATM   22  N   UNL     1     -11.834  10.043  71.462  1.00  0.00    -0.364 NA 
HETATM   23  H   UNL     1     -12.624  10.106  72.106  1.00  0.00     0.000 HD 
BRANCH  22  24
HETATM   24  C   UNL     1     -10.750   9.060  71.631  1.00  0.00    -0.371 C  
HETATM   25  S   UNL     1     -11.509   7.487  72.217  1.00  0.00    -0.317 S  
HETATM   26  O   UNL     1     -10.483   6.405  72.061  1.00  0.00    -0.203 OA 
HETATM   27  O   UNL     1     -12.518   7.368  70.966  1.00  0.00    -0.314 OA 
ENDBRANCH  22  24
ENDBRANCH  19  22
ENDBRANCH  13  16
ENDBRANCH  10  13
ENDBRANCH   5   7
ENDBRANCH   3   5
TORSDOF 6
ENDMDL
MODEL       49
REMARK 921   NORMALIZED FREE ENERGY PREDICTED BY IDOCK:   -5.39 KCAL/MOL
REMARK 922        TOTAL FREE ENERGY PREDICTED BY IDOCK:   -8.08 KCAL/MOL
REMARK 923 INTER-LIGAND FREE ENERGY PREDICTED BY IDOCK:   -7.46 KCAL/MOL
REMARK 924 INTRA-LIGAND FREE ENERGY PREDICTED BY IDOCK:   -0.62 KCAL/MOL
REMARK 927      BINDING AFFINITY PREDICTED BY RF-SCORE:    0.00 PKD
ROOT
HETATM    1  O   UNL     1     -12.223  15.861  73.701  1.00  0.00    -0.460 OA 
HETATM    2  S   UNL     1     -13.231  14.891  72.908  1.00  0.00    -0.498 S  
HETATM    3  C   UNL     1     -12.036  14.526  71.560  1.00  0.00    -0.291 C  
HETATM    4  O   UNL     1     -14.295  15.798  72.368  1.00  0.00    -0.514 OA 
ENDROOT
BRANCH   3   5
HETATM    5  N   UNL     1     -12.688  13.619  70.616  1.00  0.00    -0.272 NA 
HETATM    6  H   UNL     1     -13.205  13.969  69.809  1.00  0.00     0.000 HD 
BRANCH   5   7
HETATM    7  C   UNL     1     -12.569  12.244  70.873  1.00  0.00    -0.241 A  
HETATM    8  C   UNL     1     -13.344  11.579  71.833  1.00  0.00    -0.408 A  
HETATM    9  C   UNL     1     -13.187  10.211  72.072  1.00  0.00    -0.534 A  
HETATM   10  C   UNL     1     -12.256   9.483  71.330  1.00  0.00    -0.371 A  
HETATM   11  C   UNL     1     -11.571  10.092  70.279  1.00  0.00    -0.379 A  
HETATM   12  C   UNL     1     -11.742  11.463  70.049  1.00  0.00    -0.416 A  
BRANCH  10  13
HETATM   13  S   UNL     1     -11.996   7.760  71.700  1.00  0.00    -0.310 S  
HETATM   14  O   UNL     1     -11.290   7.687  72.966  1.00  0.00    -0.372 OA 
HETATM   15  O   UNL     1     -13.276   7.093  71.530  1.00  0.00    -0.383 OA 
BRANCH  13  16
HETATM   16  C   UNL     1     -10.881   7.103  70.468  1.00  0.00    -0.246 A  
HETATM   17  C   UNL     1     -11.398   6.394  69.383  1.00  0.00    -0.443 A  
HETATM   18  C   UNL     1     -10.538   5.937  68.375  1.00  0.00    -0.314 A  
HETATM   19  C   UNL     1      -9.163   6.222  68.404  1.00  0.00    -0.112 A  
HETATM   20  C   UNL     1      -9.509   7.333  70.560  1.00  0.00    -0.165 A  
HETATM   21  C   UNL     1      -8.660   6.879  69.540  1.00  0.00    -0.134 A  
BRANCH  19  22
HETATM   22  N   UNL     1      -8.260   5.771  67.408  1.00  0.00    -0.102 NA 
HETATM   23  H   UNL     1      -7.430   5.220  67.628  1.00  0.00     0.000 HD 
BRANCH  22  24
HETATM   24  C   UNL     1      -8.614   6.161  66.032  1.00  0.00    -0.145 C  
HETATM   25  S   UNL     1      -8.358   7.980  65.884  1.00  0.00    -0.141 S  
HETATM   26  O   UNL     1      -8.381   8.322  64.425  1.00  0.00    -0.151 OA 
HETATM   27  O   UNL     1      -6.812   7.921  66.334  1.00  0.00    -0.060 OA 
ENDBRANCH  22  24
ENDBRANCH  19  22
ENDBRANCH  13  16
ENDBRANCH  10  13
ENDBRANCH   5   7
ENDBRANCH   3   5
TORSDOF 6
ENDMDL
MODEL       50
REMARK 921   NORMALIZED FREE ENERGY PREDICTED BY IDOCK:   -5.37 KCAL/MOL
REMARK 922        TOTAL FREE ENERGY PREDICTED BY IDOCK:   -8.05 KCAL/MOL
REMARK 923 INTER-LIGAND FREE ENERGY PREDICTED BY IDOCK:   -7.22 KCAL/MOL
REMARK 924 INTRA-LIGAND FREE ENERGY PREDICTED BY IDOCK:   -0.82 KCAL/MOL
REMARK 927      BINDING AFFINITY PREDICTED BY RF-SCORE:    0.00 PKD
ROOT
HETATM    1  O   UNL     1     -10.521  14.074  66.158  1.00  0.00    -0.285 OA 
HETATM    2  S   UNL     1     -11.869  13.650  66.923  1.00  0.00    -0.419 S  
HETATM    3  C   UNL     1     -11.077  13.608  68.582  1.00  0.00    -0.272 C  
HETATM    4  O   UNL     1     -12.134  12.240  66.487  1.00  0.00    -0.616 OA 
ENDROOT
BRANCH   3   5
HETATM    5  N   UNL     1     -12.099  13.227  69.557  1.00  0.00    -0.290 NA 
HETATM    6  H   UNL     1     -12.829  13.877  69.847  1.00  0.00     0.000 HD 
BRANCH   5   7
HETATM    7  C   UNL     1     -12.025  11.924  70.075  1.00  0.00    -0.332 A  
HETATM    8  C   UNL     1     -11.048  11.001  69.679  1.00  0.00    -0.320 A  
HETATM    9  C   UNL     1     -11.015   9.707  70.207  1.00  0.00    -0.337 A  
HETATM   10  C   UNL     1     -11.960   9.326  71.160  1.00  0.00    -0.322 A  
HETATM   11  C   UNL     1     -12.856  10.266  71.669  1.00  0.00    -0.568 A  
HETATM   12  C   UNL     1     -12.874  11.560  71.133  1.00  0.00    -0.414 A  
BRANCH  10  13
HETATM   13  S   UNL     1     -11.970   7.650  71.763  1.00  0.00    -0.313 S  
HETATM   14  O   UNL     1     -11.379   7.659  73.089  1.00  0.00    -0.360 OA 
HETATM   15  O   UNL     1     -13.313   7.134  71.557  1.00  0.00    -0.383 OA 
BRANCH  13  16
HETATM   16  C   UNL     1     -10.866   6.697  70.731  1.00  0.00    -0.252 A  
HETATM   17  C   UNL     1     -11.280   6.310  69.456  1.00  0.00    -0.500 A  
HETATM   18  C   UNL     1     -10.396   5.625  68.613  1.00  0.00    -0.277 A  
HETATM   19  C   UNL     1      -9.073   5.359  69.004  1.00  0.00    -0.115 A  
HETATM   20  C   UNL     1      -9.583   6.377  71.173  1.00  0.00    -0.187 A  
HETATM   21  C   UNL     1      -8.703   5.699  70.317  1.00  0.00    -0.134 A  
BRANCH  19  22
HETATM   22  N   UNL     1      -8.151   4.662  68.184  1.00  0.00    -0.088 NA 
HETATM   23  H   UNL     1      -7.643   3.837  68.505  1.00  0.00     0.000 HD 
BRANCH  22  24
HETATM   24  C   UNL     1      -7.982   5.220  66.830  1.00  0.00    -0.101 C  
HETATM   25  S   UNL     1      -7.906   3.807  65.650  1.00  0.00    -0.093 S  
HETATM   26  O   UNL     1      -8.081   4.362  64.269  1.00  0.00    -0.091 OA 
HETATM   27  O   UNL     1      -9.329   3.198  66.100  1.00  0.00    -0.155 OA 
ENDBRANCH  22  24
ENDBRANCH  19  22
ENDBRANCH  13  16
ENDBRANCH  10  13
ENDBRANCH   5   7
ENDBRANCH   3   5
TORSDOF 6
ENDMDL
MODEL       51
REMARK 921   NORMALIZED FREE ENERGY PREDICTED BY IDOCK:   -5.36 KCAL/MOL
REMARK 922        TOTAL FREE ENERGY PREDICTED BY IDOCK:   -8.04 KCAL/MOL
REMARK 923 INTER-LIGAND FREE ENERGY PREDICTED BY IDOCK:   -7.64 KCAL/MOL
REMARK 924 INTRA-LIGAND FREE ENERGY PREDICTED BY IDOCK:   -0.40 KCAL/MOL
REMARK 927      BINDING AFFINITY PREDICTED BY RF-SCORE:    0.00 PKD
ROOT
HETATM    1  O   UNL     1     -13.905  15.714  72.625  1.00  0.00    -0.552 OA 
HETATM    2  S   UNL     1     -13.159  15.201  71.297  1.00  0.00    -0.478 S  
HETATM    3  C   UNL     1     -13.264  13.424  71.759  1.00  0.00    -0.407 C  
HETATM    4  O   UNL     1     -11.737  15.649  71.456  1.00  0.00    -0.350 OA 
ENDROOT
BRANCH   3   5
HETATM    5  N   UNL     1     -12.631  12.646  70.695  1.00  0.00    -0.218 NA 
HETATM    6  H   UNL     1     -12.410  13.060  69.789  1.00  0.00     0.000 HD 
BRANCH   5   7
HETATM    7  C   UNL     1     -12.343  11.302  70.979  1.00  0.00    -0.366 A  
HETATM    8  C   UNL     1     -11.203  10.648  70.492  1.00  0.00    -0.270 A  
HETATM    9  C   UNL     1     -10.956   9.304  70.784  1.00  0.00    -0.349 A  
HETATM   10  C   UNL     1     -11.849   8.598  71.591  1.00  0.00    -0.323 A  
HETATM   11  C   UNL     1     -12.916   9.260  72.197  1.00  0.00    -0.503 A  
HETATM   12  C   UNL     1     -13.147  10.609  71.898  1.00  0.00    -0.563 A  
BRANCH  10  13
HETATM   13  S   UNL     1     -11.577   6.862  71.886  1.00  0.00    -0.300 S  
HETATM   14  O   UNL     1     -10.468   6.745  72.816  1.00  0.00    -0.199 OA 
HETATM   15  O   UNL     1     -12.871   6.280  72.205  1.00  0.00    -0.171 OA 
BRANCH  13  16
HETATM   16  C   UNL     1     -11.023   6.132  70.353  1.00  0.00    -0.337 A  
HETATM   17  C   UNL     1     -11.512   6.622  69.142  1.00  0.00    -0.199 A  
HETATM   18  C   UNL     1     -11.030   6.104  67.933  1.00  0.00    -0.399 A  
HETATM   19  C   UNL     1     -10.019   5.129  67.909  1.00  0.00    -0.152 A  
HETATM   20  C   UNL     1     -10.075   5.109  70.358  1.00  0.00    -0.333 A  
HETATM   21  C   UNL     1      -9.592   4.605  69.141  1.00  0.00    -0.245 A  
BRANCH  19  22
HETATM   22  N   UNL     1      -9.510   4.574  66.708  1.00  0.00    -0.160 NA 
HETATM   23  H   UNL     1      -8.553   4.232  66.623  1.00  0.00     0.000 HD 
BRANCH  22  24
HETATM   24  C   UNL     1     -10.471   4.530  65.591  1.00  0.00    -0.229 C  
HETATM   25  S   UNL     1      -9.679   3.602  64.211  1.00  0.00    -0.186 S  
HETATM   26  O   UNL     1     -10.752   3.258  63.223  1.00  0.00    -0.217 OA 
HETATM   27  O   UNL     1      -9.407   2.281  65.095  1.00  0.00    -0.130 OA 
ENDBRANCH  22  24
ENDBRANCH  19  22
ENDBRANCH  13  16
ENDBRANCH  10  13
ENDBRANCH   5   7
ENDBRANCH   3   5
TORSDOF 6
ENDMDL
MODEL       52
REMARK 921   NORMALIZED FREE ENERGY PREDICTED BY IDOCK:   -5.35 KCAL/MOL
REMARK 922        TOTAL FREE ENERGY PREDICTED BY IDOCK:   -8.03 KCAL/MOL
REMARK 923 INTER-LIGAND FREE ENERGY PREDICTED BY IDOCK:   -7.27 KCAL/MOL
REMARK 924 INTRA-LIGAND FREE ENERGY PREDICTED BY IDOCK:   -0.76 KCAL/MOL
REMARK 927      BINDING AFFINITY PREDICTED BY RF-SCORE:    0.00 PKD
ROOT
HETATM    1  O   UNL     1      -7.435   5.270  68.306  1.00  0.00    -0.074 OA 
HETATM    2  S   UNL     1      -8.495   5.452  67.111  1.00  0.00    -0.105 S  
HETATM    3  C   UNL     1      -7.981   7.177  66.735  1.00  0.00    -0.108 C  
HETATM    4  O   UNL     1      -9.834   5.492  67.784  1.00  0.00    -0.124 OA 
ENDROOT
BRANCH   3   5
HETATM    5  N   UNL     1      -8.807   7.660  65.629  1.00  0.00    -0.341 NA 
HETATM    6  H   UNL     1      -8.866   7.155  64.746  1.00  0.00     0.000 HD 
BRANCH   5   7
HETATM    7  C   UNL     1      -9.516   8.853  65.843  1.00  0.00    -0.234 A  
HETATM    8  C   UNL     1     -10.157   9.152  67.052  1.00  0.00    -0.316 A  
HETATM    9  C   UNL     1     -10.867  10.345  67.223  1.00  0.00    -0.324 A  
HETATM   10  C   UNL     1     -10.925  11.268  66.179  1.00  0.00    -0.191 A  
HETATM   11  C   UNL     1     -10.185  11.056  65.016  1.00  0.00    -0.360 A  
HETATM   12  C   UNL     1      -9.476   9.858  64.862  1.00  0.00    -0.355 A  
BRANCH  10  13
HETATM   13  S   UNL     1     -11.904  12.744  66.369  1.00  0.00    -0.379 S  
HETATM   14  O   UNL     1     -12.837  12.796  65.258  1.00  0.00    -0.674 OA 
HETATM   15  O   UNL     1     -12.388  12.757  67.740  1.00  0.00    -0.211 OA 
BRANCH  13  16
HETATM   16  C   UNL     1     -10.815  14.146  66.173  1.00  0.00    -0.296 A  
HETATM   17  C   UNL     1     -11.259  15.269  65.473  1.00  0.00    -0.277 A  
HETATM   18  C   UNL     1     -10.438  16.400  65.375  1.00  0.00    -0.333 A  
HETATM   19  C   UNL     1      -9.188  16.452  66.013  1.00  0.00    -0.293 A  
HETATM   20  C   UNL     1      -9.545  14.142  66.750  1.00  0.00    -0.290 A  
HETATM   21  C   UNL     1      -8.736  15.285  66.653  1.00  0.00    -0.327 A  
BRANCH  19  22
HETATM   22  N   UNL     1      -8.325  17.574  65.932  1.00  0.00    -0.549 NA 
HETATM   23  H   UNL     1      -8.255  18.154  65.095  1.00  0.00     0.000 HD 
BRANCH  22  24
HETATM   24  C   UNL     1      -7.539  17.839  67.149  1.00  0.00    -0.203 C  
HETATM   25  S   UNL     1      -7.637  19.647  67.494  1.00  0.00    -0.272 S  
HETATM   26  O   UNL     1      -7.141  19.867  68.891  1.00  0.00    -0.330 OA 
HETATM   27  O   UNL     1      -9.248  19.670  67.552  1.00  0.00    -0.305 OA 
ENDBRANCH  22  24
ENDBRANCH  19  22
ENDBRANCH  13  16
ENDBRANCH  10  13
ENDBRANCH   5   7
ENDBRANCH   3   5
TORSDOF 6
ENDMDL
MODEL       53
REMARK 921   NORMALIZED FREE ENERGY PREDICTED BY IDOCK:   -5.33 KCAL/MOL
REMARK 922        TOTAL FREE ENERGY PREDICTED BY IDOCK:   -8.00 KCAL/MOL
REMARK 923 INTER-LIGAND FREE ENERGY PREDICTED BY IDOCK:   -7.82 KCAL/MOL
REMARK 924 INTRA-LIGAND FREE ENERGY PREDICTED BY IDOCK:   -0.17 KCAL/MOL
REMARK 927      BINDING AFFINITY PREDICTED BY RF-SCORE:    0.00 PKD
ROOT
HETATM    1  O   UNL     1      -8.103   4.697  66.772  1.00  0.00    -0.102 OA 
HETATM    2  S   UNL     1      -8.043   5.374  65.315  1.00  0.00    -0.129 S  
HETATM    3  C   UNL     1      -8.350   7.075  65.942  1.00  0.00    -0.141 C  
HETATM    4  O   UNL     1      -9.279   4.895  64.615  1.00  0.00    -0.127 OA 
ENDROOT
BRANCH   3   5
HETATM    5  N   UNL     1      -8.360   7.981  64.794  1.00  0.00    -0.301 NA 
HETATM    6  H   UNL     1      -7.840   7.769  63.942  1.00  0.00     0.000 HD 
BRANCH   5   7
HETATM    7  C   UNL     1      -9.118   9.155  64.921  1.00  0.00    -0.132 A  
HETATM    8  C   UNL     1      -9.686   9.568  66.133  1.00  0.00    -0.324 A  
HETATM    9  C   UNL     1     -10.448  10.737  66.218  1.00  0.00    -0.287 A  
HETATM   10  C   UNL     1     -10.635  11.523  65.080  1.00  0.00    -0.293 A  
HETATM   11  C   UNL     1      -9.970  11.207  63.896  1.00  0.00    -0.381 A  
HETATM   12  C   UNL     1      -9.206  10.034  63.828  1.00  0.00    -0.314 A  
BRANCH  10  13
HETATM   13  S   UNL     1     -11.680  12.962  65.172  1.00  0.00    -0.373 S  
HETATM   14  O   UNL     1     -11.078  13.993  64.346  1.00  0.00    -0.365 OA 
HETATM   15  O   UNL     1     -13.040  12.515  64.919  1.00  0.00    -0.833 OA 
BRANCH  13  16
HETATM   16  C   UNL     1     -11.620  13.569  66.852  1.00  0.00    -0.363 A  
HETATM   17  C   UNL     1     -11.972  12.721  67.902  1.00  0.00    -0.320 A  
HETATM   18  C   UNL     1     -11.859  13.166  69.226  1.00  0.00    -0.377 A  
HETATM   19  C   UNL     1     -11.347  14.438  69.527  1.00  0.00    -0.276 A  
HETATM   20  C   UNL     1     -11.182  14.866  67.120  1.00  0.00    -0.345 A  
HETATM   21  C   UNL     1     -11.064  15.296  68.451  1.00  0.00    -0.289 A  
BRANCH  19  22
HETATM   22  N   UNL     1     -11.225  14.927  70.852  1.00  0.00    -0.501 NA 
HETATM   23  H   UNL     1     -10.395  15.421  71.181  1.00  0.00     0.000 HD 
BRANCH  22  24
HETATM   24  C   UNL     1     -12.389  14.667  71.717  1.00  0.00    -0.346 C  
HETATM   25  S   UNL     1     -12.043  15.426  73.360  1.00  0.00    -0.484 S  
HETATM   26  O   UNL     1     -13.335  15.468  74.119  1.00  0.00    -0.071 OA 
HETATM   27  O   UNL     1     -11.796  16.902  72.761  1.00  0.00    -0.349 OA 
ENDBRANCH  22  24
ENDBRANCH  19  22
ENDBRANCH  13  16
ENDBRANCH  10  13
ENDBRANCH   5   7
ENDBRANCH   3   5
TORSDOF 6
ENDMDL
MODEL       54
REMARK 921   NORMALIZED FREE ENERGY PREDICTED BY IDOCK:   -5.31 KCAL/MOL
REMARK 922        TOTAL FREE ENERGY PREDICTED BY IDOCK:   -7.97 KCAL/MOL
REMARK 923 INTER-LIGAND FREE ENERGY PREDICTED BY IDOCK:   -7.22 KCAL/MOL
REMARK 924 INTRA-LIGAND FREE ENERGY PREDICTED BY IDOCK:   -0.75 KCAL/MOL
REMARK 927      BINDING AFFINITY PREDICTED BY RF-SCORE:    0.00 PKD
ROOT
HETATM    1  O   UNL     1     -10.887  14.102  64.491  1.00  0.00    -0.394 OA 
HETATM    2  S   UNL     1     -12.090  13.990  65.552  1.00  0.00    -0.433 S  
HETATM    3  C   UNL     1     -11.069  13.140  66.824  1.00  0.00    -0.289 C  
HETATM    4  O   UNL     1     -13.037  12.991  64.959  1.00  0.00    -0.761 OA 
ENDROOT
BRANCH   3   5
HETATM    5  N   UNL     1     -11.923  12.879  67.983  1.00  0.00    -0.328 NA 
HETATM    6  H   UNL     1     -12.784  13.403  68.140  1.00  0.00     0.000 HD 
BRANCH   5   7
HETATM    7  C   UNL     1     -11.500  11.875  68.867  1.00  0.00    -0.301 A  
HETATM    8  C   UNL     1     -10.265  11.223  68.746  1.00  0.00    -0.215 A  
HETATM    9  C   UNL     1      -9.885  10.217  69.638  1.00  0.00    -0.254 A  
HETATM   10  C   UNL     1     -10.738   9.861  70.683  1.00  0.00    -0.303 A  
HETATM   11  C   UNL     1     -11.909  10.585  70.905  1.00  0.00    -0.455 A  
HETATM   12  C   UNL     1     -12.275  11.594  70.005  1.00  0.00    -0.338 A  
BRANCH  10  13
HETATM   13  S   UNL     1     -10.289   8.517  71.762  1.00  0.00    -0.312 S  
HETATM   14  O   UNL     1      -8.977   8.815  72.308  1.00  0.00    -0.360 OA 
HETATM   15  O   UNL     1     -11.420   8.288  72.646  1.00  0.00    -0.395 OA 
BRANCH  13  16
HETATM   16  C   UNL     1     -10.091   7.056  70.755  1.00  0.00    -0.194 A  
HETATM   17  C   UNL     1     -11.087   6.713  69.839  1.00  0.00    -0.403 A  
HETATM   18  C   UNL     1     -10.908   5.609  68.995  1.00  0.00    -0.251 A  
HETATM   19  C   UNL     1      -9.718   4.863  69.011  1.00  0.00    -0.175 A  
HETATM   20  C   UNL     1      -8.933   6.285  70.846  1.00  0.00    -0.147 A  
HETATM   21  C   UNL     1      -8.761   5.188  69.988  1.00  0.00    -0.123 A  
BRANCH  19  22
HETATM   22  N   UNL     1      -9.502   3.736  68.179  1.00  0.00    -0.172 NA 
HETATM   23  H   UNL     1     -10.024   2.866  68.285  1.00  0.00     0.000 HD 
BRANCH  22  24
HETATM   24  C   UNL     1      -8.465   3.919  67.148  1.00  0.00    -0.100 C  
HETATM   25  S   UNL     1      -9.205   3.454  65.525  1.00  0.00    -0.148 S  
HETATM   26  O   UNL     1      -8.288   3.957  64.451  1.00  0.00    -0.092 OA 
HETATM   27  O   UNL     1     -10.421   4.506  65.642  1.00  0.00    -0.280 OA 
ENDBRANCH  22  24
ENDBRANCH  19  22
ENDBRANCH  13  16
ENDBRANCH  10  13
ENDBRANCH   5   7
ENDBRANCH   3   5
TORSDOF 6
ENDMDL
MODEL       55
REMARK 921   NORMALIZED FREE ENERGY PREDICTED BY IDOCK:   -5.31 KCAL/MOL
REMARK 922        TOTAL FREE ENERGY PREDICTED BY IDOCK:   -7.97 KCAL/MOL
REMARK 923 INTER-LIGAND FREE ENERGY PREDICTED BY IDOCK:   -7.19 KCAL/MOL
REMARK 924 INTRA-LIGAND FREE ENERGY PREDICTED BY IDOCK:   -0.78 KCAL/MOL
REMARK 927      BINDING AFFINITY PREDICTED BY RF-SCORE:    0.00 PKD
ROOT
HETATM    1  O   UNL     1      -9.624   3.265  64.414  1.00  0.00    -0.141 OA 
HETATM    2  S   UNL     1      -8.566   4.001  65.375  1.00  0.00    -0.116 S  
HETATM    3  C   UNL     1      -9.410   3.486  66.925  1.00  0.00    -0.188 C  
HETATM    4  O   UNL     1      -8.808   5.465  65.167  1.00  0.00    -0.156 OA 
ENDROOT
BRANCH   3   5
HETATM    5  N   UNL     1      -8.653   4.032  68.051  1.00  0.00    -0.094 NA 
HETATM    6  H   UNL     1      -7.776   3.611  68.359  1.00  0.00     0.000 HD 
BRANCH   5   7
HETATM    7  C   UNL     1      -9.189   5.163  68.687  1.00  0.00    -0.119 A  
HETATM    8  C   UNL     1      -8.394   6.181  69.228  1.00  0.00    -0.116 A  
HETATM    9  C   UNL     1      -8.964   7.286  69.868  1.00  0.00    -0.142 A  
HETATM   10  C   UNL     1     -10.352   7.392  69.955  1.00  0.00    -0.218 A  
HETATM   11  C   UNL     1     -11.166   6.463  69.308  1.00  0.00    -0.440 A  
HETATM   12  C   UNL     1     -10.579   5.363  68.667  1.00  0.00    -0.167 A  
BRANCH  10  13
HETATM   13  S   UNL     1     -11.072   8.755  70.848  1.00  0.00    -0.282 S  
HETATM   14  O   UNL     1     -12.427   8.376  71.205  1.00  0.00    -0.302 OA 
HETATM   15  O   UNL     1     -10.118   9.137  71.877  1.00  0.00    -0.322 OA 
BRANCH  13  16
HETATM   16  C   UNL     1     -11.219  10.128  69.715  1.00  0.00    -0.272 A  
HETATM   17  C   UNL     1     -10.809   9.973  68.391  1.00  0.00    -0.277 A  
HETATM   18  C   UNL     1     -10.986  11.021  67.478  1.00  0.00    -0.338 A  
HETATM   19  C   UNL     1     -11.618  12.217  67.854  1.00  0.00    -0.347 A  
HETATM   20  C   UNL     1     -11.779  11.335  70.134  1.00  0.00    -0.429 A  
HETATM   21  C   UNL     1     -11.960  12.373  69.209  1.00  0.00    -0.308 A  
BRANCH  19  22
HETATM   22  N   UNL     1     -11.809  13.303  66.963  1.00  0.00    -0.385 NA 
HETATM   23  H   UNL     1     -11.560  14.262  67.204  1.00  0.00     0.000 HD 
BRANCH  22  24
HETATM   24  C   UNL     1     -12.397  12.938  65.661  1.00  0.00    -0.423 C  
HETATM   25  S   UNL     1     -12.169  14.372  64.526  1.00  0.00    -0.421 S  
HETATM   26  O   UNL     1     -12.445  13.893  63.133  1.00  0.00    -0.766 OA 
HETATM   27  O   UNL     1     -10.568  14.414  64.706  1.00  0.00    -0.421 OA 
ENDBRANCH  22  24
ENDBRANCH  19  22
ENDBRANCH  13  16
ENDBRANCH  10  13
ENDBRANCH   5   7
ENDBRANCH   3   5
TORSDOF 6
ENDMDL
MODEL       56
REMARK 921   NORMALIZED FREE ENERGY PREDICTED BY IDOCK:   -5.29 KCAL/MOL
REMARK 922        TOTAL FREE ENERGY PREDICTED BY IDOCK:   -7.95 KCAL/MOL
REMARK 923 INTER-LIGAND FREE ENERGY PREDICTED BY IDOCK:   -7.29 KCAL/MOL
REMARK 924 INTRA-LIGAND FREE ENERGY PREDICTED BY IDOCK:   -0.66 KCAL/MOL
REMARK 927      BINDING AFFINITY PREDICTED BY RF-SCORE:    0.00 PKD
ROOT
HETATM    1  O   UNL     1     -12.630  13.840  63.518  1.00  0.00    -0.814 OA 
HETATM    2  S   UNL     1     -11.483  14.137  64.605  1.00  0.00    -0.381 S  
HETATM    3  C   UNL     1     -12.494  13.563  66.030  1.00  0.00    -0.399 C  
HETATM    4  O   UNL     1     -11.384  15.631  64.665  1.00  0.00    -0.431 OA 
ENDROOT
BRANCH   3   5
HETATM    5  N   UNL     1     -11.689  13.717  67.241  1.00  0.00    -0.360 NA 
HETATM    6  H   UNL     1     -11.212  14.592  67.457  1.00  0.00     0.000 HD 
BRANCH   5   7
HETATM    7  C   UNL     1     -11.606  12.604  68.093  1.00  0.00    -0.338 A  
HETATM    8  C   UNL     1     -11.981  12.648  69.442  1.00  0.00    -0.318 A  
HETATM    9  C   UNL     1     -11.870  11.522  70.264  1.00  0.00    -0.431 A  
HETATM   10  C   UNL     1     -11.396  10.323  69.731  1.00  0.00    -0.273 A  
HETATM   11  C   UNL     1     -11.146  10.218  68.363  1.00  0.00    -0.302 A  
HETATM   12  C   UNL     1     -11.265  11.354  67.552  1.00  0.00    -0.356 A  
BRANCH  10  13
HETATM   13  S   UNL     1     -11.172   8.917  70.801  1.00  0.00    -0.281 S  
HETATM   14  O   UNL     1     -10.212   9.294  71.822  1.00  0.00    -0.311 OA 
HETATM   15  O   UNL     1     -12.499   8.453  71.173  1.00  0.00    -0.274 OA 
BRANCH  13  16
HETATM   16  C   UNL     1     -10.400   7.623  69.842  1.00  0.00    -0.225 A  
HETATM   17  C   UNL     1      -9.053   7.733  69.499  1.00  0.00    -0.146 A  
HETATM   18  C   UNL     1      -8.421   6.690  68.808  1.00  0.00    -0.123 A  
HETATM   19  C   UNL     1      -9.103   5.504  68.495  1.00  0.00    -0.114 A  
HETATM   20  C   UNL     1     -11.122   6.488  69.474  1.00  0.00    -0.425 A  
HETATM   21  C   UNL     1     -10.476   5.446  68.792  1.00  0.00    -0.219 A  
BRANCH  19  22
HETATM   22  N   UNL     1      -8.502   4.430  67.791  1.00  0.00    -0.098 NA 
HETATM   23  H   UNL     1      -7.503   4.228  67.845  1.00  0.00     0.000 HD 
BRANCH  22  24
HETATM   24  C   UNL     1      -9.431   3.627  66.977  1.00  0.00    -0.190 C  
HETATM   25  S   UNL     1      -9.583   4.446  65.333  1.00  0.00    -0.194 S  
HETATM   26  O   UNL     1     -10.238   3.472  64.402  1.00  0.00    -0.191 OA 
HETATM   27  O   UNL     1      -8.000   4.402  65.031  1.00  0.00    -0.094 OA 
ENDBRANCH  22  24
ENDBRANCH  19  22
ENDBRANCH  13  16
ENDBRANCH  10  13
ENDBRANCH   5   7
ENDBRANCH   3   5
TORSDOF 6
ENDMDL
MODEL       57
REMARK 921   NORMALIZED FREE ENERGY PREDICTED BY IDOCK:   -5.27 KCAL/MOL
REMARK 922        TOTAL FREE ENERGY PREDICTED BY IDOCK:   -7.92 KCAL/MOL
REMARK 923 INTER-LIGAND FREE ENERGY PREDICTED BY IDOCK:   -7.27 KCAL/MOL
REMARK 924 INTRA-LIGAND FREE ENERGY PREDICTED BY IDOCK:   -0.65 KCAL/MOL
REMARK 927      BINDING AFFINITY PREDICTED BY RF-SCORE:    0.00 PKD
ROOT
HETATM    1  O   UNL     1     -12.415  14.070  63.540  1.00  0.00    -0.826 OA 
HETATM    2  S   UNL     1     -12.823  13.861  65.081  1.00  0.00    -0.231 S  
HETATM    3  C   UNL     1     -11.366  14.775  65.732  1.00  0.00    -0.336 C  
HETATM    4  O   UNL     1     -12.620  12.399  65.340  1.00  0.00    -0.637 OA 
ENDROOT
BRANCH   3   5
HETATM    5  N   UNL     1     -11.445  14.762  67.192  1.00  0.00    -0.364 NA 
HETATM    6  H   UNL     1     -11.753  15.580  67.718  1.00  0.00     0.000 HD 
BRANCH   5   7
HETATM    7  C   UNL     1     -11.076  13.570  67.836  1.00  0.00    -0.265 A  
HETATM    8  C   UNL     1     -11.952  12.844  68.654  1.00  0.00    -0.282 A  
HETATM    9  C   UNL     1     -11.544  11.668  69.290  1.00  0.00    -0.385 A  
HETATM   10  C   UNL     1     -10.247  11.192  69.096  1.00  0.00    -0.141 A  
HETATM   11  C   UNL     1      -9.402  11.821  68.183  1.00  0.00    -0.190 A  
HETATM   12  C   UNL     1      -9.826  12.996  67.550  1.00  0.00    -0.209 A  
BRANCH  10  13
HETATM   13  S   UNL     1      -9.705   9.743  69.980  1.00  0.00    -0.234 S  
HETATM   14  O   UNL     1      -8.262   9.831  70.120  1.00  0.00    -0.176 OA 
HETATM   15  O   UNL     1     -10.553   9.622  71.154  1.00  0.00    -0.321 OA 
BRANCH  13  16
HETATM   16  C   UNL     1     -10.021   8.325  68.941  1.00  0.00    -0.186 A  
HETATM   17  C   UNL     1     -10.626   7.194  69.488  1.00  0.00    -0.247 A  
HETATM   18  C   UNL     1     -10.943   6.104  68.666  1.00  0.00    -0.415 A  
HETATM   19  C   UNL     1     -10.710   6.143  67.282  1.00  0.00    -0.335 A  
HETATM   20  C   UNL     1      -9.708   8.359  67.582  1.00  0.00    -0.201 A  
HETATM   21  C   UNL     1     -10.038   7.266  66.767  1.00  0.00    -0.291 A  
BRANCH  19  22
HETATM   22  N   UNL     1     -11.008   5.060  66.417  1.00  0.00    -0.474 NA 
HETATM   23  H   UNL     1     -11.902   4.568  66.441  1.00  0.00     0.000 HD 
BRANCH  22  24
HETATM   24  C   UNL     1      -9.929   4.700  65.482  1.00  0.00    -0.183 C  
HETATM   25  S   UNL     1      -8.533   4.022  66.476  1.00  0.00    -0.106 S  
HETATM   26  O   UNL     1      -7.590   3.346  65.527  1.00  0.00    -0.076 OA 
HETATM   27  O   UNL     1      -9.424   2.867  67.162  1.00  0.00    -0.161 OA 
ENDBRANCH  22  24
ENDBRANCH  19  22
ENDBRANCH  13  16
ENDBRANCH  10  13
ENDBRANCH   5   7
ENDBRANCH   3   5
TORSDOF 6
ENDMDL
MODEL       58
REMARK 921   NORMALIZED FREE ENERGY PREDICTED BY IDOCK:   -5.27 KCAL/MOL
REMARK 922        TOTAL FREE ENERGY PREDICTED BY IDOCK:   -7.92 KCAL/MOL
REMARK 923 INTER-LIGAND FREE ENERGY PREDICTED BY IDOCK:   -7.22 KCAL/MOL
REMARK 924 INTRA-LIGAND FREE ENERGY PREDICTED BY IDOCK:   -0.69 KCAL/MOL
REMARK 927      BINDING AFFINITY PREDICTED BY RF-SCORE:    0.00 PKD
ROOT
HETATM    1  O   UNL     1     -10.191   6.326  71.064  1.00  0.00    -0.185 OA 
HETATM    2  S   UNL     1     -11.664   6.886  70.745  1.00  0.00    -0.373 S  
HETATM    3  C   UNL     1     -11.175   8.651  70.898  1.00  0.00    -0.267 C  
HETATM    4  O   UNL     1     -12.486   6.515  71.942  1.00  0.00    -0.347 OA 
ENDROOT
BRANCH   3   5
HETATM    5  N   UNL     1     -12.363   9.469  70.654  1.00  0.00    -0.483 NA 
HETATM    6  H   UNL     1     -13.297   9.141  70.902  1.00  0.00     0.000 HD 
BRANCH   5   7
HETATM    7  C   UNL     1     -12.158  10.725  70.063  1.00  0.00    -0.345 A  
HETATM    8  C   UNL     1     -12.307  11.930  70.763  1.00  0.00    -0.416 A  
HETATM    9  C   UNL     1     -12.108  13.164  70.137  1.00  0.00    -0.392 A  
HETATM   10  C   UNL     1     -11.734  13.203  68.793  1.00  0.00    -0.324 A  
HETATM   11  C   UNL     1     -11.448  12.020  68.113  1.00  0.00    -0.383 A  
HETATM   12  C   UNL     1     -11.649  10.791  68.756  1.00  0.00    -0.350 A  
BRANCH  10  13
HETATM   13  S   UNL     1     -11.569  14.777  67.976  1.00  0.00    -0.337 S  
HETATM   14  O   UNL     1     -11.919  14.584  66.580  1.00  0.00    -0.393 OA 
HETATM   15  O   UNL     1     -12.282  15.751  68.787  1.00  0.00    -0.214 OA 
BRANCH  13  16
HETATM   16  C   UNL     1      -9.839  15.222  68.001  1.00  0.00    -0.216 A  
HETATM   17  C   UNL     1      -9.225  15.656  66.826  1.00  0.00    -0.275 A  
HETATM   18  C   UNL     1      -7.888  16.074  66.851  1.00  0.00    -0.284 A  
HETATM   19  C   UNL     1      -7.159  16.117  68.051  1.00  0.00    -0.131 A  
HETATM   20  C   UNL     1      -9.115  15.181  69.192  1.00  0.00    -0.215 A  
HETATM   21  C   UNL     1      -7.779  15.612  69.207  1.00  0.00    -0.223 A  
BRANCH  19  22
HETATM   22  N   UNL     1      -5.803  16.527  68.117  1.00  0.00    -0.115 NA 
HETATM   23  H   UNL     1      -5.048  15.889  68.369  1.00  0.00     0.000 HD 
BRANCH  22  24
HETATM   24  C   UNL     1      -5.570  17.945  67.793  1.00  0.00    -0.144 C  
HETATM   25  S   UNL     1      -6.443  18.958  69.060  1.00  0.00    -0.284 S  
HETATM   26  O   UNL     1      -5.936  20.363  68.943  1.00  0.00    -0.287 OA 
HETATM   27  O   UNL     1      -5.678  18.278  70.305  1.00  0.00    -0.241 OA 
ENDBRANCH  22  24
ENDBRANCH  19  22
ENDBRANCH  13  16
ENDBRANCH  10  13
ENDBRANCH   5   7
ENDBRANCH   3   5
TORSDOF 6
ENDMDL
MODEL       59
REMARK 921   NORMALIZED FREE ENERGY PREDICTED BY IDOCK:   -5.26 KCAL/MOL
REMARK 922        TOTAL FREE ENERGY PREDICTED BY IDOCK:   -7.90 KCAL/MOL
REMARK 923 INTER-LIGAND FREE ENERGY PREDICTED BY IDOCK:   -7.16 KCAL/MOL
REMARK 924 INTRA-LIGAND FREE ENERGY PREDICTED BY IDOCK:   -0.75 KCAL/MOL
REMARK 927      BINDING AFFINITY PREDICTED BY RF-SCORE:    0.00 PKD
ROOT
HETATM    1  O   UNL     1      -5.468   8.822  62.546  1.00  0.00    -0.074 OA 
HETATM    2  S   UNL     1      -6.892   8.259  63.038  1.00  0.00    -0.087 S  
HETATM    3  C   UNL     1      -7.844   9.669  62.341  1.00  0.00    -0.115 C  
HETATM    4  O   UNL     1      -6.866   8.394  64.530  1.00  0.00    -0.068 OA 
ENDROOT
BRANCH   3   5
HETATM    5  N   UNL     1      -9.258   9.447  62.641  1.00  0.00    -0.537 NA 
HETATM    6  H   UNL     1      -9.765   8.648  62.261  1.00  0.00     0.000 HD 
BRANCH   5   7
HETATM    7  C   UNL     1      -9.883  10.386  63.477  1.00  0.00    -0.205 A  
HETATM    8  C   UNL     1      -9.841  10.307  64.876  1.00  0.00    -0.404 A  
HETATM    9  C   UNL     1     -10.489  11.253  65.676  1.00  0.00    -0.317 A  
HETATM   10  C   UNL     1     -11.176  12.308  65.077  1.00  0.00    -0.321 A  
HETATM   11  C   UNL     1     -11.120  12.484  63.695  1.00  0.00    -0.523 A  
HETATM   12  C   UNL     1     -10.463  11.531  62.907  1.00  0.00    -0.114 A  
BRANCH  10  13
HETATM   13  S   UNL     1     -12.074  13.459  66.099  1.00  0.00    -0.424 S  
HETATM   14  O   UNL     1     -13.127  14.037  65.283  1.00  0.00    -0.782 OA 
HETATM   15  O   UNL     1     -12.396  12.765  67.335  1.00  0.00    -0.304 OA 
BRANCH  13  16
HETATM   16  C   UNL     1     -10.966  14.799  66.508  1.00  0.00    -0.325 A  
HETATM   17  C   UNL     1      -9.893  15.086  65.664  1.00  0.00    -0.380 A  
HETATM   18  C   UNL     1      -9.062  16.179  65.939  1.00  0.00    -0.268 A  
HETATM   19  C   UNL     1      -9.314  17.033  67.025  1.00  0.00    -0.241 A  
HETATM   20  C   UNL     1     -11.193  15.585  67.638  1.00  0.00    -0.291 A  
HETATM   21  C   UNL     1     -10.359  16.683  67.898  1.00  0.00    -0.310 A  
BRANCH  19  22
HETATM   22  N   UNL     1      -8.492  18.144  67.342  1.00  0.00    -0.238 NA 
HETATM   23  H   UNL     1      -8.305  18.896  66.678  1.00  0.00     0.000 HD 
BRANCH  22  24
HETATM   24  C   UNL     1      -7.928  18.128  68.703  1.00  0.00    -0.288 C  
HETATM   25  S   UNL     1      -6.788  16.686  68.818  1.00  0.00    -0.192 S  
HETATM   26  O   UNL     1      -5.963  16.859  70.057  1.00  0.00    -0.227 OA 
HETATM   27  O   UNL     1      -5.877  17.153  67.573  1.00  0.00    -0.119 OA 
ENDBRANCH  22  24
ENDBRANCH  19  22
ENDBRANCH  13  16
ENDBRANCH  10  13
ENDBRANCH   5   7
ENDBRANCH   3   5
TORSDOF 6
ENDMDL
MODEL       60
REMARK 921   NORMALIZED FREE ENERGY PREDICTED BY IDOCK:   -5.25 KCAL/MOL
REMARK 922        TOTAL FREE ENERGY PREDICTED BY IDOCK:   -7.89 KCAL/MOL
REMARK 923 INTER-LIGAND FREE ENERGY PREDICTED BY IDOCK:   -7.32 KCAL/MOL
REMARK 924 INTRA-LIGAND FREE ENERGY PREDICTED BY IDOCK:   -0.57 KCAL/MOL
REMARK 927      BINDING AFFINITY PREDICTED BY RF-SCORE:    0.00 PKD
ROOT
HETATM    1  O   UNL     1     -11.520  16.469  64.343  1.00  0.00    -0.873 OA 
HETATM    2  S   UNL     1     -10.375  15.932  65.335  1.00  0.00    -0.325 S  
HETATM    3  C   UNL     1     -11.066  14.231  65.433  1.00  0.00    -0.327 C  
HETATM    4  O   UNL     1     -10.636  16.626  66.638  1.00  0.00    -0.286 OA 
ENDROOT
BRANCH   3   5
HETATM    5  N   UNL     1     -10.204  13.447  66.317  1.00  0.00    -0.291 NA 
HETATM    6  H   UNL     1      -9.203  13.357  66.143  1.00  0.00     0.000 HD 
BRANCH   5   7
HETATM    7  C   UNL     1     -10.820  12.825  67.414  1.00  0.00    -0.240 A  
HETATM    8  C   UNL     1     -11.296  13.536  68.524  1.00  0.00    -0.327 A  
HETATM    9  C   UNL     1     -11.891  12.880  69.606  1.00  0.00    -0.387 A  
HETATM   10  C   UNL     1     -12.034  11.493  69.578  1.00  0.00    -0.335 A  
HETATM   11  C   UNL     1     -11.692  10.779  68.430  1.00  0.00    -0.232 A  
HETATM   12  C   UNL     1     -11.101  11.450  67.353  1.00  0.00    -0.349 A  
BRANCH  10  13
HETATM   13  S   UNL     1     -12.710  10.654  70.996  1.00  0.00    -0.432 S  
HETATM   14  O   UNL     1     -12.816  11.626  72.070  1.00  0.00    -0.335 OA 
HETATM   15  O   UNL     1     -13.885   9.930  70.539  1.00  0.00     0.073 OA 
BRANCH  13  16
HETATM   16  C   UNL     1     -11.511   9.444  71.534  1.00  0.00    -0.397 A  
HETATM   17  C   UNL     1     -10.197   9.526  71.069  1.00  0.00    -0.332 A  
HETATM   18  C   UNL     1      -9.233   8.625  71.540  1.00  0.00    -0.316 A  
HETATM   19  C   UNL     1      -9.547   7.665  72.516  1.00  0.00    -0.176 A  
HETATM   20  C   UNL     1     -11.867   8.451  72.446  1.00  0.00    -0.452 A  
HETATM   21  C   UNL     1     -10.890   7.561  72.918  1.00  0.00    -0.425 A  
BRANCH  19  22
HETATM   22  N   UNL     1      -8.602   6.732  73.013  1.00  0.00    -0.120 NA 
HETATM   23  H   UNL     1      -7.600   6.920  73.029  1.00  0.00     0.000 HD 
BRANCH  22  24
HETATM   24  C   UNL     1      -9.181   5.469  73.504  1.00  0.00    -0.130 C  
HETATM   25  S   UNL     1      -9.272   4.305  72.079  1.00  0.00    -0.129 S  
HETATM   26  O   UNL     1      -9.528   2.935  72.629  1.00  0.00    -0.097 OA 
HETATM   27  O   UNL     1      -7.697   4.397  71.749  1.00  0.00    -0.075 OA 
ENDBRANCH  22  24
ENDBRANCH  19  22
ENDBRANCH  13  16
ENDBRANCH  10  13
ENDBRANCH   5   7
ENDBRANCH   3   5
TORSDOF 6
ENDMDL
MODEL       61
REMARK 921   NORMALIZED FREE ENERGY PREDICTED BY IDOCK:   -5.25 KCAL/MOL
REMARK 922        TOTAL FREE ENERGY PREDICTED BY IDOCK:   -7.89 KCAL/MOL
REMARK 923 INTER-LIGAND FREE ENERGY PREDICTED BY IDOCK:   -7.16 KCAL/MOL
REMARK 924 INTRA-LIGAND FREE ENERGY PREDICTED BY IDOCK:   -0.72 KCAL/MOL
REMARK 927      BINDING AFFINITY PREDICTED BY RF-SCORE:    0.00 PKD
ROOT
HETATM    1  O   UNL     1     -10.367   6.256  71.205  1.00  0.00    -0.203 OA 
HETATM    2  S   UNL     1     -10.059   7.793  71.561  1.00  0.00    -0.180 S  
HETATM    3  C   UNL     1     -11.746   8.376  71.121  1.00  0.00    -0.280 C  
HETATM    4  O   UNL     1      -9.106   8.252  70.498  1.00  0.00    -0.143 OA 
ENDROOT
BRANCH   3   5
HETATM    5  N   UNL     1     -11.793   9.821  71.343  1.00  0.00    -0.389 NA 
HETATM    6  H   UNL     1     -11.877  10.215  72.280  1.00  0.00     0.000 HD 
BRANCH   5   7
HETATM    7  C   UNL     1     -11.718  10.639  70.205  1.00  0.00    -0.344 A  
HETATM    8  C   UNL     1     -11.437  10.141  68.926  1.00  0.00    -0.125 A  
HETATM    9  C   UNL     1     -11.355  10.990  67.818  1.00  0.00    -0.365 A  
HETATM   10  C   UNL     1     -11.576  12.358  67.979  1.00  0.00    -0.347 A  
HETATM   11  C   UNL     1     -11.990  12.858  69.213  1.00  0.00    -0.313 A  
HETATM   12  C   UNL     1     -12.071  11.995  70.313  1.00  0.00    -0.395 A  
BRANCH  10  13
HETATM   13  S   UNL     1     -11.383  13.446  66.581  1.00  0.00    -0.336 S  
HETATM   14  O   UNL     1     -10.617  12.733  65.575  1.00  0.00    -0.271 OA 
HETATM   15  O   UNL     1     -12.702  13.971  66.269  1.00  0.00    -0.414 OA 
BRANCH  13  16
HETATM   16  C   UNL     1     -10.368  14.821  67.102  1.00  0.00    -0.255 A  
HETATM   17  C   UNL     1     -10.966  15.924  67.713  1.00  0.00    -0.315 A  
HETATM   18  C   UNL     1     -10.170  16.975  68.188  1.00  0.00    -0.322 A  
HETATM   19  C   UNL     1      -8.769  16.922  68.110  1.00  0.00    -0.226 A  
HETATM   20  C   UNL     1      -8.983  14.779  66.941  1.00  0.00    -0.276 A  
HETATM   21  C   UNL     1      -8.196  15.833  67.430  1.00  0.00    -0.196 A  
BRANCH  19  22
HETATM   22  N   UNL     1      -7.930  17.967  68.572  1.00  0.00    -0.298 NA 
HETATM   23  H   UNL     1      -7.962  18.315  69.530  1.00  0.00     0.000 HD 
BRANCH  22  24
HETATM   24  C   UNL     1      -7.007  18.512  67.561  1.00  0.00    -0.205 C  
HETATM   25  S   UNL     1      -8.023  19.351  66.273  1.00  0.00    -0.319 S  
HETATM   26  O   UNL     1      -7.099  20.189  65.443  1.00  0.00    -0.311 OA 
HETATM   27  O   UNL     1      -8.749  20.340  67.319  1.00  0.00    -0.337 OA 
ENDBRANCH  22  24
ENDBRANCH  19  22
ENDBRANCH  13  16
ENDBRANCH  10  13
ENDBRANCH   5   7
ENDBRANCH   3   5
TORSDOF 6
ENDMDL
MODEL       62
REMARK 921   NORMALIZED FREE ENERGY PREDICTED BY IDOCK:   -5.21 KCAL/MOL
REMARK 922        TOTAL FREE ENERGY PREDICTED BY IDOCK:   -7.83 KCAL/MOL
REMARK 923 INTER-LIGAND FREE ENERGY PREDICTED BY IDOCK:   -7.02 KCAL/MOL
REMARK 924 INTRA-LIGAND FREE ENERGY PREDICTED BY IDOCK:   -0.81 KCAL/MOL
REMARK 927      BINDING AFFINITY PREDICTED BY RF-SCORE:    0.00 PKD
ROOT
HETATM    1  O   UNL     1      -9.163   2.181  65.543  1.00  0.00    -0.115 OA 
HETATM    2  S   UNL     1      -8.857   3.756  65.635  1.00  0.00    -0.129 S  
HETATM    3  C   UNL     1      -8.560   3.732  67.449  1.00  0.00    -0.103 C  
HETATM    4  O   UNL     1     -10.176   4.422  65.379  1.00  0.00    -0.232 OA 
ENDROOT
BRANCH   3   5
HETATM    5  N   UNL     1      -8.243   5.096  67.870  1.00  0.00    -0.098 NA 
HETATM    6  H   UNL     1      -7.421   5.587  67.516  1.00  0.00     0.000 HD 
BRANCH   5   7
HETATM    7  C   UNL     1      -9.123   5.698  68.783  1.00  0.00    -0.118 A  
HETATM    8  C   UNL     1     -10.517   5.617  68.664  1.00  0.00    -0.277 A  
HETATM    9  C   UNL     1     -11.362   6.242  69.586  1.00  0.00    -0.492 A  
HETATM   10  C   UNL     1     -10.813   6.947  70.657  1.00  0.00    -0.245 A  
HETATM   11  C   UNL     1      -9.436   6.929  70.873  1.00  0.00    -0.157 A  
HETATM   12  C   UNL     1      -8.602   6.294  69.943  1.00  0.00    -0.134 A  
BRANCH  10  13
HETATM   13  S   UNL     1     -11.892   7.816  71.777  1.00  0.00    -0.305 S  
HETATM   14  O   UNL     1     -13.214   7.229  71.654  1.00  0.00    -0.367 OA 
HETATM   15  O   UNL     1     -11.220   7.857  73.066  1.00  0.00    -0.411 OA 
BRANCH  13  16
HETATM   16  C   UNL     1     -12.036   9.499  71.194  1.00  0.00    -0.348 A  
HETATM   17  C   UNL     1     -12.939  10.365  71.812  1.00  0.00    -0.580 A  
HETATM   18  C   UNL     1     -13.008  11.705  71.409  1.00  0.00    -0.426 A  
HETATM   19  C   UNL     1     -12.146  12.216  70.425  1.00  0.00    -0.309 A  
HETATM   20  C   UNL     1     -11.222   9.962  70.161  1.00  0.00    -0.347 A  
HETATM   21  C   UNL     1     -11.293  11.309  69.773  1.00  0.00    -0.348 A  
BRANCH  19  22
HETATM   22  N   UNL     1     -12.189  13.563  69.984  1.00  0.00    -0.329 NA 
HETATM   23  H   UNL     1     -12.245  14.351  70.630  1.00  0.00     0.000 HD 
BRANCH  22  24
HETATM   24  C   UNL     1     -12.147  13.737  68.522  1.00  0.00    -0.292 C  
HETATM   25  S   UNL     1     -11.142  15.240  68.168  1.00  0.00    -0.321 S  
HETATM   26  O   UNL     1     -10.810  15.228  66.706  1.00  0.00    -0.308 OA 
HETATM   27  O   UNL     1      -9.842  14.704  68.955  1.00  0.00    -0.223 OA 
ENDBRANCH  22  24
ENDBRANCH  19  22
ENDBRANCH  13  16
ENDBRANCH  10  13
ENDBRANCH   5   7
ENDBRANCH   3   5
TORSDOF 6
ENDMDL
MODEL       63
REMARK 921   NORMALIZED FREE ENERGY PREDICTED BY IDOCK:   -5.20 KCAL/MOL
REMARK 922        TOTAL FREE ENERGY PREDICTED BY IDOCK:   -7.82 KCAL/MOL
REMARK 923 INTER-LIGAND FREE ENERGY PREDICTED BY IDOCK:   -7.28 KCAL/MOL
REMARK 924 INTRA-LIGAND FREE ENERGY PREDICTED BY IDOCK:   -0.54 KCAL/MOL
REMARK 927      BINDING AFFINITY PREDICTED BY RF-SCORE:    0.00 PKD
ROOT
HETATM    1  O   UNL     1      -6.524   7.057  64.063  1.00  0.00    -0.042 OA 
HETATM    2  S   UNL     1      -8.108   7.324  64.007  1.00  0.00     0.048 S  
HETATM    3  C   UNL     1      -7.940   8.977  63.219  1.00  0.00    -0.148 C  
HETATM    4  O   UNL     1      -8.518   7.519  65.436  1.00  0.00    -0.140 OA 
ENDROOT
BRANCH   3   5
HETATM    5  N   UNL     1      -9.284   9.521  63.027  1.00  0.00    -0.487 NA 
HETATM    6  H   UNL     1      -9.888   9.198  62.272  1.00  0.00     0.000 HD 
BRANCH   5   7
HETATM    7  C   UNL     1      -9.703  10.509  63.933  1.00  0.00    -0.325 A  
HETATM    8  C   UNL     1      -8.941  10.898  65.042  1.00  0.00    -0.184 A  
HETATM    9  C   UNL     1      -9.398  11.875  65.931  1.00  0.00    -0.193 A  
HETATM   10  C   UNL     1     -10.628  12.494  65.704  1.00  0.00    -0.269 A  
HETATM   11  C   UNL     1     -11.341  12.222  64.537  1.00  0.00    -0.385 A  
HETATM   12  C   UNL     1     -10.868  11.243  63.654  1.00  0.00    -0.410 A  
BRANCH  10  13
HETATM   13  S   UNL     1     -11.246  13.673  66.886  1.00  0.00    -0.322 S  
HETATM   14  O   UNL     1     -10.132  14.511  67.292  1.00  0.00    -0.244 OA 
HETATM   15  O   UNL     1     -12.441  14.266  66.308  1.00  0.00    -0.445 OA 
BRANCH  13  16
HETATM   16  C   UNL     1     -11.747  12.768  68.343  1.00  0.00    -0.339 A  
HETATM   17  C   UNL     1     -11.781  11.374  68.308  1.00  0.00    -0.359 A  
HETATM   18  C   UNL     1     -12.104  10.654  69.466  1.00  0.00    -0.285 A  
HETATM   19  C   UNL     1     -12.347  11.306  70.686  1.00  0.00    -0.383 A  
HETATM   20  C   UNL     1     -12.060  13.443  69.523  1.00  0.00    -0.334 A  
HETATM   21  C   UNL     1     -12.372  12.711  70.679  1.00  0.00    -0.375 A  
BRANCH  19  22
HETATM   22  N   UNL     1     -12.683  10.614  71.877  1.00  0.00    -0.376 NA 
HETATM   23  H   UNL     1     -12.361  10.915  72.797  1.00  0.00     0.000 HD 
BRANCH  22  24
HETATM   24  C   UNL     1     -13.535   9.428  71.683  1.00  0.00    -0.394 C  
HETATM   25  S   UNL     1     -12.430   7.956  71.594  1.00  0.00    -0.326 S  
HETATM   26  O   UNL     1     -13.288   6.737  71.743  1.00  0.00    -0.296 OA 
HETATM   27  O   UNL     1     -11.746   8.233  73.027  1.00  0.00    -0.265 OA 
ENDBRANCH  22  24
ENDBRANCH  19  22
ENDBRANCH  13  16
ENDBRANCH  10  13
ENDBRANCH   5   7
ENDBRANCH   3   5
TORSDOF 6
ENDMDL
MODEL       64
REMARK 921   NORMALIZED FREE ENERGY PREDICTED BY IDOCK:   -5.18 KCAL/MOL
REMARK 922        TOTAL FREE ENERGY PREDICTED BY IDOCK:   -7.79 KCAL/MOL
REMARK 923 INTER-LIGAND FREE ENERGY PREDICTED BY IDOCK:   -7.30 KCAL/MOL
REMARK 924 INTRA-LIGAND FREE ENERGY PREDICTED BY IDOCK:   -0.49 KCAL/MOL
REMARK 927      BINDING AFFINITY PREDICTED BY RF-SCORE:    0.00 PKD
ROOT
HETATM    1  O   UNL     1      -7.234  19.885  65.211  1.00  0.00    -0.348 OA 
HETATM    2  S   UNL     1      -6.796  19.465  66.700  1.00  0.00    -0.196 S  
HETATM    3  C   UNL     1      -7.548  17.791  66.597  1.00  0.00    -0.236 C  
HETATM    4  O   UNL     1      -7.642  20.310  67.605  1.00  0.00    -0.296 OA 
ENDROOT
BRANCH   3   5
HETATM    5  N   UNL     1      -7.312  17.114  67.872  1.00  0.00    -0.175 NA 
HETATM    6  H   UNL     1      -6.370  16.970  68.234  1.00  0.00     0.000 HD 
BRANCH   5   7
HETATM    7  C   UNL     1      -8.445  16.672  68.573  1.00  0.00    -0.233 A  
HETATM    8  C   UNL     1      -9.716  17.237  68.400  1.00  0.00    -0.293 A  
HETATM    9  C   UNL     1     -10.819  16.780  69.128  1.00  0.00    -0.287 A  
HETATM   10  C   UNL     1     -10.662  15.729  70.031  1.00  0.00    -0.341 A  
HETATM   11  C   UNL     1      -9.441  15.062  70.122  1.00  0.00     0.398 A  
HETATM   12  C   UNL     1      -8.346  15.529  69.383  1.00  0.00    -0.249 A  
BRANCH  10  13
HETATM   13  S   UNL     1     -12.050  15.210  71.020  1.00  0.00    -0.372 S  
HETATM   14  O   UNL     1     -11.694  15.412  72.413  1.00  0.00    -0.413 OA 
HETATM   15  O   UNL     1     -13.230  15.848  70.461  1.00  0.00    -0.384 OA 
BRANCH  13  16
HETATM   16  C   UNL     1     -12.240  13.447  70.804  1.00  0.00    -0.328 A  
HETATM   17  C   UNL     1     -11.673  12.826  69.691  1.00  0.00    -0.372 A  
HETATM   18  C   UNL     1     -11.756  11.434  69.550  1.00  0.00    -0.417 A  
HETATM   19  C   UNL     1     -12.358  10.636  70.537  1.00  0.00    -0.359 A  
HETATM   20  C   UNL     1     -12.912  12.685  71.761  1.00  0.00    -0.417 A  
HETATM   21  C   UNL     1     -12.980  11.291  71.614  1.00  0.00    -0.537 A  
BRANCH  19  22
HETATM   22  N   UNL     1     -12.468   9.226  70.428  1.00  0.00    -0.404 NA 
HETATM   23  H   UNL     1     -13.279   8.769  70.009  1.00  0.00     0.000 HD 
BRANCH  22  24
HETATM   24  C   UNL     1     -11.322   8.473  70.966  1.00  0.00    -0.271 C  
HETATM   25  S   UNL     1     -11.861   7.690  72.544  1.00  0.00    -0.213 S  
HETATM   26  O   UNL     1     -10.834   6.662  72.912  1.00  0.00    -0.238 OA 
HETATM   27  O   UNL     1     -13.098   6.905  71.872  1.00  0.00    -0.316 OA 
ENDBRANCH  22  24
ENDBRANCH  19  22
ENDBRANCH  13  16
ENDBRANCH  10  13
ENDBRANCH   5   7
ENDBRANCH   3   5
TORSDOF 6
ENDMDL
MODEL       65
REMARK 921   NORMALIZED FREE ENERGY PREDICTED BY IDOCK:   -5.17 KCAL/MOL
REMARK 922        TOTAL FREE ENERGY PREDICTED BY IDOCK:   -7.78 KCAL/MOL
REMARK 923 INTER-LIGAND FREE ENERGY PREDICTED BY IDOCK:   -7.01 KCAL/MOL
REMARK 924 INTRA-LIGAND FREE ENERGY PREDICTED BY IDOCK:   -0.78 KCAL/MOL
REMARK 927      BINDING AFFINITY PREDICTED BY RF-SCORE:    0.00 PKD
ROOT
HETATM    1  O   UNL     1     -10.006  14.514  66.244  1.00  0.00    -0.279 OA 
HETATM    2  S   UNL     1     -11.411  14.607  67.020  1.00  0.00    -0.361 S  
HETATM    3  C   UNL     1     -10.695  14.162  68.653  1.00  0.00    -0.254 C  
HETATM    4  O   UNL     1     -12.208  13.442  66.517  1.00  0.00    -0.399 OA 
ENDROOT
BRANCH   3   5
HETATM    5  N   UNL     1     -11.781  14.155  69.633  1.00  0.00    -0.297 NA 
HETATM    6  H   UNL     1     -12.255  15.014  69.911  1.00  0.00     0.000 HD 
BRANCH   5   7
HETATM    7  C   UNL     1     -12.140  12.909  70.171  1.00  0.00    -0.302 A  
HETATM    8  C   UNL     1     -11.709  11.691  69.627  1.00  0.00    -0.418 A  
HETATM    9  C   UNL     1     -12.100  10.469  70.182  1.00  0.00    -0.380 A  
HETATM   10  C   UNL     1     -12.920  10.455  71.311  1.00  0.00    -0.419 A  
HETATM   11  C   UNL     1     -13.251  11.650  71.949  1.00  0.00    -0.475 A  
HETATM   12  C   UNL     1     -12.849  12.866  71.383  1.00  0.00    -0.377 A  
BRANCH  10  13
HETATM   13  S   UNL     1     -13.488   8.896  71.960  1.00  0.00    -0.463 S  
HETATM   14  O   UNL     1     -13.941   9.129  73.320  1.00  0.00    -0.227 OA 
HETATM   15  O   UNL     1     -14.389   8.329  70.970  1.00  0.00    -0.202 OA 
BRANCH  13  16
HETATM   16  C   UNL     1     -12.074   7.812  72.082  1.00  0.00    -0.304 A  
HETATM   17  C   UNL     1     -12.076   6.599  71.393  1.00  0.00    -0.400 A  
HETATM   18  C   UNL     1     -10.943   5.776  71.426  1.00  0.00    -0.304 A  
HETATM   19  C   UNL     1      -9.775   6.168  72.099  1.00  0.00    -0.154 A  
HETATM   20  C   UNL     1     -10.954   8.190  72.823  1.00  0.00    -0.401 A  
HETATM   21  C   UNL     1      -9.822   7.361  72.840  1.00  0.00    -0.253 A  
BRANCH  19  22
HETATM   22  N   UNL     1      -8.612   5.360  72.162  1.00  0.00    -0.126 NA 
HETATM   23  H   UNL     1      -7.759   5.584  71.648  1.00  0.00     0.000 HD 
BRANCH  22  24
HETATM   24  C   UNL     1      -8.729   4.173  73.027  1.00  0.00    -0.099 C  
HETATM   25  S   UNL     1      -7.091   3.330  73.040  1.00  0.00    -0.046 S  
HETATM   26  O   UNL     1      -7.102   2.340  74.166  1.00  0.00    -0.027 OA 
HETATM   27  O   UNL     1      -6.291   4.629  73.558  1.00  0.00    -0.042 OA 
ENDBRANCH  22  24
ENDBRANCH  19  22
ENDBRANCH  13  16
ENDBRANCH  10  13
ENDBRANCH   5   7
ENDBRANCH   3   5
TORSDOF 6
ENDMDL
MODEL       66
REMARK 921   NORMALIZED FREE ENERGY PREDICTED BY IDOCK:   -5.12 KCAL/MOL
REMARK 922        TOTAL FREE ENERGY PREDICTED BY IDOCK:   -7.71 KCAL/MOL
REMARK 923 INTER-LIGAND FREE ENERGY PREDICTED BY IDOCK:   -6.93 KCAL/MOL
REMARK 924 INTRA-LIGAND FREE ENERGY PREDICTED BY IDOCK:   -0.78 KCAL/MOL
REMARK 927      BINDING AFFINITY PREDICTED BY RF-SCORE:    0.00 PKD
ROOT
HETATM    1  O   UNL     1      -5.245   5.960  72.319  1.00  0.00    -0.020 OA 
HETATM    2  S   UNL     1      -6.370   6.280  73.422  1.00  0.00    -0.065 S  
HETATM    3  C   UNL     1      -7.754   6.264  72.212  1.00  0.00    -0.103 C  
HETATM    4  O   UNL     1      -6.116   7.698  73.834  1.00  0.00    -0.070 OA 
ENDROOT
BRANCH   3   5
HETATM    5  N   UNL     1      -8.991   6.544  72.941  1.00  0.00    -0.130 NA 
HETATM    6  H   UNL     1      -9.241   6.028  73.785  1.00  0.00     0.000 HD 
BRANCH   5   7
HETATM    7  C   UNL     1      -9.816   7.555  72.425  1.00  0.00    -0.171 A  
HETATM    8  C   UNL     1     -11.153   7.720  72.813  1.00  0.00    -0.457 A  
HETATM    9  C   UNL     1     -11.949   8.730  72.266  1.00  0.00    -0.415 A  
HETATM   10  C   UNL     1     -11.403   9.607  71.328  1.00  0.00    -0.388 A  
HETATM   11  C   UNL     1     -10.043   9.549  71.027  1.00  0.00    -0.299 A  
HETATM   12  C   UNL     1      -9.257   8.533  71.586  1.00  0.00    -0.304 A  
BRANCH  10  13
HETATM   13  S   UNL     1     -12.445  10.835  70.567  1.00  0.00    -0.359 S  
HETATM   14  O   UNL     1     -13.637  10.160  70.087  1.00  0.00     0.193 OA 
HETATM   15  O   UNL     1     -12.551  11.940  71.506  1.00  0.00    -0.291 OA 
BRANCH  13  16
HETATM   16  C   UNL     1     -11.597  11.443  69.117  1.00  0.00    -0.314 A  
HETATM   17  C   UNL     1     -11.441  10.607  68.012  1.00  0.00    -0.289 A  
HETATM   18  C   UNL     1     -10.841  11.097  66.845  1.00  0.00    -0.333 A  
HETATM   19  C   UNL     1     -10.434  12.438  66.741  1.00  0.00    -0.221 A  
HETATM   20  C   UNL     1     -11.131  12.757  69.068  1.00  0.00    -0.285 A  
HETATM   21  C   UNL     1     -10.541  13.240  67.891  1.00  0.00    -0.246 A  
BRANCH  19  22
HETATM   22  N   UNL     1      -9.816  12.970  65.581  1.00  0.00    -0.425 NA 
HETATM   23  H   UNL     1      -8.893  13.404  65.600  1.00  0.00     0.000 HD 
BRANCH  22  24
HETATM   24  C   UNL     1     -10.611  12.847  64.346  1.00  0.00    -0.396 C  
HETATM   25  S   UNL     1     -12.043  13.998  64.488  1.00  0.00    -0.455 S  
HETATM   26  O   UNL     1     -12.650  14.134  63.125  1.00  0.00    -0.686 OA 
HETATM   27  O   UNL     1     -11.126  15.301  64.732  1.00  0.00    -0.407 OA 
ENDBRANCH  22  24
ENDBRANCH  19  22
ENDBRANCH  13  16
ENDBRANCH  10  13
ENDBRANCH   5   7
ENDBRANCH   3   5
TORSDOF 6
ENDMDL
MODEL       67
REMARK 921   NORMALIZED FREE ENERGY PREDICTED BY IDOCK:   -5.11 KCAL/MOL
REMARK 922        TOTAL FREE ENERGY PREDICTED BY IDOCK:   -7.70 KCAL/MOL
REMARK 923 INTER-LIGAND FREE ENERGY PREDICTED BY IDOCK:   -6.96 KCAL/MOL
REMARK 924 INTRA-LIGAND FREE ENERGY PREDICTED BY IDOCK:   -0.74 KCAL/MOL
REMARK 927      BINDING AFFINITY PREDICTED BY RF-SCORE:    0.00 PKD
ROOT
HETATM    1  O   UNL     1      -9.664   4.948  74.109  1.00  0.00    -0.129 OA 
HETATM    2  S   UNL     1     -10.870   5.263  73.094  1.00  0.00    -0.310 S  
HETATM    3  C   UNL     1      -9.890   4.867  71.590  1.00  0.00    -0.184 C  
HETATM    4  O   UNL     1     -11.055   6.749  73.162  1.00  0.00    -0.256 OA 
ENDROOT
BRANCH   3   5
HETATM    5  N   UNL     1     -10.751   5.070  70.426  1.00  0.00    -0.082 NA 
HETATM    6  H   UNL     1     -11.643   4.584  70.330  1.00  0.00     0.000 HD 
BRANCH   5   7
HETATM    7  C   UNL     1     -10.293   5.965  69.447  1.00  0.00    -0.247 A  
HETATM    8  C   UNL     1     -10.813   6.004  68.146  1.00  0.00    -0.365 A  
HETATM    9  C   UNL     1     -10.321   6.900  67.193  1.00  0.00    -0.339 A  
HETATM   10  C   UNL     1      -9.304   7.789  67.542  1.00  0.00    -0.139 A  
HETATM   11  C   UNL     1      -8.865   7.863  68.863  1.00  0.00    -0.142 A  
HETATM   12  C   UNL     1      -9.371   6.961  69.808  1.00  0.00    -0.146 A  
BRANCH  10  13
HETATM   13  S   UNL     1      -8.619   8.867  66.301  1.00  0.00    -0.140 S  
HETATM   14  O   UNL     1      -7.353   9.367  66.807  1.00  0.00    -0.085 OA 
HETATM   15  O   UNL     1      -8.676   8.148  65.038  1.00  0.00    -0.099 OA 
BRANCH  13  16
HETATM   16  C   UNL     1      -9.696  10.285  66.159  1.00  0.00    -0.211 A  
HETATM   17  C   UNL     1      -9.969  10.817  64.898  1.00  0.00    -0.374 A  
HETATM   18  C   UNL     1     -10.868  11.884  64.771  1.00  0.00    -0.359 A  
HETATM   19  C   UNL     1     -11.547  12.403  65.886  1.00  0.00    -0.396 A  
HETATM   20  C   UNL     1     -10.298  10.833  67.292  1.00  0.00    -0.262 A  
HETATM   21  C   UNL     1     -11.204  11.894  67.150  1.00  0.00    -0.377 A  
BRANCH  19  22
HETATM   22  N   UNL     1     -12.458  13.485  65.799  1.00  0.00    -0.468 NA 
HETATM   23  H   UNL     1     -13.434  13.363  65.526  1.00  0.00     0.000 HD 
BRANCH  22  24
HETATM   24  C   UNL     1     -11.888  14.802  66.136  1.00  0.00    -0.199 C  
HETATM   25  S   UNL     1     -11.081  15.464  64.617  1.00  0.00    -0.269 S  
HETATM   26  O   UNL     1     -10.808  16.919  64.849  1.00  0.00    -0.715 OA 
HETATM   27  O   UNL     1     -12.418  15.369  63.721  1.00  0.00    -0.663 OA 
ENDBRANCH  22  24
ENDBRANCH  19  22
ENDBRANCH  13  16
ENDBRANCH  10  13
ENDBRANCH   5   7
ENDBRANCH   3   5
TORSDOF 6
ENDMDL
MODEL       68
REMARK 921   NORMALIZED FREE ENERGY PREDICTED BY IDOCK:   -5.10 KCAL/MOL
REMARK 922        TOTAL FREE ENERGY PREDICTED BY IDOCK:   -7.69 KCAL/MOL
REMARK 923 INTER-LIGAND FREE ENERGY PREDICTED BY IDOCK:   -7.02 KCAL/MOL
REMARK 924 INTRA-LIGAND FREE ENERGY PREDICTED BY IDOCK:   -0.67 KCAL/MOL
REMARK 927      BINDING AFFINITY PREDICTED BY RF-SCORE:    0.00 PKD
ROOT
HETATM    1  O   UNL     1     -13.896  16.282  73.287  1.00  0.00    -0.537 OA 
HETATM    2  S   UNL     1     -12.687  15.784  72.353  1.00  0.00    -0.466 S  
HETATM    3  C   UNL     1     -13.656  14.418  71.594  1.00  0.00    -0.384 C  
HETATM    4  O   UNL     1     -11.688  15.188  73.298  1.00  0.00    -0.378 OA 
ENDROOT
BRANCH   3   5
HETATM    5  N   UNL     1     -12.786  13.726  70.643  1.00  0.00    -0.293 NA 
HETATM    6  H   UNL     1     -12.341  14.219  69.869  1.00  0.00     0.000 HD 
BRANCH   5   7
HETATM    7  C   UNL     1     -12.593  12.350  70.846  1.00  0.00    -0.246 A  
HETATM    8  C   UNL     1     -11.717  11.581  70.069  1.00  0.00    -0.414 A  
HETATM    9  C   UNL     1     -11.562  10.210  70.291  1.00  0.00    -0.379 A  
HETATM   10  C   UNL     1     -12.276   9.592  71.318  1.00  0.00    -0.363 A  
HETATM   11  C   UNL     1     -13.049  10.358  72.190  1.00  0.00    -0.427 A  
HETATM   12  C   UNL     1     -13.192  11.732  71.956  1.00  0.00    -0.460 A  
BRANCH  10  13
HETATM   13  S   UNL     1     -12.144   7.830  71.540  1.00  0.00    -0.319 S  
HETATM   14  O   UNL     1     -11.524   7.597  72.832  1.00  0.00    -0.354 OA 
HETATM   15  O   UNL     1     -13.448   7.265  71.235  1.00  0.00    -0.369 OA 
BRANCH  13  16
HETATM   16  C   UNL     1     -10.995   7.215  70.317  1.00  0.00    -0.263 A  
HETATM   17  C   UNL     1     -11.476   6.496  69.222  1.00  0.00    -0.307 A  
HETATM   18  C   UNL     1     -10.591   6.072  68.222  1.00  0.00    -0.325 A  
HETATM   19  C   UNL     1      -9.226   6.398  68.270  1.00  0.00    -0.112 A  
HETATM   20  C   UNL     1      -9.631   7.486  70.428  1.00  0.00    -0.168 A  
HETATM   21  C   UNL     1      -8.756   7.064  69.415  1.00  0.00    -0.133 A  
BRANCH  19  22
HETATM   22  N   UNL     1      -8.298   5.982  67.282  1.00  0.00    -0.106 NA 
HETATM   23  H   UNL     1      -8.494   6.043  66.283  1.00  0.00     0.000 HD 
BRANCH  22  24
HETATM   24  C   UNL     1      -7.028   5.454  67.812  1.00  0.00    -0.066 C  
HETATM   25  S   UNL     1      -7.249   3.646  68.091  1.00  0.00    -0.051 S  
HETATM   26  O   UNL     1      -5.889   3.051  68.295  1.00  0.00    -0.022 OA 
HETATM   27  O   UNL     1      -7.678   3.341  66.568  1.00  0.00    -0.076 OA 
ENDBRANCH  22  24
ENDBRANCH  19  22
ENDBRANCH  13  16
ENDBRANCH  10  13
ENDBRANCH   5   7
ENDBRANCH   3   5
TORSDOF 6
ENDMDL
MODEL       69
REMARK 921   NORMALIZED FREE ENERGY PREDICTED BY IDOCK:   -5.09 KCAL/MOL
REMARK 922        TOTAL FREE ENERGY PREDICTED BY IDOCK:   -7.67 KCAL/MOL
REMARK 923 INTER-LIGAND FREE ENERGY PREDICTED BY IDOCK:   -7.38 KCAL/MOL
REMARK 924 INTRA-LIGAND FREE ENERGY PREDICTED BY IDOCK:   -0.29 KCAL/MOL
REMARK 927      BINDING AFFINITY PREDICTED BY RF-SCORE:    0.00 PKD
ROOT
HETATM    1  O   UNL     1     -13.660  14.722  72.971  1.00  0.00    -0.526 OA 
HETATM    2  S   UNL     1     -12.765  15.717  72.080  1.00  0.00    -0.440 S  
HETATM    3  C   UNL     1     -12.580  14.527  70.691  1.00  0.00    -0.352 C  
HETATM    4  O   UNL     1     -11.455  15.812  72.802  1.00  0.00    -0.360 OA 
ENDROOT
BRANCH   3   5
HETATM    5  N   UNL     1     -11.765  15.166  69.659  1.00  0.00    -0.306 NA 
HETATM    6  H   UNL     1     -11.233  16.016  69.848  1.00  0.00     0.000 HD 
BRANCH   5   7
HETATM    7  C   UNL     1     -11.748  14.554  68.395  1.00  0.00    -0.333 A  
HETATM    8  C   UNL     1     -11.459  15.251  67.215  1.00  0.00    -0.227 A  
HETATM    9  C   UNL     1     -11.467  14.610  65.972  1.00  0.00    -0.332 A  
HETATM   10  C   UNL     1     -11.748  13.246  65.902  1.00  0.00    -0.365 A  
HETATM   11  C   UNL     1     -11.905  12.503  67.071  1.00  0.00    -0.394 A  
HETATM   12  C   UNL     1     -11.891  13.159  68.309  1.00  0.00    -0.384 A  
BRANCH  10  13
HETATM   13  S   UNL     1     -11.844  12.453  64.309  1.00  0.00    -0.424 S  
HETATM   14  O   UNL     1     -13.100  11.727  64.258  1.00  0.00    -0.449 OA 
HETATM   15  O   UNL     1     -11.538  13.467  63.313  1.00  0.00    -0.198 OA 
BRANCH  13  16
HETATM   16  C   UNL     1     -10.552  11.222  64.237  1.00  0.00    -0.358 A  
HETATM   17  C   UNL     1     -10.158  10.570  65.406  1.00  0.00    -0.358 A  
HETATM   18  C   UNL     1      -9.196   9.553  65.348  1.00  0.00    -0.306 A  
HETATM   19  C   UNL     1      -8.649   9.135  64.124  1.00  0.00    -0.170 A  
HETATM   20  C   UNL     1      -9.968  10.879  63.018  1.00  0.00    -0.317 A  
HETATM   21  C   UNL     1      -9.012   9.853  62.971  1.00  0.00    -0.273 A  
BRANCH  19  22
HETATM   22  N   UNL     1      -7.669   8.116  64.024  1.00  0.00    -0.130 NA 
HETATM   23  H   UNL     1      -6.865   8.063  64.650  1.00  0.00     0.000 HD 
BRANCH  22  24
HETATM   24  C   UNL     1      -7.901   7.139  62.946  1.00  0.00    -0.119 C  
HETATM   25  S   UNL     1      -7.597   5.459  63.641  1.00  0.00    -0.079 S  
HETATM   26  O   UNL     1      -8.155   4.462  62.671  1.00  0.00    -0.066 OA 
HETATM   27  O   UNL     1      -8.676   5.624  64.827  1.00  0.00    -0.110 OA 
ENDBRANCH  22  24
ENDBRANCH  19  22
ENDBRANCH  13  16
ENDBRANCH  10  13
ENDBRANCH   5   7
ENDBRANCH   3   5
TORSDOF 6
ENDMDL
MODEL       70
REMARK 921   NORMALIZED FREE ENERGY PREDICTED BY IDOCK:   -5.08 KCAL/MOL
REMARK 922        TOTAL FREE ENERGY PREDICTED BY IDOCK:   -7.65 KCAL/MOL
REMARK 923 INTER-LIGAND FREE ENERGY PREDICTED BY IDOCK:   -7.03 KCAL/MOL
REMARK 924 INTRA-LIGAND FREE ENERGY PREDICTED BY IDOCK:   -0.63 KCAL/MOL
REMARK 927      BINDING AFFINITY PREDICTED BY RF-SCORE:    0.00 PKD
ROOT
HETATM    1  O   UNL     1     -12.517   8.738  72.675  1.00  0.00    -0.361 OA 
HETATM    2  S   UNL     1     -11.124   8.035  72.289  1.00  0.00    -0.359 S  
HETATM    3  C   UNL     1     -11.920   6.554  71.545  1.00  0.00    -0.329 C  
HETATM    4  O   UNL     1     -10.514   7.638  73.600  1.00  0.00    -0.316 OA 
ENDROOT
BRANCH   3   5
HETATM    5  N   UNL     1     -10.860   5.663  71.074  1.00  0.00    -0.247 NA 
HETATM    6  H   UNL     1     -10.550   4.863  71.626  1.00  0.00     0.000 HD 
BRANCH   5   7
HETATM    7  C   UNL     1     -10.288   5.963  69.828  1.00  0.00    -0.243 A  
HETATM    8  C   UNL     1     -11.035   6.027  68.643  1.00  0.00    -0.361 A  
HETATM    9  C   UNL     1     -10.428   6.314  67.417  1.00  0.00    -0.308 A  
HETATM   10  C   UNL     1      -9.056   6.560  67.367  1.00  0.00    -0.112 A  
HETATM   11  C   UNL     1      -8.316   6.635  68.547  1.00  0.00    -0.122 A  
HETATM   12  C   UNL     1      -8.939   6.350  69.768  1.00  0.00    -0.141 A  
BRANCH  10  13
HETATM   13  S   UNL     1      -8.272   6.836  65.791  1.00  0.00    -0.139 S  
HETATM   14  O   UNL     1      -6.839   6.877  66.017  1.00  0.00    -0.057 OA 
HETATM   15  O   UNL     1      -8.845   5.877  64.860  1.00  0.00    -0.041 OA 
BRANCH  13  16
HETATM   16  C   UNL     1      -8.738   8.468  65.233  1.00  0.00    -0.140 A  
HETATM   17  C   UNL     1      -8.442   8.858  63.926  1.00  0.00    -0.147 A  
HETATM   18  C   UNL     1      -8.866  10.109  63.458  1.00  0.00    -0.242 A  
HETATM   19  C   UNL     1      -9.632  10.967  64.263  1.00  0.00    -0.262 A  
HETATM   20  C   UNL     1      -9.430   9.335  66.079  1.00  0.00    -0.311 A  
HETATM   21  C   UNL     1      -9.858  10.581  65.595  1.00  0.00    -0.311 A  
BRANCH  19  22
HETATM   22  N   UNL     1     -10.074  12.243  63.829  1.00  0.00    -0.527 NA 
HETATM   23  H   UNL     1      -9.434  12.956  63.479  1.00  0.00     0.000 HD 
BRANCH  22  24
HETATM   24  C   UNL     1     -11.528  12.458  63.922  1.00  0.00    -0.436 C  
HETATM   25  S   UNL     1     -11.831  13.627  65.314  1.00  0.00    -0.370 S  
HETATM   26  O   UNL     1     -13.244  14.112  65.198  1.00  0.00    -0.743 OA 
HETATM   27  O   UNL     1     -10.881  14.781  64.711  1.00  0.00    -0.399 OA 
ENDBRANCH  22  24
ENDBRANCH  19  22
ENDBRANCH  13  16
ENDBRANCH  10  13
ENDBRANCH   5   7
ENDBRANCH   3   5
TORSDOF 6
ENDMDL
MODEL       71
REMARK 921   NORMALIZED FREE ENERGY PREDICTED BY IDOCK:   -5.05 KCAL/MOL
REMARK 922        TOTAL FREE ENERGY PREDICTED BY IDOCK:   -7.62 KCAL/MOL
REMARK 923 INTER-LIGAND FREE ENERGY PREDICTED BY IDOCK:   -6.95 KCAL/MOL
REMARK 924 INTRA-LIGAND FREE ENERGY PREDICTED BY IDOCK:   -0.67 KCAL/MOL
REMARK 927      BINDING AFFINITY PREDICTED BY RF-SCORE:    0.00 PKD
ROOT
HETATM    1  O   UNL     1      -7.882   3.124  65.147  1.00  0.00    -0.080 OA 
HETATM    2  S   UNL     1      -9.086   3.239  66.206  1.00  0.00    -0.147 S  
HETATM    3  C   UNL     1      -9.776   4.773  65.464  1.00  0.00    -0.152 C  
HETATM    4  O   UNL     1      -8.426   3.595  67.504  1.00  0.00    -0.093 OA 
ENDROOT
BRANCH   3   5
HETATM    5  N   UNL     1     -10.948   5.162  66.247  1.00  0.00    -0.646 NA 
HETATM    6  H   UNL     1     -11.836   4.669  66.160  1.00  0.00     0.000 HD 
BRANCH   5   7
HETATM    7  C   UNL     1     -10.792   6.248  67.123  1.00  0.00    -0.381 A  
HETATM    8  C   UNL     1     -10.817   6.111  68.517  1.00  0.00    -0.389 A  
HETATM    9  C   UNL     1     -10.672   7.218  69.359  1.00  0.00    -0.236 A  
HETATM   10  C   UNL     1     -10.481   8.484  68.806  1.00  0.00    -0.184 A  
HETATM   11  C   UNL     1     -10.317   8.628  67.428  1.00  0.00    -0.353 A  
HETATM   12  C   UNL     1     -10.460   7.508  66.599  1.00  0.00    -0.201 A  
BRANCH  10  13
HETATM   13  S   UNL     1     -10.387   9.903  69.879  1.00  0.00    -0.272 S  
HETATM   14  O   UNL     1     -11.552   9.873  70.745  1.00  0.00    -0.295 OA 
HETATM   15  O   UNL     1      -9.048   9.919  70.444  1.00  0.00    -0.170 OA 
BRANCH  13  16
HETATM   16  C   UNL     1     -10.557  11.363  68.863  1.00  0.00    -0.202 A  
HETATM   17  C   UNL     1      -9.471  11.805  68.107  1.00  0.00    -0.193 A  
HETATM   18  C   UNL     1      -9.616  12.906  67.254  1.00  0.00    -0.220 A  
HETATM   19  C   UNL     1     -10.853  13.552  67.100  1.00  0.00    -0.284 A  
HETATM   20  C   UNL     1     -11.777  12.035  68.788  1.00  0.00    -0.377 A  
HETATM   21  C   UNL     1     -11.913  13.131  67.922  1.00  0.00    -0.347 A  
BRANCH  19  22
HETATM   22  N   UNL     1     -11.039  14.673  66.252  1.00  0.00    -0.331 NA 
HETATM   23  H   UNL     1     -11.943  14.910  65.844  1.00  0.00     0.000 HD 
BRANCH  22  24
HETATM   24  C   UNL     1      -9.824  15.471  66.007  1.00  0.00    -0.335 C  
HETATM   25  S   UNL     1     -10.271  17.246  66.218  1.00  0.00    -0.314 S  
HETATM   26  O   UNL     1      -8.994  18.025  66.311  1.00  0.00    -0.404 OA 
HETATM   27  O   UNL     1     -10.820  17.053  67.721  1.00  0.00    -0.340 OA 
ENDBRANCH  22  24
ENDBRANCH  19  22
ENDBRANCH  13  16
ENDBRANCH  10  13
ENDBRANCH   5   7
ENDBRANCH   3   5
TORSDOF 6
ENDMDL
MODEL       72
REMARK 921   NORMALIZED FREE ENERGY PREDICTED BY IDOCK:   -5.00 KCAL/MOL
REMARK 922        TOTAL FREE ENERGY PREDICTED BY IDOCK:   -7.55 KCAL/MOL
REMARK 923 INTER-LIGAND FREE ENERGY PREDICTED BY IDOCK:   -7.08 KCAL/MOL
REMARK 924 INTRA-LIGAND FREE ENERGY PREDICTED BY IDOCK:   -0.47 KCAL/MOL
REMARK 927      BINDING AFFINITY PREDICTED BY RF-SCORE:    0.00 PKD
ROOT
HETATM    1  O   UNL     1      -5.313  10.013  67.219  1.00  0.00    -0.041 OA 
HETATM    2  S   UNL     1      -6.047  11.187  66.403  1.00  0.00    -0.112 S  
HETATM    3  C   UNL     1      -5.707  12.470  67.675  1.00  0.00    -0.131 C  
HETATM    4  O   UNL     1      -7.505  10.841  66.455  1.00  0.00    -0.131 OA 
ENDROOT
BRANCH   3   5
HETATM    5  N   UNL     1      -6.285  13.730  67.207  1.00  0.00    -0.412 NA 
HETATM    6  H   UNL     1      -5.821  14.299  66.499  1.00  0.00     0.000 HD 
BRANCH   5   7
HETATM    7  C   UNL     1      -7.507  14.117  67.779  1.00  0.00    -0.165 A  
HETATM    8  C   UNL     1      -7.599  14.742  69.030  1.00  0.00    -0.141 A  
HETATM    9  C   UNL     1      -8.836  15.101  69.574  1.00  0.00    -0.125 A  
HETATM   10  C   UNL     1     -10.004  14.851  68.854  1.00  0.00    -0.233 A  
HETATM   11  C   UNL     1      -9.931  14.356  67.553  1.00  0.00    -0.224 A  
HETATM   12  C   UNL     1      -8.683  14.005  67.020  1.00  0.00    -0.220 A  
BRANCH  10  13
HETATM   13  S   UNL     1     -11.583  15.228  69.589  1.00  0.00    -0.347 S  
HETATM   14  O   UNL     1     -11.351  16.190  70.651  1.00  0.00    -0.375 OA 
HETATM   15  O   UNL     1     -12.494  15.537  68.499  1.00  0.00     0.149 OA 
BRANCH  13  16
HETATM   16  C   UNL     1     -12.179  13.742  70.382  1.00  0.00    -0.363 A  
HETATM   17  C   UNL     1     -11.839  12.497  69.852  1.00  0.00    -0.373 A  
HETATM   18  C   UNL     1     -12.242  11.326  70.508  1.00  0.00    -0.474 A  
HETATM   19  C   UNL     1     -12.944  11.375  71.723  1.00  0.00    -0.414 A  
HETATM   20  C   UNL     1     -12.942  13.819  71.547  1.00  0.00    -0.444 A  
HETATM   21  C   UNL     1     -13.332  12.639  72.199  1.00  0.00    -0.570 A  
BRANCH  19  22
HETATM   22  N   UNL     1     -13.376  10.214  72.413  1.00  0.00    -0.587 NA 
HETATM   23  H   UNL     1     -13.522  10.197  73.422  1.00  0.00     0.000 HD 
BRANCH  22  24
HETATM   24  C   UNL     1     -13.600   9.035  71.558  1.00  0.00    -0.340 C  
HETATM   25  S   UNL     1     -11.986   8.163  71.378  1.00  0.00    -0.303 S  
HETATM   26  O   UNL     1     -12.268   6.805  70.811  1.00  0.00    -0.390 OA 
HETATM   27  O   UNL     1     -11.771   7.981  72.965  1.00  0.00    -0.309 OA 
ENDBRANCH  22  24
ENDBRANCH  19  22
ENDBRANCH  13  16
ENDBRANCH  10  13
ENDBRANCH   5   7
ENDBRANCH   3   5
TORSDOF 6
ENDMDL
MODEL       73
REMARK 921   NORMALIZED FREE ENERGY PREDICTED BY IDOCK:   -5.00 KCAL/MOL
REMARK 922        TOTAL FREE ENERGY PREDICTED BY IDOCK:   -7.55 KCAL/MOL
REMARK 923 INTER-LIGAND FREE ENERGY PREDICTED BY IDOCK:   -6.91 KCAL/MOL
REMARK 924 INTRA-LIGAND FREE ENERGY PREDICTED BY IDOCK:   -0.64 KCAL/MOL
REMARK 927      BINDING AFFINITY PREDICTED BY RF-SCORE:    0.00 PKD
ROOT
HETATM    1  O   UNL     1      -8.593   4.817  74.556  1.00  0.00    -0.105 OA 
HETATM    2  S   UNL     1      -9.624   5.013  73.338  1.00  0.00    -0.137 S  
HETATM    3  C   UNL     1     -10.349   6.559  74.021  1.00  0.00    -0.340 C  
HETATM    4  O   UNL     1     -10.625   3.908  73.498  1.00  0.00    -0.163 OA 
ENDROOT
BRANCH   3   5
HETATM    5  N   UNL     1     -11.384   7.016  73.094  1.00  0.00    -0.546 NA 
HETATM    6  H   UNL     1     -12.364   7.069  73.372  1.00  0.00     0.000 HD 
BRANCH   5   7
HETATM    7  C   UNL     1     -10.963   7.380  71.805  1.00  0.00    -0.234 A  
HETATM    8  C   UNL     1      -9.994   8.364  71.569  1.00  0.00    -0.283 A  
HETATM    9  C   UNL     1      -9.611   8.709  70.270  1.00  0.00    -0.186 A  
HETATM   10  C   UNL     1     -10.188   8.052  69.183  1.00  0.00    -0.217 A  
HETATM   11  C   UNL     1     -11.053   6.979  69.394  1.00  0.00    -0.194 A  
HETATM   12  C   UNL     1     -11.424   6.642  70.702  1.00  0.00    -0.420 A  
BRANCH  10  13
HETATM   13  S   UNL     1      -9.764   8.558  67.528  1.00  0.00    -0.174 S  
HETATM   14  O   UNL     1      -8.315   8.560  67.430  1.00  0.00    -0.118 OA 
HETATM   15  O   UNL     1     -10.563   7.751  66.621  1.00  0.00    -0.276 OA 
BRANCH  13  16
HETATM   16  C   UNL     1     -10.281  10.257  67.331  1.00  0.00    -0.218 A  
HETATM   17  C   UNL     1      -9.656  11.058  66.376  1.00  0.00    -0.227 A  
HETATM   18  C   UNL     1     -10.102  12.370  66.165  1.00  0.00    -0.265 A  
HETATM   19  C   UNL     1     -11.207  12.885  66.862  1.00  0.00    -0.291 A  
HETATM   20  C   UNL     1     -11.330  10.770  68.093  1.00  0.00    -0.377 A  
HETATM   21  C   UNL     1     -11.775  12.081  67.866  1.00  0.00    -0.393 A  
BRANCH  19  22
HETATM   22  N   UNL     1     -11.684  14.208  66.683  1.00  0.00    -0.384 NA 
HETATM   23  H   UNL     1     -12.506  14.566  67.169  1.00  0.00     0.000 HD 
BRANCH  22  24
HETATM   24  C   UNL     1     -10.900  15.026  65.741  1.00  0.00    -0.350 C  
HETATM   25  S   UNL     1     -10.349  16.537  66.640  1.00  0.00    -0.280 S  
HETATM   26  O   UNL     1      -9.284  17.192  65.813  1.00  0.00    -0.524 OA 
HETATM   27  O   UNL     1      -9.604  15.716  67.810  1.00  0.00    -0.209 OA 
ENDBRANCH  22  24
ENDBRANCH  19  22
ENDBRANCH  13  16
ENDBRANCH  10  13
ENDBRANCH   5   7
ENDBRANCH   3   5
TORSDOF 6
ENDMDL
MODEL       74
REMARK 921   NORMALIZED FREE ENERGY PREDICTED BY IDOCK:   -4.99 KCAL/MOL
REMARK 922        TOTAL FREE ENERGY PREDICTED BY IDOCK:   -7.54 KCAL/MOL
REMARK 923 INTER-LIGAND FREE ENERGY PREDICTED BY IDOCK:   -6.64 KCAL/MOL
REMARK 924 INTRA-LIGAND FREE ENERGY PREDICTED BY IDOCK:   -0.89 KCAL/MOL
REMARK 927      BINDING AFFINITY PREDICTED BY RF-SCORE:    0.00 PKD
ROOT
HETATM    1  O   UNL     1      -9.091  14.970  66.841  1.00  0.00    -0.217 OA 
HETATM    2  S   UNL     1     -10.666  14.952  67.158  1.00  0.00    -0.302 S  
HETATM    3  C   UNL     1     -10.448  14.403  68.899  1.00  0.00    -0.245 C  
HETATM    4  O   UNL     1     -11.208  13.803  66.363  1.00  0.00    -0.308 OA 
ENDROOT
BRANCH   3   5
HETATM    5  N   UNL     1     -11.776  14.281  69.501  1.00  0.00    -0.295 NA 
HETATM    6  H   UNL     1     -12.431  15.062  69.513  1.00  0.00     0.000 HD 
BRANCH   5   7
HETATM    7  C   UNL     1     -12.105  13.036  70.059  1.00  0.00    -0.297 A  
HETATM    8  C   UNL     1     -11.689  11.818  69.505  1.00  0.00    -0.408 A  
HETATM    9  C   UNL     1     -12.050  10.596  70.081  1.00  0.00    -0.414 A  
HETATM   10  C   UNL     1     -12.823  10.583  71.242  1.00  0.00    -0.431 A  
HETATM   11  C   UNL     1     -13.135  11.779  71.887  1.00  0.00    -0.482 A  
HETATM   12  C   UNL     1     -12.764  12.995  71.299  1.00  0.00    -0.385 A  
BRANCH  10  13
HETATM   13  S   UNL     1     -13.355   9.024  71.921  1.00  0.00    -0.447 S  
HETATM   14  O   UNL     1     -13.668   9.243  73.322  1.00  0.00    -0.047 OA 
HETATM   15  O   UNL     1     -14.359   8.489  71.016  1.00  0.00    -0.202 OA 
BRANCH  13  16
HETATM   16  C   UNL     1     -11.956   7.913  71.889  1.00  0.00    -0.305 A  
HETATM   17  C   UNL     1     -11.796   7.042  70.811  1.00  0.00    -0.401 A  
HETATM   18  C   UNL     1     -10.665   6.218  70.742  1.00  0.00    -0.312 A  
HETATM   19  C   UNL     1      -9.653   6.285  71.714  1.00  0.00    -0.153 A  
HETATM   20  C   UNL     1     -11.005   7.944  72.908  1.00  0.00    -0.452 A  
HETATM   21  C   UNL     1      -9.871   7.121  72.823  1.00  0.00    -0.212 A  
BRANCH  19  22
HETATM   22  N   UNL     1      -8.498   5.463  71.684  1.00  0.00    -0.125 NA 
HETATM   23  H   UNL     1      -8.201   4.903  72.483  1.00  0.00     0.000 HD 
BRANCH  22  24
HETATM   24  C   UNL     1      -7.760   5.481  70.409  1.00  0.00    -0.085 C  
HETATM   25  S   UNL     1      -7.028   7.160  70.211  1.00  0.00    -0.062 S  
HETATM   26  O   UNL     1      -6.011   7.083  69.114  1.00  0.00    -0.021 OA 
HETATM   27  O   UNL     1      -6.225   7.106  71.608  1.00  0.00    -0.037 OA 
ENDBRANCH  22  24
ENDBRANCH  19  22
ENDBRANCH  13  16
ENDBRANCH  10  13
ENDBRANCH   5   7
ENDBRANCH   3   5
TORSDOF 6
ENDMDL
MODEL       75
REMARK 921   NORMALIZED FREE ENERGY PREDICTED BY IDOCK:   -4.99 KCAL/MOL
REMARK 922        TOTAL FREE ENERGY PREDICTED BY IDOCK:   -7.53 KCAL/MOL
REMARK 923 INTER-LIGAND FREE ENERGY PREDICTED BY IDOCK:   -6.75 KCAL/MOL
REMARK 924 INTRA-LIGAND FREE ENERGY PREDICTED BY IDOCK:   -0.78 KCAL/MOL
REMARK 927      BINDING AFFINITY PREDICTED BY RF-SCORE:    0.00 PKD
ROOT
HETATM    1  O   UNL     1      -9.629   3.648  74.513  1.00  0.00    -0.103 OA 
HETATM    2  S   UNL     1      -9.886   5.228  74.364  1.00  0.00    -0.222 S  
HETATM    3  C   UNL     1     -11.304   5.027  73.212  1.00  0.00    -0.317 C  
HETATM    4  O   UNL     1      -8.711   5.739  73.586  1.00  0.00    -0.122 OA 
ENDROOT
BRANCH   3   5
HETATM    5  N   UNL     1     -11.791   6.361  72.862  1.00  0.00    -0.465 NA 
HETATM    6  H   UNL     1     -12.443   6.866  73.462  1.00  0.00     0.000 HD 
BRANCH   5   7
HETATM    7  C   UNL     1     -11.317   6.914  71.662  1.00  0.00    -0.260 A  
HETATM    8  C   UNL     1     -11.407   6.251  70.431  1.00  0.00    -0.440 A  
HETATM    9  C   UNL     1     -10.911   6.828  69.258  1.00  0.00    -0.303 A  
HETATM   10  C   UNL     1     -10.331   8.096  69.304  1.00  0.00    -0.217 A  
HETATM   11  C   UNL     1     -10.352   8.831  70.489  1.00  0.00    -0.241 A  
HETATM   12  C   UNL     1     -10.856   8.241  71.655  1.00  0.00    -0.320 A  
BRANCH  10  13
HETATM   13  S   UNL     1      -9.620   8.788  67.824  1.00  0.00    -0.153 S  
HETATM   14  O   UNL     1      -8.176   8.707  67.954  1.00  0.00    -0.113 OA 
HETATM   15  O   UNL     1     -10.295   8.163  66.698  1.00  0.00    -0.304 OA 
BRANCH  13  16
HETATM   16  C   UNL     1     -10.022  10.528  67.792  1.00  0.00    -0.171 A  
HETATM   17  C   UNL     1      -9.049  11.465  68.141  1.00  0.00    -0.174 A  
HETATM   18  C   UNL     1      -9.333  12.834  68.050  1.00  0.00    -0.213 A  
HETATM   19  C   UNL     1     -10.568  13.291  67.563  1.00  0.00    -0.246 A  
HETATM   20  C   UNL     1     -11.284  10.955  67.380  1.00  0.00    -0.345 A  
HETATM   21  C   UNL     1     -11.554  12.329  67.283  1.00  0.00    -0.427 A  
BRANCH  19  22
HETATM   22  N   UNL     1     -10.897  14.667  67.463  1.00  0.00    -0.279 NA 
HETATM   23  H   UNL     1     -10.557  15.260  66.706  1.00  0.00     0.000 HD 
BRANCH  22  24
HETATM   24  C   UNL     1     -11.769  15.174  68.538  1.00  0.00    -0.325 C  
HETATM   25  S   UNL     1     -10.709  15.498  70.009  1.00  0.00    -0.331 S  
HETATM   26  O   UNL     1     -11.511  16.322  70.971  1.00  0.00    -0.407 OA 
HETATM   27  O   UNL     1      -9.723  16.505  69.228  1.00  0.00    -0.250 OA 
ENDBRANCH  22  24
ENDBRANCH  19  22
ENDBRANCH  13  16
ENDBRANCH  10  13
ENDBRANCH   5   7
ENDBRANCH   3   5
TORSDOF 6
ENDMDL
MODEL       76
REMARK 921   NORMALIZED FREE ENERGY PREDICTED BY IDOCK:   -4.97 KCAL/MOL
REMARK 922        TOTAL FREE ENERGY PREDICTED BY IDOCK:   -7.51 KCAL/MOL
REMARK 923 INTER-LIGAND FREE ENERGY PREDICTED BY IDOCK:   -6.66 KCAL/MOL
REMARK 924 INTRA-LIGAND FREE ENERGY PREDICTED BY IDOCK:   -0.85 KCAL/MOL
REMARK 927      BINDING AFFINITY PREDICTED BY RF-SCORE:    0.00 PKD
ROOT
HETATM    1  O   UNL     1      -5.575   6.340  69.648  1.00  0.00    -0.012 OA 
HETATM    2  S   UNL     1      -6.171   6.503  71.132  1.00  0.00    -0.041 S  
HETATM    3  C   UNL     1      -7.712   5.569  70.763  1.00  0.00    -0.091 C  
HETATM    4  O   UNL     1      -6.515   7.957  71.254  1.00  0.00    -0.037 OA 
ENDROOT
BRANCH   3   5
HETATM    5  N   UNL     1      -8.521   5.539  71.981  1.00  0.00    -0.126 NA 
HETATM    6  H   UNL     1      -8.244   4.986  72.792  1.00  0.00     0.000 HD 
BRANCH   5   7
HETATM    7  C   UNL     1      -9.696   6.306  71.980  1.00  0.00    -0.151 A  
HETATM    8  C   UNL     1     -10.895   5.863  71.407  1.00  0.00    -0.332 A  
HETATM    9  C   UNL     1     -12.042   6.662  71.413  1.00  0.00    -0.400 A  
HETATM   10  C   UNL     1     -12.004   7.919  72.016  1.00  0.00    -0.319 A  
HETATM   11  C   UNL     1     -10.866   8.326  72.711  1.00  0.00    -0.308 A  
HETATM   12  C   UNL     1      -9.725   7.513  72.699  1.00  0.00    -0.229 A  
BRANCH  10  13
HETATM   13  S   UNL     1     -13.441   8.969  71.942  1.00  0.00    -0.452 S  
HETATM   14  O   UNL     1     -14.362   8.383  70.985  1.00  0.00    -0.202 OA 
HETATM   15  O   UNL     1     -13.859   9.211  73.314  1.00  0.00    -0.181 OA 
BRANCH  13  16
HETATM   16  C   UNL     1     -12.932  10.536  71.252  1.00  0.00    -0.433 A  
HETATM   17  C   UNL     1     -13.261  11.718  71.915  1.00  0.00    -0.468 A  
HETATM   18  C   UNL     1     -12.806  12.947  71.419  1.00  0.00    -0.377 A  
HETATM   19  C   UNL     1     -11.975  13.015  70.289  1.00  0.00    -0.285 A  
HETATM   20  C   UNL     1     -12.174  10.581  70.082  1.00  0.00    -0.358 A  
HETATM   21  C   UNL     1     -11.715  11.817  69.601  1.00  0.00    -0.413 A  
BRANCH  19  22
HETATM   22  N   UNL     1     -11.500  14.238  69.752  1.00  0.00    -0.296 NA 
HETATM   23  H   UNL     1     -11.762  15.146  70.137  1.00  0.00     0.000 HD 
BRANCH  22  24
HETATM   24  C   UNL     1     -10.598  14.096  68.595  1.00  0.00    -0.249 C  
HETATM   25  S   UNL     1     -11.252  15.164  67.244  1.00  0.00    -0.294 S  
HETATM   26  O   UNL     1     -10.176  15.293  66.209  1.00  0.00    -0.262 OA 
HETATM   27  O   UNL     1     -11.222  16.510  68.130  1.00  0.00    -0.341 OA 
ENDBRANCH  22  24
ENDBRANCH  19  22
ENDBRANCH  13  16
ENDBRANCH  10  13
ENDBRANCH   5   7
ENDBRANCH   3   5
TORSDOF 6
ENDMDL
MODEL       77
REMARK 921   NORMALIZED FREE ENERGY PREDICTED BY IDOCK:   -4.96 KCAL/MOL
REMARK 922        TOTAL FREE ENERGY PREDICTED BY IDOCK:   -7.50 KCAL/MOL
REMARK 923 INTER-LIGAND FREE ENERGY PREDICTED BY IDOCK:   -6.68 KCAL/MOL
REMARK 924 INTRA-LIGAND FREE ENERGY PREDICTED BY IDOCK:   -0.82 KCAL/MOL
REMARK 927      BINDING AFFINITY PREDICTED BY RF-SCORE:    0.00 PKD
ROOT
HETATM    1  O   UNL     1     -11.379  12.302  63.107  1.00  0.00    -0.366 OA 
HETATM    2  S   UNL     1     -11.828  13.160  64.391  1.00  0.00    -0.414 S  
HETATM    3  C   UNL     1     -10.437  12.575  65.440  1.00  0.00    -0.282 C  
HETATM    4  O   UNL     1     -13.090  12.508  64.869  1.00  0.00    -0.833 OA 
ENDROOT
BRANCH   3   5
HETATM    5  N   UNL     1     -10.568  13.206  66.753  1.00  0.00    -0.262 NA 
HETATM    6  H   UNL     1     -10.320  14.184  66.902  1.00  0.00     0.000 HD 
BRANCH   5   7
HETATM    7  C   UNL     1     -11.052  12.403  67.797  1.00  0.00    -0.247 A  
HETATM    8  C   UNL     1     -11.027  11.002  67.754  1.00  0.00    -0.323 A  
HETATM    9  C   UNL     1     -11.532  10.234  68.808  1.00  0.00    -0.176 A  
HETATM   10  C   UNL     1     -12.056  10.869  69.934  1.00  0.00    -0.354 A  
HETATM   11  C   UNL     1     -11.970  12.255  70.059  1.00  0.00    -0.379 A  
HETATM   12  C   UNL     1     -11.457  13.010  68.997  1.00  0.00    -0.353 A  
BRANCH  10  13
HETATM   13  S   UNL     1     -12.780   9.889  71.234  1.00  0.00    -0.408 S  
HETATM   14  O   UNL     1     -12.789  10.698  72.439  1.00  0.00    -0.150 OA 
HETATM   15  O   UNL     1     -14.017   9.336  70.708  1.00  0.00    -0.008 OA 
BRANCH  13  16
HETATM   16  C   UNL     1     -11.677   8.521  71.559  1.00  0.00    -0.297 A  
HETATM   17  C   UNL     1     -12.175   7.218  71.540  1.00  0.00    -0.387 A  
HETATM   18  C   UNL     1     -11.305   6.135  71.723  1.00  0.00    -0.346 A  
HETATM   19  C   UNL     1      -9.922   6.328  71.876  1.00  0.00    -0.172 A  
HETATM   20  C   UNL     1     -10.320   8.745  71.787  1.00  0.00    -0.413 A  
HETATM   21  C   UNL     1      -9.456   7.652  71.959  1.00  0.00    -0.194 A  
BRANCH  19  22
HETATM   22  N   UNL     1      -9.010   5.261  72.071  1.00  0.00    -0.134 NA 
HETATM   23  H   UNL     1      -9.291   4.281  72.021  1.00  0.00     0.000 HD 
BRANCH  22  24
HETATM   24  C   UNL     1      -7.624   5.675  72.352  1.00  0.00    -0.101 C  
HETATM   25  S   UNL     1      -6.514   4.675  71.274  1.00  0.00    -0.020 S  
HETATM   26  O   UNL     1      -5.160   5.318  71.300  1.00  0.00    -0.004 OA 
HETATM   27  O   UNL     1      -7.231   5.133  69.906  1.00  0.00    -0.056 OA 
ENDBRANCH  22  24
ENDBRANCH  19  22
ENDBRANCH  13  16
ENDBRANCH  10  13
ENDBRANCH   5   7
ENDBRANCH   3   5
TORSDOF 6
ENDMDL
MODEL       78
REMARK 921   NORMALIZED FREE ENERGY PREDICTED BY IDOCK:   -4.96 KCAL/MOL
REMARK 922        TOTAL FREE ENERGY PREDICTED BY IDOCK:   -7.49 KCAL/MOL
REMARK 923 INTER-LIGAND FREE ENERGY PREDICTED BY IDOCK:   -6.70 KCAL/MOL
REMARK 924 INTRA-LIGAND FREE ENERGY PREDICTED BY IDOCK:   -0.79 KCAL/MOL
REMARK 927      BINDING AFFINITY PREDICTED BY RF-SCORE:    0.00 PKD
ROOT
HETATM    1  O   UNL     1     -13.786  15.021  73.292  1.00  0.00    -0.452 OA 
HETATM    2  S   UNL     1     -12.578  15.822  72.595  1.00  0.00    -0.486 S  
HETATM    3  C   UNL     1     -13.106  15.403  70.884  1.00  0.00    -0.468 C  
HETATM    4  O   UNL     1     -11.349  15.028  72.920  1.00  0.00    -0.239 OA 
ENDROOT
BRANCH   3   5
HETATM    5  N   UNL     1     -12.154  16.016  69.959  1.00  0.00    -0.334 NA 
HETATM    6  H   UNL     1     -11.755  16.938  70.136  1.00  0.00     0.000 HD 
BRANCH   5   7
HETATM    7  C   UNL     1     -11.816  15.275  68.815  1.00  0.00    -0.307 A  
HETATM    8  C   UNL     1     -11.145  15.832  67.718  1.00  0.00    -0.313 A  
HETATM    9  C   UNL     1     -10.838  15.067  66.589  1.00  0.00    -0.318 A  
HETATM   10  C   UNL     1     -11.187  13.716  66.556  1.00  0.00    -0.310 A  
HETATM   11  C   UNL     1     -11.732  13.108  67.685  1.00  0.00    -0.414 A  
HETATM   12  C   UNL     1     -12.030  13.887  68.810  1.00  0.00    -0.393 A  
BRANCH  10  13
HETATM   13  S   UNL     1     -10.874  12.768  65.081  1.00  0.00    -0.301 S  
HETATM   14  O   UNL     1     -12.117  12.116  64.708  1.00  0.00    -0.362 OA 
HETATM   15  O   UNL     1     -10.195  13.651  64.146  1.00  0.00    -0.297 OA 
BRANCH  13  16
HETATM   16  C   UNL     1      -9.733  11.461  65.509  1.00  0.00    -0.230 A  
HETATM   17  C   UNL     1      -9.886  10.200  64.931  1.00  0.00    -0.390 A  
HETATM   18  C   UNL     1      -8.955   9.189  65.206  1.00  0.00    -0.246 A  
HETATM   19  C   UNL     1      -7.833   9.432  66.015  1.00  0.00    -0.099 A  
HETATM   20  C   UNL     1      -8.670  11.705  66.378  1.00  0.00    -0.170 A  
HETATM   21  C   UNL     1      -7.739  10.688  66.637  1.00  0.00    -0.132 A  
BRANCH  19  22
HETATM   22  N   UNL     1      -6.873   8.435  66.322  1.00  0.00    -0.071 NA 
HETATM   23  H   UNL     1      -6.402   7.884  65.603  1.00  0.00     0.000 HD 
BRANCH  22  24
HETATM   24  C   UNL     1      -6.607   8.255  67.760  1.00  0.00    -0.061 C  
HETATM   25  S   UNL     1      -7.915   7.148  68.435  1.00  0.00    -0.125 S  
HETATM   26  O   UNL     1      -7.465   6.690  69.789  1.00  0.00    -0.087 OA 
HETATM   27  O   UNL     1      -7.605   5.951  67.402  1.00  0.00    -0.093 OA 
ENDBRANCH  22  24
ENDBRANCH  19  22
ENDBRANCH  13  16
ENDBRANCH  10  13
ENDBRANCH   5   7
ENDBRANCH   3   5
TORSDOF 6
ENDMDL
MODEL       79
REMARK 921   NORMALIZED FREE ENERGY PREDICTED BY IDOCK:   -4.94 KCAL/MOL
REMARK 922        TOTAL FREE ENERGY PREDICTED BY IDOCK:   -7.47 KCAL/MOL
REMARK 923 INTER-LIGAND FREE ENERGY PREDICTED BY IDOCK:   -6.67 KCAL/MOL
REMARK 924 INTRA-LIGAND FREE ENERGY PREDICTED BY IDOCK:   -0.80 KCAL/MOL
REMARK 927      BINDING AFFINITY PREDICTED BY RF-SCORE:    0.00 PKD
ROOT
HETATM    1  O   UNL     1      -6.076   7.807  63.120  1.00  0.00    -0.064 OA 
HETATM    2  S   UNL     1      -7.674   7.696  62.974  1.00  0.00    -0.126 S  
HETATM    3  C   UNL     1      -7.934   9.516  62.939  1.00  0.00    -0.132 C  
HETATM    4  O   UNL     1      -8.148   7.174  64.296  1.00  0.00    -0.122 OA 
ENDROOT
BRANCH   3   5
HETATM    5  N   UNL     1      -9.370   9.761  62.811  1.00  0.00    -0.491 NA 
HETATM    6  H   UNL     1      -9.934   9.278  62.111  1.00  0.00     0.000 HD 
BRANCH   5   7
HETATM    7  C   UNL     1      -9.935  10.693  63.695  1.00  0.00    -0.301 A  
HETATM    8  C   UNL     1     -10.498  11.903  63.269  1.00  0.00    -0.427 A  
HETATM    9  C   UNL     1     -11.039  12.814  64.182  1.00  0.00    -0.432 A  
HETATM   10  C   UNL     1     -11.038  12.509  65.543  1.00  0.00    -0.301 A  
HETATM   11  C   UNL     1     -10.608  11.256  65.978  1.00  0.00    -0.314 A  
HETATM   12  C   UNL     1     -10.073  10.353  65.051  1.00  0.00    -0.379 A  
BRANCH  10  13
HETATM   13  S   UNL     1     -11.647  13.711  66.709  1.00  0.00    -0.386 S  
HETATM   14  O   UNL     1     -12.720  14.443  66.062  1.00  0.00    -0.360 OA 
HETATM   15  O   UNL     1     -11.884  13.006  67.958  1.00  0.00    -0.344 OA 
BRANCH  13  16
HETATM   16  C   UNL     1     -10.340  14.893  67.000  1.00  0.00    -0.264 A  
HETATM   17  C   UNL     1      -9.442  14.681  68.047  1.00  0.00    -0.207 A  
HETATM   18  C   UNL     1      -8.371  15.564  68.238  1.00  0.00    -0.147 A  
HETATM   19  C   UNL     1      -8.149  16.641  67.364  1.00  0.00    -0.167 A  
HETATM   20  C   UNL     1     -10.186  15.999  66.164  1.00  0.00    -0.340 A  
HETATM   21  C   UNL     1      -9.105  16.872  66.360  1.00  0.00    -0.315 A  
BRANCH  19  22
HETATM   22  N   UNL     1      -7.083  17.561  67.528  1.00  0.00    -0.166 NA 
HETATM   23  H   UNL     1      -6.184  17.295  67.930  1.00  0.00     0.000 HD 
BRANCH  22  24
HETATM   24  C   UNL     1      -7.374  18.932  67.073  1.00  0.00    -0.214 C  
HETATM   25  S   UNL     1      -5.996  19.456  65.967  1.00  0.00    -0.174 S  
HETATM   26  O   UNL     1      -6.445  20.687  65.239  1.00  0.00    -0.258 OA 
HETATM   27  O   UNL     1      -6.176  18.214  64.955  1.00  0.00    -0.242 OA 
ENDBRANCH  22  24
ENDBRANCH  19  22
ENDBRANCH  13  16
ENDBRANCH  10  13
ENDBRANCH   5   7
ENDBRANCH   3   5
TORSDOF 6
ENDMDL
MODEL       80
REMARK 921   NORMALIZED FREE ENERGY PREDICTED BY IDOCK:   -4.90 KCAL/MOL
REMARK 922        TOTAL FREE ENERGY PREDICTED BY IDOCK:   -7.41 KCAL/MOL
REMARK 923 INTER-LIGAND FREE ENERGY PREDICTED BY IDOCK:   -6.77 KCAL/MOL
REMARK 924 INTRA-LIGAND FREE ENERGY PREDICTED BY IDOCK:   -0.65 KCAL/MOL
REMARK 927      BINDING AFFINITY PREDICTED BY RF-SCORE:    0.00 PKD
ROOT
HETATM    1  O   UNL     1     -10.804  20.065  65.912  1.00  0.00    -0.364 OA 
HETATM    2  S   UNL     1     -10.064  18.671  66.218  1.00  0.00    -0.387 S  
HETATM    3  C   UNL     1     -10.316  18.779  68.036  1.00  0.00    -0.387 C  
HETATM    4  O   UNL     1      -8.617  18.929  65.924  1.00  0.00    -0.471 OA 
ENDROOT
BRANCH   3   5
HETATM    5  N   UNL     1      -9.717  17.591  68.643  1.00  0.00    -0.308 NA 
HETATM    6  H   UNL     1      -9.140  17.653  69.482  1.00  0.00     0.000 HD 
BRANCH   5   7
HETATM    7  C   UNL     1      -9.973  16.361  68.017  1.00  0.00    -0.242 A  
HETATM    8  C   UNL     1      -8.965  15.569  67.453  1.00  0.00    -0.203 A  
HETATM    9  C   UNL     1      -9.261  14.356  66.824  1.00  0.00    -0.287 A  
HETATM   10  C   UNL     1     -10.582  13.911  66.769  1.00  0.00    -0.277 A  
HETATM   11  C   UNL     1     -11.583  14.613  67.440  1.00  0.00    -0.408 A  
HETATM   12  C   UNL     1     -11.270  15.824  68.069  1.00  0.00    -0.338 A  
BRANCH  10  13
HETATM   13  S   UNL     1     -10.964  12.410  65.889  1.00  0.00    -0.301 S  
HETATM   14  O   UNL     1     -12.398  12.201  65.985  1.00  0.00    -0.550 OA 
HETATM   15  O   UNL     1     -10.319  12.505  64.590  1.00  0.00    -0.298 OA 
BRANCH  13  16
HETATM   16  C   UNL     1     -10.202  11.056  66.770  1.00  0.00    -0.229 A  
HETATM   17  C   UNL     1     -10.216  11.049  68.165  1.00  0.00    -0.201 A  
HETATM   18  C   UNL     1      -9.683   9.956  68.862  1.00  0.00    -0.176 A  
HETATM   19  C   UNL     1      -9.177   8.835  68.186  1.00  0.00    -0.140 A  
HETATM   20  C   UNL     1      -9.634   9.989  66.073  1.00  0.00    -0.279 A  
HETATM   21  C   UNL     1      -9.113   8.896  66.783  1.00  0.00    -0.177 A  
BRANCH  19  22
HETATM   22  N   UNL     1      -8.623   7.714  68.855  1.00  0.00    -0.129 NA 
HETATM   23  H   UNL     1      -7.736   7.756  69.356  1.00  0.00     0.000 HD 
BRANCH  22  24
HETATM   24  C   UNL     1      -9.430   6.484  68.770  1.00  0.00    -0.128 C  
HETATM   25  S   UNL     1      -9.239   5.582  70.366  1.00  0.00    -0.154 S  
HETATM   26  O   UNL     1     -10.305   4.530  70.420  1.00  0.00    -0.161 OA 
HETATM   27  O   UNL     1      -9.747   6.819  71.264  1.00  0.00    -0.173 OA 
ENDBRANCH  22  24
ENDBRANCH  19  22
ENDBRANCH  13  16
ENDBRANCH  10  13
ENDBRANCH   5   7
ENDBRANCH   3   5
TORSDOF 6
ENDMDL
MODEL       81
REMARK 921   NORMALIZED FREE ENERGY PREDICTED BY IDOCK:   -4.86 KCAL/MOL
REMARK 922        TOTAL FREE ENERGY PREDICTED BY IDOCK:   -7.37 KCAL/MOL
REMARK 923 INTER-LIGAND FREE ENERGY PREDICTED BY IDOCK:   -6.65 KCAL/MOL
REMARK 924 INTRA-LIGAND FREE ENERGY PREDICTED BY IDOCK:   -0.71 KCAL/MOL
REMARK 927      BINDING AFFINITY PREDICTED BY RF-SCORE:    0.00 PKD
ROOT
HETATM    1  O   UNL     1      -6.008  20.640  70.355  1.00  0.00    -0.514 OA 
HETATM    2  S   UNL     1      -6.546  20.061  68.955  1.00  0.00    -0.299 S  
HETATM    3  C   UNL     1      -5.659  18.459  69.121  1.00  0.00    -0.210 C  
HETATM    4  O   UNL     1      -5.854  20.880  67.907  1.00  0.00    -0.252 OA 
ENDROOT
BRANCH   3   5
HETATM    5  N   UNL     1      -5.956  17.657  67.934  1.00  0.00    -0.150 NA 
HETATM    6  H   UNL     1      -5.291  17.576  67.165  1.00  0.00     0.000 HD 
BRANCH   5   7
HETATM    7  C   UNL     1      -7.199  17.006  67.904  1.00  0.00    -0.154 A  
HETATM    8  C   UNL     1      -7.770  16.403  69.033  1.00  0.00    -0.235 A  
HETATM    9  C   UNL     1      -9.004  15.750  68.962  1.00  0.00    -0.246 A  
HETATM   10  C   UNL     1      -9.694  15.711  67.750  1.00  0.00    -0.218 A  
HETATM   11  C   UNL     1      -9.213  16.417  66.649  1.00  0.00    -0.279 A  
HETATM   12  C   UNL     1      -7.977  17.070  66.737  1.00  0.00    -0.274 A  
BRANCH  10  13
HETATM   13  S   UNL     1     -11.222  14.801  67.643  1.00  0.00    -0.334 S  
HETATM   14  O   UNL     1     -12.148  15.387  68.596  1.00  0.00    -0.260 OA 
HETATM   15  O   UNL     1     -11.568  14.721  66.233  1.00  0.00    -0.358 OA 
BRANCH  13  16
HETATM   16  C   UNL     1     -10.905  13.138  68.212  1.00  0.00    -0.253 A  
HETATM   17  C   UNL     1      -9.690  12.525  67.900  1.00  0.00    -0.205 A  
HETATM   18  C   UNL     1      -9.403  11.249  68.403  1.00  0.00    -0.181 A  
HETATM   19  C   UNL     1     -10.294  10.586  69.263  1.00  0.00    -0.227 A  
HETATM   20  C   UNL     1     -11.840  12.469  69.001  1.00  0.00    -0.344 A  
HETATM   21  C   UNL     1     -11.537  11.195  69.507  1.00  0.00    -0.392 A  
BRANCH  19  22
HETATM   22  N   UNL     1     -10.044   9.292  69.785  1.00  0.00    -0.193 NA 
HETATM   23  H   UNL     1      -9.636   8.543  69.226  1.00  0.00     0.000 HD 
BRANCH  22  24
HETATM   24  C   UNL     1     -10.417   9.114  71.200  1.00  0.00    -0.315 C  
HETATM   25  S   UNL     1      -9.113   8.084  71.995  1.00  0.00    -0.179 S  
HETATM   26  O   UNL     1      -9.299   8.187  73.479  1.00  0.00    -0.255 OA 
HETATM   27  O   UNL     1      -7.912   9.083  71.598  1.00  0.00    -0.326 OA 
ENDBRANCH  22  24
ENDBRANCH  19  22
ENDBRANCH  13  16
ENDBRANCH  10  13
ENDBRANCH   5   7
ENDBRANCH   3   5
TORSDOF 6
ENDMDL
MODEL       82
REMARK 921   NORMALIZED FREE ENERGY PREDICTED BY IDOCK:   -4.85 KCAL/MOL
REMARK 922        TOTAL FREE ENERGY PREDICTED BY IDOCK:   -7.34 KCAL/MOL
REMARK 923 INTER-LIGAND FREE ENERGY PREDICTED BY IDOCK:   -6.58 KCAL/MOL
REMARK 924 INTRA-LIGAND FREE ENERGY PREDICTED BY IDOCK:   -0.76 KCAL/MOL
REMARK 927      BINDING AFFINITY PREDICTED BY RF-SCORE:    0.00 PKD
ROOT
HETATM    1  O   UNL     1      -8.156   1.687  66.922  1.00  0.00    -0.069 OA 
HETATM    2  S   UNL     1      -8.830   2.732  67.941  1.00  0.00    -0.154 S  
HETATM    3  C   UNL     1      -9.531   3.788  66.609  1.00  0.00    -0.192 C  
HETATM    4  O   UNL     1      -7.679   3.459  68.568  1.00  0.00    -0.056 OA 
ENDROOT
BRANCH   3   5
HETATM    5  N   UNL     1     -10.245   4.895  67.244  1.00  0.00    -0.167 NA 
HETATM    6  H   UNL     1     -10.951   4.734  67.963  1.00  0.00     0.000 HD 
BRANCH   5   7
HETATM    7  C   UNL     1      -9.912   6.191  66.818  1.00  0.00    -0.172 A  
HETATM    8  C   UNL     1      -8.858   6.454  65.932  1.00  0.00    -0.142 A  
HETATM    9  C   UNL     1      -8.547   7.760  65.541  1.00  0.00    -0.126 A  
HETATM   10  C   UNL     1      -9.308   8.824  66.024  1.00  0.00    -0.232 A  
HETATM   11  C   UNL     1     -10.442   8.578  66.797  1.00  0.00    -0.308 A  
HETATM   12  C   UNL     1     -10.743   7.264  67.177  1.00  0.00    -0.413 A  
BRANCH  10  13
HETATM   13  S   UNL     1      -8.851  10.492  65.595  1.00  0.00    -0.188 S  
HETATM   14  O   UNL     1      -7.516  10.727  66.114  1.00  0.00    -0.135 OA 
HETATM   15  O   UNL     1      -9.131  10.655  64.178  1.00  0.00    -0.201 OA 
BRANCH  13  16
HETATM   16  C   UNL     1      -9.936  11.597  66.486  1.00  0.00    -0.203 A  
HETATM   17  C   UNL     1      -9.543  12.089  67.731  1.00  0.00    -0.193 A  
HETATM   18  C   UNL     1     -10.354  13.012  68.405  1.00  0.00    -0.257 A  
HETATM   19  C   UNL     1     -11.540  13.497  67.829  1.00  0.00    -0.339 A  
HETATM   20  C   UNL     1     -11.147  12.003  65.927  1.00  0.00    -0.369 A  
HETATM   21  C   UNL     1     -11.947  12.935  66.607  1.00  0.00    -0.436 A  
BRANCH  19  22
HETATM   22  N   UNL     1     -12.391  14.424  68.481  1.00  0.00    -0.594 NA 
HETATM   23  H   UNL     1     -13.407  14.395  68.392  1.00  0.00     0.000 HD 
BRANCH  22  24
HETATM   24  C   UNL     1     -11.695  15.434  69.299  1.00  0.00    -0.349 C  
HETATM   25  S   UNL     1     -12.608  15.585  70.893  1.00  0.00    -0.454 S  
HETATM   26  O   UNL     1     -11.729  16.337  71.846  1.00  0.00    -0.491 OA 
HETATM   27  O   UNL     1     -12.474  14.021  71.256  1.00  0.00    -0.340 OA 
ENDBRANCH  22  24
ENDBRANCH  19  22
ENDBRANCH  13  16
ENDBRANCH  10  13
ENDBRANCH   5   7
ENDBRANCH   3   5
TORSDOF 6
ENDMDL
MODEL       83
REMARK 921   NORMALIZED FREE ENERGY PREDICTED BY IDOCK:   -4.84 KCAL/MOL
REMARK 922        TOTAL FREE ENERGY PREDICTED BY IDOCK:   -7.33 KCAL/MOL
REMARK 923 INTER-LIGAND FREE ENERGY PREDICTED BY IDOCK:   -6.66 KCAL/MOL
REMARK 924 INTRA-LIGAND FREE ENERGY PREDICTED BY IDOCK:   -0.68 KCAL/MOL
REMARK 927      BINDING AFFINITY PREDICTED BY RF-SCORE:    0.00 PKD
ROOT
HETATM    1  O   UNL     1      -9.541  20.462  66.955  1.00  0.00    -0.414 OA 
HETATM    2  S   UNL     1      -8.294  19.468  66.748  1.00  0.00    -0.317 S  
HETATM    3  C   UNL     1      -7.230  20.326  67.977  1.00  0.00    -0.262 C  
HETATM    4  O   UNL     1      -7.778  19.777  65.375  1.00  0.00    -0.372 OA 
ENDROOT
BRANCH   3   5
HETATM    5  N   UNL     1      -5.946  19.626  68.025  1.00  0.00    -0.208 NA 
HETATM    6  H   UNL     1      -5.061  20.132  68.000  1.00  0.00     0.000 HD 
BRANCH   5   7
HETATM    7  C   UNL     1      -5.991  18.226  68.106  1.00  0.00    -0.174 A  
HETATM    8  C   UNL     1      -5.351  17.388  67.182  1.00  0.00    -0.166 A  
HETATM    9  C   UNL     1      -5.430  15.997  67.286  1.00  0.00    -0.018 A  
HETATM   10  C   UNL     1      -6.143  15.423  68.340  1.00  0.00    -0.103 A  
HETATM   11  C   UNL     1      -6.673  16.231  69.346  1.00  0.00    -0.209 A  
HETATM   12  C   UNL     1      -6.582  17.624  69.229  1.00  0.00    -0.233 A  
BRANCH  10  13
HETATM   13  S   UNL     1      -6.316  13.652  68.418  1.00  0.00    -0.112 S  
HETATM   14  O   UNL     1      -5.364  13.078  67.484  1.00  0.00    -0.241 OA 
HETATM   15  O   UNL     1      -6.281  13.286  69.825  1.00  0.00    -0.123 OA 
BRANCH  13  16
HETATM   16  C   UNL     1      -7.939  13.238  67.797  1.00  0.00    -0.166 A  
HETATM   17  C   UNL     1      -8.084  12.163  66.919  1.00  0.00    -0.112 A  
HETATM   18  C   UNL     1      -9.362  11.786  66.483  1.00  0.00    -0.217 A  
HETATM   19  C   UNL     1     -10.514  12.438  66.951  1.00  0.00    -0.224 A  
HETATM   20  C   UNL     1      -9.061  13.952  68.216  1.00  0.00    -0.191 A  
HETATM   21  C   UNL     1     -10.336  13.559  67.780  1.00  0.00    -0.241 A  
BRANCH  19  22
HETATM   22  N   UNL     1     -11.822  12.092  66.528  1.00  0.00    -0.615 NA 
HETATM   23  H   UNL     1     -12.254  11.196  66.754  1.00  0.00     0.000 HD 
BRANCH  22  24
HETATM   24  C   UNL     1     -12.510  13.128  65.736  1.00  0.00    -0.377 C  
HETATM   25  S   UNL     1     -11.701  13.194  64.082  1.00  0.00    -0.443 S  
HETATM   26  O   UNL     1     -12.596  13.980  63.173  1.00  0.00    -0.733 OA 
HETATM   27  O   UNL     1     -11.954  11.634  63.763  1.00  0.00    -0.384 OA 
ENDBRANCH  22  24
ENDBRANCH  19  22
ENDBRANCH  13  16
ENDBRANCH  10  13
ENDBRANCH   5   7
ENDBRANCH   3   5
TORSDOF 6
ENDMDL
MODEL       84
REMARK 921   NORMALIZED FREE ENERGY PREDICTED BY IDOCK:   -4.83 KCAL/MOL
REMARK 922        TOTAL FREE ENERGY PREDICTED BY IDOCK:   -7.32 KCAL/MOL
REMARK 923 INTER-LIGAND FREE ENERGY PREDICTED BY IDOCK:   -6.56 KCAL/MOL
REMARK 924 INTRA-LIGAND FREE ENERGY PREDICTED BY IDOCK:   -0.76 KCAL/MOL
REMARK 927      BINDING AFFINITY PREDICTED BY RF-SCORE:    0.00 PKD
ROOT
HETATM    1  O   UNL     1      -7.922  20.561  67.816  1.00  0.00    -0.252 OA 
HETATM    2  S   UNL     1      -7.210  19.133  67.614  1.00  0.00    -0.224 S  
HETATM    3  C   UNL     1      -8.343  18.606  66.264  1.00  0.00    -0.230 C  
HETATM    4  O   UNL     1      -7.548  18.354  68.849  1.00  0.00    -0.287 OA 
ENDROOT
BRANCH   3   5
HETATM    5  N   UNL     1      -7.940  17.266  65.839  1.00  0.00    -0.519 NA 
HETATM    6  H   UNL     1      -7.055  17.102  65.359  1.00  0.00     0.000 HD 
BRANCH   5   7
HETATM    7  C   UNL     1      -8.829  16.218  66.122  1.00  0.00    -0.327 A  
HETATM    8  C   UNL     1     -10.120  16.147  65.582  1.00  0.00    -0.366 A  
HETATM    9  C   UNL     1     -10.983  15.094  65.899  1.00  0.00    -0.339 A  
HETATM   10  C   UNL     1     -10.550  14.081  66.755  1.00  0.00    -0.277 A  
HETATM   11  C   UNL     1      -9.228  14.057  67.197  1.00  0.00    -0.240 A  
HETATM   12  C   UNL     1      -8.374  15.117  66.867  1.00  0.00    -0.267 A  
BRANCH  10  13
HETATM   13  S   UNL     1     -11.683  12.790  67.227  1.00  0.00    -0.360 S  
HETATM   14  O   UNL     1     -12.409  13.251  68.397  1.00  0.00    -0.158 OA 
HETATM   15  O   UNL     1     -12.398  12.393  66.025  1.00  0.00    -0.627 OA 
BRANCH  13  16
HETATM   16  C   UNL     1     -10.715  11.387  67.762  1.00  0.00    -0.211 A  
HETATM   17  C   UNL     1     -10.537  11.155  69.126  1.00  0.00    -0.238 A  
HETATM   18  C   UNL     1      -9.839  10.018  69.556  1.00  0.00    -0.249 A  
HETATM   19  C   UNL     1      -9.354   9.071  68.640  1.00  0.00    -0.136 A  
HETATM   20  C   UNL     1     -10.175  10.502  66.829  1.00  0.00    -0.288 A  
HETATM   21  C   UNL     1      -9.487   9.362  67.272  1.00  0.00    -0.169 A  
BRANCH  19  22
HETATM   22  N   UNL     1      -8.637   7.913  69.034  1.00  0.00    -0.134 NA 
HETATM   23  H   UNL     1      -7.756   7.638  68.601  1.00  0.00     0.000 HD 
BRANCH  22  24
HETATM   24  C   UNL     1      -9.263   7.138  70.120  1.00  0.00    -0.155 C  
HETATM   25  S   UNL     1      -9.814   5.529  69.410  1.00  0.00    -0.196 S  
HETATM   26  O   UNL     1     -10.131   4.615  70.555  1.00  0.00    -0.225 OA 
HETATM   27  O   UNL     1      -8.349   5.127  68.873  1.00  0.00    -0.088 OA 
ENDBRANCH  22  24
ENDBRANCH  19  22
ENDBRANCH  13  16
ENDBRANCH  10  13
ENDBRANCH   5   7
ENDBRANCH   3   5
TORSDOF 6
ENDMDL
MODEL       85
REMARK 921   NORMALIZED FREE ENERGY PREDICTED BY IDOCK:   -4.83 KCAL/MOL
REMARK 922        TOTAL FREE ENERGY PREDICTED BY IDOCK:   -7.32 KCAL/MOL
REMARK 923 INTER-LIGAND FREE ENERGY PREDICTED BY IDOCK:   -6.52 KCAL/MOL
REMARK 924 INTRA-LIGAND FREE ENERGY PREDICTED BY IDOCK:   -0.79 KCAL/MOL
REMARK 927      BINDING AFFINITY PREDICTED BY RF-SCORE:    0.00 PKD
ROOT
HETATM    1  O   UNL     1     -10.810   5.549  72.917  1.00  0.00    -0.231 OA 
HETATM    2  S   UNL     1     -11.869   6.280  71.953  1.00  0.00    -0.259 S  
HETATM    3  C   UNL     1     -10.867   6.025  70.433  1.00  0.00    -0.318 C  
HETATM    4  O   UNL     1     -11.799   7.729  72.331  1.00  0.00    -0.324 OA 
ENDROOT
BRANCH   3   5
HETATM    5  N   UNL     1     -11.596   6.616  69.311  1.00  0.00    -0.646 NA 
HETATM    6  H   UNL     1     -12.532   6.300  69.057  1.00  0.00     0.000 HD 
BRANCH   5   7
HETATM    7  C   UNL     1     -10.947   7.639  68.602  1.00  0.00     0.135 A  
HETATM    8  C   UNL     1     -10.695   7.569  67.225  1.00  0.00    -0.365 A  
HETATM    9  C   UNL     1     -10.032   8.601  66.555  1.00  0.00    -0.353 A  
HETATM   10  C   UNL     1      -9.628   9.735  67.261  1.00  0.00    -0.157 A  
HETATM   11  C   UNL     1      -9.986   9.888  68.600  1.00  0.00    -0.177 A  
HETATM   12  C   UNL     1     -10.654   8.846  69.257  1.00  0.00    -0.219 A  
BRANCH  10  13
HETATM   13  S   UNL     1      -8.706  11.006  66.421  1.00  0.00    -0.176 S  
HETATM   14  O   UNL     1      -7.345  10.963  66.925  1.00  0.00    -0.113 OA 
HETATM   15  O   UNL     1      -8.971  10.853  65.000  1.00  0.00    -0.197 OA 
BRANCH  13  16
HETATM   16  C   UNL     1      -9.375  12.584  66.925  1.00  0.00    -0.219 A  
HETATM   17  C   UNL     1      -8.616  13.424  67.740  1.00  0.00    -0.194 A  
HETATM   18  C   UNL     1      -9.104  14.692  68.081  1.00  0.00    -0.187 A  
HETATM   19  C   UNL     1     -10.326  15.164  67.577  1.00  0.00    -0.242 A  
HETATM   20  C   UNL     1     -10.628  12.998  66.473  1.00  0.00    -0.292 A  
HETATM   21  C   UNL     1     -11.101  14.274  66.814  1.00  0.00    -0.316 A  
BRANCH  19  22
HETATM   22  N   UNL     1     -10.857  16.438  67.904  1.00  0.00    -0.340 NA 
HETATM   23  H   UNL     1     -11.828  16.692  67.723  1.00  0.00     0.000 HD 
BRANCH  22  24
HETATM   24  C   UNL     1      -9.897  17.366  68.528  1.00  0.00    -0.320 C  
HETATM   25  S   UNL     1      -9.393  18.590  67.247  1.00  0.00    -0.284 S  
HETATM   26  O   UNL     1      -8.702  19.720  67.949  1.00  0.00    -0.313 OA 
HETATM   27  O   UNL     1     -10.901  19.073  66.943  1.00  0.00    -0.419 OA 
ENDBRANCH  22  24
ENDBRANCH  19  22
ENDBRANCH  13  16
ENDBRANCH  10  13
ENDBRANCH   5   7
ENDBRANCH   3   5
TORSDOF 6
ENDMDL
MODEL       86
REMARK 921   NORMALIZED FREE ENERGY PREDICTED BY IDOCK:   -4.83 KCAL/MOL
REMARK 922        TOTAL FREE ENERGY PREDICTED BY IDOCK:   -7.32 KCAL/MOL
REMARK 923 INTER-LIGAND FREE ENERGY PREDICTED BY IDOCK:   -6.42 KCAL/MOL
REMARK 924 INTRA-LIGAND FREE ENERGY PREDICTED BY IDOCK:   -0.90 KCAL/MOL
REMARK 927      BINDING AFFINITY PREDICTED BY RF-SCORE:    0.00 PKD
ROOT
HETATM    1  O   UNL     1     -11.657  15.511  72.073  1.00  0.00    -0.402 OA 
HETATM    2  S   UNL     1     -11.591  15.820  70.497  1.00  0.00    -0.402 S  
HETATM    3  C   UNL     1     -12.255  14.176  70.009  1.00  0.00    -0.357 C  
HETATM    4  O   UNL     1     -10.128  15.856  70.171  1.00  0.00    -0.220 OA 
ENDROOT
BRANCH   3   5
HETATM    5  N   UNL     1     -12.318  14.134  68.548  1.00  0.00    -0.541 NA 
HETATM    6  H   UNL     1     -12.897  14.787  68.019  1.00  0.00     0.000 HD 
BRANCH   5   7
HETATM    7  C   UNL     1     -11.545  13.153  67.908  1.00  0.00    -0.336 A  
HETATM    8  C   UNL     1     -11.766  12.752  66.584  1.00  0.00    -0.459 A  
HETATM    9  C   UNL     1     -10.984  11.760  65.985  1.00  0.00    -0.355 A  
HETATM   10  C   UNL     1      -9.948  11.168  66.708  1.00  0.00    -0.208 A  
HETATM   11  C   UNL     1      -9.622  11.643  67.978  1.00  0.00    -0.184 A  
HETATM   12  C   UNL     1     -10.413  12.640  68.563  1.00  0.00    -0.249 A  
BRANCH  10  13
HETATM   13  S   UNL     1      -9.013   9.843  65.971  1.00  0.00    -0.156 S  
HETATM   14  O   UNL     1      -9.570   9.595  64.654  1.00  0.00    -0.247 OA 
HETATM   15  O   UNL     1      -7.607  10.180  66.126  1.00  0.00    -0.104 OA 
BRANCH  13  16
HETATM   16  C   UNL     1      -9.318   8.366  66.929  1.00  0.00    -0.174 A  
HETATM   17  C   UNL     1      -8.250   7.716  67.548  1.00  0.00    -0.121 A  
HETATM   18  C   UNL     1      -8.489   6.598  68.360  1.00  0.00    -0.125 A  
HETATM   19  C   UNL     1      -9.794   6.143  68.609  1.00  0.00    -0.138 A  
HETATM   20  C   UNL     1     -10.617   7.887  67.098  1.00  0.00    -0.383 A  
HETATM   21  C   UNL     1     -10.845   6.774  67.920  1.00  0.00    -0.320 A  
BRANCH  19  22
HETATM   22  N   UNL     1     -10.076   5.013  69.417  1.00  0.00    -0.224 NA 
HETATM   23  H   UNL     1     -10.758   4.303  69.150  1.00  0.00     0.000 HD 
BRANCH  22  24
HETATM   24  C   UNL     1      -9.308   4.944  70.673  1.00  0.00    -0.162 C  
HETATM   25  S   UNL     1      -9.953   6.256  71.794  1.00  0.00    -0.171 S  
HETATM   26  O   UNL     1      -9.427   5.973  73.169  1.00  0.00    -0.143 OA 
HETATM   27  O   UNL     1     -11.472   5.719  71.746  1.00  0.00    -0.236 OA 
ENDBRANCH  22  24
ENDBRANCH  19  22
ENDBRANCH  13  16
ENDBRANCH  10  13
ENDBRANCH   5   7
ENDBRANCH   3   5
TORSDOF 6
ENDMDL
MODEL       87
REMARK 921   NORMALIZED FREE ENERGY PREDICTED BY IDOCK:   -4.83 KCAL/MOL
REMARK 922        TOTAL FREE ENERGY PREDICTED BY IDOCK:   -7.31 KCAL/MOL
REMARK 923 INTER-LIGAND FREE ENERGY PREDICTED BY IDOCK:   -6.58 KCAL/MOL
REMARK 924 INTRA-LIGAND FREE ENERGY PREDICTED BY IDOCK:   -0.73 KCAL/MOL
REMARK 927      BINDING AFFINITY PREDICTED BY RF-SCORE:    0.00 PKD
ROOT
HETATM    1  O   UNL     1      -9.191   4.708  67.391  1.00  0.00    -0.119 OA 
HETATM    2  S   UNL     1      -8.972   5.574  66.054  1.00  0.00    -0.153 S  
HETATM    3  C   UNL     1      -9.632   7.125  66.787  1.00  0.00    -0.178 C  
HETATM    4  O   UNL     1      -9.981   5.043  65.080  1.00  0.00     0.022 OA 
ENDROOT
BRANCH   3   5
HETATM    5  N   UNL     1      -9.570   8.167  65.762  1.00  0.00    -0.432 NA 
HETATM    6  H   UNL     1      -9.160   7.990  64.845  1.00  0.00     0.000 HD 
BRANCH   5   7
HETATM    7  C   UNL     1     -10.101   9.422  66.101  1.00  0.00    -0.254 A  
HETATM    8  C   UNL     1     -10.244  10.464  65.175  1.00  0.00    -0.326 A  
HETATM    9  C   UNL     1     -10.764  11.705  65.553  1.00  0.00    -0.333 A  
HETATM   10  C   UNL     1     -11.167  11.911  66.873  1.00  0.00    -0.325 A  
HETATM   11  C   UNL     1     -11.161  10.851  67.779  1.00  0.00    -0.384 A  
HETATM   12  C   UNL     1     -10.641   9.612  67.384  1.00  0.00    -0.333 A  
BRANCH  10  13
HETATM   13  S   UNL     1     -11.745  13.521  67.370  1.00  0.00    -0.391 S  
HETATM   14  O   UNL     1     -12.613  14.019  66.317  1.00  0.00    -0.451 OA 
HETATM   15  O   UNL     1     -12.237  13.392  68.732  1.00  0.00    -0.295 OA 
BRANCH  13  16
HETATM   16  C   UNL     1     -10.333  14.615  67.412  1.00  0.00    -0.241 A  
HETATM   17  C   UNL     1     -10.457  15.916  66.923  1.00  0.00    -0.309 A  
HETATM   18  C   UNL     1      -9.376  16.802  67.017  1.00  0.00    -0.244 A  
HETATM   19  C   UNL     1      -8.176  16.426  67.642  1.00  0.00    -0.153 A  
HETATM   20  C   UNL     1      -9.126  14.191  67.968  1.00  0.00    -0.191 A  
HETATM   21  C   UNL     1      -8.054  15.091  68.066  1.00  0.00    -0.132 A  
BRANCH  19  22
HETATM   22  N   UNL     1      -7.058  17.291  67.751  1.00  0.00    -0.159 NA 
HETATM   23  H   UNL     1      -6.517  17.594  66.941  1.00  0.00     0.000 HD 
BRANCH  22  24
HETATM   24  C   UNL     1      -6.737  17.718  69.124  1.00  0.00    -0.239 C  
HETATM   25  S   UNL     1      -6.360  19.521  69.073  1.00  0.00    -0.301 S  
HETATM   26  O   UNL     1      -6.373  20.025  70.485  1.00  0.00    -0.347 OA 
HETATM   27  O   UNL     1      -7.775  19.921  68.413  1.00  0.00    -0.311 OA 
ENDBRANCH  22  24
ENDBRANCH  19  22
ENDBRANCH  13  16
ENDBRANCH  10  13
ENDBRANCH   5   7
ENDBRANCH   3   5
TORSDOF 6
ENDMDL
MODEL       88
REMARK 921   NORMALIZED FREE ENERGY PREDICTED BY IDOCK:   -4.77 KCAL/MOL
REMARK 922        TOTAL FREE ENERGY PREDICTED BY IDOCK:   -7.24 KCAL/MOL
REMARK 923 INTER-LIGAND FREE ENERGY PREDICTED BY IDOCK:   -6.46 KCAL/MOL
REMARK 924 INTRA-LIGAND FREE ENERGY PREDICTED BY IDOCK:   -0.77 KCAL/MOL
REMARK 927      BINDING AFFINITY PREDICTED BY RF-SCORE:    0.00 PKD
ROOT
HETATM    1  O   UNL     1      -6.554  19.753  70.396  1.00  0.00    -0.231 OA 
HETATM    2  S   UNL     1      -6.905  19.247  68.911  1.00  0.00    -0.343 S  
HETATM    3  C   UNL     1      -6.010  17.652  69.096  1.00  0.00    -0.212 C  
HETATM    4  O   UNL     1      -6.109  20.135  68.002  1.00  0.00    -0.221 OA 
ENDROOT
BRANCH   3   5
HETATM    5  N   UNL     1      -6.143  16.915  67.839  1.00  0.00    -0.129 NA 
HETATM    6  H   UNL     1      -5.372  16.852  67.174  1.00  0.00     0.000 HD 
BRANCH   5   7
HETATM    7  C   UNL     1      -7.380  16.300  67.593  1.00  0.00    -0.140 A  
HETATM    8  C   UNL     1      -8.025  15.483  68.532  1.00  0.00    -0.137 A  
HETATM    9  C   UNL     1      -9.251  14.875  68.246  1.00  0.00    -0.187 A  
HETATM   10  C   UNL     1      -9.858  15.096  67.009  1.00  0.00    -0.230 A  
HETATM   11  C   UNL     1      -9.305  16.010  66.113  1.00  0.00    -0.377 A  
HETATM   12  C   UNL     1      -8.078  16.614  66.416  1.00  0.00    -0.359 A  
BRANCH  10  13
HETATM   13  S   UNL     1     -11.374  14.248  66.615  1.00  0.00    -0.362 S  
HETATM   14  O   UNL     1     -12.320  14.525  67.682  1.00  0.00    -0.218 OA 
HETATM   15  O   UNL     1     -11.699  14.580  65.237  1.00  0.00    -0.348 OA 
BRANCH  13  16
HETATM   16  C   UNL     1     -11.047  12.493  66.681  1.00  0.00    -0.283 A  
HETATM   17  C   UNL     1     -10.242  11.908  65.703  1.00  0.00    -0.280 A  
HETATM   18  C   UNL     1      -9.922  10.546  65.786  1.00  0.00    -0.318 A  
HETATM   19  C   UNL     1     -10.352   9.760  66.868  1.00  0.00    -0.234 A  
HETATM   20  C   UNL     1     -11.551  11.718  67.724  1.00  0.00    -0.374 A  
HETATM   21  C   UNL     1     -11.215  10.358  67.802  1.00  0.00    -0.309 A  
BRANCH  19  22
HETATM   22  N   UNL     1     -10.055   8.379  66.985  1.00  0.00    -0.255 NA 
HETATM   23  H   UNL     1      -9.824   7.796  66.180  1.00  0.00     0.000 HD 
BRANCH  22  24
HETATM   24  C   UNL     1     -10.106   7.850  68.359  1.00  0.00    -0.194 C  
HETATM   25  S   UNL     1     -10.993   6.236  68.302  1.00  0.00    -0.263 S  
HETATM   26  O   UNL     1     -10.751   5.541  69.608  1.00  0.00    -0.322 OA 
HETATM   27  O   UNL     1      -9.988   5.585  67.224  1.00  0.00    -0.138 OA 
ENDBRANCH  22  24
ENDBRANCH  19  22
ENDBRANCH  13  16
ENDBRANCH  10  13
ENDBRANCH   5   7
ENDBRANCH   3   5
TORSDOF 6
ENDMDL
MODEL       89
REMARK 921   NORMALIZED FREE ENERGY PREDICTED BY IDOCK:   -4.77 KCAL/MOL
REMARK 922        TOTAL FREE ENERGY PREDICTED BY IDOCK:   -7.24 KCAL/MOL
REMARK 923 INTER-LIGAND FREE ENERGY PREDICTED BY IDOCK:   -6.45 KCAL/MOL
REMARK 924 INTRA-LIGAND FREE ENERGY PREDICTED BY IDOCK:   -0.79 KCAL/MOL
REMARK 927      BINDING AFFINITY PREDICTED BY RF-SCORE:    0.00 PKD
ROOT
HETATM    1  O   UNL     1      -8.493  19.432  68.945  1.00  0.00    -0.367 OA 
HETATM    2  S   UNL     1      -9.435  18.870  67.770  1.00  0.00    -0.310 S  
HETATM    3  C   UNL     1      -8.084  17.930  66.950  1.00  0.00    -0.229 C  
HETATM    4  O   UNL     1      -9.759  20.068  66.928  1.00  0.00    -0.370 OA 
ENDROOT
BRANCH   3   5
HETATM    5  N   UNL     1      -8.648  17.270  65.773  1.00  0.00    -0.497 NA 
HETATM    6  H   UNL     1      -8.537  17.660  64.837  1.00  0.00     0.000 HD 
BRANCH   5   7
HETATM    7  C   UNL     1      -9.348  16.073  65.993  1.00  0.00    -0.345 A  
HETATM    8  C   UNL     1      -8.923  15.098  66.905  1.00  0.00    -0.277 A  
HETATM    9  C   UNL     1      -9.640  13.912  67.087  1.00  0.00    -0.247 A  
HETATM   10  C   UNL     1     -10.812  13.696  66.362  1.00  0.00    -0.290 A  
HETATM   11  C   UNL     1     -11.328  14.706  65.551  1.00  0.00    -0.341 A  
HETATM   12  C   UNL     1     -10.600  15.891  65.382  1.00  0.00    -0.439 A  
BRANCH  10  13
HETATM   13  S   UNL     1     -11.672  12.145  66.531  1.00  0.00    -0.240 S  
HETATM   14  O   UNL     1     -12.277  12.122  67.851  1.00  0.00    -0.438 OA 
HETATM   15  O   UNL     1     -12.493  11.985  65.341  1.00  0.00    -0.421 OA 
BRANCH  13  16
HETATM   16  C   UNL     1     -10.450  10.843  66.518  1.00  0.00    -0.253 A  
HETATM   17  C   UNL     1     -10.219  10.105  67.679  1.00  0.00    -0.246 A  
HETATM   18  C   UNL     1      -9.314   9.036  67.659  1.00  0.00    -0.154 A  
HETATM   19  C   UNL     1      -8.665   8.652  66.474  1.00  0.00    -0.126 A  
HETATM   20  C   UNL     1      -9.760  10.531  65.346  1.00  0.00    -0.315 A  
HETATM   21  C   UNL     1      -8.863   9.452  65.336  1.00  0.00    -0.220 A  
BRANCH  19  22
HETATM   22  N   UNL     1      -7.737   7.582  66.414  1.00  0.00    -0.088 NA 
HETATM   23  H   UNL     1      -7.574   6.950  67.199  1.00  0.00     0.000 HD 
BRANCH  22  24
HETATM   24  C   UNL     1      -7.026   7.451  65.130  1.00  0.00    -0.058 C  
HETATM   25  S   UNL     1      -6.631   5.668  64.891  1.00  0.00    -0.043 S  
HETATM   26  O   UNL     1      -6.226   5.483  63.459  1.00  0.00    -0.021 OA 
HETATM   27  O   UNL     1      -8.164   5.187  65.016  1.00  0.00    -0.117 OA 
ENDBRANCH  22  24
ENDBRANCH  19  22
ENDBRANCH  13  16
ENDBRANCH  10  13
ENDBRANCH   5   7
ENDBRANCH   3   5
TORSDOF 6
ENDMDL
MODEL       90
REMARK 921   NORMALIZED FREE ENERGY PREDICTED BY IDOCK:   -4.76 KCAL/MOL
REMARK 922        TOTAL FREE ENERGY PREDICTED BY IDOCK:   -7.23 KCAL/MOL
REMARK 923 INTER-LIGAND FREE ENERGY PREDICTED BY IDOCK:   -6.48 KCAL/MOL
REMARK 924 INTRA-LIGAND FREE ENERGY PREDICTED BY IDOCK:   -0.74 KCAL/MOL
REMARK 927      BINDING AFFINITY PREDICTED BY RF-SCORE:    0.00 PKD
ROOT
HETATM    1  O   UNL     1      -7.630   3.135  69.975  1.00  0.00    -0.044 OA 
HETATM    2  S   UNL     1      -8.694   3.845  69.001  1.00  0.00    -0.101 S  
HETATM    3  C   UNL     1      -9.595   4.679  70.370  1.00  0.00    -0.200 C  
HETATM    4  O   UNL     1      -9.549   2.728  68.482  1.00  0.00    -0.172 OA 
ENDROOT
BRANCH   3   5
HETATM    5  N   UNL     1     -10.691   5.449  69.781  1.00  0.00    -0.284 NA 
HETATM    6  H   UNL     1     -11.666   5.182  69.920  1.00  0.00     0.000 HD 
BRANCH   5   7
HETATM    7  C   UNL     1     -10.337   6.572  69.017  1.00  0.00    -0.195 A  
HETATM    8  C   UNL     1      -9.419   7.534  69.457  1.00  0.00    -0.156 A  
HETATM    9  C   UNL     1      -9.102   8.648  68.673  1.00  0.00    -0.138 A  
HETATM   10  C   UNL     1      -9.695   8.800  67.420  1.00  0.00    -0.174 A  
HETATM   11  C   UNL     1     -10.506   7.791  66.903  1.00  0.00    -0.388 A  
HETATM   12  C   UNL     1     -10.810   6.679  67.699  1.00  0.00    -0.393 A  
BRANCH  10  13
HETATM   13  S   UNL     1      -9.357  10.265  66.464  1.00  0.00    -0.171 S  
HETATM   14  O   UNL     1      -7.938  10.549  66.586  1.00  0.00    -0.116 OA 
HETATM   15  O   UNL     1      -9.959  10.065  65.156  1.00  0.00    -0.323 OA 
BRANCH  13  16
HETATM   16  C   UNL     1     -10.208  11.629  67.243  1.00  0.00    -0.201 A  
HETATM   17  C   UNL     1     -11.234  11.369  68.153  1.00  0.00    -0.343 A  
HETATM   18  C   UNL     1     -11.859  12.429  68.822  1.00  0.00    -0.358 A  
HETATM   19  C   UNL     1     -11.440  13.757  68.637  1.00  0.00    -0.301 A  
HETATM   20  C   UNL     1      -9.825  12.944  66.983  1.00  0.00    -0.233 A  
HETATM   21  C   UNL     1     -10.452  13.997  67.666  1.00  0.00    -0.245 A  
BRANCH  19  22
HETATM   22  N   UNL     1     -12.051  14.857  69.289  1.00  0.00    -0.497 NA 
HETATM   23  H   UNL     1     -11.955  15.817  68.955  1.00  0.00     0.000 HD 
BRANCH  22  24
HETATM   24  C   UNL     1     -12.836  14.508  70.486  1.00  0.00    -0.304 C  
HETATM   25  S   UNL     1     -11.788  14.855  71.961  1.00  0.00    -0.264 S  
HETATM   26  O   UNL     1     -12.680  14.833  73.165  1.00  0.00    -0.445 OA 
HETATM   27  O   UNL     1     -11.548  16.402  71.576  1.00  0.00    -0.437 OA 
ENDBRANCH  22  24
ENDBRANCH  19  22
ENDBRANCH  13  16
ENDBRANCH  10  13
ENDBRANCH   5   7
ENDBRANCH   3   5
TORSDOF 6
ENDMDL
MODEL       91
REMARK 921   NORMALIZED FREE ENERGY PREDICTED BY IDOCK:   -4.75 KCAL/MOL
REMARK 922        TOTAL FREE ENERGY PREDICTED BY IDOCK:   -7.21 KCAL/MOL
REMARK 923 INTER-LIGAND FREE ENERGY PREDICTED BY IDOCK:   -6.47 KCAL/MOL
REMARK 924 INTRA-LIGAND FREE ENERGY PREDICTED BY IDOCK:   -0.74 KCAL/MOL
REMARK 927      BINDING AFFINITY PREDICTED BY RF-SCORE:    0.00 PKD
ROOT
HETATM    1  O   UNL     1      -8.511   8.569  73.759  1.00  0.00    -0.337 OA 
HETATM    2  S   UNL     1      -8.609   8.137  72.213  1.00  0.00    -0.191 S  
HETATM    3  C   UNL     1     -10.184   9.038  71.919  1.00  0.00    -0.272 C  
HETATM    4  O   UNL     1      -8.901   6.667  72.241  1.00  0.00    -0.133 OA 
ENDROOT
BRANCH   3   5
HETATM    5  N   UNL     1     -10.567   8.828  70.523  1.00  0.00    -0.207 NA 
HETATM    6  H   UNL     1     -10.734   7.893  70.150  1.00  0.00     0.000 HD 
BRANCH   5   7
HETATM    7  C   UNL     1     -10.695   9.973  69.722  1.00  0.00    -0.271 A  
HETATM    8  C   UNL     1     -11.662  10.961  69.953  1.00  0.00    -0.418 A  
HETATM    9  C   UNL     1     -11.768  12.081  69.124  1.00  0.00    -0.389 A  
HETATM   10  C   UNL     1     -10.885  12.236  68.056  1.00  0.00    -0.220 A  
HETATM   11  C   UNL     1      -9.830  11.339  67.886  1.00  0.00    -0.187 A  
HETATM   12  C   UNL     1      -9.735  10.223  68.728  1.00  0.00    -0.178 A  
BRANCH  10  13
HETATM   13  S   UNL     1     -11.081  13.618  66.950  1.00  0.00    -0.311 S  
HETATM   14  O   UNL     1     -10.585  13.211  65.648  1.00  0.00    -0.270 OA 
HETATM   15  O   UNL     1     -12.447  14.092  67.103  1.00  0.00    -0.293 OA 
BRANCH  13  16
HETATM   16  C   UNL     1      -9.996  14.921  67.513  1.00  0.00    -0.219 A  
HETATM   17  C   UNL     1      -8.620  14.803  67.313  1.00  0.00    -0.230 A  
HETATM   18  C   UNL     1      -7.768  15.851  67.687  1.00  0.00    -0.169 A  
HETATM   19  C   UNL     1      -8.274  17.049  68.216  1.00  0.00    -0.227 A  
HETATM   20  C   UNL     1     -10.517  16.069  68.108  1.00  0.00    -0.269 A  
HETATM   21  C   UNL     1      -9.655  17.116  68.469  1.00  0.00    -0.288 A  
BRANCH  19  22
HETATM   22  N   UNL     1      -7.445  18.129  68.613  1.00  0.00    -0.285 NA 
HETATM   23  H   UNL     1      -7.463  18.518  69.556  1.00  0.00     0.000 HD 
BRANCH  22  24
HETATM   24  C   UNL     1      -6.556  18.646  67.558  1.00  0.00    -0.198 C  
HETATM   25  S   UNL     1      -7.618  19.378  66.242  1.00  0.00    -0.299 S  
HETATM   26  O   UNL     1      -6.734  20.197  65.352  1.00  0.00    -0.271 OA 
HETATM   27  O   UNL     1      -8.361  20.399  67.243  1.00  0.00    -0.338 OA 
ENDBRANCH  22  24
ENDBRANCH  19  22
ENDBRANCH  13  16
ENDBRANCH  10  13
ENDBRANCH   5   7
ENDBRANCH   3   5
TORSDOF 6
ENDMDL
MODEL       92
REMARK 921   NORMALIZED FREE ENERGY PREDICTED BY IDOCK:   -4.70 KCAL/MOL
REMARK 922        TOTAL FREE ENERGY PREDICTED BY IDOCK:   -7.14 KCAL/MOL
REMARK 923 INTER-LIGAND FREE ENERGY PREDICTED BY IDOCK:   -7.22 KCAL/MOL
REMARK 924 INTRA-LIGAND FREE ENERGY PREDICTED BY IDOCK:    0.08 KCAL/MOL
REMARK 927      BINDING AFFINITY PREDICTED BY RF-SCORE:    0.00 PKD
ROOT
HETATM    1  O   UNL     1      -8.928   6.299  71.501  1.00  0.00    -0.142 OA 
HETATM    2  S   UNL     1     -10.063   6.639  70.414  1.00  0.00    -0.184 S  
HETATM    3  C   UNL     1     -10.761   8.039  71.379  1.00  0.00    -0.229 C  
HETATM    4  O   UNL     1     -11.022   5.488  70.484  1.00  0.00    -0.244 OA 
ENDROOT
BRANCH   3   5
HETATM    5  N   UNL     1     -11.881   8.593  70.619  1.00  0.00    -0.465 NA 
HETATM    6  H   UNL     1     -12.454   8.009  70.009  1.00  0.00     0.000 HD 
BRANCH   5   7
HETATM    7  C   UNL     1     -12.129   9.967  70.767  1.00  0.00    -0.308 A  
HETATM    8  C   UNL     1     -11.753  10.917  69.809  1.00  0.00    -0.413 A  
HETATM    9  C   UNL     1     -12.004  12.279  69.998  1.00  0.00    -0.379 A  
HETATM   10  C   UNL     1     -12.659  12.705  71.154  1.00  0.00    -0.258 A  
HETATM   11  C   UNL     1     -13.163  11.770  72.057  1.00  0.00    -0.460 A  
HETATM   12  C   UNL     1     -12.907  10.408  71.851  1.00  0.00    -0.519 A  
BRANCH  10  13
HETATM   13  S   UNL     1     -12.897  14.449  71.433  1.00  0.00    -0.361 S  
HETATM   14  O   UNL     1     -14.306  14.735  71.233  1.00  0.00    -0.422 OA 
HETATM   15  O   UNL     1     -12.252  14.767  72.696  1.00  0.00    -0.307 OA 
BRANCH  13  16
HETATM   16  C   UNL     1     -12.021  15.328  70.148  1.00  0.00    -0.338 A  
HETATM   17  C   UNL     1     -11.041  16.258  70.496  1.00  0.00    -0.293 A  
HETATM   18  C   UNL     1     -10.300  16.899  69.495  1.00  0.00    -0.189 A  
HETATM   19  C   UNL     1     -10.485  16.589  68.138  1.00  0.00    -0.313 A  
HETATM   20  C   UNL     1     -12.278  15.058  68.804  1.00  0.00    -0.117 A  
HETATM   21  C   UNL     1     -11.522  15.699  67.811  1.00  0.00    -0.209 A  
BRANCH  19  22
HETATM   22  N   UNL     1      -9.760  17.220  67.096  1.00  0.00    -0.252 NA 
HETATM   23  H   UNL     1     -10.217  17.737  66.344  1.00  0.00     0.000 HD 
BRANCH  22  24
HETATM   24  C   UNL     1      -8.297  17.074  67.183  1.00  0.00    -0.191 C  
HETATM   25  S   UNL     1      -7.934  15.304  67.543  1.00  0.00    -0.192 S  
HETATM   26  O   UNL     1      -6.473  15.082  67.295  1.00  0.00    -0.305 OA 
HETATM   27  O   UNL     1      -8.724  14.754  66.251  1.00  0.00    -0.135 OA 
ENDBRANCH  22  24
ENDBRANCH  19  22
ENDBRANCH  13  16
ENDBRANCH  10  13
ENDBRANCH   5   7
ENDBRANCH   3   5
TORSDOF 6
ENDMDL
MODEL       93
REMARK 921   NORMALIZED FREE ENERGY PREDICTED BY IDOCK:   -4.69 KCAL/MOL
REMARK 922        TOTAL FREE ENERGY PREDICTED BY IDOCK:   -7.13 KCAL/MOL
REMARK 923 INTER-LIGAND FREE ENERGY PREDICTED BY IDOCK:   -6.53 KCAL/MOL
REMARK 924 INTRA-LIGAND FREE ENERGY PREDICTED BY IDOCK:   -0.60 KCAL/MOL
REMARK 927      BINDING AFFINITY PREDICTED BY RF-SCORE:    0.00 PKD
ROOT
HETATM    1  O   UNL     1      -6.552   9.520  74.538  1.00  0.00    -0.350 OA 
HETATM    2  S   UNL     1      -6.470   8.182  73.649  1.00  0.00    -0.120 S  
HETATM    3  C   UNL     1      -8.278   7.858  73.723  1.00  0.00    -0.224 C  
HETATM    4  O   UNL     1      -5.773   7.181  74.521  1.00  0.00    -0.068 OA 
ENDROOT
BRANCH   3   5
HETATM    5  N   UNL     1      -8.546   6.634  72.969  1.00  0.00    -0.118 NA 
HETATM    6  H   UNL     1      -8.456   5.713  73.398  1.00  0.00     0.000 HD 
BRANCH   5   7
HETATM    7  C   UNL     1      -8.931   6.787  71.628  1.00  0.00    -0.136 A  
HETATM    8  C   UNL     1     -10.271   6.865  71.225  1.00  0.00    -0.213 A  
HETATM    9  C   UNL     1     -10.616   7.003  69.877  1.00  0.00    -0.249 A  
HETATM   10  C   UNL     1      -9.612   7.084  68.912  1.00  0.00    -0.140 A  
HETATM   11  C   UNL     1      -8.274   7.144  69.299  1.00  0.00    -0.128 A  
HETATM   12  C   UNL     1      -7.944   7.009  70.654  1.00  0.00    -0.109 A  
BRANCH  10  13
HETATM   13  S   UNL     1     -10.059   7.169  67.190  1.00  0.00    -0.252 S  
HETATM   14  O   UNL     1      -8.971   6.584  66.427  1.00  0.00    -0.140 OA 
HETATM   15  O   UNL     1     -11.408   6.638  67.076  1.00  0.00    -0.348 OA 
BRANCH  13  16
HETATM   16  C   UNL     1     -10.121   8.894  66.730  1.00  0.00    -0.280 A  
HETATM   17  C   UNL     1     -10.530   9.841  67.670  1.00  0.00    -0.305 A  
HETATM   18  C   UNL     1     -10.513  11.203  67.341  1.00  0.00    -0.255 A  
HETATM   19  C   UNL     1     -10.043  11.647  66.095  1.00  0.00    -0.224 A  
HETATM   20  C   UNL     1      -9.722   9.302  65.458  1.00  0.00    -0.247 A  
HETATM   21  C   UNL     1      -9.701  10.670  65.144  1.00  0.00    -0.327 A  
BRANCH  19  22
HETATM   22  N   UNL     1     -10.017  13.014  65.722  1.00  0.00    -0.342 NA 
HETATM   23  H   UNL     1      -9.723  13.753  66.361  1.00  0.00     0.000 HD 
BRANCH  22  24
HETATM   24  C   UNL     1     -10.447  13.286  64.339  1.00  0.00    -0.404 C  
HETATM   25  S   UNL     1     -12.273  13.050  64.267  1.00  0.00    -0.394 S  
HETATM   26  O   UNL     1     -12.756  13.648  62.980  1.00  0.00    -0.681 OA 
HETATM   27  O   UNL     1     -12.578  14.121  65.432  1.00  0.00    -0.478 OA 
ENDBRANCH  22  24
ENDBRANCH  19  22
ENDBRANCH  13  16
ENDBRANCH  10  13
ENDBRANCH   5   7
ENDBRANCH   3   5
TORSDOF 6
ENDMDL
MODEL       94
REMARK 921   NORMALIZED FREE ENERGY PREDICTED BY IDOCK:   -4.69 KCAL/MOL
REMARK 922        TOTAL FREE ENERGY PREDICTED BY IDOCK:   -7.13 KCAL/MOL
REMARK 923 INTER-LIGAND FREE ENERGY PREDICTED BY IDOCK:   -6.38 KCAL/MOL
REMARK 924 INTRA-LIGAND FREE ENERGY PREDICTED BY IDOCK:   -0.75 KCAL/MOL
REMARK 927      BINDING AFFINITY PREDICTED BY RF-SCORE:    0.00 PKD
ROOT
HETATM    1  O   UNL     1      -9.531  16.049  69.211  1.00  0.00    -0.236 OA 
HETATM    2  S   UNL     1     -10.526  15.039  68.454  1.00  0.00    -0.244 S  
HETATM    3  C   UNL     1     -11.323  14.448  70.002  1.00  0.00    -0.198 C  
HETATM    4  O   UNL     1      -9.644  13.948  67.927  1.00  0.00    -0.213 OA 
ENDROOT
BRANCH   3   5
HETATM    5  N   UNL     1     -12.334  13.456  69.635  1.00  0.00    -0.199 NA 
HETATM    6  H   UNL     1     -13.136  13.701  69.055  1.00  0.00     0.000 HD 
BRANCH   5   7
HETATM    7  C   UNL     1     -12.147  12.152  70.119  1.00  0.00    -0.290 A  
HETATM    8  C   UNL     1     -11.191  11.274  69.593  1.00  0.00    -0.321 A  
HETATM    9  C   UNL     1     -11.044   9.976  70.092  1.00  0.00    -0.371 A  
HETATM   10  C   UNL     1     -11.849   9.547  71.147  1.00  0.00    -0.358 A  
HETATM   11  C   UNL     1     -12.712  10.444  71.776  1.00  0.00    -0.525 A  
HETATM   12  C   UNL     1     -12.846  11.742  71.267  1.00  0.00    -0.409 A  
BRANCH  10  13
HETATM   13  S   UNL     1     -11.721   7.865  71.720  1.00  0.00    -0.304 S  
HETATM   14  O   UNL     1     -11.031   7.890  72.997  1.00  0.00    -0.393 OA 
HETATM   15  O   UNL     1     -13.046   7.278  71.608  1.00  0.00    -0.361 OA 
BRANCH  13  16
HETATM   16  C   UNL     1     -10.649   6.989  70.590  1.00  0.00    -0.225 A  
HETATM   17  C   UNL     1      -9.265   7.090  70.739  1.00  0.00    -0.157 A  
HETATM   18  C   UNL     1      -8.418   6.350  69.903  1.00  0.00    -0.131 A  
HETATM   19  C   UNL     1      -8.932   5.463  68.944  1.00  0.00    -0.117 A  
HETATM   20  C   UNL     1     -11.185   6.174  69.594  1.00  0.00    -0.488 A  
HETATM   21  C   UNL     1     -10.327   5.430  68.770  1.00  0.00    -0.240 A  
BRANCH  19  22
HETATM   22  N   UNL     1      -8.109   4.703  68.075  1.00  0.00    -0.088 NA 
HETATM   23  H   UNL     1      -7.199   4.340  68.358  1.00  0.00     0.000 HD 
BRANCH  22  24
HETATM   24  C   UNL     1      -8.671   4.478  66.731  1.00  0.00    -0.111 C  
HETATM   25  S   UNL     1      -8.438   2.696  66.321  1.00  0.00    -0.103 S  
HETATM   26  O   UNL     1      -9.297   2.391  65.132  1.00  0.00    -0.137 OA 
HETATM   27  O   UNL     1      -9.227   2.170  67.624  1.00  0.00    -0.160 OA 
ENDBRANCH  22  24
ENDBRANCH  19  22
ENDBRANCH  13  16
ENDBRANCH  10  13
ENDBRANCH   5   7
ENDBRANCH   3   5
TORSDOF 6
ENDMDL
MODEL       95
REMARK 921   NORMALIZED FREE ENERGY PREDICTED BY IDOCK:   -4.68 KCAL/MOL
REMARK 922        TOTAL FREE ENERGY PREDICTED BY IDOCK:   -7.12 KCAL/MOL
REMARK 923 INTER-LIGAND FREE ENERGY PREDICTED BY IDOCK:   -6.38 KCAL/MOL
REMARK 924 INTRA-LIGAND FREE ENERGY PREDICTED BY IDOCK:   -0.74 KCAL/MOL
REMARK 927      BINDING AFFINITY PREDICTED BY RF-SCORE:    0.00 PKD
ROOT
HETATM    1  O   UNL     1     -12.599  14.057  65.951  1.00  0.00    -0.488 OA 
HETATM    2  S   UNL     1     -12.324  13.203  64.617  1.00  0.00    -0.393 S  
HETATM    3  C   UNL     1     -10.512  13.086  64.902  1.00  0.00    -0.339 C  
HETATM    4  O   UNL     1     -12.567  14.159  63.489  1.00  0.00    -0.834 OA 
ENDROOT
BRANCH   3   5
HETATM    5  N   UNL     1      -9.932  12.326  63.795  1.00  0.00    -0.573 NA 
HETATM    6  H   UNL     1      -9.873  12.715  62.853  1.00  0.00     0.000 HD 
BRANCH   5   7
HETATM    7  C   UNL     1      -9.461  11.037  64.089  1.00  0.00    -0.242 A  
HETATM    8  C   UNL     1      -9.715  10.394  65.308  1.00  0.00    -0.339 A  
HETATM    9  C   UNL     1      -9.217   9.114  65.571  1.00  0.00    -0.287 A  
HETATM   10  C   UNL     1      -8.468   8.452  64.599  1.00  0.00    -0.075 A  
HETATM   11  C   UNL     1      -8.317   9.013  63.331  1.00  0.00    -0.187 A  
HETATM   12  C   UNL     1      -8.825  10.294  63.081  1.00  0.00    -0.226 A  
BRANCH  10  13
HETATM   13  S   UNL     1      -7.760   6.860  64.972  1.00  0.00    -0.118 S  
HETATM   14  O   UNL     1      -8.219   5.929  63.957  1.00  0.00    -0.123 OA 
HETATM   15  O   UNL     1      -6.339   7.070  65.192  1.00  0.00    -0.036 OA 
BRANCH  13  16
HETATM   16  C   UNL     1      -8.465   6.302  66.516  1.00  0.00    -0.121 A  
HETATM   17  C   UNL     1      -7.734   6.444  67.696  1.00  0.00    -0.102 A  
HETATM   18  C   UNL     1      -8.307   6.075  68.920  1.00  0.00    -0.107 A  
HETATM   19  C   UNL     1      -9.630   5.610  68.996  1.00  0.00    -0.135 A  
HETATM   20  C   UNL     1      -9.754   5.770  66.554  1.00  0.00    -0.185 A  
HETATM   21  C   UNL     1     -10.320   5.413  67.788  1.00  0.00    -0.226 A  
BRANCH  19  22
HETATM   22  N   UNL     1     -10.242   5.220  70.214  1.00  0.00    -0.256 NA 
HETATM   23  H   UNL     1     -10.019   4.344  70.686  1.00  0.00     0.000 HD 
BRANCH  22  24
HETATM   24  C   UNL     1     -11.228   6.179  70.745  1.00  0.00    -0.306 C  
HETATM   25  S   UNL     1     -10.824   6.468  72.519  1.00  0.00    -0.251 S  
HETATM   26  O   UNL     1     -11.589   7.677  72.965  1.00  0.00    -0.298 OA 
HETATM   27  O   UNL     1      -9.313   6.945  72.222  1.00  0.00    -0.139 OA 
ENDBRANCH  22  24
ENDBRANCH  19  22
ENDBRANCH  13  16
ENDBRANCH  10  13
ENDBRANCH   5   7
ENDBRANCH   3   5
TORSDOF 6
ENDMDL
MODEL       96
REMARK 921   NORMALIZED FREE ENERGY PREDICTED BY IDOCK:   -4.67 KCAL/MOL
REMARK 922        TOTAL FREE ENERGY PREDICTED BY IDOCK:   -7.11 KCAL/MOL
REMARK 923 INTER-LIGAND FREE ENERGY PREDICTED BY IDOCK:   -6.51 KCAL/MOL
REMARK 924 INTRA-LIGAND FREE ENERGY PREDICTED BY IDOCK:   -0.60 KCAL/MOL
REMARK 927      BINDING AFFINITY PREDICTED BY RF-SCORE:    0.00 PKD
ROOT
HETATM    1  O   UNL     1      -8.947   2.403  64.923  1.00  0.00    -0.115 OA 
HETATM    2  S   UNL     1      -8.829   1.971  66.467  1.00  0.00    -0.103 S  
HETATM    3  C   UNL     1      -9.413   3.594  67.106  1.00  0.00    -0.194 C  
HETATM    4  O   UNL     1      -7.357   1.861  66.726  1.00  0.00    -0.054 OA 
ENDROOT
BRANCH   3   5
HETATM    5  N   UNL     1      -9.416   3.525  68.567  1.00  0.00    -0.164 NA 
HETATM    6  H   UNL     1      -9.305   2.639  69.060  1.00  0.00     0.000 HD 
BRANCH   5   7
HETATM    7  C   UNL     1      -9.579   4.736  69.258  1.00  0.00    -0.173 A  
HETATM    8  C   UNL     1     -10.751   5.502  69.186  1.00  0.00    -0.260 A  
HETATM    9  C   UNL     1     -10.872   6.711  69.877  1.00  0.00    -0.329 A  
HETATM   10  C   UNL     1      -9.816   7.161  70.670  1.00  0.00    -0.182 A  
HETATM   11  C   UNL     1      -8.695   6.354  70.864  1.00  0.00    -0.136 A  
HETATM   12  C   UNL     1      -8.591   5.143  70.168  1.00  0.00    -0.116 A  
BRANCH  10  13
HETATM   13  S   UNL     1      -9.939   8.745  71.476  1.00  0.00    -0.325 S  
HETATM   14  O   UNL     1     -10.921   8.619  72.538  1.00  0.00    -0.316 OA 
HETATM   15  O   UNL     1      -8.583   9.175  71.773  1.00  0.00    -0.340 OA 
BRANCH  13  16
HETATM   16  C   UNL     1     -10.622   9.901  70.297  1.00  0.00    -0.301 A  
HETATM   17  C   UNL     1     -11.667  10.740  70.685  1.00  0.00    -0.442 A  
HETATM   18  C   UNL     1     -12.161  11.699  69.790  1.00  0.00    -0.285 A  
HETATM   19  C   UNL     1     -11.591  11.872  68.518  1.00  0.00    -0.318 A  
HETATM   20  C   UNL     1     -10.090  10.000  69.012  1.00  0.00    -0.211 A  
HETATM   21  C   UNL     1     -10.586  10.970  68.128  1.00  0.00    -0.226 A  
BRANCH  19  22
HETATM   22  N   UNL     1     -12.067  12.824  67.582  1.00  0.00    -0.351 NA 
HETATM   23  H   UNL     1     -13.040  12.856  67.276  1.00  0.00     0.000 HD 
BRANCH  22  24
HETATM   24  C   UNL     1     -11.048  13.766  67.086  1.00  0.00    -0.302 C  
HETATM   25  S   UNL     1     -11.229  13.870  65.255  1.00  0.00    -0.326 S  
HETATM   26  O   UNL     1     -10.445  15.060  64.791  1.00  0.00    -0.381 OA 
HETATM   27  O   UNL     1     -12.777  14.314  65.313  1.00  0.00    -0.554 OA 
ENDBRANCH  22  24
ENDBRANCH  19  22
ENDBRANCH  13  16
ENDBRANCH  10  13
ENDBRANCH   5   7
ENDBRANCH   3   5
TORSDOF 6
ENDMDL
MODEL       97
REMARK 921   NORMALIZED FREE ENERGY PREDICTED BY IDOCK:   -4.67 KCAL/MOL
REMARK 922        TOTAL FREE ENERGY PREDICTED BY IDOCK:   -7.10 KCAL/MOL
REMARK 923 INTER-LIGAND FREE ENERGY PREDICTED BY IDOCK:   -6.23 KCAL/MOL
REMARK 924 INTRA-LIGAND FREE ENERGY PREDICTED BY IDOCK:   -0.87 KCAL/MOL
REMARK 927      BINDING AFFINITY PREDICTED BY RF-SCORE:    0.00 PKD
ROOT
HETATM    1  O   UNL     1     -12.758  14.845  64.058  1.00  0.00    -0.792 OA 
HETATM    2  S   UNL     1     -11.283  14.760  64.693  1.00  0.00    -0.301 S  
HETATM    3  C   UNL     1     -11.030  13.003  64.215  1.00  0.00    -0.399 C  
HETATM    4  O   UNL     1     -11.496  14.823  66.175  1.00  0.00    -0.347 OA 
ENDROOT
BRANCH   3   5
HETATM    5  N   UNL     1      -9.704  12.598  64.680  1.00  0.00    -0.517 NA 
HETATM    6  H   UNL     1      -8.853  12.992  64.278  1.00  0.00     0.000 HD 
BRANCH   5   7
HETATM    7  C   UNL     1      -9.658  11.641  65.707  1.00  0.00    -0.232 A  
HETATM    8  C   UNL     1      -8.475  10.996  66.094  1.00  0.00    -0.168 A  
HETATM    9  C   UNL     1      -8.471  10.037  67.111  1.00  0.00    -0.125 A  
HETATM   10  C   UNL     1      -9.660   9.726  67.771  1.00  0.00    -0.135 A  
HETATM   11  C   UNL     1     -10.820  10.449  67.499  1.00  0.00    -0.358 A  
HETATM   12  C   UNL     1     -10.808  11.410  66.479  1.00  0.00    -0.334 A  
BRANCH  10  13
HETATM   13  S   UNL     1      -9.665   8.440  69.004  1.00  0.00    -0.174 S  
HETATM   14  O   UNL     1      -8.415   8.532  69.737  1.00  0.00    -0.124 OA 
HETATM   15  O   UNL     1     -10.937   8.530  69.703  1.00  0.00    -0.197 OA 
BRANCH  13  16
HETATM   16  C   UNL     1      -9.631   6.871  68.151  1.00  0.00    -0.124 A  
HETATM   17  C   UNL     1      -8.718   5.893  68.548  1.00  0.00    -0.112 A  
HETATM   18  C   UNL     1      -8.732   4.635  67.933  1.00  0.00    -0.111 A  
HETATM   19  C   UNL     1      -9.684   4.312  66.952  1.00  0.00    -0.214 A  
HETATM   20  C   UNL     1     -10.537   6.603  67.126  1.00  0.00    -0.401 A  
HETATM   21  C   UNL     1     -10.547   5.335  66.524  1.00  0.00    -0.348 A  
BRANCH  19  22
HETATM   22  N   UNL     1      -9.726   3.054  66.301  1.00  0.00    -0.395 NA 
HETATM   23  H   UNL     1      -9.736   2.171  66.812  1.00  0.00     0.000 HD 
BRANCH  22  24
HETATM   24  C   UNL     1      -9.755   3.120  64.829  1.00  0.00    -0.105 C  
HETATM   25  S   UNL     1      -8.027   3.388  64.249  1.00  0.00    -0.086 S  
HETATM   26  O   UNL     1      -7.998   3.115  62.776  1.00  0.00    -0.069 OA 
HETATM   27  O   UNL     1      -7.448   2.077  64.987  1.00  0.00    -0.060 OA 
ENDBRANCH  22  24
ENDBRANCH  19  22
ENDBRANCH  13  16
ENDBRANCH  10  13
ENDBRANCH   5   7
ENDBRANCH   3   5
TORSDOF 6
ENDMDL
MODEL       98
REMARK 921   NORMALIZED FREE ENERGY PREDICTED BY IDOCK:   -4.66 KCAL/MOL
REMARK 922        TOTAL FREE ENERGY PREDICTED BY IDOCK:   -7.10 KCAL/MOL
REMARK 923 INTER-LIGAND FREE ENERGY PREDICTED BY IDOCK:   -6.41 KCAL/MOL
REMARK 924 INTRA-LIGAND FREE ENERGY PREDICTED BY IDOCK:   -0.69 KCAL/MOL
REMARK 927      BINDING AFFINITY PREDICTED BY RF-SCORE:    0.00 PKD
ROOT
HETATM    1  O   UNL     1      -9.523   2.718  64.988  1.00  0.00    -0.149 OA 
HETATM    2  S   UNL     1      -9.300   4.042  64.103  1.00  0.00    -0.161 S  
HETATM    3  C   UNL     1      -9.077   5.142  65.559  1.00  0.00    -0.153 C  
HETATM    4  O   UNL     1     -10.639   4.329  63.492  1.00  0.00    -0.055 OA 
ENDROOT
BRANCH   3   5
HETATM    5  N   UNL     1      -8.846   6.499  65.064  1.00  0.00    -0.352 NA 
HETATM    6  H   UNL     1      -8.342   6.672  64.194  1.00  0.00     0.000 HD 
BRANCH   5   7
HETATM    7  C   UNL     1      -9.351   7.552  65.843  1.00  0.00     0.085 A  
HETATM    8  C   UNL     1      -9.229   8.899  65.474  1.00  0.00    -0.242 A  
HETATM    9  C   UNL     1      -9.732   9.922  66.284  1.00  0.00    -0.281 A  
HETATM   10  C   UNL     1     -10.387   9.601  67.473  1.00  0.00    -0.241 A  
HETATM   11  C   UNL     1     -10.640   8.268  67.794  1.00  0.00    -0.236 A  
HETATM   12  C   UNL     1     -10.132   7.254  66.971  1.00  0.00    -0.316 A  
BRANCH  10  13
HETATM   13  S   UNL     1     -10.946  10.910  68.544  1.00  0.00    -0.253 S  
HETATM   14  O   UNL     1     -12.391  10.809  68.640  1.00  0.00    -0.430 OA 
HETATM   15  O   UNL     1     -10.123  10.859  69.741  1.00  0.00    -0.035 OA 
BRANCH  13  16
HETATM   16  C   UNL     1     -10.608  12.462  67.726  1.00  0.00    -0.217 A  
HETATM   17  C   UNL     1      -9.358  13.063  67.883  1.00  0.00    -0.212 A  
HETATM   18  C   UNL     1      -9.059  14.243  67.189  1.00  0.00    -0.237 A  
HETATM   19  C   UNL     1      -9.975  14.813  66.290  1.00  0.00    -0.291 A  
HETATM   20  C   UNL     1     -11.565  13.050  66.899  1.00  0.00    -0.419 A  
HETATM   21  C   UNL     1     -11.250  14.226  66.202  1.00  0.00    -0.331 A  
BRANCH  19  22
HETATM   22  N   UNL     1      -9.713  16.009  65.575  1.00  0.00    -0.443 NA 
HETATM   23  H   UNL     1      -8.927  16.104  64.933  1.00  0.00     0.000 HD 
BRANCH  22  24
HETATM   24  C   UNL     1     -10.666  17.104  65.832  1.00  0.00    -0.132 C  
HETATM   25  S   UNL     1      -9.854  18.291  66.983  1.00  0.00    -0.344 S  
HETATM   26  O   UNL     1     -10.662  19.553  66.975  1.00  0.00    -0.467 OA 
HETATM   27  O   UNL     1      -8.581  18.536  66.024  1.00  0.00    -0.497 OA 
ENDBRANCH  22  24
ENDBRANCH  19  22
ENDBRANCH  13  16
ENDBRANCH  10  13
ENDBRANCH   5   7
ENDBRANCH   3   5
TORSDOF 6
ENDMDL
MODEL       99
REMARK 921   NORMALIZED FREE ENERGY PREDICTED BY IDOCK:   -4.65 KCAL/MOL
REMARK 922        TOTAL FREE ENERGY PREDICTED BY IDOCK:   -7.08 KCAL/MOL
REMARK 923 INTER-LIGAND FREE ENERGY PREDICTED BY IDOCK:   -6.49 KCAL/MOL
REMARK 924 INTRA-LIGAND FREE ENERGY PREDICTED BY IDOCK:   -0.59 KCAL/MOL
REMARK 927      BINDING AFFINITY PREDICTED BY RF-SCORE:    0.00 PKD
ROOT
HETATM    1  O   UNL     1     -12.700  14.147  63.399  1.00  0.00    -0.767 OA 
HETATM    2  S   UNL     1     -12.752  14.012  65.001  1.00  0.00    -0.245 S  
HETATM    3  C   UNL     1     -11.123  14.823  65.259  1.00  0.00    -0.370 C  
HETATM    4  O   UNL     1     -12.600  12.545  65.270  1.00  0.00    -0.645 OA 
ENDROOT
BRANCH   3   5
HETATM    5  N   UNL     1     -10.860  14.854  66.697  1.00  0.00    -0.314 NA 
HETATM    6  H   UNL     1     -11.186  15.623  67.283  1.00  0.00     0.000 HD 
BRANCH   5   7
HETATM    7  C   UNL     1     -10.139  13.775  67.233  1.00  0.00    -0.239 A  
HETATM    8  C   UNL     1      -8.783  13.554  66.957  1.00  0.00    -0.197 A  
HETATM    9  C   UNL     1      -8.101  12.460  67.497  1.00  0.00    -0.173 A  
HETATM   10  C   UNL     1      -8.772  11.578  68.343  1.00  0.00    -0.160 A  
HETATM   11  C   UNL     1     -10.081  11.851  68.740  1.00  0.00    -0.133 A  
HETATM   12  C   UNL     1     -10.750  12.953  68.193  1.00  0.00    -0.258 A  
BRANCH  10  13
HETATM   13  S   UNL     1      -7.924  10.136  68.957  1.00  0.00    -0.125 S  
HETATM   14  O   UNL     1      -7.672   9.263  67.825  1.00  0.00    -0.088 OA 
HETATM   15  O   UNL     1      -6.825  10.612  69.781  1.00  0.00    -0.114 OA 
BRANCH  13  16
HETATM   16  C   UNL     1      -9.054   9.257  70.026  1.00  0.00    -0.210 A  
HETATM   17  C   UNL     1      -8.789   9.184  71.394  1.00  0.00    -0.115 A  
HETATM   18  C   UNL     1      -9.705   8.558  72.249  1.00  0.00    -0.380 A  
HETATM   19  C   UNL     1     -10.919   8.042  71.767  1.00  0.00    -0.251 A  
HETATM   20  C   UNL     1     -10.216   8.684  69.509  1.00  0.00    -0.209 A  
HETATM   21  C   UNL     1     -11.130   8.068  70.377  1.00  0.00    -0.238 A  
BRANCH  19  22
HETATM   22  N   UNL     1     -11.868   7.395  72.598  1.00  0.00    -0.537 NA 
HETATM   23  H   UNL     1     -12.369   7.881  73.342  1.00  0.00     0.000 HD 
BRANCH  22  24
HETATM   24  C   UNL     1     -12.075   5.966  72.304  1.00  0.00    -0.078 C  
HETATM   25  S   UNL     1     -10.570   5.059  72.858  1.00  0.00    -0.245 S  
HETATM   26  O   UNL     1     -10.906   3.598  72.882  1.00  0.00    -0.144 OA 
HETATM   27  O   UNL     1     -10.662   5.591  74.377  1.00  0.00    -0.252 OA 
ENDBRANCH  22  24
ENDBRANCH  19  22
ENDBRANCH  13  16
ENDBRANCH  10  13
ENDBRANCH   5   7
ENDBRANCH   3   5
TORSDOF 6
ENDMDL
MODEL      100
REMARK 921   NORMALIZED FREE ENERGY PREDICTED BY IDOCK:   -4.61 KCAL/MOL
REMARK 922        TOTAL FREE ENERGY PREDICTED BY IDOCK:   -7.03 KCAL/MOL
REMARK 923 INTER-LIGAND FREE ENERGY PREDICTED BY IDOCK:   -6.27 KCAL/MOL
REMARK 924 INTRA-LIGAND FREE ENERGY PREDICTED BY IDOCK:   -0.76 KCAL/MOL
REMARK 927      BINDING AFFINITY PREDICTED BY RF-SCORE:    0.00 PKD
ROOT
HETATM    1  O   UNL     1     -13.062  14.140  65.603  1.00  0.00    -0.617 OA 
HETATM    2  S   UNL     1     -12.448  13.144  64.501  1.00  0.00    -0.310 S  
HETATM    3  C   UNL     1     -10.722  13.311  65.114  1.00  0.00    -0.322 C  
HETATM    4  O   UNL     1     -12.564  13.883  63.203  1.00  0.00    -0.775 OA 
ENDROOT
BRANCH   3   5
HETATM    5  N   UNL     1      -9.864  12.480  64.270  1.00  0.00    -0.579 NA 
HETATM    6  H   UNL     1      -9.517  12.813  63.370  1.00  0.00     0.000 HD 
BRANCH   5   7
HETATM    7  C   UNL     1      -9.542  11.203  64.756  1.00  0.00    -0.240 A  
HETATM    8  C   UNL     1      -9.759  10.817  66.085  1.00  0.00    -0.253 A  
HETATM    9  C   UNL     1      -9.412   9.541  66.537  1.00  0.00    -0.236 A  
HETATM   10  C   UNL     1      -8.855   8.622  65.647  1.00  0.00    -0.187 A  
HETATM   11  C   UNL     1      -8.755   8.934  64.292  1.00  0.00    -0.095 A  
HETATM   12  C   UNL     1      -9.111  10.216  63.854  1.00  0.00    -0.293 A  
BRANCH  10  13
HETATM   13  S   UNL     1      -8.332   7.028  66.248  1.00  0.00    -0.135 S  
HETATM   14  O   UNL     1      -8.772   6.033  65.287  1.00  0.00    -0.134 OA 
HETATM   15  O   UNL     1      -6.925   7.148  66.594  1.00  0.00    -0.072 OA 
BRANCH  13  16
HETATM   16  C   UNL     1      -9.228   6.697  67.757  1.00  0.00    -0.111 A  
HETATM   17  C   UNL     1     -10.569   6.315  67.690  1.00  0.00    -0.339 A  
HETATM   18  C   UNL     1     -11.259   5.984  68.864  1.00  0.00    -0.246 A  
HETATM   19  C   UNL     1     -10.616   5.978  70.112  1.00  0.00    -0.276 A  
HETATM   20  C   UNL     1      -8.587   6.774  68.993  1.00  0.00    -0.131 A  
HETATM   21  C   UNL     1      -9.286   6.431  70.160  1.00  0.00    -0.164 A  
BRANCH  19  22
HETATM   22  N   UNL     1     -11.281   5.657  71.322  1.00  0.00    -0.149 NA 
HETATM   23  H   UNL     1     -12.286   5.484  71.368  1.00  0.00     0.000 HD 
BRANCH  22  24
HETATM   24  C   UNL     1     -10.410   5.591  72.508  1.00  0.00    -0.203 C  
HETATM   25  S   UNL     1     -10.778   4.012  73.384  1.00  0.00    -0.234 S  
HETATM   26  O   UNL     1      -9.678   3.779  74.375  1.00  0.00    -0.108 OA 
HETATM   27  O   UNL     1     -10.465   3.088  72.101  1.00  0.00    -0.064 OA 
ENDBRANCH  22  24
ENDBRANCH  19  22
ENDBRANCH  13  16
ENDBRANCH  10  13
ENDBRANCH   5   7
ENDBRANCH   3   5
TORSDOF 6
ENDMDL
MODEL      101
REMARK 921   NORMALIZED FREE ENERGY PREDICTED BY IDOCK:   -4.61 KCAL/MOL
REMARK 922        TOTAL FREE ENERGY PREDICTED BY IDOCK:   -7.03 KCAL/MOL
REMARK 923 INTER-LIGAND FREE ENERGY PREDICTED BY IDOCK:   -6.60 KCAL/MOL
REMARK 924 INTRA-LIGAND FREE ENERGY PREDICTED BY IDOCK:   -0.43 KCAL/MOL
REMARK 927      BINDING AFFINITY PREDICTED BY RF-SCORE:    0.00 PKD
ROOT
HETATM    1  O   UNL     1      -8.330   2.431  65.247  1.00  0.00    -0.090 OA 
HETATM    2  S   UNL     1      -8.001   2.151  66.796  1.00  0.00    -0.078 S  
HETATM    3  C   UNL     1      -9.164   3.433  67.416  1.00  0.00    -0.195 C  
HETATM    4  O   UNL     1      -6.600   2.648  66.989  1.00  0.00    -0.035 OA 
ENDROOT
BRANCH   3   5
HETATM    5  N   UNL     1      -9.093   3.434  68.877  1.00  0.00    -0.130 NA 
HETATM    6  H   UNL     1      -8.560   2.729  69.386  1.00  0.00     0.000 HD 
BRANCH   5   7
HETATM    7  C   UNL     1      -9.794   4.451  69.544  1.00  0.00    -0.188 A  
HETATM    8  C   UNL     1     -10.636   5.355  68.884  1.00  0.00    -0.197 A  
HETATM    9  C   UNL     1     -11.307   6.365  69.581  1.00  0.00    -0.479 A  
HETATM   10  C   UNL     1     -11.152   6.468  70.964  1.00  0.00    -0.288 A  
HETATM   11  C   UNL     1     -10.429   5.500  71.660  1.00  0.00    -0.292 A  
HETATM   12  C   UNL     1      -9.767   4.492  70.948  1.00  0.00    -0.263 A  
BRANCH  10  13
HETATM   13  S   UNL     1     -11.937   7.810  71.834  1.00  0.00    -0.315 S  
HETATM   14  O   UNL     1     -13.371   7.594  71.769  1.00  0.00    -0.336 OA 
HETATM   15  O   UNL     1     -11.266   7.930  73.119  1.00  0.00    -0.382 OA 
BRANCH  13  16
HETATM   16  C   UNL     1     -11.615   9.311  70.920  1.00  0.00    -0.301 A  
HETATM   17  C   UNL     1     -10.437   9.425  70.180  1.00  0.00    -0.280 A  
HETATM   18  C   UNL     1     -10.210  10.569  69.403  1.00  0.00    -0.245 A  
HETATM   19  C   UNL     1     -11.170  11.590  69.309  1.00  0.00    -0.272 A  
HETATM   20  C   UNL     1     -12.550  10.345  70.905  1.00  0.00    -0.478 A  
HETATM   21  C   UNL     1     -12.316  11.481  70.116  1.00  0.00    -0.323 A  
BRANCH  19  22
HETATM   22  N   UNL     1     -10.974  12.765  68.540  1.00  0.00    -0.247 NA 
HETATM   23  H   UNL     1     -10.697  12.740  67.559  1.00  0.00     0.000 HD 
BRANCH  22  24
HETATM   24  C   UNL     1     -11.203  14.025  69.269  1.00  0.00    -0.261 C  
HETATM   25  S   UNL     1     -10.581  15.400  68.212  1.00  0.00    -0.261 S  
HETATM   26  O   UNL     1     -11.113  16.682  68.779  1.00  0.00    -0.325 OA 
HETATM   27  O   UNL     1     -11.513  15.015  66.954  1.00  0.00    -0.334 OA 
ENDBRANCH  22  24
ENDBRANCH  19  22
ENDBRANCH  13  16
ENDBRANCH  10  13
ENDBRANCH   5   7
ENDBRANCH   3   5
TORSDOF 6
ENDMDL
MODEL      102
REMARK 921   NORMALIZED FREE ENERGY PREDICTED BY IDOCK:   -4.60 KCAL/MOL
REMARK 922        TOTAL FREE ENERGY PREDICTED BY IDOCK:   -7.01 KCAL/MOL
REMARK 923 INTER-LIGAND FREE ENERGY PREDICTED BY IDOCK:   -6.34 KCAL/MOL
REMARK 924 INTRA-LIGAND FREE ENERGY PREDICTED BY IDOCK:   -0.67 KCAL/MOL
REMARK 927      BINDING AFFINITY PREDICTED BY RF-SCORE:    0.00 PKD
ROOT
HETATM    1  O   UNL     1      -5.661   9.619  64.245  1.00  0.00    -0.073 OA 
HETATM    2  S   UNL     1      -7.261   9.586  64.405  1.00  0.00    -0.117 S  
HETATM    3  C   UNL     1      -7.211   9.217  66.205  1.00  0.00    -0.088 C  
HETATM    4  O   UNL     1      -7.696   8.348  63.679  1.00  0.00    -0.128 OA 
ENDROOT
BRANCH   3   5
HETATM    5  N   UNL     1      -8.590   9.115  66.681  1.00  0.00    -0.125 NA 
HETATM    6  H   UNL     1      -9.014   8.213  66.898  1.00  0.00     0.000 HD 
BRANCH   5   7
HETATM    7  C   UNL     1      -9.301  10.316  66.823  1.00  0.00    -0.160 A  
HETATM    8  C   UNL     1      -9.041  11.239  67.846  1.00  0.00    -0.150 A  
HETATM    9  C   UNL     1      -9.781  12.419  67.965  1.00  0.00    -0.210 A  
HETATM   10  C   UNL     1     -10.787  12.699  67.040  1.00  0.00    -0.253 A  
HETATM   11  C   UNL     1     -10.975  11.865  65.938  1.00  0.00    -0.354 A  
HETATM   12  C   UNL     1     -10.223  10.688  65.830  1.00  0.00    -0.314 A  
BRANCH  10  13
HETATM   13  S   UNL     1     -11.786  14.159  67.248  1.00  0.00    -0.420 S  
HETATM   14  O   UNL     1     -12.666  14.255  66.097  1.00  0.00    -0.401 OA 
HETATM   15  O   UNL     1     -12.336  14.107  68.593  1.00  0.00    -0.257 OA 
BRANCH  13  16
HETATM   16  C   UNL     1     -10.700  15.575  67.167  1.00  0.00    -0.315 A  
HETATM   17  C   UNL     1     -10.844  16.605  68.097  1.00  0.00    -0.348 A  
HETATM   18  C   UNL     1      -9.951  17.685  68.085  1.00  0.00    -0.330 A  
HETATM   19  C   UNL     1      -8.875  17.732  67.184  1.00  0.00    -0.246 A  
HETATM   20  C   UNL     1      -9.686  15.635  66.211  1.00  0.00    -0.328 A  
HETATM   21  C   UNL     1      -8.793  16.717  66.216  1.00  0.00    -0.348 A  
BRANCH  19  22
HETATM   22  N   UNL     1      -7.955  18.810  67.136  1.00  0.00    -0.242 NA 
HETATM   23  H   UNL     1      -7.219  18.937  67.830  1.00  0.00     0.000 HD 
BRANCH  22  24
HETATM   24  C   UNL     1      -8.145  19.734  66.004  1.00  0.00    -0.322 C  
HETATM   25  S   UNL     1      -6.476  20.269  65.434  1.00  0.00    -0.282 S  
HETATM   26  O   UNL     1      -6.643  20.919  64.094  1.00  0.00    -0.299 OA 
HETATM   27  O   UNL     1      -5.953  18.767  65.171  1.00  0.00    -0.225 OA 
ENDBRANCH  22  24
ENDBRANCH  19  22
ENDBRANCH  13  16
ENDBRANCH  10  13
ENDBRANCH   5   7
ENDBRANCH   3   5
TORSDOF 6
ENDMDL
MODEL      103
REMARK 921   NORMALIZED FREE ENERGY PREDICTED BY IDOCK:   -4.59 KCAL/MOL
REMARK 922        TOTAL FREE ENERGY PREDICTED BY IDOCK:   -7.00 KCAL/MOL
REMARK 923 INTER-LIGAND FREE ENERGY PREDICTED BY IDOCK:   -6.19 KCAL/MOL
REMARK 924 INTRA-LIGAND FREE ENERGY PREDICTED BY IDOCK:   -0.81 KCAL/MOL
REMARK 927      BINDING AFFINITY PREDICTED BY RF-SCORE:    0.00 PKD
ROOT
HETATM    1  O   UNL     1     -14.395   8.680  71.427  1.00  0.00    -0.386 OA 
HETATM    2  S   UNL     1     -12.815   8.604  71.714  1.00  0.00    -0.377 S  
HETATM    3  C   UNL     1     -12.747   6.769  71.616  1.00  0.00    -0.312 C  
HETATM    4  O   UNL     1     -12.662   9.008  73.149  1.00  0.00    -0.062 OA 
ENDROOT
BRANCH   3   5
HETATM    5  N   UNL     1     -11.363   6.358  71.851  1.00  0.00    -0.278 NA 
HETATM    6  H   UNL     1     -11.072   5.946  72.737  1.00  0.00     0.000 HD 
BRANCH   5   7
HETATM    7  C   UNL     1     -10.456   6.557  70.799  1.00  0.00    -0.220 A  
HETATM    8  C   UNL     1      -9.160   7.053  70.994  1.00  0.00    -0.151 A  
HETATM    9  C   UNL     1      -8.289   7.252  69.919  1.00  0.00    -0.135 A  
HETATM   10  C   UNL     1      -8.705   6.935  68.626  1.00  0.00    -0.122 A  
HETATM   11  C   UNL     1      -9.937   6.315  68.421  1.00  0.00    -0.156 A  
HETATM   12  C   UNL     1     -10.797   6.118  69.509  1.00  0.00    -0.428 A  
BRANCH  10  13
HETATM   13  S   UNL     1      -7.624   7.274  67.251  1.00  0.00    -0.106 S  
HETATM   14  O   UNL     1      -6.330   7.646  67.794  1.00  0.00    -0.047 OA 
HETATM   15  O   UNL     1      -7.744   6.154  66.332  1.00  0.00    -0.099 OA 
BRANCH  13  16
HETATM   16  C   UNL     1      -8.250   8.724  66.414  1.00  0.00    -0.111 A  
HETATM   17  C   UNL     1      -8.142   9.972  67.029  1.00  0.00    -0.117 A  
HETATM   18  C   UNL     1      -8.566  11.122  66.351  1.00  0.00    -0.172 A  
HETATM   19  C   UNL     1      -9.053  11.056  65.035  1.00  0.00    -0.164 A  
HETATM   20  C   UNL     1      -8.803   8.621  65.138  1.00  0.00    -0.147 A  
HETATM   21  C   UNL     1      -9.214   9.782  64.465  1.00  0.00    -0.310 A  
BRANCH  19  22
HETATM   22  N   UNL     1      -9.497  12.196  64.318  1.00  0.00    -0.475 NA 
HETATM   23  H   UNL     1      -9.177  12.410  63.374  1.00  0.00     0.000 HD 
BRANCH  22  24
HETATM   24  C   UNL     1     -10.458  13.046  65.043  1.00  0.00    -0.328 C  
HETATM   25  S   UNL     1     -11.761  13.560  63.846  1.00  0.00    -0.313 S  
HETATM   26  O   UNL     1     -12.903  14.124  64.636  1.00  0.00    -0.663 OA 
HETATM   27  O   UNL     1     -12.160  12.050  63.448  1.00  0.00    -0.507 OA 
ENDBRANCH  22  24
ENDBRANCH  19  22
ENDBRANCH  13  16
ENDBRANCH  10  13
ENDBRANCH   5   7
ENDBRANCH   3   5
TORSDOF 6
ENDMDL
MODEL      104
REMARK 921   NORMALIZED FREE ENERGY PREDICTED BY IDOCK:   -4.59 KCAL/MOL
REMARK 922        TOTAL FREE ENERGY PREDICTED BY IDOCK:   -6.99 KCAL/MOL
REMARK 923 INTER-LIGAND FREE ENERGY PREDICTED BY IDOCK:   -6.21 KCAL/MOL
REMARK 924 INTRA-LIGAND FREE ENERGY PREDICTED BY IDOCK:   -0.78 KCAL/MOL
REMARK 927      BINDING AFFINITY PREDICTED BY RF-SCORE:    0.00 PKD
ROOT
HETATM    1  O   UNL     1     -10.829  16.558  64.638  1.00  0.00    -0.741 OA 
HETATM    2  S   UNL     1     -10.862  15.129  65.374  1.00  0.00    -0.406 S  
HETATM    3  C   UNL     1     -12.263  14.491  64.368  1.00  0.00    -0.458 C  
HETATM    4  O   UNL     1     -11.365  15.419  66.757  1.00  0.00    -0.258 OA 
ENDROOT
BRANCH   3   5
HETATM    5  N   UNL     1     -12.558  13.132  64.821  1.00  0.00    -0.644 NA 
HETATM    6  H   UNL     1     -13.475  12.879  65.188  1.00  0.00     0.000 HD 
BRANCH   5   7
HETATM    7  C   UNL     1     -11.518  12.193  64.728  1.00  0.00    -0.322 A  
HETATM    8  C   UNL     1     -11.112  11.397  65.808  1.00  0.00    -0.217 A  
HETATM    9  C   UNL     1     -10.062  10.483  65.681  1.00  0.00    -0.333 A  
HETATM   10  C   UNL     1      -9.414  10.342  64.453  1.00  0.00    -0.302 A  
HETATM   11  C   UNL     1      -9.887  11.023  63.332  1.00  0.00    -0.404 A  
HETATM   12  C   UNL     1     -10.942  11.932  63.474  1.00  0.00    -0.505 A  
BRANCH  10  13
HETATM   13  S   UNL     1      -8.019   9.242  64.321  1.00  0.00    -0.145 S  
HETATM   14  O   UNL     1      -8.358   8.223  63.344  1.00  0.00    -0.133 OA 
HETATM   15  O   UNL     1      -6.840  10.073  64.141  1.00  0.00    -0.123 OA 
BRANCH  13  16
HETATM   16  C   UNL     1      -7.846   8.396  65.885  1.00  0.00    -0.095 A  
HETATM   17  C   UNL     1      -8.572   7.227  66.118  1.00  0.00    -0.156 A  
HETATM   18  C   UNL     1      -8.389   6.519  67.313  1.00  0.00    -0.113 A  
HETATM   19  C   UNL     1      -7.447   6.931  68.269  1.00  0.00    -0.099 A  
HETATM   20  C   UNL     1      -6.960   8.870  66.852  1.00  0.00    -0.078 A  
HETATM   21  C   UNL     1      -6.778   8.146  68.040  1.00  0.00    -0.065 A  
BRANCH  19  22
HETATM   22  N   UNL     1      -7.237   6.246  69.492  1.00  0.00    -0.076 NA 
HETATM   23  H   UNL     1      -6.333   6.228  69.964  1.00  0.00     0.000 HD 
BRANCH  22  24
HETATM   24  C   UNL     1      -8.427   5.563  70.030  1.00  0.00    -0.120 C  
HETATM   25  S   UNL     1      -8.594   6.044  71.800  1.00  0.00    -0.134 S  
HETATM   26  O   UNL     1      -9.966   5.640  72.250  1.00  0.00    -0.168 OA 
HETATM   27  O   UNL     1      -8.643   7.625  71.490  1.00  0.00    -0.113 OA 
ENDBRANCH  22  24
ENDBRANCH  19  22
ENDBRANCH  13  16
ENDBRANCH  10  13
ENDBRANCH   5   7
ENDBRANCH   3   5
TORSDOF 6
ENDMDL
MODEL      105
REMARK 921   NORMALIZED FREE ENERGY PREDICTED BY IDOCK:   -4.57 KCAL/MOL
REMARK 922        TOTAL FREE ENERGY PREDICTED BY IDOCK:   -6.97 KCAL/MOL
REMARK 923 INTER-LIGAND FREE ENERGY PREDICTED BY IDOCK:   -6.22 KCAL/MOL
REMARK 924 INTRA-LIGAND FREE ENERGY PREDICTED BY IDOCK:   -0.75 KCAL/MOL
REMARK 927      BINDING AFFINITY PREDICTED BY RF-SCORE:    0.00 PKD
ROOT
HETATM    1  O   UNL     1     -14.409   7.326  71.395  1.00  0.00    -0.431 OA 
HETATM    2  S   UNL     1     -13.038   8.144  71.581  1.00  0.00    -0.315 S  
HETATM    3  C   UNL     1     -12.009   6.636  71.803  1.00  0.00    -0.345 C  
HETATM    4  O   UNL     1     -13.172   8.827  72.908  1.00  0.00    -0.307 OA 
ENDROOT
BRANCH   3   5
HETATM    5  N   UNL     1     -10.626   7.064  72.011  1.00  0.00    -0.209 NA 
HETATM    6  H   UNL     1     -10.160   6.946  72.910  1.00  0.00     0.000 HD 
BRANCH   5   7
HETATM    7  C   UNL     1      -9.971   7.643  70.913  1.00  0.00    -0.180 A  
HETATM    8  C   UNL     1      -9.192   8.804  71.017  1.00  0.00    -0.278 A  
HETATM    9  C   UNL     1      -8.566   9.361  69.897  1.00  0.00    -0.201 A  
HETATM   10  C   UNL     1      -8.699   8.743  68.654  1.00  0.00    -0.134 A  
HETATM   11  C   UNL     1      -9.355   7.517  68.549  1.00  0.00    -0.142 A  
HETATM   12  C   UNL     1      -9.973   6.969  69.681  1.00  0.00    -0.177 A  
BRANCH  10  13
HETATM   13  S   UNL     1      -7.975   9.506  67.216  1.00  0.00    -0.106 S  
HETATM   14  O   UNL     1      -6.595   9.822  67.538  1.00  0.00    -0.068 OA 
HETATM   15  O   UNL     1      -8.290   8.653  66.081  1.00  0.00    -0.115 OA 
BRANCH  13  16
HETATM   16  C   UNL     1      -8.799  11.069  66.958  1.00  0.00    -0.143 A  
HETATM   17  C   UNL     1      -8.389  12.190  67.680  1.00  0.00    -0.163 A  
HETATM   18  C   UNL     1      -8.981  13.435  67.433  1.00  0.00    -0.215 A  
HETATM   19  C   UNL     1      -9.952  13.595  66.430  1.00  0.00    -0.296 A  
HETATM   20  C   UNL     1      -9.816  11.185  66.010  1.00  0.00    -0.270 A  
HETATM   21  C   UNL     1     -10.395  12.440  65.764  1.00  0.00    -0.289 A  
BRANCH  19  22
HETATM   22  N   UNL     1     -10.580  14.836  66.155  1.00  0.00    -0.301 NA 
HETATM   23  H   UNL     1     -10.871  15.108  65.216  1.00  0.00     0.000 HD 
BRANCH  22  24
HETATM   24  C   UNL     1     -10.780  15.702  67.330  1.00  0.00    -0.309 C  
HETATM   25  S   UNL     1      -9.877  17.278  67.022  1.00  0.00    -0.292 S  
HETATM   26  O   UNL     1     -10.351  18.276  68.035  1.00  0.00    -0.368 OA 
HETATM   27  O   UNL     1     -10.654  17.594  65.645  1.00  0.00    -0.565 OA 
ENDBRANCH  22  24
ENDBRANCH  19  22
ENDBRANCH  13  16
ENDBRANCH  10  13
ENDBRANCH   5   7
ENDBRANCH   3   5
TORSDOF 6
ENDMDL
MODEL      106
REMARK 921   NORMALIZED FREE ENERGY PREDICTED BY IDOCK:   -4.57 KCAL/MOL
REMARK 922        TOTAL FREE ENERGY PREDICTED BY IDOCK:   -6.97 KCAL/MOL
REMARK 923 INTER-LIGAND FREE ENERGY PREDICTED BY IDOCK:   -6.30 KCAL/MOL
REMARK 924 INTRA-LIGAND FREE ENERGY PREDICTED BY IDOCK:   -0.67 KCAL/MOL
REMARK 927      BINDING AFFINITY PREDICTED BY RF-SCORE:    0.00 PKD
ROOT
HETATM    1  O   UNL     1      -5.543  18.689  64.610  1.00  0.00    -0.222 OA 
HETATM    2  S   UNL     1      -6.285  18.933  66.015  1.00  0.00    -0.210 S  
HETATM    3  C   UNL     1      -6.143  17.180  66.551  1.00  0.00    -0.202 C  
HETATM    4  O   UNL     1      -7.715  19.205  65.655  1.00  0.00    -0.460 OA 
ENDROOT
BRANCH   3   5
HETATM    5  N   UNL     1      -6.765  17.061  67.869  1.00  0.00    -0.145 NA 
HETATM    6  H   UNL     1      -6.342  17.478  68.698  1.00  0.00     0.000 HD 
BRANCH   5   7
HETATM    7  C   UNL     1      -7.972  16.347  67.939  1.00  0.00    -0.153 A  
HETATM    8  C   UNL     1      -9.175  16.830  67.407  1.00  0.00    -0.220 A  
HETATM    9  C   UNL     1     -10.360  16.096  67.508  1.00  0.00    -0.286 A  
HETATM   10  C   UNL     1     -10.348  14.850  68.134  1.00  0.00    -0.237 A  
HETATM   11  C   UNL     1      -9.142  14.288  68.550  1.00  0.00    -0.191 A  
HETATM   12  C   UNL     1      -7.961  15.034  68.438  1.00  0.00    -0.131 A  
BRANCH  10  13
HETATM   13  S   UNL     1     -11.878  13.959  68.340  1.00  0.00    -0.370 S  
HETATM   14  O   UNL     1     -12.501  14.439  69.560  1.00  0.00    -0.273 OA 
HETATM   15  O   UNL     1     -12.585  14.034  67.072  1.00  0.00    -0.215 OA 
BRANCH  13  16
HETATM   16  C   UNL     1     -11.471  12.243  68.627  1.00  0.00    -0.307 A  
HETATM   17  C   UNL     1     -11.738  11.673  69.872  1.00  0.00    -0.414 A  
HETATM   18  C   UNL     1     -11.489  10.311  70.084  1.00  0.00    -0.383 A  
HETATM   19  C   UNL     1     -11.021   9.485  69.049  1.00  0.00    -0.100 A  
HETATM   20  C   UNL     1     -10.933  11.463  67.605  1.00  0.00    -0.303 A  
HETATM   21  C   UNL     1     -10.697  10.097  67.826  1.00  0.00    -0.328 A  
BRANCH  19  22
HETATM   22  N   UNL     1     -10.749   8.105  69.225  1.00  0.00    -0.369 NA 
HETATM   23  H   UNL     1     -11.313   7.507  69.830  1.00  0.00     0.000 HD 
BRANCH  22  24
HETATM   24  C   UNL     1      -9.591   7.601  68.467  1.00  0.00    -0.148 C  
HETATM   25  S   UNL     1     -10.052   5.959  67.770  1.00  0.00    -0.178 S  
HETATM   26  O   UNL     1      -9.029   5.605  66.733  1.00  0.00    -0.114 OA 
HETATM   27  O   UNL     1     -11.346   6.519  66.989  1.00  0.00    -0.342 OA 
ENDBRANCH  22  24
ENDBRANCH  19  22
ENDBRANCH  13  16
ENDBRANCH  10  13
ENDBRANCH   5   7
ENDBRANCH   3   5
TORSDOF 6
ENDMDL
MODEL      107
REMARK 921   NORMALIZED FREE ENERGY PREDICTED BY IDOCK:   -4.56 KCAL/MOL
REMARK 922        TOTAL FREE ENERGY PREDICTED BY IDOCK:   -6.95 KCAL/MOL
REMARK 923 INTER-LIGAND FREE ENERGY PREDICTED BY IDOCK:   -6.28 KCAL/MOL
REMARK 924 INTRA-LIGAND FREE ENERGY PREDICTED BY IDOCK:   -0.67 KCAL/MOL
REMARK 927      BINDING AFFINITY PREDICTED BY RF-SCORE:    0.00 PKD
ROOT
HETATM    1  O   UNL     1      -8.765  19.839  66.080  1.00  0.00    -0.362 OA 
HETATM    2  S   UNL     1      -8.570  18.598  67.083  1.00  0.00    -0.275 S  
HETATM    3  C   UNL     1     -10.083  18.972  68.059  1.00  0.00    -0.385 C  
HETATM    4  O   UNL     1      -7.372  18.954  67.910  1.00  0.00    -0.235 OA 
ENDROOT
BRANCH   3   5
HETATM    5  N   UNL     1     -10.195  17.967  69.116  1.00  0.00    -0.392 NA 
HETATM    6  H   UNL     1     -10.210  18.228  70.102  1.00  0.00     0.000 HD 
BRANCH   5   7
HETATM    7  C   UNL     1     -10.281  16.626  68.709  1.00  0.00    -0.288 A  
HETATM    8  C   UNL     1      -9.351  15.652  69.096  1.00  0.00    -0.252 A  
HETATM    9  C   UNL     1      -9.461  14.329  68.658  1.00  0.00    -0.178 A  
HETATM   10  C   UNL     1     -10.525  13.961  67.835  1.00  0.00    -0.242 A  
HETATM   11  C   UNL     1     -11.535  14.878  67.547  1.00  0.00    -0.361 A  
HETATM   12  C   UNL     1     -11.413  16.199  67.996  1.00  0.00    -0.163 A  
BRANCH  10  13
HETATM   13  S   UNL     1     -10.611  12.296  67.207  1.00  0.00    -0.228 S  
HETATM   14  O   UNL     1     -12.011  11.911  67.180  1.00  0.00    -0.611 OA 
HETATM   15  O   UNL     1      -9.813  12.259  65.993  1.00  0.00    -0.241 OA 
BRANCH  13  16
HETATM   16  C   UNL     1      -9.822  11.225  68.400  1.00  0.00    -0.199 A  
HETATM   17  C   UNL     1      -8.432  11.106  68.402  1.00  0.00    -0.151 A  
HETATM   18  C   UNL     1      -7.799  10.325  69.378  1.00  0.00    -0.157 A  
HETATM   19  C   UNL     1      -8.533   9.695  70.397  1.00  0.00    -0.146 A  
HETATM   20  C   UNL     1     -10.580  10.547  69.354  1.00  0.00    -0.269 A  
HETATM   21  C   UNL     1      -9.935   9.776  70.333  1.00  0.00    -0.294 A  
BRANCH  19  22
HETATM   22  N   UNL     1      -7.932   8.891  71.398  1.00  0.00    -0.264 NA 
HETATM   23  H   UNL     1      -7.238   9.255  72.051  1.00  0.00     0.000 HD 
BRANCH  22  24
HETATM   24  C   UNL     1      -8.387   7.490  71.422  1.00  0.00    -0.107 C  
HETATM   25  S   UNL     1      -8.382   6.932  73.178  1.00  0.00    -0.113 S  
HETATM   26  O   UNL     1      -9.156   5.651  73.247  1.00  0.00    -0.130 OA 
HETATM   27  O   UNL     1      -9.363   8.108  73.680  1.00  0.00    -0.235 OA 
ENDBRANCH  22  24
ENDBRANCH  19  22
ENDBRANCH  13  16
ENDBRANCH  10  13
ENDBRANCH   5   7
ENDBRANCH   3   5
TORSDOF 6
ENDMDL
MODEL      108
REMARK 921   NORMALIZED FREE ENERGY PREDICTED BY IDOCK:   -4.55 KCAL/MOL
REMARK 922        TOTAL FREE ENERGY PREDICTED BY IDOCK:   -6.94 KCAL/MOL
REMARK 923 INTER-LIGAND FREE ENERGY PREDICTED BY IDOCK:   -6.15 KCAL/MOL
REMARK 924 INTRA-LIGAND FREE ENERGY PREDICTED BY IDOCK:   -0.79 KCAL/MOL
REMARK 927      BINDING AFFINITY PREDICTED BY RF-SCORE:    0.00 PKD
ROOT
HETATM    1  O   UNL     1      -6.586   5.768  64.882  1.00  0.00    -0.040 OA 
HETATM    2  S   UNL     1      -7.871   6.604  64.398  1.00  0.00    -0.100 S  
HETATM    3  C   UNL     1      -6.970   8.205  64.316  1.00  0.00    -0.069 C  
HETATM    4  O   UNL     1      -8.783   6.633  65.587  1.00  0.00    -0.147 OA 
ENDROOT
BRANCH   3   5
HETATM    5  N   UNL     1      -7.918   9.232  63.885  1.00  0.00    -0.133 NA 
HETATM    6  H   UNL     1      -8.074   9.434  62.897  1.00  0.00     0.000 HD 
BRANCH   5   7
HETATM    7  C   UNL     1      -8.603   9.926  64.895  1.00  0.00    -0.169 A  
HETATM    8  C   UNL     1      -7.949  10.565  65.957  1.00  0.00    -0.149 A  
HETATM    9  C   UNL     1      -8.666  11.235  66.953  1.00  0.00    -0.157 A  
HETATM   10  C   UNL     1     -10.058  11.287  66.884  1.00  0.00    -0.212 A  
HETATM   11  C   UNL     1     -10.722  10.777  65.769  1.00  0.00    -0.141 A  
HETATM   12  C   UNL     1      -9.990  10.112  64.777  1.00  0.00    -0.334 A  
BRANCH  10  13
HETATM   13  S   UNL     1     -10.971  12.064  68.202  1.00  0.00    -0.249 S  
HETATM   14  O   UNL     1     -10.109  13.069  68.798  1.00  0.00    -0.175 OA 
HETATM   15  O   UNL     1     -12.268  12.433  67.658  1.00  0.00    -0.425 OA 
BRANCH  13  16
HETATM   16  C   UNL     1     -11.251  10.833  69.466  1.00  0.00    -0.281 A  
HETATM   17  C   UNL     1     -10.219   9.962  69.818  1.00  0.00    -0.278 A  
HETATM   18  C   UNL     1     -10.406   9.041  70.857  1.00  0.00    -0.323 A  
HETATM   19  C   UNL     1     -11.600   9.007  71.595  1.00  0.00    -0.356 A  
HETATM   20  C   UNL     1     -12.475  10.767  70.132  1.00  0.00    -0.357 A  
HETATM   21  C   UNL     1     -12.646   9.847  71.178  1.00  0.00    -0.464 A  
BRANCH  19  22
HETATM   22  N   UNL     1     -11.831   8.086  72.648  1.00  0.00    -0.553 NA 
HETATM   23  H   UNL     1     -12.764   7.880  73.003  1.00  0.00     0.000 HD 
BRANCH  22  24
HETATM   24  C   UNL     1     -10.617   7.449  73.189  1.00  0.00    -0.374 C  
HETATM   25  S   UNL     1     -10.850   5.624  73.081  1.00  0.00    -0.290 S  
HETATM   26  O   UNL     1      -9.512   4.985  73.301  1.00  0.00    -0.133 OA 
HETATM   27  O   UNL     1     -11.117   5.632  71.491  1.00  0.00    -0.245 OA 
ENDBRANCH  22  24
ENDBRANCH  19  22
ENDBRANCH  13  16
ENDBRANCH  10  13
ENDBRANCH   5   7
ENDBRANCH   3   5
TORSDOF 6
ENDMDL
MODEL      109
REMARK 921   NORMALIZED FREE ENERGY PREDICTED BY IDOCK:   -4.55 KCAL/MOL
REMARK 922        TOTAL FREE ENERGY PREDICTED BY IDOCK:   -6.94 KCAL/MOL
REMARK 923 INTER-LIGAND FREE ENERGY PREDICTED BY IDOCK:   -6.31 KCAL/MOL
REMARK 924 INTRA-LIGAND FREE ENERGY PREDICTED BY IDOCK:   -0.64 KCAL/MOL
REMARK 927      BINDING AFFINITY PREDICTED BY RF-SCORE:    0.00 PKD
ROOT
HETATM    1  O   UNL     1      -6.242  19.930  69.168  1.00  0.00    -0.275 OA 
HETATM    2  S   UNL     1      -7.445  19.751  68.117  1.00  0.00    -0.302 S  
HETATM    3  C   UNL     1      -6.495  18.630  67.012  1.00  0.00    -0.187 C  
HETATM    4  O   UNL     1      -7.573  21.084  67.444  1.00  0.00    -0.334 OA 
ENDROOT
BRANCH   3   5
HETATM    5  N   UNL     1      -7.359  18.267  65.890  1.00  0.00    -0.469 NA 
HETATM    6  H   UNL     1      -7.252  18.699  64.972  1.00  0.00     0.000 HD 
BRANCH   5   7
HETATM    7  C   UNL     1      -8.344  17.298  66.136  1.00  0.00    -0.203 A  
HETATM    8  C   UNL     1      -8.040  15.969  66.460  1.00  0.00    -0.304 A  
HETATM    9  C   UNL     1      -9.049  15.027  66.685  1.00  0.00    -0.309 A  
HETATM   10  C   UNL     1     -10.386  15.416  66.605  1.00  0.00    -0.280 A  
HETATM   11  C   UNL     1     -10.713  16.759  66.419  1.00  0.00    -0.105 A  
HETATM   12  C   UNL     1      -9.691  17.692  66.200  1.00  0.00    -0.228 A  
BRANCH  10  13
HETATM   13  S   UNL     1     -11.667  14.194  66.804  1.00  0.00    -0.428 S  
HETATM   14  O   UNL     1     -12.049  14.185  68.204  1.00  0.00    -0.343 OA 
HETATM   15  O   UNL     1     -12.658  14.448  65.771  1.00  0.00    -0.397 OA 
BRANCH  13  16
HETATM   16  C   UNL     1     -10.945  12.594  66.472  1.00  0.00    -0.269 A  
HETATM   17  C   UNL     1     -10.825  12.154  65.153  1.00  0.00    -0.343 A  
HETATM   18  C   UNL     1     -10.196  10.933  64.879  1.00  0.00    -0.381 A  
HETATM   19  C   UNL     1      -9.632  10.157  65.905  1.00  0.00    -0.218 A  
HETATM   20  C   UNL     1     -10.462  11.805  67.516  1.00  0.00    -0.228 A  
HETATM   21  C   UNL     1      -9.825  10.588  67.228  1.00  0.00    -0.209 A  
BRANCH  19  22
HETATM   22  N   UNL     1      -8.994   8.912  65.670  1.00  0.00    -0.193 NA 
HETATM   23  H   UNL     1      -9.426   8.019  65.908  1.00  0.00     0.000 HD 
BRANCH  22  24
HETATM   24  C   UNL     1      -7.659   9.009  65.053  1.00  0.00    -0.103 C  
HETATM   25  S   UNL     1      -6.863   7.352  65.184  1.00  0.00    -0.048 S  
HETATM   26  O   UNL     1      -5.674   7.349  64.272  1.00  0.00    -0.033 OA 
HETATM   27  O   UNL     1      -8.054   6.587  64.413  1.00  0.00    -0.118 OA 
ENDBRANCH  22  24
ENDBRANCH  19  22
ENDBRANCH  13  16
ENDBRANCH  10  13
ENDBRANCH   5   7
ENDBRANCH   3   5
TORSDOF 6
ENDMDL
MODEL      110
REMARK 921   NORMALIZED FREE ENERGY PREDICTED BY IDOCK:   -4.55 KCAL/MOL
REMARK 922        TOTAL FREE ENERGY PREDICTED BY IDOCK:   -6.94 KCAL/MOL
REMARK 923 INTER-LIGAND FREE ENERGY PREDICTED BY IDOCK:   -6.23 KCAL/MOL
REMARK 924 INTRA-LIGAND FREE ENERGY PREDICTED BY IDOCK:   -0.71 KCAL/MOL
REMARK 927      BINDING AFFINITY PREDICTED BY RF-SCORE:    0.00 PKD
ROOT
HETATM    1  O   UNL     1      -7.159  19.144  67.384  1.00  0.00    -0.208 OA 
HETATM    2  S   UNL     1      -8.329  18.704  68.395  1.00  0.00    -0.340 S  
HETATM    3  C   UNL     1      -9.243  17.731  67.131  1.00  0.00    -0.253 C  
HETATM    4  O   UNL     1      -9.096  19.962  68.672  1.00  0.00    -0.250 OA 
ENDROOT
BRANCH   3   5
HETATM    5  N   UNL     1     -10.432  17.169  67.770  1.00  0.00    -0.350 NA 
HETATM    6  H   UNL     1     -11.160  17.767  68.162  1.00  0.00     0.000 HD 
BRANCH   5   7
HETATM    7  C   UNL     1     -10.524  15.769  67.818  1.00  0.00    -0.283 A  
HETATM    8  C   UNL     1     -11.650  15.064  67.370  1.00  0.00    -0.304 A  
HETATM    9  C   UNL     1     -11.711  13.670  67.447  1.00  0.00    -0.416 A  
HETATM   10  C   UNL     1     -10.627  12.959  67.962  1.00  0.00    -0.227 A  
HETATM   11  C   UNL     1      -9.446  13.625  68.288  1.00  0.00    -0.213 A  
HETATM   12  C   UNL     1      -9.398  15.022  68.201  1.00  0.00    -0.187 A  
BRANCH  10  13
HETATM   13  S   UNL     1     -10.746  11.190  68.141  1.00  0.00    -0.222 S  
HETATM   14  O   UNL     1      -9.807  10.792  69.175  1.00  0.00    -0.209 OA 
HETATM   15  O   UNL     1     -12.159  10.872  68.266  1.00  0.00    -0.562 OA 
BRANCH  13  16
HETATM   16  C   UNL     1     -10.161  10.451  66.623  1.00  0.00    -0.234 A  
HETATM   17  C   UNL     1     -10.424  11.082  65.407  1.00  0.00    -0.306 A  
HETATM   18  C   UNL     1      -9.908  10.548  64.218  1.00  0.00    -0.402 A  
HETATM   19  C   UNL     1      -9.084   9.411  64.227  1.00  0.00    -0.106 A  
HETATM   20  C   UNL     1      -9.409   9.277  66.652  1.00  0.00    -0.219 A  
HETATM   21  C   UNL     1      -8.891   8.757  65.456  1.00  0.00    -0.229 A  
BRANCH  19  22
HETATM   22  N   UNL     1      -8.550   8.836  63.046  1.00  0.00    -0.392 NA 
HETATM   23  H   UNL     1      -8.738   9.212  62.117  1.00  0.00     0.000 HD 
BRANCH  22  24
HETATM   24  C   UNL     1      -7.700   7.652  63.265  1.00  0.00    -0.131 C  
HETATM   25  S   UNL     1      -6.128   7.915  62.342  1.00  0.00    -0.074 S  
HETATM   26  O   UNL     1      -5.141   6.898  62.830  1.00  0.00    -0.029 OA 
HETATM   27  O   UNL     1      -5.784   9.304  63.085  1.00  0.00    -0.082 OA 
ENDBRANCH  22  24
ENDBRANCH  19  22
ENDBRANCH  13  16
ENDBRANCH  10  13
ENDBRANCH   5   7
ENDBRANCH   3   5
TORSDOF 6
ENDMDL
MODEL      111
REMARK 921   NORMALIZED FREE ENERGY PREDICTED BY IDOCK:   -4.51 KCAL/MOL
REMARK 922        TOTAL FREE ENERGY PREDICTED BY IDOCK:   -6.89 KCAL/MOL
REMARK 923 INTER-LIGAND FREE ENERGY PREDICTED BY IDOCK:   -6.18 KCAL/MOL
REMARK 924 INTRA-LIGAND FREE ENERGY PREDICTED BY IDOCK:   -0.71 KCAL/MOL
REMARK 927      BINDING AFFINITY PREDICTED BY RF-SCORE:    0.00 PKD
ROOT
HETATM    1  O   UNL     1      -9.338   1.681  65.470  1.00  0.00    -0.069 OA 
HETATM    2  S   UNL     1      -8.675   3.072  65.926  1.00  0.00    -0.136 S  
HETATM    3  C   UNL     1      -9.676   4.087  64.765  1.00  0.00    -0.187 C  
HETATM    4  O   UNL     1      -7.267   3.016  65.415  1.00  0.00    -0.063 OA 
ENDROOT
BRANCH   3   5
HETATM    5  N   UNL     1      -9.285   5.486  64.940  1.00  0.00    -0.357 NA 
HETATM    6  H   UNL     1      -8.814   6.005  64.199  1.00  0.00     0.000 HD 
BRANCH   5   7
HETATM    7  C   UNL     1      -9.590   6.079  66.175  1.00  0.00    -0.055 A  
HETATM    8  C   UNL     1     -10.866   6.024  66.752  1.00  0.00    -0.356 A  
HETATM    9  C   UNL     1     -11.135   6.640  67.978  1.00  0.00    -0.296 A  
HETATM   10  C   UNL     1     -10.113   7.307  68.654  1.00  0.00    -0.176 A  
HETATM   11  C   UNL     1      -8.807   7.260  68.169  1.00  0.00    -0.126 A  
HETATM   12  C   UNL     1      -8.552   6.635  66.941  1.00  0.00    -0.115 A  
BRANCH  10  13
HETATM   13  S   UNL     1     -10.483   8.166  70.171  1.00  0.00    -0.228 S  
HETATM   14  O   UNL     1     -11.677   7.562  70.735  1.00  0.00    -0.291 OA 
HETATM   15  O   UNL     1      -9.250   8.217  70.939  1.00  0.00    -0.145 OA 
BRANCH  13  16
HETATM   16  C   UNL     1     -10.923   9.845  69.750  1.00  0.00    -0.268 A  
HETATM   17  C   UNL     1     -10.504  10.380  68.531  1.00  0.00    -0.210 A  
HETATM   18  C   UNL     1     -10.904  11.671  68.161  1.00  0.00    -0.260 A  
HETATM   19  C   UNL     1     -11.766  12.428  68.970  1.00  0.00    -0.323 A  
HETATM   20  C   UNL     1     -11.717  10.606  70.608  1.00  0.00    -0.454 A  
HETATM   21  C   UNL     1     -12.119  11.893  70.222  1.00  0.00    -0.409 A  
BRANCH  19  22
HETATM   22  N   UNL     1     -12.187  13.739  68.635  1.00  0.00    -0.435 NA 
HETATM   23  H   UNL     1     -12.679  14.344  69.293  1.00  0.00     0.000 HD 
BRANCH  22  24
HETATM   24  C   UNL     1     -11.860  14.161  67.261  1.00  0.00    -0.419 C  
HETATM   25  S   UNL     1     -10.774  15.645  67.378  1.00  0.00    -0.307 S  
HETATM   26  O   UNL     1     -10.167  15.867  66.026  1.00  0.00    -0.292 OA 
HETATM   27  O   UNL     1      -9.661  14.908  68.282  1.00  0.00    -0.205 OA 
ENDBRANCH  22  24
ENDBRANCH  19  22
ENDBRANCH  13  16
ENDBRANCH  10  13
ENDBRANCH   5   7
ENDBRANCH   3   5
TORSDOF 6
ENDMDL
MODEL      112
REMARK 921   NORMALIZED FREE ENERGY PREDICTED BY IDOCK:   -4.51 KCAL/MOL
REMARK 922        TOTAL FREE ENERGY PREDICTED BY IDOCK:   -6.88 KCAL/MOL
REMARK 923 INTER-LIGAND FREE ENERGY PREDICTED BY IDOCK:   -6.28 KCAL/MOL
REMARK 924 INTRA-LIGAND FREE ENERGY PREDICTED BY IDOCK:   -0.60 KCAL/MOL
REMARK 927      BINDING AFFINITY PREDICTED BY RF-SCORE:    0.00 PKD
ROOT
HETATM    1  O   UNL     1      -9.902   6.594  72.940  1.00  0.00    -0.160 OA 
HETATM    2  S   UNL     1      -9.308   7.871  72.164  1.00  0.00    -0.187 S  
HETATM    3  C   UNL     1      -8.371   6.865  70.944  1.00  0.00    -0.130 C  
HETATM    4  O   UNL     1      -8.332   8.486  73.121  1.00  0.00    -0.369 OA 
ENDROOT
BRANCH   3   5
HETATM    5  N   UNL     1      -7.676   7.784  70.044  1.00  0.00    -0.089 NA 
HETATM    6  H   UNL     1      -6.662   7.760  69.934  1.00  0.00     0.000 HD 
BRANCH   5   7
HETATM    7  C   UNL     1      -8.470   8.702  69.338  1.00  0.00    -0.126 A  
HETATM    8  C   UNL     1      -9.601   8.322  68.602  1.00  0.00    -0.152 A  
HETATM    9  C   UNL     1     -10.360   9.262  67.899  1.00  0.00    -0.279 A  
HETATM   10  C   UNL     1     -10.001  10.610  67.943  1.00  0.00    -0.166 A  
HETATM   11  C   UNL     1      -8.964  11.030  68.775  1.00  0.00    -0.153 A  
HETATM   12  C   UNL     1      -8.215  10.076  69.476  1.00  0.00    -0.173 A  
BRANCH  10  13
HETATM   13  S   UNL     1     -10.917  11.791  66.974  1.00  0.00    -0.300 S  
HETATM   14  O   UNL     1     -10.687  11.481  65.574  1.00  0.00    -0.273 OA 
HETATM   15  O   UNL     1     -12.268  11.820  67.510  1.00  0.00    -0.526 OA 
BRANCH  13  16
HETATM   16  C   UNL     1     -10.194  13.400  67.255  1.00  0.00    -0.241 A  
HETATM   17  C   UNL     1     -10.503  14.098  68.423  1.00  0.00    -0.254 A  
HETATM   18  C   UNL     1      -9.886  15.328  68.685  1.00  0.00    -0.211 A  
HETATM   19  C   UNL     1      -8.915  15.856  67.819  1.00  0.00    -0.176 A  
HETATM   20  C   UNL     1      -9.290  13.939  66.339  1.00  0.00    -0.226 A  
HETATM   21  C   UNL     1      -8.671  15.167  66.618  1.00  0.00    -0.308 A  
BRANCH  19  22
HETATM   22  N   UNL     1      -8.273  17.100  68.045  1.00  0.00    -0.210 NA 
HETATM   23  H   UNL     1      -7.260  17.213  67.999  1.00  0.00     0.000 HD 
BRANCH  22  24
HETATM   24  C   UNL     1      -9.183  18.219  68.351  1.00  0.00    -0.317 C  
HETATM   25  S   UNL     1      -8.888  19.536  67.097  1.00  0.00    -0.317 S  
HETATM   26  O   UNL     1     -10.024  20.509  67.188  1.00  0.00    -0.452 OA 
HETATM   27  O   UNL     1      -9.188  18.573  65.839  1.00  0.00    -0.486 OA 
ENDBRANCH  22  24
ENDBRANCH  19  22
ENDBRANCH  13  16
ENDBRANCH  10  13
ENDBRANCH   5   7
ENDBRANCH   3   5
TORSDOF 6
ENDMDL
MODEL      113
REMARK 921   NORMALIZED FREE ENERGY PREDICTED BY IDOCK:   -4.50 KCAL/MOL
REMARK 922        TOTAL FREE ENERGY PREDICTED BY IDOCK:   -6.88 KCAL/MOL
REMARK 923 INTER-LIGAND FREE ENERGY PREDICTED BY IDOCK:   -6.59 KCAL/MOL
REMARK 924 INTRA-LIGAND FREE ENERGY PREDICTED BY IDOCK:   -0.30 KCAL/MOL
REMARK 927      BINDING AFFINITY PREDICTED BY RF-SCORE:    0.00 PKD
ROOT
HETATM    1  O   UNL     1      -8.758   5.805  65.712  1.00  0.00    -0.145 OA 
HETATM    2  S   UNL     1      -8.475   7.296  66.243  1.00  0.00    -0.140 S  
HETATM    3  C   UNL     1      -7.785   7.882  64.642  1.00  0.00    -0.120 C  
HETATM    4  O   UNL     1      -7.348   7.151  67.221  1.00  0.00    -0.086 OA 
ENDROOT
BRANCH   3   5
HETATM    5  N   UNL     1      -7.407   9.285  64.804  1.00  0.00    -0.101 NA 
HETATM    6  H   UNL     1      -6.464   9.612  64.592  1.00  0.00     0.000 HD 
BRANCH   5   7
HETATM    7  C   UNL     1      -8.402  10.161  65.265  1.00  0.00    -0.159 A  
HETATM    8  C   UNL     1      -8.280  10.895  66.453  1.00  0.00    -0.163 A  
HETATM    9  C   UNL     1      -9.299  11.747  66.888  1.00  0.00    -0.197 A  
HETATM   10  C   UNL     1     -10.455  11.888  66.120  1.00  0.00    -0.237 A  
HETATM   11  C   UNL     1     -10.543  11.275  64.871  1.00  0.00    -0.364 A  
HETATM   12  C   UNL     1      -9.512  10.427  64.447  1.00  0.00    -0.343 A  
BRANCH  10  13
HETATM   13  S   UNL     1     -11.788  12.905  66.723  1.00  0.00    -0.351 S  
HETATM   14  O   UNL     1     -12.576  13.318  65.576  1.00  0.00    -0.474 OA 
HETATM   15  O   UNL     1     -12.408  12.182  67.821  1.00  0.00    -0.313 OA 
BRANCH  13  16
HETATM   16  C   UNL     1     -11.070  14.394  67.399  1.00  0.00    -0.308 A  
HETATM   17  C   UNL     1     -10.163  15.128  66.634  1.00  0.00    -0.270 A  
HETATM   18  C   UNL     1      -9.650  16.335  67.128  1.00  0.00    -0.238 A  
HETATM   19  C   UNL     1     -10.068  16.855  68.363  1.00  0.00    -0.304 A  
HETATM   20  C   UNL     1     -11.443  14.849  68.664  1.00  0.00    -0.326 A  
HETATM   21  C   UNL     1     -10.930  16.064  69.143  1.00  0.00    -0.297 A  
BRANCH  19  22
HETATM   22  N   UNL     1      -9.567  18.068  68.901  1.00  0.00    -0.272 NA 
HETATM   23  H   UNL     1     -10.033  18.568  69.658  1.00  0.00     0.000 HD 
BRANCH  22  24
HETATM   24  C   UNL     1      -8.320  18.550  68.281  1.00  0.00    -0.322 C  
HETATM   25  S   UNL     1      -8.770  19.386  66.701  1.00  0.00    -0.350 S  
HETATM   26  O   UNL     1      -7.574  20.166  66.247  1.00  0.00    -0.286 OA 
HETATM   27  O   UNL     1      -9.779  20.430  67.402  1.00  0.00    -0.418 OA 
ENDBRANCH  22  24
ENDBRANCH  19  22
ENDBRANCH  13  16
ENDBRANCH  10  13
ENDBRANCH   5   7
ENDBRANCH   3   5
TORSDOF 6
ENDMDL
MODEL      114
REMARK 921   NORMALIZED FREE ENERGY PREDICTED BY IDOCK:   -4.49 KCAL/MOL
REMARK 922        TOTAL FREE ENERGY PREDICTED BY IDOCK:   -6.86 KCAL/MOL
REMARK 923 INTER-LIGAND FREE ENERGY PREDICTED BY IDOCK:   -6.06 KCAL/MOL
REMARK 924 INTRA-LIGAND FREE ENERGY PREDICTED BY IDOCK:   -0.80 KCAL/MOL
REMARK 927      BINDING AFFINITY PREDICTED BY RF-SCORE:    0.00 PKD
ROOT
HETATM    1  O   UNL     1      -7.633   3.239  71.521  1.00  0.00    -0.046 OA 
HETATM    2  S   UNL     1      -7.965   4.256  72.721  1.00  0.00    -0.087 S  
HETATM    3  C   UNL     1      -9.759   4.349  72.328  1.00  0.00    -0.165 C  
HETATM    4  O   UNL     1      -7.324   5.550  72.320  1.00  0.00    -0.090 OA 
ENDROOT
BRANCH   3   5
HETATM    5  N   UNL     1     -10.383   5.253  73.293  1.00  0.00    -0.191 NA 
HETATM    6  H   UNL     1     -10.392   5.045  74.292  1.00  0.00     0.000 HD 
BRANCH   5   7
HETATM    7  C   UNL     1     -10.971   6.420  72.780  1.00  0.00    -0.257 A  
HETATM    8  C   UNL     1     -10.389   7.688  72.915  1.00  0.00    -0.380 A  
HETATM    9  C   UNL     1     -11.011   8.831  72.403  1.00  0.00    -0.229 A  
HETATM   10  C   UNL     1     -12.225   8.711  71.728  1.00  0.00    -0.343 A  
HETATM   11  C   UNL     1     -12.756   7.449  71.463  1.00  0.00    -0.409 A  
HETATM   12  C   UNL     1     -12.119   6.313  71.979  1.00  0.00    -0.321 A  
BRANCH  10  13
HETATM   13  S   UNL     1     -13.058  10.179  71.157  1.00  0.00    -0.361 S  
HETATM   14  O   UNL     1     -14.251   9.756  70.447  1.00  0.00     0.497 OA 
HETATM   15  O   UNL     1     -13.156  11.079  72.294  1.00  0.00    -0.377 OA 
BRANCH  13  16
HETATM   16  C   UNL     1     -12.005  10.961  69.943  1.00  0.00    -0.353 A  
HETATM   17  C   UNL     1     -11.336  10.174  69.005  1.00  0.00    -0.188 A  
HETATM   18  C   UNL     1     -10.566  10.783  68.006  1.00  0.00    -0.245 A  
HETATM   19  C   UNL     1     -10.491  12.181  67.892  1.00  0.00    -0.208 A  
HETATM   20  C   UNL     1     -11.885  12.350  69.900  1.00  0.00    -0.376 A  
HETATM   21  C   UNL     1     -11.118  12.949  68.889  1.00  0.00    -0.301 A  
BRANCH  19  22
HETATM   22  N   UNL     1      -9.717  12.835  66.901  1.00  0.00    -0.228 NA 
HETATM   23  H   UNL     1      -9.028  12.346  66.330  1.00  0.00     0.000 HD 
BRANCH  22  24
HETATM   24  C   UNL     1      -9.985  14.277  66.759  1.00  0.00    -0.265 C  
HETATM   25  S   UNL     1     -10.346  14.605  64.982  1.00  0.00    -0.348 S  
HETATM   26  O   UNL     1     -10.947  15.974  64.888  1.00  0.00    -0.472 OA 
HETATM   27  O   UNL     1     -11.560  13.547  64.909  1.00  0.00    -0.316 OA 
ENDBRANCH  22  24
ENDBRANCH  19  22
ENDBRANCH  13  16
ENDBRANCH  10  13
ENDBRANCH   5   7
ENDBRANCH   3   5
TORSDOF 6
ENDMDL
MODEL      115
REMARK 921   NORMALIZED FREE ENERGY PREDICTED BY IDOCK:   -4.48 KCAL/MOL
REMARK 922        TOTAL FREE ENERGY PREDICTED BY IDOCK:   -6.85 KCAL/MOL
REMARK 923 INTER-LIGAND FREE ENERGY PREDICTED BY IDOCK:   -6.05 KCAL/MOL
REMARK 924 INTRA-LIGAND FREE ENERGY PREDICTED BY IDOCK:   -0.80 KCAL/MOL
REMARK 927      BINDING AFFINITY PREDICTED BY RF-SCORE:    0.00 PKD
ROOT
HETATM    1  O   UNL     1      -5.762   3.371  71.879  1.00  0.00    -0.008 OA 
HETATM    2  S   UNL     1      -6.263   4.359  73.044  1.00  0.00    -0.025 S  
HETATM    3  C   UNL     1      -8.009   3.788  72.966  1.00  0.00    -0.079 C  
HETATM    4  O   UNL     1      -6.185   5.732  72.447  1.00  0.00    -0.041 OA 
ENDROOT
BRANCH   3   5
HETATM    5  N   UNL     1      -8.772   4.542  73.960  1.00  0.00    -0.104 NA 
HETATM    6  H   UNL     1      -8.613   4.421  74.960  1.00  0.00     0.000 HD 
BRANCH   5   7
HETATM    7  C   UNL     1      -9.735   5.440  73.472  1.00  0.00    -0.148 A  
HETATM    8  C   UNL     1      -9.753   6.798  73.816  1.00  0.00    -0.267 A  
HETATM    9  C   UNL     1     -10.737   7.660  73.322  1.00  0.00    -0.409 A  
HETATM   10  C   UNL     1     -11.711   7.168  72.452  1.00  0.00    -0.222 A  
HETATM   11  C   UNL     1     -11.635   5.855  71.989  1.00  0.00    -0.289 A  
HETATM   12  C   UNL     1     -10.641   5.005  72.490  1.00  0.00    -0.277 A  
BRANCH  10  13
HETATM   13  S   UNL     1     -13.014   8.248  71.896  1.00  0.00    -0.343 S  
HETATM   14  O   UNL     1     -13.864   7.483  71.002  1.00  0.00    -0.219 OA 
HETATM   15  O   UNL     1     -13.571   8.883  73.080  1.00  0.00    -0.283 OA 
BRANCH  13  16
HETATM   16  C   UNL     1     -12.267   9.530  70.901  1.00  0.00    -0.254 A  
HETATM   17  C   UNL     1     -12.771  10.830  70.965  1.00  0.00    -0.513 A  
HETATM   18  C   UNL     1     -12.147  11.856  70.243  1.00  0.00    -0.409 A  
HETATM   19  C   UNL     1     -10.986  11.617  69.490  1.00  0.00    -0.098 A  
HETATM   20  C   UNL     1     -11.161   9.250  70.100  1.00  0.00    -0.260 A  
HETATM   21  C   UNL     1     -10.539  10.288  69.389  1.00  0.00    -0.262 A  
BRANCH  19  22
HETATM   22  N   UNL     1     -10.330  12.626  68.741  1.00  0.00    -0.390 NA 
HETATM   23  H   UNL     1      -9.731  12.416  67.942  1.00  0.00     0.000 HD 
BRANCH  22  24
HETATM   24  C   UNL     1     -10.582  14.002  69.204  1.00  0.00    -0.128 C  
HETATM   25  S   UNL     1     -10.736  15.073  67.712  1.00  0.00    -0.286 S  
HETATM   26  O   UNL     1     -11.324  16.379  68.153  1.00  0.00    -0.324 OA 
HETATM   27  O   UNL     1     -11.933  14.207  67.067  1.00  0.00    -0.408 OA 
ENDBRANCH  22  24
ENDBRANCH  19  22
ENDBRANCH  13  16
ENDBRANCH  10  13
ENDBRANCH   5   7
ENDBRANCH   3   5
TORSDOF 6
ENDMDL
MODEL      116
REMARK 921   NORMALIZED FREE ENERGY PREDICTED BY IDOCK:   -4.48 KCAL/MOL
REMARK 922        TOTAL FREE ENERGY PREDICTED BY IDOCK:   -6.84 KCAL/MOL
REMARK 923 INTER-LIGAND FREE ENERGY PREDICTED BY IDOCK:   -6.18 KCAL/MOL
REMARK 924 INTRA-LIGAND FREE ENERGY PREDICTED BY IDOCK:   -0.66 KCAL/MOL
REMARK 927      BINDING AFFINITY PREDICTED BY RF-SCORE:    0.00 PKD
ROOT
HETATM    1  O   UNL     1      -5.160   6.271  71.469  1.00  0.00    -0.017 OA 
HETATM    2  S   UNL     1      -6.086   6.476  72.767  1.00  0.00    -0.050 S  
HETATM    3  C   UNL     1      -7.662   6.386  71.825  1.00  0.00    -0.096 C  
HETATM    4  O   UNL     1      -5.861   7.899  73.181  1.00  0.00    -0.051 OA 
ENDROOT
BRANCH   3   5
HETATM    5  N   UNL     1      -8.762   6.551  72.775  1.00  0.00    -0.124 NA 
HETATM    6  H   UNL     1      -8.805   6.014  73.641  1.00  0.00     0.000 HD 
BRANCH   5   7
HETATM    7  C   UNL     1      -9.754   7.486  72.439  1.00  0.00    -0.161 A  
HETATM    8  C   UNL     1     -11.068   7.408  72.920  1.00  0.00    -0.397 A  
HETATM    9  C   UNL     1     -12.033   8.350  72.551  1.00  0.00    -0.418 A  
HETATM   10  C   UNL     1     -11.683   9.401  71.703  1.00  0.00    -0.398 A  
HETATM   11  C   UNL     1     -10.354   9.577  71.321  1.00  0.00    -0.287 A  
HETATM   12  C   UNL     1      -9.397   8.627  71.702  1.00  0.00    -0.333 A  
BRANCH  10  13
HETATM   13  S   UNL     1     -12.937  10.546  71.165  1.00  0.00    -0.391 S  
HETATM   14  O   UNL     1     -13.966   9.779  70.485  1.00  0.00     0.149 OA 
HETATM   15  O   UNL     1     -13.272  11.376  72.311  1.00  0.00    -0.415 OA 
BRANCH  13  16
HETATM   16  C   UNL     1     -12.206  11.608  69.929  1.00  0.00    -0.239 A  
HETATM   17  C   UNL     1     -11.913  11.092  68.666  1.00  0.00    -0.289 A  
HETATM   18  C   UNL     1     -11.407  11.935  67.668  1.00  0.00    -0.372 A  
HETATM   19  C   UNL     1     -11.233  13.310  67.893  1.00  0.00    -0.272 A  
HETATM   20  C   UNL     1     -11.970  12.955  70.203  1.00  0.00    -0.373 A  
HETATM   21  C   UNL     1     -11.471  13.791  69.192  1.00  0.00    -0.346 A  
BRANCH  19  22
HETATM   22  N   UNL     1     -10.716  14.194  66.913  1.00  0.00    -0.284 NA 
HETATM   23  H   UNL     1     -11.202  14.390  66.038  1.00  0.00     0.000 HD 
BRANCH  22  24
HETATM   24  C   UNL     1      -9.421  14.809  67.256  1.00  0.00    -0.214 C  
HETATM   25  S   UNL     1      -9.252  16.347  66.254  1.00  0.00    -0.328 S  
HETATM   26  O   UNL     1      -8.125  17.143  66.838  1.00  0.00    -0.188 OA 
HETATM   27  O   UNL     1     -10.623  16.996  66.799  1.00  0.00    -0.284 OA 
ENDBRANCH  22  24
ENDBRANCH  19  22
ENDBRANCH  13  16
ENDBRANCH  10  13
ENDBRANCH   5   7
ENDBRANCH   3   5
TORSDOF 6
ENDMDL
MODEL      117
REMARK 921   NORMALIZED FREE ENERGY PREDICTED BY IDOCK:   -4.45 KCAL/MOL
REMARK 922        TOTAL FREE ENERGY PREDICTED BY IDOCK:   -6.80 KCAL/MOL
REMARK 923 INTER-LIGAND FREE ENERGY PREDICTED BY IDOCK:   -6.95 KCAL/MOL
REMARK 924 INTRA-LIGAND FREE ENERGY PREDICTED BY IDOCK:    0.15 KCAL/MOL
REMARK 927      BINDING AFFINITY PREDICTED BY RF-SCORE:    0.00 PKD
ROOT
HETATM    1  O   UNL     1     -10.253   7.135  73.505  1.00  0.00    -0.279 OA 
HETATM    2  S   UNL     1     -10.671   7.814  72.109  1.00  0.00    -0.269 S  
HETATM    3  C   UNL     1     -12.443   7.987  72.568  1.00  0.00    -0.148 C  
HETATM    4  O   UNL     1     -10.549   6.717  71.094  1.00  0.00    -0.220 OA 
ENDROOT
BRANCH   3   5
HETATM    5  N   UNL     1     -13.140   8.605  71.440  1.00  0.00    -0.466 NA 
HETATM    6  H   UNL     1     -13.697   8.052  70.788  1.00  0.00     0.000 HD 
BRANCH   5   7
HETATM    7  C   UNL     1     -13.005   9.995  71.296  1.00  0.00    -0.400 A  
HETATM    8  C   UNL     1     -12.520  10.597  70.128  1.00  0.00    -0.342 A  
HETATM    9  C   UNL     1     -12.386  11.985  70.027  1.00  0.00    -0.179 A  
HETATM   10  C   UNL     1     -12.759  12.793  71.101  1.00  0.00    -0.263 A  
HETATM   11  C   UNL     1     -13.370  12.230  72.220  1.00  0.00    -0.375 A  
HETATM   12  C   UNL     1     -13.501  10.838  72.304  1.00  0.00    -0.076 A  
BRANCH  10  13
HETATM   13  S   UNL     1     -12.503  14.553  71.001  1.00  0.00    -0.368 S  
HETATM   14  O   UNL     1     -13.801  15.174  70.806  1.00  0.00    -0.288 OA 
HETATM   15  O   UNL     1     -11.671  14.924  72.134  1.00  0.00    -0.353 OA 
BRANCH  13  16
HETATM   16  C   UNL     1     -11.564  14.881  69.517  1.00  0.00    -0.303 A  
HETATM   17  C   UNL     1     -10.689  13.910  69.029  1.00  0.00    -0.219 A  
HETATM   18  C   UNL     1     -10.003  14.130  67.827  1.00  0.00    -0.235 A  
HETATM   19  C   UNL     1     -10.214  15.292  67.068  1.00  0.00    -0.260 A  
HETATM   20  C   UNL     1     -11.734  16.079  68.822  1.00  0.00    -0.302 A  
HETATM   21  C   UNL     1     -11.048  16.283  67.615  1.00  0.00    -0.184 A  
BRANCH  19  22
HETATM   22  N   UNL     1      -9.534  15.555  65.852  1.00  0.00    -0.347 NA 
HETATM   23  H   UNL     1      -8.819  16.278  65.767  1.00  0.00     0.000 HD 
BRANCH  22  24
HETATM   24  C   UNL     1      -9.940  14.703  64.721  1.00  0.00     0.109 C  
HETATM   25  S   UNL     1     -11.734  14.993  64.420  1.00  0.00    -0.232 S  
HETATM   26  O   UNL     1     -12.068  14.406  63.081  1.00  0.00    -0.033 OA 
HETATM   27  O   UNL     1     -11.566  16.582  64.213  1.00  0.00    -0.923 OA 
ENDBRANCH  22  24
ENDBRANCH  19  22
ENDBRANCH  13  16
ENDBRANCH  10  13
ENDBRANCH   5   7
ENDBRANCH   3   5
TORSDOF 6
ENDMDL
MODEL      118
REMARK 921   NORMALIZED FREE ENERGY PREDICTED BY IDOCK:   -4.45 KCAL/MOL
REMARK 922        TOTAL FREE ENERGY PREDICTED BY IDOCK:   -6.80 KCAL/MOL
REMARK 923 INTER-LIGAND FREE ENERGY PREDICTED BY IDOCK:   -6.02 KCAL/MOL
REMARK 924 INTRA-LIGAND FREE ENERGY PREDICTED BY IDOCK:   -0.78 KCAL/MOL
REMARK 927      BINDING AFFINITY PREDICTED BY RF-SCORE:    0.00 PKD
ROOT
HETATM    1  O   UNL     1     -12.025  15.395  64.051  1.00  0.00    -0.512 OA 
HETATM    2  S   UNL     1     -12.102  13.790  64.092  1.00  0.00    -0.381 S  
HETATM    3  C   UNL     1     -12.151  13.703  65.928  1.00  0.00    -0.439 C  
HETATM    4  O   UNL     1     -10.752  13.326  63.631  1.00  0.00    -0.106 OA 
ENDROOT
BRANCH   3   5
HETATM    5  N   UNL     1     -12.223  12.292  66.308  1.00  0.00    -0.557 NA 
HETATM    6  H   UNL     1     -13.049  11.727  66.111  1.00  0.00     0.000 HD 
BRANCH   5   7
HETATM    7  C   UNL     1     -11.100  11.753  66.956  1.00  0.00    -0.304 A  
HETATM    8  C   UNL     1     -10.716  10.412  66.824  1.00  0.00    -0.235 A  
HETATM    9  C   UNL     1      -9.599   9.907  67.497  1.00  0.00    -0.183 A  
HETATM   10  C   UNL     1      -8.838  10.754  68.302  1.00  0.00    -0.139 A  
HETATM   11  C   UNL     1      -9.119  12.119  68.342  1.00  0.00    -0.151 A  
HETATM   12  C   UNL     1     -10.239  12.611  67.659  1.00  0.00    -0.217 A  
BRANCH  10  13
HETATM   13  S   UNL     1      -7.470  10.086  69.228  1.00  0.00    -0.117 S  
HETATM   14  O   UNL     1      -6.899   9.006  68.445  1.00  0.00    -0.063 OA 
HETATM   15  O   UNL     1      -6.648  11.213  69.640  1.00  0.00    -0.111 OA 
BRANCH  13  16
HETATM   16  C   UNL     1      -8.132   9.336  70.708  1.00  0.00    -0.156 A  
HETATM   17  C   UNL     1      -9.514   9.268  70.884  1.00  0.00    -0.330 A  
HETATM   18  C   UNL     1     -10.044   8.618  72.007  1.00  0.00    -0.401 A  
HETATM   19  C   UNL     1      -9.211   7.982  72.942  1.00  0.00    -0.265 A  
HETATM   20  C   UNL     1      -7.280   8.780  71.662  1.00  0.00    -0.095 A  
HETATM   21  C   UNL     1      -7.822   8.123  72.777  1.00  0.00    -0.197 A  
BRANCH  19  22
HETATM   22  N   UNL     1      -9.706   7.321  74.094  1.00  0.00    -0.422 NA 
HETATM   23  H   UNL     1      -9.453   7.603  75.041  1.00  0.00     0.000 HD 
BRANCH  22  24
HETATM   24  C   UNL     1     -10.617   6.196  73.817  1.00  0.00    -0.244 C  
HETATM   25  S   UNL     1      -9.605   4.817  73.131  1.00  0.00    -0.134 S  
HETATM   26  O   UNL     1     -10.446   3.577  73.172  1.00  0.00    -0.155 OA 
HETATM   27  O   UNL     1      -8.610   4.757  74.398  1.00  0.00    -0.109 OA 
ENDBRANCH  22  24
ENDBRANCH  19  22
ENDBRANCH  13  16
ENDBRANCH  10  13
ENDBRANCH   5   7
ENDBRANCH   3   5
TORSDOF 6
ENDMDL
MODEL      119
REMARK 921   NORMALIZED FREE ENERGY PREDICTED BY IDOCK:   -4.44 KCAL/MOL
REMARK 922        TOTAL FREE ENERGY PREDICTED BY IDOCK:   -6.79 KCAL/MOL
REMARK 923 INTER-LIGAND FREE ENERGY PREDICTED BY IDOCK:   -6.08 KCAL/MOL
REMARK 924 INTRA-LIGAND FREE ENERGY PREDICTED BY IDOCK:   -0.71 KCAL/MOL
REMARK 927      BINDING AFFINITY PREDICTED BY RF-SCORE:    0.00 PKD
ROOT
HETATM    1  O   UNL     1      -8.314   8.676  67.336  1.00  0.00    -0.114 OA 
HETATM    2  S   UNL     1      -9.389   9.742  66.793  1.00  0.00    -0.157 S  
HETATM    3  C   UNL     1     -10.617   9.381  68.113  1.00  0.00    -0.212 C  
HETATM    4  O   UNL     1      -9.892   9.163  65.505  1.00  0.00    -0.220 OA 
ENDROOT
BRANCH   3   5
HETATM    5  N   UNL     1     -11.782  10.235  67.887  1.00  0.00    -0.621 NA 
HETATM    6  H   UNL     1     -12.624   9.881  67.433  1.00  0.00     0.000 HD 
BRANCH   5   7
HETATM    7  C   UNL     1     -11.686  11.565  68.325  1.00  0.00    -0.301 A  
HETATM    8  C   UNL     1     -11.527  11.914  69.673  1.00  0.00    -0.337 A  
HETATM    9  C   UNL     1     -11.450  13.251  70.073  1.00  0.00    -0.105 A  
HETATM   10  C   UNL     1     -11.514  14.263  69.115  1.00  0.00    -0.291 A  
HETATM   11  C   UNL     1     -11.536  13.940  67.759  1.00  0.00    -0.381 A  
HETATM   12  C   UNL     1     -11.609  12.595  67.373  1.00  0.00    -0.421 A  
BRANCH  10  13
HETATM   13  S   UNL     1     -11.506  15.966  69.637  1.00  0.00    -0.341 S  
HETATM   14  O   UNL     1     -12.514  16.666  68.862  1.00  0.00     0.677 OA 
HETATM   15  O   UNL     1     -11.564  15.963  71.090  1.00  0.00    -0.368 OA 
BRANCH  13  16
HETATM   16  C   UNL     1      -9.934  16.671  69.165  1.00  0.00    -0.263 A  
HETATM   17  C   UNL     1      -8.786  15.877  69.202  1.00  0.00    -0.253 A  
HETATM   18  C   UNL     1      -7.562  16.400  68.766  1.00  0.00    -0.211 A  
HETATM   19  C   UNL     1      -7.469  17.699  68.239  1.00  0.00    -0.251 A  
HETATM   20  C   UNL     1      -9.854  17.990  68.719  1.00  0.00    -0.360 A  
HETATM   21  C   UNL     1      -8.624  18.499  68.275  1.00  0.00    -0.341 A  
BRANCH  19  22
HETATM   22  N   UNL     1      -6.249  18.266  67.794  1.00  0.00    -0.179 NA 
HETATM   23  H   UNL     1      -5.642  18.814  68.405  1.00  0.00     0.000 HD 
BRANCH  22  24
HETATM   24  C   UNL     1      -5.923  18.004  66.381  1.00  0.00    -0.176 C  
HETATM   25  S   UNL     1      -6.604  19.396  65.385  1.00  0.00    -0.265 S  
HETATM   26  O   UNL     1      -5.991  19.316  64.019  1.00  0.00    -0.411 OA 
HETATM   27  O   UNL     1      -5.801  20.531  66.200  1.00  0.00    -0.177 OA 
ENDBRANCH  22  24
ENDBRANCH  19  22
ENDBRANCH  13  16
ENDBRANCH  10  13
ENDBRANCH   5   7
ENDBRANCH   3   5
TORSDOF 6
ENDMDL
MODEL      120
REMARK 921   NORMALIZED FREE ENERGY PREDICTED BY IDOCK:   -4.41 KCAL/MOL
REMARK 922        TOTAL FREE ENERGY PREDICTED BY IDOCK:   -6.76 KCAL/MOL
REMARK 923 INTER-LIGAND FREE ENERGY PREDICTED BY IDOCK:   -6.06 KCAL/MOL
REMARK 924 INTRA-LIGAND FREE ENERGY PREDICTED BY IDOCK:   -0.69 KCAL/MOL
REMARK 927      BINDING AFFINITY PREDICTED BY RF-SCORE:    0.00 PKD
ROOT
HETATM    1  O   UNL     1      -6.318   4.683  66.957  1.00  0.00    -0.038 OA 
HETATM    2  S   UNL     1      -6.529   5.424  65.545  1.00  0.00    -0.040 S  
HETATM    3  C   UNL     1      -7.502   6.809  66.262  1.00  0.00    -0.077 C  
HETATM    4  O   UNL     1      -7.461   4.535  64.778  1.00  0.00    -0.070 OA 
ENDROOT
BRANCH   3   5
HETATM    5  N   UNL     1      -7.871   7.709  65.170  1.00  0.00    -0.116 NA 
HETATM    6  H   UNL     1      -7.492   7.594  64.230  1.00  0.00     0.000 HD 
BRANCH   5   7
HETATM    7  C   UNL     1      -8.773   8.741  65.477  1.00  0.00    -0.185 A  
HETATM    8  C   UNL     1      -9.200   9.685  64.533  1.00  0.00    -0.277 A  
HETATM    9  C   UNL     1     -10.088  10.707  64.880  1.00  0.00    -0.402 A  
HETATM   10  C   UNL     1     -10.578  10.783  66.183  1.00  0.00    -0.175 A  
HETATM   11  C   UNL     1     -10.276   9.779  67.103  1.00  0.00    -0.288 A  
HETATM   12  C   UNL     1      -9.388   8.759  66.740  1.00  0.00    -0.229 A  
BRANCH  10  13
HETATM   13  S   UNL     1     -11.639  12.139  66.642  1.00  0.00    -0.309 S  
HETATM   14  O   UNL     1     -12.464  12.457  65.491  1.00  0.00    -0.643 OA 
HETATM   15  O   UNL     1     -12.251  11.786  67.913  1.00  0.00    -0.538 OA 
BRANCH  13  16
HETATM   16  C   UNL     1     -10.603  13.566  66.925  1.00  0.00    -0.270 A  
HETATM   17  C   UNL     1     -10.612  14.615  66.004  1.00  0.00    -0.314 A  
HETATM   18  C   UNL     1      -9.857  15.769  66.253  1.00  0.00    -0.320 A  
HETATM   19  C   UNL     1      -9.125  15.919  67.441  1.00  0.00    -0.196 A  
HETATM   20  C   UNL     1      -9.822  13.658  68.077  1.00  0.00    -0.244 A  
HETATM   21  C   UNL     1      -9.078  14.822  68.319  1.00  0.00    -0.183 A  
BRANCH  19  22
HETATM   22  N   UNL     1      -8.343  17.067  67.727  1.00  0.00    -0.194 NA 
HETATM   23  H   UNL     1      -8.080  17.331  68.676  1.00  0.00     0.000 HD 
BRANCH  22  24
HETATM   24  C   UNL     1      -7.940  17.849  66.545  1.00  0.00    -0.270 C  
HETATM   25  S   UNL     1      -6.108  18.042  66.603  1.00  0.00    -0.180 S  
HETATM   26  O   UNL     1      -5.662  18.525  65.256  1.00  0.00    -0.188 OA 
HETATM   27  O   UNL     1      -5.823  16.456  66.657  1.00  0.00    -0.317 OA 
ENDBRANCH  22  24
ENDBRANCH  19  22
ENDBRANCH  13  16
ENDBRANCH  10  13
ENDBRANCH   5   7
ENDBRANCH   3   5
TORSDOF 6
ENDMDL
MODEL      121
REMARK 921   NORMALIZED FREE ENERGY PREDICTED BY IDOCK:   -4.39 KCAL/MOL
REMARK 922        TOTAL FREE ENERGY PREDICTED BY IDOCK:   -6.72 KCAL/MOL
REMARK 923 INTER-LIGAND FREE ENERGY PREDICTED BY IDOCK:   -6.11 KCAL/MOL
REMARK 924 INTRA-LIGAND FREE ENERGY PREDICTED BY IDOCK:   -0.62 KCAL/MOL
REMARK 927      BINDING AFFINITY PREDICTED BY RF-SCORE:    0.00 PKD
ROOT
HETATM    1  O   UNL     1     -13.281  14.083  65.097  1.00  0.00    -0.768 OA 
HETATM    2  S   UNL     1     -11.838  14.213  65.793  1.00  0.00    -0.395 S  
HETATM    3  C   UNL     1     -11.256  12.569  65.209  1.00  0.00    -0.304 C  
HETATM    4  O   UNL     1     -12.109  14.125  67.265  1.00  0.00    -0.417 OA 
ENDROOT
BRANCH   3   5
HETATM    5  N   UNL     1      -9.896  12.372  65.708  1.00  0.00    -0.279 NA 
HETATM    6  H   UNL     1      -9.086  12.742  65.210  1.00  0.00     0.000 HD 
BRANCH   5   7
HETATM    7  C   UNL     1      -9.758  11.650  66.903  1.00  0.00    -0.195 A  
HETATM    8  C   UNL     1      -8.619  11.733  67.716  1.00  0.00    -0.151 A  
HETATM    9  C   UNL     1      -8.511  10.987  68.893  1.00  0.00    -0.124 A  
HETATM   10  C   UNL     1      -9.562  10.156  69.283  1.00  0.00    -0.225 A  
HETATM   11  C   UNL     1     -10.758  10.159  68.565  1.00  0.00    -0.264 A  
HETATM   12  C   UNL     1     -10.852  10.915  67.389  1.00  0.00    -0.333 A  
BRANCH  10  13
HETATM   13  S   UNL     1      -9.384   9.140  70.735  1.00  0.00    -0.264 S  
HETATM   14  O   UNL     1      -8.077   9.417  71.303  1.00  0.00    -0.319 OA 
HETATM   15  O   UNL     1     -10.587   9.323  71.530  1.00  0.00    -0.333 OA 
BRANCH  13  16
HETATM   16  C   UNL     1      -9.346   7.435  70.203  1.00  0.00    -0.158 A  
HETATM   17  C   UNL     1     -10.543   6.784  69.899  1.00  0.00    -0.257 A  
HETATM   18  C   UNL     1     -10.518   5.470  69.413  1.00  0.00    -0.360 A  
HETATM   19  C   UNL     1      -9.306   4.804  69.173  1.00  0.00    -0.135 A  
HETATM   20  C   UNL     1      -8.131   6.769  70.047  1.00  0.00    -0.125 A  
HETATM   21  C   UNL     1      -8.119   5.456  69.550  1.00  0.00    -0.096 A  
BRANCH  19  22
HETATM   22  N   UNL     1      -9.239   3.473  68.689  1.00  0.00    -0.151 NA 
HETATM   23  H   UNL     1      -9.819   2.722  69.063  1.00  0.00     0.000 HD 
BRANCH  22  24
HETATM   24  C   UNL     1      -8.267   3.258  67.603  1.00  0.00    -0.081 C  
HETATM   25  S   UNL     1      -9.219   2.978  66.050  1.00  0.00    -0.074 S  
HETATM   26  O   UNL     1      -8.260   3.102  64.904  1.00  0.00    -0.089 OA 
HETATM   27  O   UNL     1     -10.023   4.371  66.149  1.00  0.00    -0.210 OA 
ENDBRANCH  22  24
ENDBRANCH  19  22
ENDBRANCH  13  16
ENDBRANCH  10  13
ENDBRANCH   5   7
ENDBRANCH   3   5
TORSDOF 6
ENDMDL
MODEL      122
REMARK 921   NORMALIZED FREE ENERGY PREDICTED BY IDOCK:   -4.36 KCAL/MOL
REMARK 922        TOTAL FREE ENERGY PREDICTED BY IDOCK:   -6.69 KCAL/MOL
REMARK 923 INTER-LIGAND FREE ENERGY PREDICTED BY IDOCK:   -6.55 KCAL/MOL
REMARK 924 INTRA-LIGAND FREE ENERGY PREDICTED BY IDOCK:   -0.14 KCAL/MOL
REMARK 927      BINDING AFFINITY PREDICTED BY RF-SCORE:    0.00 PKD
ROOT
HETATM    1  O   UNL     1     -14.411   8.496  72.880  1.00  0.00    -0.404 OA 
HETATM    2  S   UNL     1     -13.781   8.075  71.462  1.00  0.00    -0.276 S  
HETATM    3  C   UNL     1     -12.266   7.339  72.199  1.00  0.00    -0.223 C  
HETATM    4  O   UNL     1     -13.409   9.369  70.804  1.00  0.00    -0.093 OA 
ENDROOT
BRANCH   3   5
HETATM    5  N   UNL     1     -11.432   6.839  71.106  1.00  0.00    -0.296 NA 
HETATM    6  H   UNL     1     -11.514   5.880  70.768  1.00  0.00     0.000 HD 
BRANCH   5   7
HETATM    7  C   UNL     1     -10.516   7.742  70.545  1.00  0.00    -0.217 A  
HETATM    8  C   UNL     1      -9.725   8.604  71.317  1.00  0.00    -0.305 A  
HETATM    9  C   UNL     1      -8.833   9.500  70.721  1.00  0.00    -0.130 A  
HETATM   10  C   UNL     1      -8.708   9.528  69.332  1.00  0.00    -0.165 A  
HETATM   11  C   UNL     1      -9.381   8.590  68.551  1.00  0.00    -0.139 A  
HETATM   12  C   UNL     1     -10.269   7.695  69.163  1.00  0.00    -0.204 A  
BRANCH  10  13
HETATM   13  S   UNL     1      -7.637  10.733  68.573  1.00  0.00    -0.111 S  
HETATM   14  O   UNL     1      -6.802  11.295  69.620  1.00  0.00    -0.129 OA 
HETATM   15  O   UNL     1      -7.036  10.094  67.414  1.00  0.00    -0.081 OA 
BRANCH  13  16
HETATM   16  C   UNL     1      -8.661  12.070  67.978  1.00  0.00    -0.170 A  
HETATM   17  C   UNL     1      -8.131  13.359  67.901  1.00  0.00    -0.162 A  
HETATM   18  C   UNL     1      -8.903  14.400  67.369  1.00  0.00    -0.211 A  
HETATM   19  C   UNL     1     -10.191  14.166  66.859  1.00  0.00    -0.267 A  
HETATM   20  C   UNL     1      -9.965  11.826  67.550  1.00  0.00    -0.204 A  
HETATM   21  C   UNL     1     -10.725  12.875  67.010  1.00  0.00    -0.273 A  
BRANCH  19  22
HETATM   22  N   UNL     1     -11.005  15.193  66.319  1.00  0.00    -0.340 NA 
HETATM   23  H   UNL     1     -11.450  15.905  66.900  1.00  0.00     0.000 HD 
BRANCH  22  24
HETATM   24  C   UNL     1     -11.161  15.154  64.855  1.00  0.00    -0.417 C  
HETATM   25  S   UNL     1     -12.176  13.672  64.442  1.00  0.00    -0.366 S  
HETATM   26  O   UNL     1     -12.622  13.813  63.018  1.00  0.00    -0.721 OA 
HETATM   27  O   UNL     1     -13.415  14.112  65.373  1.00  0.00    -0.648 OA 
ENDBRANCH  22  24
ENDBRANCH  19  22
ENDBRANCH  13  16
ENDBRANCH  10  13
ENDBRANCH   5   7
ENDBRANCH   3   5
TORSDOF 6
ENDMDL
MODEL      123
REMARK 921   NORMALIZED FREE ENERGY PREDICTED BY IDOCK:   -4.36 KCAL/MOL
REMARK 922        TOTAL FREE ENERGY PREDICTED BY IDOCK:   -6.69 KCAL/MOL
REMARK 923 INTER-LIGAND FREE ENERGY PREDICTED BY IDOCK:   -5.89 KCAL/MOL
REMARK 924 INTRA-LIGAND FREE ENERGY PREDICTED BY IDOCK:   -0.80 KCAL/MOL
REMARK 927      BINDING AFFINITY PREDICTED BY RF-SCORE:    0.00 PKD
ROOT
HETATM    1  O   UNL     1     -11.656  15.640  72.119  1.00  0.00    -0.410 OA 
HETATM    2  S   UNL     1     -11.614  15.919  70.536  1.00  0.00    -0.377 S  
HETATM    3  C   UNL     1     -12.415  14.324  70.095  1.00  0.00    -0.335 C  
HETATM    4  O   UNL     1     -10.163  15.839  70.168  1.00  0.00    -0.288 OA 
ENDROOT
BRANCH   3   5
HETATM    5  N   UNL     1     -12.525  14.266  68.638  1.00  0.00    -0.516 NA 
HETATM    6  H   UNL     1     -13.157  14.880  68.125  1.00  0.00     0.000 HD 
BRANCH   5   7
HETATM    7  C   UNL     1     -11.719  13.324  67.980  1.00  0.00    -0.359 A  
HETATM    8  C   UNL     1     -11.999  12.850  66.691  1.00  0.00    -0.436 A  
HETATM    9  C   UNL     1     -11.181  11.900  66.072  1.00  0.00    -0.377 A  
HETATM   10  C   UNL     1     -10.051  11.424  66.739  1.00  0.00    -0.216 A  
HETATM   11  C   UNL     1      -9.677  11.978  67.962  1.00  0.00    -0.198 A  
HETATM   12  C   UNL     1     -10.505  12.932  68.567  1.00  0.00    -0.260 A  
BRANCH  10  13
HETATM   13  S   UNL     1      -9.063  10.148  65.984  1.00  0.00    -0.161 S  
HETATM   14  O   UNL     1      -9.796   9.650  64.834  1.00  0.00    -0.232 OA 
HETATM   15  O   UNL     1      -7.723  10.689  65.826  1.00  0.00    -0.153 OA 
BRANCH  13  16
HETATM   16  C   UNL     1      -8.959   8.789  67.138  1.00  0.00    -0.131 A  
HETATM   17  C   UNL     1     -10.132   8.207  67.622  1.00  0.00    -0.267 A  
HETATM   18  C   UNL     1     -10.061   7.095  68.472  1.00  0.00    -0.177 A  
HETATM   19  C   UNL     1      -8.828   6.514  68.811  1.00  0.00    -0.125 A  
HETATM   20  C   UNL     1      -7.719   8.279  67.522  1.00  0.00    -0.099 A  
HETATM   21  C   UNL     1      -7.661   7.159  68.366  1.00  0.00    -0.118 A  
BRANCH  19  22
HETATM   22  N   UNL     1      -8.713   5.395  69.673  1.00  0.00    -0.102 NA 
HETATM   23  H   UNL     1      -8.076   5.377  70.469  1.00  0.00     0.000 HD 
BRANCH  22  24
HETATM   24  C   UNL     1      -9.587   4.258  69.330  1.00  0.00    -0.190 C  
HETATM   25  S   UNL     1      -8.787   3.338  67.949  1.00  0.00    -0.143 S  
HETATM   26  O   UNL     1      -9.478   2.013  67.829  1.00  0.00    -0.174 OA 
HETATM   27  O   UNL     1      -7.413   3.085  68.753  1.00  0.00    -0.048 OA 
ENDBRANCH  22  24
ENDBRANCH  19  22
ENDBRANCH  13  16
ENDBRANCH  10  13
ENDBRANCH   5   7
ENDBRANCH   3   5
TORSDOF 6
ENDMDL
MODEL      124
REMARK 921   NORMALIZED FREE ENERGY PREDICTED BY IDOCK:   -4.33 KCAL/MOL
REMARK 922        TOTAL FREE ENERGY PREDICTED BY IDOCK:   -6.65 KCAL/MOL
REMARK 923 INTER-LIGAND FREE ENERGY PREDICTED BY IDOCK:   -5.99 KCAL/MOL
REMARK 924 INTRA-LIGAND FREE ENERGY PREDICTED BY IDOCK:   -0.66 KCAL/MOL
REMARK 927      BINDING AFFINITY PREDICTED BY RF-SCORE:    0.00 PKD
ROOT
HETATM    1  O   UNL     1     -11.359   6.500  72.938  1.00  0.00    -0.230 OA 
HETATM    2  S   UNL     1     -10.291   5.734  72.011  1.00  0.00    -0.214 S  
HETATM    3  C   UNL     1     -11.139   6.169  70.439  1.00  0.00    -0.352 C  
HETATM    4  O   UNL     1     -10.516   4.277  72.285  1.00  0.00    -0.170 OA 
ENDROOT
BRANCH   3   5
HETATM    5  N   UNL     1     -10.374   5.582  69.339  1.00  0.00    -0.257 NA 
HETATM    6  H   UNL     1     -10.232   4.574  69.266  1.00  0.00     0.000 HD 
BRANCH   5   7
HETATM    7  C   UNL     1      -9.844   6.471  68.391  1.00  0.00    -0.137 A  
HETATM    8  C   UNL     1      -8.474   6.558  68.111  1.00  0.00    -0.116 A  
HETATM    9  C   UNL     1      -7.981   7.466  67.169  1.00  0.00    -0.114 A  
HETATM   10  C   UNL     1      -8.868   8.292  66.478  1.00  0.00    -0.150 A  
HETATM   11  C   UNL     1     -10.243   8.130  66.640  1.00  0.00    -0.329 A  
HETATM   12  C   UNL     1     -10.722   7.213  67.584  1.00  0.00    -0.314 A  
BRANCH  10  13
HETATM   13  S   UNL     1      -8.228   9.509  65.345  1.00  0.00    -0.134 S  
HETATM   14  O   UNL     1      -6.826   9.709  65.665  1.00  0.00    -0.084 OA 
HETATM   15  O   UNL     1      -8.629   9.097  64.010  1.00  0.00    -0.193 OA 
BRANCH  13  16
HETATM   16  C   UNL     1      -9.046  11.058  65.696  1.00  0.00    -0.206 A  
HETATM   17  C   UNL     1     -10.013  11.540  64.813  1.00  0.00    -0.304 A  
HETATM   18  C   UNL     1     -10.710  12.718  65.116  1.00  0.00    -0.319 A  
HETATM   19  C   UNL     1     -10.494  13.403  66.322  1.00  0.00    -0.289 A  
HETATM   20  C   UNL     1      -8.757  11.763  66.865  1.00  0.00    -0.189 A  
HETATM   21  C   UNL     1      -9.469  12.935  67.162  1.00  0.00    -0.229 A  
BRANCH  19  22
HETATM   22  N   UNL     1     -11.173  14.601  66.662  1.00  0.00    -0.342 NA 
HETATM   23  H   UNL     1     -11.296  15.369  66.002  1.00  0.00     0.000 HD 
BRANCH  22  24
HETATM   24  C   UNL     1     -11.687  14.650  68.042  1.00  0.00    -0.342 C  
HETATM   25  S   UNL     1     -10.633  15.828  68.988  1.00  0.00    -0.251 S  
HETATM   26  O   UNL     1     -11.344  16.141  70.269  1.00  0.00    -0.352 OA 
HETATM   27  O   UNL     1     -10.899  17.060  67.983  1.00  0.00    -0.371 OA 
ENDBRANCH  22  24
ENDBRANCH  19  22
ENDBRANCH  13  16
ENDBRANCH  10  13
ENDBRANCH   5   7
ENDBRANCH   3   5
TORSDOF 6
ENDMDL
MODEL      125
REMARK 921   NORMALIZED FREE ENERGY PREDICTED BY IDOCK:   -4.30 KCAL/MOL
REMARK 922        TOTAL FREE ENERGY PREDICTED BY IDOCK:   -6.61 KCAL/MOL
REMARK 923 INTER-LIGAND FREE ENERGY PREDICTED BY IDOCK:   -5.85 KCAL/MOL
REMARK 924 INTRA-LIGAND FREE ENERGY PREDICTED BY IDOCK:   -0.76 KCAL/MOL
REMARK 927      BINDING AFFINITY PREDICTED BY RF-SCORE:    0.00 PKD
ROOT
HETATM    1  O   UNL     1      -8.449  17.904  67.384  1.00  0.00    -0.230 OA 
HETATM    2  S   UNL     1      -7.833  16.560  66.752  1.00  0.00    -0.290 S  
HETATM    3  C   UNL     1      -9.429  15.648  66.787  1.00  0.00    -0.242 C  
HETATM    4  O   UNL     1      -6.944  16.001  67.822  1.00  0.00    -0.121 OA 
ENDROOT
BRANCH   3   5
HETATM    5  N   UNL     1      -9.193  14.309  66.250  1.00  0.00    -0.487 NA 
HETATM    6  H   UNL     1      -8.934  14.163  65.274  1.00  0.00     0.000 HD 
BRANCH   5   7
HETATM    7  C   UNL     1      -9.340  13.234  67.140  1.00  0.00    -0.240 A  
HETATM    8  C   UNL     1      -8.323  12.300  67.380  1.00  0.00    -0.177 A  
HETATM    9  C   UNL     1      -8.511  11.233  68.264  1.00  0.00    -0.152 A  
HETATM   10  C   UNL     1      -9.726  11.101  68.937  1.00  0.00    -0.150 A  
HETATM   11  C   UNL     1     -10.701  12.090  68.819  1.00  0.00    -0.252 A  
HETATM   12  C   UNL     1     -10.497  13.155  67.933  1.00  0.00    -0.245 A  
BRANCH  10  13
HETATM   13  S   UNL     1      -9.993   9.691  69.993  1.00  0.00    -0.260 S  
HETATM   14  O   UNL     1      -8.751   9.433  70.700  1.00  0.00    -0.223 OA 
HETATM   15  O   UNL     1     -11.222   9.939  70.728  1.00  0.00    -0.303 OA 
BRANCH  13  16
HETATM   16  C   UNL     1     -10.273   8.273  68.943  1.00  0.00    -0.210 A  
HETATM   17  C   UNL     1     -10.395   8.452  67.565  1.00  0.00    -0.333 A  
HETATM   18  C   UNL     1     -10.544   7.339  66.726  1.00  0.00    -0.288 A  
HETATM   19  C   UNL     1     -10.522   6.032  67.239  1.00  0.00    -0.257 A  
HETATM   20  C   UNL     1     -10.326   6.989  69.486  1.00  0.00    -0.225 A  
HETATM   21  C   UNL     1     -10.466   5.882  68.635  1.00  0.00    -0.302 A  
BRANCH  19  22
HETATM   22  N   UNL     1     -10.677   4.881  66.425  1.00  0.00    -0.433 NA 
HETATM   23  H   UNL     1     -11.437   4.213  66.557  1.00  0.00     0.000 HD 
BRANCH  22  24
HETATM   24  C   UNL     1      -9.657   4.726  65.374  1.00  0.00    -0.140 C  
HETATM   25  S   UNL     1      -8.126   4.084  66.173  1.00  0.00    -0.098 S  
HETATM   26  O   UNL     1      -7.215   3.604  65.084  1.00  0.00    -0.064 OA 
HETATM   27  O   UNL     1      -8.851   2.784  66.793  1.00  0.00    -0.125 OA 
ENDBRANCH  22  24
ENDBRANCH  19  22
ENDBRANCH  13  16
ENDBRANCH  10  13
ENDBRANCH   5   7
ENDBRANCH   3   5
TORSDOF 6
ENDMDL
MODEL      126
REMARK 921   NORMALIZED FREE ENERGY PREDICTED BY IDOCK:   -4.28 KCAL/MOL
REMARK 922        TOTAL FREE ENERGY PREDICTED BY IDOCK:   -6.57 KCAL/MOL
REMARK 923 INTER-LIGAND FREE ENERGY PREDICTED BY IDOCK:   -5.88 KCAL/MOL
REMARK 924 INTRA-LIGAND FREE ENERGY PREDICTED BY IDOCK:   -0.70 KCAL/MOL
REMARK 927      BINDING AFFINITY PREDICTED BY RF-SCORE:    0.00 PKD
ROOT
HETATM    1  O   UNL     1     -11.516  16.380  63.801  1.00  0.00    -1.002 OA 
HETATM    2  S   UNL     1     -10.932  15.720  65.146  1.00  0.00    -0.351 S  
HETATM    3  C   UNL     1     -12.493  14.840  65.555  1.00  0.00    -0.009 C  
HETATM    4  O   UNL     1     -10.768  16.865  66.099  1.00  0.00    -0.239 OA 
ENDROOT
BRANCH   3   5
HETATM    5  N   UNL     1     -12.280  14.105  66.801  1.00  0.00    -0.515 NA 
HETATM    6  H   UNL     1     -12.734  14.386  67.671  1.00  0.00     0.000 HD 
BRANCH   5   7
HETATM    7  C   UNL     1     -11.422  12.996  66.744  1.00  0.00    -0.345 A  
HETATM    8  C   UNL     1     -10.593  12.619  67.809  1.00  0.00    -0.233 A  
HETATM    9  C   UNL     1      -9.740  11.515  67.710  1.00  0.00    -0.180 A  
HETATM   10  C   UNL     1      -9.723  10.760  66.537  1.00  0.00    -0.196 A  
HETATM   11  C   UNL     1     -10.634  11.032  65.517  1.00  0.00    -0.267 A  
HETATM   12  C   UNL     1     -11.485  12.139  65.633  1.00  0.00    -0.408 A  
BRANCH  10  13
HETATM   13  S   UNL     1      -8.571   9.410  66.382  1.00  0.00    -0.137 S  
HETATM   14  O   UNL     1      -8.991   8.604  65.250  1.00  0.00    -0.181 OA 
HETATM   15  O   UNL     1      -7.236   9.986  66.422  1.00  0.00    -0.096 OA 
BRANCH  13  16
HETATM   16  C   UNL     1      -8.751   8.375  67.827  1.00  0.00    -0.137 A  
HETATM   17  C   UNL     1     -10.015   7.901  68.179  1.00  0.00    -0.210 A  
HETATM   18  C   UNL     1     -10.155   7.031  69.269  1.00  0.00    -0.178 A  
HETATM   19  C   UNL     1      -9.039   6.580  69.991  1.00  0.00    -0.150 A  
HETATM   20  C   UNL     1      -7.634   8.003  68.575  1.00  0.00    -0.104 A  
HETATM   21  C   UNL     1      -7.786   7.124  69.658  1.00  0.00    -0.118 A  
BRANCH  19  22
HETATM   22  N   UNL     1      -9.140   5.706  71.103  1.00  0.00    -0.144 NA 
HETATM   23  H   UNL     1      -8.336   5.206  71.484  1.00  0.00     0.000 HD 
BRANCH  22  24
HETATM   24  C   UNL     1     -10.495   5.577  71.666  1.00  0.00    -0.231 C  
HETATM   25  S   UNL     1     -10.431   4.291  72.984  1.00  0.00    -0.188 S  
HETATM   26  O   UNL     1     -11.696   4.398  73.781  1.00  0.00    -0.136 OA 
HETATM   27  O   UNL     1      -9.276   5.038  73.824  1.00  0.00    -0.122 OA 
ENDBRANCH  22  24
ENDBRANCH  19  22
ENDBRANCH  13  16
ENDBRANCH  10  13
ENDBRANCH   5   7
ENDBRANCH   3   5
TORSDOF 6
ENDMDL
MODEL      127
REMARK 921   NORMALIZED FREE ENERGY PREDICTED BY IDOCK:   -4.26 KCAL/MOL
REMARK 922        TOTAL FREE ENERGY PREDICTED BY IDOCK:   -6.55 KCAL/MOL
REMARK 923 INTER-LIGAND FREE ENERGY PREDICTED BY IDOCK:   -5.72 KCAL/MOL
REMARK 924 INTRA-LIGAND FREE ENERGY PREDICTED BY IDOCK:   -0.84 KCAL/MOL
REMARK 927      BINDING AFFINITY PREDICTED BY RF-SCORE:    0.00 PKD
ROOT
HETATM    1  O   UNL     1     -10.545   7.530  72.502  1.00  0.00    -0.228 OA 
HETATM    2  S   UNL     1      -9.402   7.272  71.401  1.00  0.00    -0.148 S  
HETATM    3  C   UNL     1     -10.487   6.265  70.311  1.00  0.00    -0.221 C  
HETATM    4  O   UNL     1      -8.420   6.357  72.070  1.00  0.00    -0.116 OA 
ENDROOT
BRANCH   3   5
HETATM    5  N   UNL     1      -9.697   5.849  69.153  1.00  0.00    -0.135 NA 
HETATM    6  H   UNL     1      -9.353   4.893  69.057  1.00  0.00     0.000 HD 
BRANCH   5   7
HETATM    7  C   UNL     1      -9.435   6.826  68.180  1.00  0.00    -0.120 A  
HETATM    8  C   UNL     1      -8.154   7.064  67.665  1.00  0.00    -0.114 A  
HETATM    9  C   UNL     1      -7.929   8.057  66.707  1.00  0.00    -0.103 A  
HETATM   10  C   UNL     1      -9.001   8.816  66.235  1.00  0.00    -0.173 A  
HETATM   11  C   UNL     1     -10.302   8.508  66.630  1.00  0.00    -0.303 A  
HETATM   12  C   UNL     1     -10.511   7.508  67.588  1.00  0.00    -0.319 A  
BRANCH  10  13
HETATM   13  S   UNL     1      -8.696  10.139  65.082  1.00  0.00    -0.185 S  
HETATM   14  O   UNL     1      -7.259  10.230  64.891  1.00  0.00    -0.136 OA 
HETATM   15  O   UNL     1      -9.578   9.922  63.947  1.00  0.00    -0.241 OA 
BRANCH  13  16
HETATM   16  C   UNL     1      -9.194  11.666  65.864  1.00  0.00    -0.196 A  
HETATM   17  C   UNL     1      -8.683  11.992  67.121  1.00  0.00    -0.183 A  
HETATM   18  C   UNL     1      -9.012  13.220  67.710  1.00  0.00    -0.196 A  
HETATM   19  C   UNL     1      -9.810  14.161  67.039  1.00  0.00    -0.258 A  
HETATM   20  C   UNL     1     -10.051  12.549  65.209  1.00  0.00    -0.275 A  
HETATM   21  C   UNL     1     -10.366  13.780  65.805  1.00  0.00    -0.315 A  
BRANCH  19  22
HETATM   22  N   UNL     1     -10.171  15.410  67.604  1.00  0.00    -0.243 NA 
HETATM   23  H   UNL     1      -9.862  15.704  68.531  1.00  0.00     0.000 HD 
BRANCH  22  24
HETATM   24  C   UNL     1     -11.027  16.251  66.748  1.00  0.00    -0.031 C  
HETATM   25  S   UNL     1     -10.149  17.849  66.481  1.00  0.00    -0.384 S  
HETATM   26  O   UNL     1     -10.837  18.560  65.355  1.00  0.00    -0.570 OA 
HETATM   27  O   UNL     1      -8.827  17.159  65.870  1.00  0.00    -0.520 OA 
ENDBRANCH  22  24
ENDBRANCH  19  22
ENDBRANCH  13  16
ENDBRANCH  10  13
ENDBRANCH   5   7
ENDBRANCH   3   5
TORSDOF 6
ENDMDL
MODEL      128
REMARK 921   NORMALIZED FREE ENERGY PREDICTED BY IDOCK:   -4.25 KCAL/MOL
REMARK 922        TOTAL FREE ENERGY PREDICTED BY IDOCK:   -6.54 KCAL/MOL
REMARK 923 INTER-LIGAND FREE ENERGY PREDICTED BY IDOCK:   -5.75 KCAL/MOL
REMARK 924 INTRA-LIGAND FREE ENERGY PREDICTED BY IDOCK:   -0.79 KCAL/MOL
REMARK 927      BINDING AFFINITY PREDICTED BY RF-SCORE:    0.00 PKD
ROOT
HETATM    1  O   UNL     1      -8.020   3.460  71.329  1.00  0.00    -0.057 OA 
HETATM    2  S   UNL     1      -8.738   3.801  69.932  1.00  0.00    -0.084 S  
HETATM    3  C   UNL     1      -9.913   5.005  70.673  1.00  0.00    -0.230 C  
HETATM    4  O   UNL     1      -9.496   2.558  69.573  1.00  0.00    -0.127 OA 
ENDROOT
BRANCH   3   5
HETATM    5  N   UNL     1     -10.760   5.524  69.599  1.00  0.00    -0.321 NA 
HETATM    6  H   UNL     1     -11.738   5.248  69.510  1.00  0.00     0.000 HD 
BRANCH   5   7
HETATM    7  C   UNL     1     -10.163   6.418  68.697  1.00  0.00    -0.174 A  
HETATM    8  C   UNL     1      -9.295   7.442  69.102  1.00  0.00    -0.146 A  
HETATM    9  C   UNL     1      -8.731   8.324  68.175  1.00  0.00    -0.136 A  
HETATM   10  C   UNL     1      -9.018   8.175  66.818  1.00  0.00    -0.146 A  
HETATM   11  C   UNL     1      -9.768   7.086  66.378  1.00  0.00    -0.133 A  
HETATM   12  C   UNL     1     -10.323   6.208  67.318  1.00  0.00    -0.272 A  
BRANCH  10  13
HETATM   13  S   UNL     1      -8.368   9.355  65.652  1.00  0.00    -0.130 S  
HETATM   14  O   UNL     1      -7.088   9.813  66.161  1.00  0.00    -0.093 OA 
HETATM   15  O   UNL     1      -8.462   8.745  64.336  1.00  0.00    -0.171 OA 
BRANCH  13  16
HETATM   16  C   UNL     1      -9.448  10.778  65.662  1.00  0.00    -0.209 A  
HETATM   17  C   UNL     1     -10.488  10.858  64.735  1.00  0.00    -0.373 A  
HETATM   18  C   UNL     1     -11.383  11.935  64.781  1.00  0.00    -0.344 A  
HETATM   19  C   UNL     1     -11.290  12.919  65.778  1.00  0.00    -0.315 A  
HETATM   20  C   UNL     1      -9.286  11.783  66.615  1.00  0.00    -0.205 A  
HETATM   21  C   UNL     1     -10.195  12.852  66.657  1.00  0.00    -0.251 A  
BRANCH  19  22
HETATM   22  N   UNL     1     -12.171  14.027  65.854  1.00  0.00    -0.432 NA 
HETATM   23  H   UNL     1     -13.173  13.946  65.683  1.00  0.00     0.000 HD 
BRANCH  22  24
HETATM   24  C   UNL     1     -11.526  15.306  66.201  1.00  0.00    -0.083 C  
HETATM   25  S   UNL     1     -11.118  16.170  64.626  1.00  0.00    -0.105 S  
HETATM   26  O   UNL     1     -10.787  17.592  64.963  1.00  0.00    -0.758 OA 
HETATM   27  O   UNL     1     -12.636  16.152  64.083  1.00  0.00    -0.457 OA 
ENDBRANCH  22  24
ENDBRANCH  19  22
ENDBRANCH  13  16
ENDBRANCH  10  13
ENDBRANCH   5   7
ENDBRANCH   3   5
TORSDOF 6
ENDMDL
MODEL      129
REMARK 921   NORMALIZED FREE ENERGY PREDICTED BY IDOCK:   -4.23 KCAL/MOL
REMARK 922        TOTAL FREE ENERGY PREDICTED BY IDOCK:   -6.51 KCAL/MOL
REMARK 923 INTER-LIGAND FREE ENERGY PREDICTED BY IDOCK:   -5.88 KCAL/MOL
REMARK 924 INTRA-LIGAND FREE ENERGY PREDICTED BY IDOCK:   -0.63 KCAL/MOL
REMARK 927      BINDING AFFINITY PREDICTED BY RF-SCORE:    0.00 PKD
ROOT
HETATM    1  O   UNL     1     -11.547   2.688  62.839  1.00  0.00    -0.162 OA 
HETATM    2  S   UNL     1     -10.242   2.801  63.772  1.00  0.00    -0.150 S  
HETATM    3  C   UNL     1      -9.397   4.014  62.679  1.00  0.00    -0.121 C  
HETATM    4  O   UNL     1      -9.553   1.477  63.635  1.00  0.00    -0.104 OA 
ENDROOT
BRANCH   3   5
HETATM    5  N   UNL     1      -8.104   4.336  63.282  1.00  0.00    -0.084 NA 
HETATM    6  H   UNL     1      -7.379   3.629  63.400  1.00  0.00     0.000 HD 
BRANCH   5   7
HETATM    7  C   UNL     1      -7.909   5.665  63.689  1.00  0.00    -0.105 A  
HETATM    8  C   UNL     1      -7.604   6.699  62.794  1.00  0.00    -0.091 A  
HETATM    9  C   UNL     1      -7.402   8.009  63.239  1.00  0.00    -0.107 A  
HETATM   10  C   UNL     1      -7.523   8.302  64.598  1.00  0.00    -0.099 A  
HETATM   11  C   UNL     1      -7.958   7.321  65.488  1.00  0.00    -0.122 A  
HETATM   12  C   UNL     1      -8.160   6.014  65.026  1.00  0.00    -0.133 A  
BRANCH  10  13
HETATM   13  S   UNL     1      -7.177   9.953  65.171  1.00  0.00    -0.138 S  
HETATM   14  O   UNL     1      -6.678   9.848  66.530  1.00  0.00    -0.077 OA 
HETATM   15  O   UNL     1      -6.381  10.600  64.141  1.00  0.00    -0.016 OA 
BRANCH  13  16
HETATM   16  C   UNL     1      -8.731  10.828  65.276  1.00  0.00    -0.173 A  
HETATM   17  C   UNL     1      -9.779  10.470  64.427  1.00  0.00    -0.388 A  
HETATM   18  C   UNL     1     -11.024  11.102  64.550  1.00  0.00    -0.255 A  
HETATM   19  C   UNL     1     -11.260  12.059  65.550  1.00  0.00    -0.321 A  
HETATM   20  C   UNL     1      -8.916  11.831  66.227  1.00  0.00    -0.176 A  
HETATM   21  C   UNL     1     -10.170  12.449  66.347  1.00  0.00    -0.253 A  
BRANCH  19  22
HETATM   22  N   UNL     1     -12.502  12.726  65.702  1.00  0.00    -0.608 NA 
HETATM   23  H   UNL     1     -13.389  12.227  65.772  1.00  0.00     0.000 HD 
BRANCH  22  24
HETATM   24  C   UNL     1     -12.412  14.196  65.753  1.00  0.00    -0.466 C  
HETATM   25  S   UNL     1     -11.664  14.763  64.168  1.00  0.00    -0.025 S  
HETATM   26  O   UNL     1     -11.884  16.243  64.069  1.00  0.00    -0.958 OA 
HETATM   27  O   UNL     1     -12.780  14.054  63.247  1.00  0.00    -0.750 OA 
ENDBRANCH  22  24
ENDBRANCH  19  22
ENDBRANCH  13  16
ENDBRANCH  10  13
ENDBRANCH   5   7
ENDBRANCH   3   5
TORSDOF 6
ENDMDL
MODEL      130
REMARK 921   NORMALIZED FREE ENERGY PREDICTED BY IDOCK:   -4.22 KCAL/MOL
REMARK 922        TOTAL FREE ENERGY PREDICTED BY IDOCK:   -6.49 KCAL/MOL
REMARK 923 INTER-LIGAND FREE ENERGY PREDICTED BY IDOCK:   -5.83 KCAL/MOL
REMARK 924 INTRA-LIGAND FREE ENERGY PREDICTED BY IDOCK:   -0.66 KCAL/MOL
REMARK 927      BINDING AFFINITY PREDICTED BY RF-SCORE:    0.00 PKD
ROOT
HETATM    1  O   UNL     1      -6.110  20.398  64.684  1.00  0.00    -0.239 OA 
HETATM    2  S   UNL     1      -6.057  20.015  66.244  1.00  0.00    -0.177 S  
HETATM    3  C   UNL     1      -7.119  18.527  66.056  1.00  0.00    -0.271 C  
HETATM    4  O   UNL     1      -6.853  21.083  66.932  1.00  0.00    -0.306 OA 
ENDROOT
BRANCH   3   5
HETATM    5  N   UNL     1      -7.276  17.917  67.376  1.00  0.00    -0.183 NA 
HETATM    6  H   UNL     1      -6.649  18.146  68.148  1.00  0.00     0.000 HD 
BRANCH   5   7
HETATM    7  C   UNL     1      -8.329  17.003  67.531  1.00  0.00    -0.188 A  
HETATM    8  C   UNL     1      -8.775  16.172  66.494  1.00  0.00    -0.337 A  
HETATM    9  C   UNL     1      -9.838  15.283  66.682  1.00  0.00    -0.263 A  
HETATM   10  C   UNL     1     -10.459  15.204  67.928  1.00  0.00    -0.245 A  
HETATM   11  C   UNL     1      -9.949  15.920  69.010  1.00  0.00    -0.233 A  
HETATM   12  C   UNL     1      -8.880  16.804  68.807  1.00  0.00    -0.258 A  
BRANCH  10  13
HETATM   13  S   UNL     1     -11.870  14.137  68.137  1.00  0.00    -0.336 S  
HETATM   14  O   UNL     1     -12.729  14.739  69.141  1.00  0.00     0.076 OA 
HETATM   15  O   UNL     1     -12.381  13.847  66.807  1.00  0.00    -0.422 OA 
BRANCH  13  16
HETATM   16  C   UNL     1     -11.287  12.599  68.835  1.00  0.00    -0.297 A  
HETATM   17  C   UNL     1     -11.920  12.072  69.961  1.00  0.00    -0.400 A  
HETATM   18  C   UNL     1     -11.516  10.832  70.473  1.00  0.00    -0.367 A  
HETATM   19  C   UNL     1     -10.516  10.074  69.843  1.00  0.00    -0.274 A  
HETATM   20  C   UNL     1     -10.238  11.902  68.236  1.00  0.00    -0.207 A  
HETATM   21  C   UNL     1      -9.849  10.656  68.751  1.00  0.00    -0.196 A  
BRANCH  19  22
HETATM   22  N   UNL     1     -10.074   8.819  70.333  1.00  0.00    -0.186 NA 
HETATM   23  H   UNL     1     -10.291   7.939  69.865  1.00  0.00     0.000 HD 
BRANCH  22  24
HETATM   24  C   UNL     1      -9.277   8.884  71.570  1.00  0.00    -0.252 C  
HETATM   25  S   UNL     1      -8.412   7.269  71.762  1.00  0.00    -0.111 S  
HETATM   26  O   UNL     1      -7.352   7.445  72.807  1.00  0.00    -0.074 OA 
HETATM   27  O   UNL     1      -7.683   7.352  70.327  1.00  0.00    -0.090 OA 
ENDBRANCH  22  24
ENDBRANCH  19  22
ENDBRANCH  13  16
ENDBRANCH  10  13
ENDBRANCH   5   7
ENDBRANCH   3   5
TORSDOF 6
ENDMDL
MODEL      131
REMARK 921   NORMALIZED FREE ENERGY PREDICTED BY IDOCK:   -4.21 KCAL/MOL
REMARK 922        TOTAL FREE ENERGY PREDICTED BY IDOCK:   -6.48 KCAL/MOL
REMARK 923 INTER-LIGAND FREE ENERGY PREDICTED BY IDOCK:   -5.72 KCAL/MOL
REMARK 924 INTRA-LIGAND FREE ENERGY PREDICTED BY IDOCK:   -0.75 KCAL/MOL
REMARK 927      BINDING AFFINITY PREDICTED BY RF-SCORE:    0.00 PKD
ROOT
HETATM    1  O   UNL     1      -8.979   4.656  63.576  1.00  0.00    -0.142 OA 
HETATM    2  S   UNL     1      -8.513   3.684  64.768  1.00  0.00    -0.101 S  
HETATM    3  C   UNL     1      -8.372   5.039  66.002  1.00  0.00    -0.114 C  
HETATM    4  O   UNL     1      -7.132   3.241  64.389  1.00  0.00    -0.054 OA 
ENDROOT
BRANCH   3   5
HETATM    5  N   UNL     1      -7.937   4.450  67.268  1.00  0.00    -0.100 NA 
HETATM    6  H   UNL     1      -7.217   3.728  67.301  1.00  0.00     0.000 HD 
BRANCH   5   7
HETATM    7  C   UNL     1      -8.556   4.925  68.434  1.00  0.00    -0.097 A  
HETATM    8  C   UNL     1      -9.915   4.720  68.713  1.00  0.00    -0.182 A  
HETATM    9  C   UNL     1     -10.500   5.222  69.879  1.00  0.00    -0.351 A  
HETATM   10  C   UNL     1      -9.719   5.924  70.796  1.00  0.00    -0.172 A  
HETATM   11  C   UNL     1      -8.341   6.024  70.608  1.00  0.00    -0.125 A  
HETATM   12  C   UNL     1      -7.768   5.513  69.437  1.00  0.00    -0.086 A  
BRANCH  10  13
HETATM   13  S   UNL     1     -10.489   6.638  72.236  1.00  0.00    -0.210 S  
HETATM   14  O   UNL     1     -11.593   5.774  72.615  1.00  0.00    -0.300 OA 
HETATM   15  O   UNL     1      -9.425   6.933  73.182  1.00  0.00    -0.141 OA 
BRANCH  13  16
HETATM   16  C   UNL     1     -11.217   8.194  71.746  1.00  0.00    -0.272 A  
HETATM   17  C   UNL     1     -10.680   8.893  70.664  1.00  0.00    -0.282 A  
HETATM   18  C   UNL     1     -11.288  10.078  70.229  1.00  0.00    -0.376 A  
HETATM   19  C   UNL     1     -12.465  10.557  70.826  1.00  0.00    -0.378 A  
HETATM   20  C   UNL     1     -12.341   8.689  72.407  1.00  0.00    -0.426 A  
HETATM   21  C   UNL     1     -12.946   9.871  71.955  1.00  0.00    -0.518 A  
BRANCH  19  22
HETATM   22  N   UNL     1     -13.106  11.754  70.420  1.00  0.00     0.320 NA 
HETATM   23  H   UNL     1     -14.051  11.769  70.035  1.00  0.00     0.000 HD 
BRANCH  22  24
HETATM   24  C   UNL     1     -12.302  12.976  70.596  1.00  0.00    -0.310 C  
HETATM   25  S   UNL     1     -13.369  14.232  71.420  1.00  0.00    -0.326 S  
HETATM   26  O   UNL     1     -12.477  15.334  71.906  1.00  0.00    -0.307 OA 
HETATM   27  O   UNL     1     -13.700  13.294  72.688  1.00  0.00    -0.674 OA 
ENDBRANCH  22  24
ENDBRANCH  19  22
ENDBRANCH  13  16
ENDBRANCH  10  13
ENDBRANCH   5   7
ENDBRANCH   3   5
TORSDOF 6
ENDMDL
MODEL      132
REMARK 921   NORMALIZED FREE ENERGY PREDICTED BY IDOCK:   -4.19 KCAL/MOL
REMARK 922        TOTAL FREE ENERGY PREDICTED BY IDOCK:   -6.46 KCAL/MOL
REMARK 923 INTER-LIGAND FREE ENERGY PREDICTED BY IDOCK:   -5.81 KCAL/MOL
REMARK 924 INTRA-LIGAND FREE ENERGY PREDICTED BY IDOCK:   -0.65 KCAL/MOL
REMARK 927      BINDING AFFINITY PREDICTED BY RF-SCORE:    0.00 PKD
ROOT
HETATM    1  O   UNL     1      -9.147   2.303  67.181  1.00  0.00    -0.140 OA 
HETATM    2  S   UNL     1      -8.402   3.721  67.041  1.00  0.00    -0.101 S  
HETATM    3  C   UNL     1      -9.499   4.319  65.692  1.00  0.00    -0.176 C  
HETATM    4  O   UNL     1      -7.061   3.397  66.454  1.00  0.00    -0.060 OA 
ENDROOT
BRANCH   3   5
HETATM    5  N   UNL     1      -9.056   5.660  65.315  1.00  0.00    -0.347 NA 
HETATM    6  H   UNL     1      -8.609   5.842  64.416  1.00  0.00     0.000 HD 
BRANCH   5   7
HETATM    7  C   UNL     1      -9.274   6.686  66.248  1.00  0.00    -0.127 A  
HETATM    8  C   UNL     1     -10.524   6.931  66.832  1.00  0.00    -0.349 A  
HETATM    9  C   UNL     1     -10.706   7.972  67.747  1.00  0.00    -0.174 A  
HETATM   10  C   UNL     1      -9.622   8.774  68.105  1.00  0.00    -0.146 A  
HETATM   11  C   UNL     1      -8.343   8.466  67.643  1.00  0.00    -0.130 A  
HETATM   12  C   UNL     1      -8.176   7.417  66.730  1.00  0.00    -0.121 A  
BRANCH  10  13
HETATM   13  S   UNL     1      -9.879  10.153  69.203  1.00  0.00    -0.226 S  
HETATM   14  O   UNL     1     -11.291  10.189  69.537  1.00  0.00    -0.237 OA 
HETATM   15  O   UNL     1      -8.875  10.053  70.250  1.00  0.00    -0.115 OA 
BRANCH  13  16
HETATM   16  C   UNL     1      -9.546  11.648  68.282  1.00  0.00    -0.198 A  
HETATM   17  C   UNL     1     -10.600  12.499  67.949  1.00  0.00    -0.233 A  
HETATM   18  C   UNL     1     -10.340  13.707  67.289  1.00  0.00    -0.249 A  
HETATM   19  C   UNL     1      -9.027  14.111  66.998  1.00  0.00    -0.237 A  
HETATM   20  C   UNL     1      -8.239  11.989  67.934  1.00  0.00    -0.153 A  
HETATM   21  C   UNL     1      -7.990  13.206  67.283  1.00  0.00    -0.140 A  
BRANCH  19  22
HETATM   22  N   UNL     1      -8.723  15.322  66.325  1.00  0.00    -0.455 NA 
HETATM   23  H   UNL     1      -7.768  15.664  66.214  1.00  0.00     0.000 HD 
BRANCH  22  24
HETATM   24  C   UNL     1      -9.892  16.047  65.799  1.00  0.00    -0.323 C  
HETATM   25  S   UNL     1      -9.766  17.795  66.368  1.00  0.00    -0.288 S  
HETATM   26  O   UNL     1     -10.744  18.602  65.568  1.00  0.00    -0.577 OA 
HETATM   27  O   UNL     1      -8.311  18.029  65.716  1.00  0.00    -0.508 OA 
ENDBRANCH  22  24
ENDBRANCH  19  22
ENDBRANCH  13  16
ENDBRANCH  10  13
ENDBRANCH   5   7
ENDBRANCH   3   5
TORSDOF 6
ENDMDL
MODEL      133
REMARK 921   NORMALIZED FREE ENERGY PREDICTED BY IDOCK:   -4.19 KCAL/MOL
REMARK 922        TOTAL FREE ENERGY PREDICTED BY IDOCK:   -6.46 KCAL/MOL
REMARK 923 INTER-LIGAND FREE ENERGY PREDICTED BY IDOCK:   -5.80 KCAL/MOL
REMARK 924 INTRA-LIGAND FREE ENERGY PREDICTED BY IDOCK:   -0.66 KCAL/MOL
REMARK 927      BINDING AFFINITY PREDICTED BY RF-SCORE:    0.00 PKD
ROOT
HETATM    1  O   UNL     1      -7.559   5.083  72.125  1.00  0.00    -0.089 OA 
HETATM    2  S   UNL     1      -7.561   5.122  70.517  1.00  0.00    -0.072 S  
HETATM    3  C   UNL     1      -8.438   6.735  70.421  1.00  0.00    -0.135 C  
HETATM    4  O   UNL     1      -8.512   4.039  70.106  1.00  0.00    -0.063 OA 
ENDROOT
BRANCH   3   5
HETATM    5  N   UNL     1      -8.608   7.069  69.007  1.00  0.00    -0.129 NA 
HETATM    6  H   UNL     1      -8.299   6.437  68.268  1.00  0.00     0.000 HD 
BRANCH   5   7
HETATM    7  C   UNL     1      -9.217   8.299  68.716  1.00  0.00    -0.143 A  
HETATM    8  C   UNL     1      -9.702   9.163  69.708  1.00  0.00    -0.191 A  
HETATM    9  C   UNL     1     -10.316  10.375  69.378  1.00  0.00    -0.259 A  
HETATM   10  C   UNL     1     -10.436  10.746  68.039  1.00  0.00    -0.194 A  
HETATM   11  C   UNL     1      -9.843   9.971  67.043  1.00  0.00    -0.238 A  
HETATM   12  C   UNL     1      -9.227   8.761  67.389  1.00  0.00    -0.158 A  
BRANCH  10  13
HETATM   13  S   UNL     1     -11.299  12.247  67.620  1.00  0.00    -0.334 S  
HETATM   14  O   UNL     1     -12.010  12.011  66.377  1.00  0.00    -0.611 OA 
HETATM   15  O   UNL     1     -12.017  12.668  68.812  1.00  0.00    -0.307 OA 
BRANCH  13  16
HETATM   16  C   UNL     1     -10.072  13.497  67.265  1.00  0.00    -0.235 A  
HETATM   17  C   UNL     1     -10.287  14.391  66.216  1.00  0.00    -0.300 A  
HETATM   18  C   UNL     1      -9.365  15.419  65.975  1.00  0.00    -0.364 A  
HETATM   19  C   UNL     1      -8.245  15.603  66.802  1.00  0.00    -0.265 A  
HETATM   20  C   UNL     1      -8.928  13.610  68.054  1.00  0.00    -0.188 A  
HETATM   21  C   UNL     1      -8.017  14.649  67.809  1.00  0.00    -0.166 A  
BRANCH  19  22
HETATM   22  N   UNL     1      -7.286  16.625  66.587  1.00  0.00    -0.244 NA 
HETATM   23  H   UNL     1      -6.311  16.425  66.364  1.00  0.00     0.000 HD 
BRANCH  22  24
HETATM   24  C   UNL     1      -7.807  17.997  66.710  1.00  0.00    -0.235 C  
HETATM   25  S   UNL     1      -6.467  19.151  66.192  1.00  0.00    -0.211 S  
HETATM   26  O   UNL     1      -7.087  20.500  65.986  1.00  0.00    -0.235 OA 
HETATM   27  O   UNL     1      -6.291  18.482  64.736  1.00  0.00    -0.431 OA 
ENDBRANCH  22  24
ENDBRANCH  19  22
ENDBRANCH  13  16
ENDBRANCH  10  13
ENDBRANCH   5   7
ENDBRANCH   3   5
TORSDOF 6
ENDMDL
MODEL      134
REMARK 921   NORMALIZED FREE ENERGY PREDICTED BY IDOCK:   -4.11 KCAL/MOL
REMARK 922        TOTAL FREE ENERGY PREDICTED BY IDOCK:   -6.34 KCAL/MOL
REMARK 923 INTER-LIGAND FREE ENERGY PREDICTED BY IDOCK:   -5.65 KCAL/MOL
REMARK 924 INTRA-LIGAND FREE ENERGY PREDICTED BY IDOCK:   -0.69 KCAL/MOL
REMARK 927      BINDING AFFINITY PREDICTED BY RF-SCORE:    0.00 PKD
ROOT
HETATM    1  O   UNL     1     -10.239  15.757  69.893  1.00  0.00    -0.284 OA 
HETATM    2  S   UNL     1     -11.426  14.832  69.328  1.00  0.00    -0.315 S  
HETATM    3  C   UNL     1     -11.722  13.994  70.938  1.00  0.00    -0.062 C  
HETATM    4  O   UNL     1     -10.753  13.861  68.405  1.00  0.00    -0.242 OA 
ENDROOT
BRANCH   3   5
HETATM    5  N   UNL     1     -12.806  13.030  70.748  1.00  0.00    -0.142 NA 
HETATM    6  H   UNL     1     -13.756  13.330  70.529  1.00  0.00     0.000 HD 
BRANCH   5   7
HETATM    7  C   UNL     1     -12.477  11.672  70.883  1.00  0.00    -0.341 A  
HETATM    8  C   UNL     1     -11.326  11.108  70.317  1.00  0.00    -0.237 A  
HETATM    9  C   UNL     1     -11.038   9.747  70.460  1.00  0.00    -0.384 A  
HETATM   10  C   UNL     1     -11.900   8.934  71.196  1.00  0.00    -0.298 A  
HETATM   11  C   UNL     1     -12.976   9.496  71.881  1.00  0.00    -0.514 A  
HETATM   12  C   UNL     1     -13.249  10.862  71.731  1.00  0.00    -0.513 A  
BRANCH  10  13
HETATM   13  S   UNL     1     -11.577   7.185  71.301  1.00  0.00    -0.311 S  
HETATM   14  O   UNL     1     -10.749   6.963  72.472  1.00  0.00    -0.213 OA 
HETATM   15  O   UNL     1     -12.857   6.509  71.163  1.00  0.00    -0.116 OA 
BRANCH  13  16
HETATM   16  C   UNL     1     -10.578   6.733  69.890  1.00  0.00    -0.222 A  
HETATM   17  C   UNL     1      -9.188   6.804  69.982  1.00  0.00    -0.158 A  
HETATM   18  C   UNL     1      -8.395   6.384  68.906  1.00  0.00    -0.121 A  
HETATM   19  C   UNL     1      -8.969   5.840  67.745  1.00  0.00    -0.107 A  
HETATM   20  C   UNL     1     -11.176   6.270  68.719  1.00  0.00    -0.357 A  
HETATM   21  C   UNL     1     -10.371   5.843  67.651  1.00  0.00    -0.265 A  
BRANCH  19  22
HETATM   22  N   UNL     1      -8.202   5.412  66.633  1.00  0.00    -0.108 NA 
HETATM   23  H   UNL     1      -7.397   4.791  66.726  1.00  0.00     0.000 HD 
BRANCH  22  24
HETATM   24  C   UNL     1      -8.657   5.931  65.331  1.00  0.00    -0.137 C  
HETATM   25  S   UNL     1      -7.278   6.920  64.613  1.00  0.00    -0.082 S  
HETATM   26  O   UNL     1      -7.598   7.158  63.168  1.00  0.00    -0.095 OA 
HETATM   27  O   UNL     1      -6.218   5.708  64.671  1.00  0.00    -0.024 OA 
ENDBRANCH  22  24
ENDBRANCH  19  22
ENDBRANCH  13  16
ENDBRANCH  10  13
ENDBRANCH   5   7
ENDBRANCH   3   5
TORSDOF 6
ENDMDL
MODEL      135
REMARK 921   NORMALIZED FREE ENERGY PREDICTED BY IDOCK:   -4.08 KCAL/MOL
REMARK 922        TOTAL FREE ENERGY PREDICTED BY IDOCK:   -6.31 KCAL/MOL
REMARK 923 INTER-LIGAND FREE ENERGY PREDICTED BY IDOCK:   -5.55 KCAL/MOL
REMARK 924 INTRA-LIGAND FREE ENERGY PREDICTED BY IDOCK:   -0.76 KCAL/MOL
REMARK 927      BINDING AFFINITY PREDICTED BY RF-SCORE:    0.00 PKD
ROOT
HETATM    1  O   UNL     1      -8.901   1.684  65.413  1.00  0.00    -0.116 OA 
HETATM    2  S   UNL     1      -8.712   3.144  64.767  1.00  0.00    -0.107 S  
HETATM    3  C   UNL     1      -7.638   3.757  66.128  1.00  0.00    -0.088 C  
HETATM    4  O   UNL     1     -10.055   3.798  64.891  1.00  0.00    -0.185 OA 
ENDROOT
BRANCH   3   5
HETATM    5  N   UNL     1      -7.276   5.141  65.825  1.00  0.00    -0.068 NA 
HETATM    6  H   UNL     1      -6.626   5.371  65.074  1.00  0.00     0.000 HD 
BRANCH   5   7
HETATM    7  C   UNL     1      -7.867   6.138  66.618  1.00  0.00    -0.104 A  
HETATM    8  C   UNL     1      -8.069   7.449  66.166  1.00  0.00    -0.117 A  
HETATM    9  C   UNL     1      -8.647   8.420  66.990  1.00  0.00    -0.124 A  
HETATM   10  C   UNL     1      -9.050   8.078  68.281  1.00  0.00    -0.135 A  
HETATM   11  C   UNL     1      -8.984   6.751  68.705  1.00  0.00    -0.130 A  
HETATM   12  C   UNL     1      -8.406   5.789  67.867  1.00  0.00    -0.104 A  
BRANCH  10  13
HETATM   13  S   UNL     1      -9.703   9.338  69.357  1.00  0.00    -0.180 S  
HETATM   14  O   UNL     1     -11.115   9.058  69.552  1.00  0.00    -0.160 OA 
HETATM   15  O   UNL     1      -8.805   9.429  70.496  1.00  0.00    -0.223 OA 
BRANCH  13  16
HETATM   16  C   UNL     1      -9.619  10.894  68.483  1.00  0.00    -0.187 A  
HETATM   17  C   UNL     1      -8.441  11.640  68.520  1.00  0.00    -0.135 A  
HETATM   18  C   UNL     1      -8.342  12.826  67.780  1.00  0.00    -0.177 A  
HETATM   19  C   UNL     1      -9.391  13.259  66.952  1.00  0.00    -0.244 A  
HETATM   20  C   UNL     1     -10.704  11.342  67.730  1.00  0.00    -0.254 A  
HETATM   21  C   UNL     1     -10.590  12.526  66.985  1.00  0.00    -0.251 A  
BRANCH  19  22
HETATM   22  N   UNL     1      -9.332  14.455  66.194  1.00  0.00    -0.490 NA 
HETATM   23  H   UNL     1      -8.727  15.237  66.446  1.00  0.00     0.000 HD 
BRANCH  22  24
HETATM   24  C   UNL     1     -10.213  14.483  65.013  1.00  0.00    -0.365 C  
HETATM   25  S   UNL     1     -11.278  15.980  65.147  1.00  0.00    -0.120 S  
HETATM   26  O   UNL     1     -11.920  16.199  63.810  1.00  0.00    -0.926 OA 
HETATM   27  O   UNL     1     -10.036  17.002  65.250  1.00  0.00    -0.558 OA 
ENDBRANCH  22  24
ENDBRANCH  19  22
ENDBRANCH  13  16
ENDBRANCH  10  13
ENDBRANCH   5   7
ENDBRANCH   3   5
TORSDOF 6
ENDMDL
MODEL      136
REMARK 921   NORMALIZED FREE ENERGY PREDICTED BY IDOCK:   -4.06 KCAL/MOL
REMARK 922        TOTAL FREE ENERGY PREDICTED BY IDOCK:   -6.29 KCAL/MOL
REMARK 923 INTER-LIGAND FREE ENERGY PREDICTED BY IDOCK:   -5.51 KCAL/MOL
REMARK 924 INTRA-LIGAND FREE ENERGY PREDICTED BY IDOCK:   -0.78 KCAL/MOL
REMARK 927      BINDING AFFINITY PREDICTED BY RF-SCORE:    0.00 PKD
ROOT
HETATM    1  O   UNL     1     -11.353  13.017  67.273  1.00  0.00    -0.276 OA 
HETATM    2  S   UNL     1     -11.289  13.030  68.880  1.00  0.00    -0.303 S  
HETATM    3  C   UNL     1     -12.149  11.416  69.064  1.00  0.00    -0.249 C  
HETATM    4  O   UNL     1     -12.231  14.120  69.295  1.00  0.00    -0.332 OA 
ENDROOT
BRANCH   3   5
HETATM    5  N   UNL     1     -12.258  11.126  70.493  1.00  0.00    -0.357 NA 
HETATM    6  H   UNL     1     -12.799  11.723  71.119  1.00  0.00     0.000 HD 
BRANCH   5   7
HETATM    7  C   UNL     1     -11.584   9.988  70.962  1.00  0.00    -0.393 A  
HETATM    8  C   UNL     1     -10.249   9.708  70.644  1.00  0.00    -0.346 A  
HETATM    9  C   UNL     1      -9.615   8.556  71.118  1.00  0.00    -0.248 A  
HETATM   10  C   UNL     1     -10.314   7.673  71.941  1.00  0.00    -0.199 A  
HETATM   11  C   UNL     1     -11.597   7.997  72.382  1.00  0.00    -0.450 A  
HETATM   12  C   UNL     1     -12.217   9.157  71.901  1.00  0.00    -0.449 A  
BRANCH  10  13
HETATM   13  S   UNL     1      -9.531   6.163  72.470  1.00  0.00    -0.141 S  
HETATM   14  O   UNL     1      -8.322   6.525  73.186  1.00  0.00    -0.117 OA 
HETATM   15  O   UNL     1     -10.557   5.358  73.114  1.00  0.00    -0.202 OA 
BRANCH  13  16
HETATM   16  C   UNL     1      -9.002   5.286  71.006  1.00  0.00    -0.138 A  
HETATM   17  C   UNL     1      -9.922   4.512  70.299  1.00  0.00    -0.288 A  
HETATM   18  C   UNL     1      -9.534   3.878  69.111  1.00  0.00    -0.246 A  
HETATM   19  C   UNL     1      -8.244   4.046  68.582  1.00  0.00    -0.075 A  
HETATM   20  C   UNL     1      -7.692   5.406  70.544  1.00  0.00    -0.084 A  
HETATM   21  C   UNL     1      -7.317   4.775  69.348  1.00  0.00    -0.052 A  
BRANCH  19  22
HETATM   22  N   UNL     1      -7.811   3.417  67.388  1.00  0.00    -0.077 NA 
HETATM   23  H   UNL     1      -6.866   3.050  67.272  1.00  0.00     0.000 HD 
BRANCH  22  24
HETATM   24  C   UNL     1      -8.831   3.333  66.328  1.00  0.00    -0.140 C  
HETATM   25  S   UNL     1      -8.606   4.790  65.222  1.00  0.00    -0.143 S  
HETATM   26  O   UNL     1      -9.395   4.535  63.974  1.00  0.00    -0.145 OA 
HETATM   27  O   UNL     1      -7.066   4.451  64.889  1.00  0.00    -0.060 OA 
ENDBRANCH  22  24
ENDBRANCH  19  22
ENDBRANCH  13  16
ENDBRANCH  10  13
ENDBRANCH   5   7
ENDBRANCH   3   5
TORSDOF 6
ENDMDL
MODEL      137
REMARK 921   NORMALIZED FREE ENERGY PREDICTED BY IDOCK:   -4.02 KCAL/MOL
REMARK 922        TOTAL FREE ENERGY PREDICTED BY IDOCK:   -6.23 KCAL/MOL
REMARK 923 INTER-LIGAND FREE ENERGY PREDICTED BY IDOCK:   -5.55 KCAL/MOL
REMARK 924 INTRA-LIGAND FREE ENERGY PREDICTED BY IDOCK:   -0.68 KCAL/MOL
REMARK 927      BINDING AFFINITY PREDICTED BY RF-SCORE:    0.00 PKD
ROOT
HETATM    1  O   UNL     1      -9.983   7.734  73.522  1.00  0.00    -0.317 OA 
HETATM    2  S   UNL     1      -8.509   7.342  73.016  1.00  0.00    -0.128 S  
HETATM    3  C   UNL     1      -9.111   6.151  71.751  1.00  0.00    -0.144 C  
HETATM    4  O   UNL     1      -7.905   6.566  74.148  1.00  0.00    -0.103 OA 
ENDROOT
BRANCH   3   5
HETATM    5  N   UNL     1      -7.944   5.584  71.077  1.00  0.00    -0.104 NA 
HETATM    6  H   UNL     1      -7.246   5.041  71.585  1.00  0.00     0.000 HD 
BRANCH   5   7
HETATM    7  C   UNL     1      -7.830   5.822  69.698  1.00  0.00    -0.096 A  
HETATM    8  C   UNL     1      -8.708   5.271  68.755  1.00  0.00    -0.093 A  
HETATM    9  C   UNL     1      -8.555   5.519  67.388  1.00  0.00    -0.108 A  
HETATM   10  C   UNL     1      -7.521   6.346  66.949  1.00  0.00    -0.084 A  
HETATM   11  C   UNL     1      -6.719   7.013  67.874  1.00  0.00    -0.065 A  
HETATM   12  C   UNL     1      -6.888   6.757  69.241  1.00  0.00    -0.061 A  
BRANCH  10  13
HETATM   13  S   UNL     1      -7.275   6.586  65.201  1.00  0.00    -0.073 S  
HETATM   14  O   UNL     1      -5.880   6.934  65.000  1.00  0.00    -0.034 OA 
HETATM   15  O   UNL     1      -7.851   5.433  64.530  1.00  0.00    -0.089 OA 
BRANCH  13  16
HETATM   16  C   UNL     1      -8.222   8.020  64.712  1.00  0.00    -0.121 A  
HETATM   17  C   UNL     1      -9.002   8.684  65.660  1.00  0.00    -0.231 A  
HETATM   18  C   UNL     1      -9.692   9.850  65.304  1.00  0.00    -0.383 A  
HETATM   19  C   UNL     1      -9.577  10.401  64.017  1.00  0.00    -0.317 A  
HETATM   20  C   UNL     1      -8.153   8.503  63.406  1.00  0.00    -0.160 A  
HETATM   21  C   UNL     1      -8.840   9.678  63.064  1.00  0.00    -0.254 A  
BRANCH  19  22
HETATM   22  N   UNL     1     -10.264  11.574  63.616  1.00  0.00    -0.362 NA 
HETATM   23  H   UNL     1     -10.328  11.868  62.641  1.00  0.00     0.000 HD 
BRANCH  22  24
HETATM   24  C   UNL     1     -10.880  12.337  64.716  1.00  0.00    -0.304 C  
HETATM   25  S   UNL     1     -12.268  13.318  64.005  1.00  0.00    -0.389 S  
HETATM   26  O   UNL     1     -13.100  13.817  65.148  1.00  0.00    -0.762 OA 
HETATM   27  O   UNL     1     -13.023  12.032  63.394  1.00  0.00    -0.772 OA 
ENDBRANCH  22  24
ENDBRANCH  19  22
ENDBRANCH  13  16
ENDBRANCH  10  13
ENDBRANCH   5   7
ENDBRANCH   3   5
TORSDOF 6
ENDMDL
MODEL      138
REMARK 921   NORMALIZED FREE ENERGY PREDICTED BY IDOCK:   -4.02 KCAL/MOL
REMARK 922        TOTAL FREE ENERGY PREDICTED BY IDOCK:   -6.23 KCAL/MOL
REMARK 923 INTER-LIGAND FREE ENERGY PREDICTED BY IDOCK:   -5.51 KCAL/MOL
REMARK 924 INTRA-LIGAND FREE ENERGY PREDICTED BY IDOCK:   -0.72 KCAL/MOL
REMARK 927      BINDING AFFINITY PREDICTED BY RF-SCORE:    0.00 PKD
ROOT
HETATM    1  O   UNL     1     -10.865  14.988  67.618  1.00  0.00    -0.275 OA 
HETATM    2  S   UNL     1     -10.958  14.611  69.178  1.00  0.00    -0.270 S  
HETATM    3  C   UNL     1     -11.638  12.930  68.870  1.00  0.00    -0.315 C  
HETATM    4  O   UNL     1     -12.056  15.475  69.720  1.00  0.00    -0.351 OA 
ENDROOT
BRANCH   3   5
HETATM    5  N   UNL     1     -11.851  12.289  70.167  1.00  0.00    -0.493 NA 
HETATM    6  H   UNL     1     -12.310  12.777  70.936  1.00  0.00     0.000 HD 
BRANCH   5   7
HETATM    7  C   UNL     1     -11.392  10.969  70.304  1.00  0.00    -0.203 A  
HETATM    8  C   UNL     1     -10.362  10.435  69.518  1.00  0.00    -0.264 A  
HETATM    9  C   UNL     1      -9.942   9.111  69.673  1.00  0.00    -0.198 A  
HETATM   10  C   UNL     1     -10.543   8.305  70.640  1.00  0.00    -0.215 A  
HETATM   11  C   UNL     1     -11.474   8.850  71.523  1.00  0.00    -0.391 A  
HETATM   12  C   UNL     1     -11.882  10.180  71.358  1.00  0.00    -0.414 A  
BRANCH  10  13
HETATM   13  S   UNL     1     -10.067   6.594  70.772  1.00  0.00    -0.184 S  
HETATM   14  O   UNL     1      -8.788   6.548  71.457  1.00  0.00    -0.139 OA 
HETATM   15  O   UNL     1     -11.214   5.875  71.304  1.00  0.00    -0.273 OA 
BRANCH  13  16
HETATM   16  C   UNL     1      -9.772   5.984  69.119  1.00  0.00    -0.137 A  
HETATM   17  C   UNL     1     -10.841   5.856  68.233  1.00  0.00    -0.325 A  
HETATM   18  C   UNL     1     -10.609   5.447  66.913  1.00  0.00    -0.320 A  
HETATM   19  C   UNL     1      -9.308   5.209  66.441  1.00  0.00    -0.146 A  
HETATM   20  C   UNL     1      -8.478   5.678  68.698  1.00  0.00    -0.105 A  
HETATM   21  C   UNL     1      -8.256   5.279  67.372  1.00  0.00    -0.103 A  
BRANCH  19  22
HETATM   22  N   UNL     1      -9.032   4.786  65.117  1.00  0.00    -0.150 NA 
HETATM   23  H   UNL     1      -9.768   4.585  64.439  1.00  0.00     0.000 HD 
BRANCH  22  24
HETATM   24  C   UNL     1      -7.600   4.660  64.793  1.00  0.00    -0.076 C  
HETATM   25  S   UNL     1      -7.471   4.065  63.054  1.00  0.00    -0.051 S  
HETATM   26  O   UNL     1      -6.052   4.263  62.614  1.00  0.00    -0.017 OA 
HETATM   27  O   UNL     1      -8.331   5.285  62.446  1.00  0.00    -0.097 OA 
ENDBRANCH  22  24
ENDBRANCH  19  22
ENDBRANCH  13  16
ENDBRANCH  10  13
ENDBRANCH   5   7
ENDBRANCH   3   5
TORSDOF 6
ENDMDL
MODEL      139
REMARK 921   NORMALIZED FREE ENERGY PREDICTED BY IDOCK:   -3.98 KCAL/MOL
REMARK 922        TOTAL FREE ENERGY PREDICTED BY IDOCK:   -6.17 KCAL/MOL
REMARK 923 INTER-LIGAND FREE ENERGY PREDICTED BY IDOCK:   -5.48 KCAL/MOL
REMARK 924 INTRA-LIGAND FREE ENERGY PREDICTED BY IDOCK:   -0.69 KCAL/MOL
REMARK 927      BINDING AFFINITY PREDICTED BY RF-SCORE:    0.00 PKD
ROOT
HETATM    1  O   UNL     1      -8.227   1.783  68.526  1.00  0.00    -0.055 OA 
HETATM    2  S   UNL     1      -9.280   2.849  69.108  1.00  0.00    -0.148 S  
HETATM    3  C   UNL     1      -9.111   3.999  67.683  1.00  0.00    -0.145 C  
HETATM    4  O   UNL     1      -8.597   3.460  70.294  1.00  0.00    -0.055 OA 
ENDROOT
BRANCH   3   5
HETATM    5  N   UNL     1      -9.991   5.143  67.923  1.00  0.00    -0.158 NA 
HETATM    6  H   UNL     1     -10.753   5.098  68.600  1.00  0.00     0.000 HD 
BRANCH   5   7
HETATM    7  C   UNL     1      -9.736   6.306  67.179  1.00  0.00    -0.139 A  
HETATM    8  C   UNL     1      -8.854   6.335  66.090  1.00  0.00    -0.160 A  
HETATM    9  C   UNL     1      -8.614   7.516  65.381  1.00  0.00    -0.069 A  
HETATM   10  C   UNL     1      -9.276   8.687  65.748  1.00  0.00    -0.181 A  
HETATM   11  C   UNL     1     -10.257   8.654  66.739  1.00  0.00    -0.361 A  
HETATM   12  C   UNL     1     -10.489   7.462  67.438  1.00  0.00    -0.366 A  
BRANCH  10  13
HETATM   13  S   UNL     1      -8.900  10.208  64.900  1.00  0.00    -0.207 S  
HETATM   14  O   UNL     1      -7.457  10.283  64.758  1.00  0.00    -0.143 OA 
HETATM   15  O   UNL     1      -9.760  10.263  63.729  1.00  0.00    -0.302 OA 
BRANCH  13  16
HETATM   16  C   UNL     1      -9.368  11.557  65.973  1.00  0.00    -0.223 A  
HETATM   17  C   UNL     1     -10.487  12.328  65.659  1.00  0.00    -0.293 A  
HETATM   18  C   UNL     1     -10.903  13.343  66.532  1.00  0.00    -0.286 A  
HETATM   19  C   UNL     1     -10.246  13.571  67.751  1.00  0.00    -0.242 A  
HETATM   20  C   UNL     1      -8.650  11.815  67.141  1.00  0.00    -0.168 A  
HETATM   21  C   UNL     1      -9.082  12.827  68.012  1.00  0.00    -0.207 A  
BRANCH  19  22
HETATM   22  N   UNL     1     -10.631  14.592  68.657  1.00  0.00    -0.248 NA 
HETATM   23  H   UNL     1     -10.482  14.518  69.664  1.00  0.00     0.000 HD 
BRANCH  22  24
HETATM   24  C   UNL     1     -11.263  15.767  68.032  1.00  0.00    -0.338 C  
HETATM   25  S   UNL     1     -10.354  17.262  68.610  1.00  0.00    -0.358 S  
HETATM   26  O   UNL     1     -10.759  18.405  67.729  1.00  0.00    -0.414 OA 
HETATM   27  O   UNL     1      -8.922  16.742  68.086  1.00  0.00    -0.212 OA 
ENDBRANCH  22  24
ENDBRANCH  19  22
ENDBRANCH  13  16
ENDBRANCH  10  13
ENDBRANCH   5   7
ENDBRANCH   3   5
TORSDOF 6
ENDMDL
MODEL      140
REMARK 921   NORMALIZED FREE ENERGY PREDICTED BY IDOCK:   -3.97 KCAL/MOL
REMARK 922        TOTAL FREE ENERGY PREDICTED BY IDOCK:   -6.16 KCAL/MOL
REMARK 923 INTER-LIGAND FREE ENERGY PREDICTED BY IDOCK:   -5.49 KCAL/MOL
REMARK 924 INTRA-LIGAND FREE ENERGY PREDICTED BY IDOCK:   -0.67 KCAL/MOL
REMARK 927      BINDING AFFINITY PREDICTED BY RF-SCORE:    0.00 PKD
ROOT
HETATM    1  O   UNL     1     -10.019   4.238  70.451  1.00  0.00    -0.211 OA 
HETATM    2  S   UNL     1      -9.746   5.116  69.132  1.00  0.00    -0.179 S  
HETATM    3  C   UNL     1     -11.274   6.121  69.319  1.00  0.00    -0.367 C  
HETATM    4  O   UNL     1      -9.941   4.166  67.989  1.00  0.00    -0.074 OA 
ENDROOT
BRANCH   3   5
HETATM    5  N   UNL     1     -11.327   7.069  68.207  1.00  0.00    -0.468 NA 
HETATM    6  H   UNL     1     -12.066   7.028  67.505  1.00  0.00     0.000 HD 
BRANCH   5   7
HETATM    7  C   UNL     1     -10.311   8.036  68.150  1.00  0.00    -0.200 A  
HETATM    8  C   UNL     1      -9.877   8.751  69.275  1.00  0.00    -0.180 A  
HETATM    9  C   UNL     1      -8.872   9.718  69.177  1.00  0.00    -0.160 A  
HETATM   10  C   UNL     1      -8.273   9.968  67.942  1.00  0.00    -0.113 A  
HETATM   11  C   UNL     1      -8.592   9.178  66.838  1.00  0.00    -0.129 A  
HETATM   12  C   UNL     1      -9.597   8.210  66.953  1.00  0.00    -0.269 A  
BRANCH  10  13
HETATM   13  S   UNL     1      -7.058  11.263  67.805  1.00  0.00    -0.091 S  
HETATM   14  O   UNL     1      -6.416  11.399  69.100  1.00  0.00    -0.068 OA 
HETATM   15  O   UNL     1      -6.269  10.979  66.617  1.00  0.00    -0.098 OA 
BRANCH  13  16
HETATM   16  C   UNL     1      -7.929  12.796  67.516  1.00  0.00    -0.177 A  
HETATM   17  C   UNL     1      -9.318  12.783  67.388  1.00  0.00    -0.193 A  
HETATM   18  C   UNL     1     -10.016  13.988  67.232  1.00  0.00    -0.242 A  
HETATM   19  C   UNL     1      -9.351  15.224  67.254  1.00  0.00    -0.205 A  
HETATM   20  C   UNL     1      -7.236  14.005  67.463  1.00  0.00    -0.183 A  
HETATM   21  C   UNL     1      -7.947  15.206  67.316  1.00  0.00    -0.234 A  
BRANCH  19  22
HETATM   22  N   UNL     1     -10.020  16.464  67.092  1.00  0.00    -0.254 NA 
HETATM   23  H   UNL     1     -10.877  16.559  66.547  1.00  0.00     0.000 HD 
BRANCH  22  24
HETATM   24  C   UNL     1      -9.381  17.604  67.774  1.00  0.00    -0.255 C  
HETATM   25  S   UNL     1      -8.758  18.752  66.474  1.00  0.00    -0.299 S  
HETATM   26  O   UNL     1      -8.424  20.051  67.142  1.00  0.00    -0.309 OA 
HETATM   27  O   UNL     1     -10.198  18.934  65.774  1.00  0.00    -0.531 OA 
ENDBRANCH  22  24
ENDBRANCH  19  22
ENDBRANCH  13  16
ENDBRANCH  10  13
ENDBRANCH   5   7
ENDBRANCH   3   5
TORSDOF 6
ENDMDL
MODEL      141
REMARK 921   NORMALIZED FREE ENERGY PREDICTED BY IDOCK:   -3.96 KCAL/MOL
REMARK 922        TOTAL FREE ENERGY PREDICTED BY IDOCK:   -6.15 KCAL/MOL
REMARK 923 INTER-LIGAND FREE ENERGY PREDICTED BY IDOCK:   -5.53 KCAL/MOL
REMARK 924 INTRA-LIGAND FREE ENERGY PREDICTED BY IDOCK:   -0.61 KCAL/MOL
REMARK 927      BINDING AFFINITY PREDICTED BY RF-SCORE:    0.00 PKD
ROOT
HETATM    1  O   UNL     1      -7.950  20.480  66.726  1.00  0.00    -0.273 OA 
HETATM    2  S   UNL     1      -8.268  19.320  67.792  1.00  0.00    -0.295 S  
HETATM    3  C   UNL     1     -10.052  19.222  67.358  1.00  0.00    -0.389 C  
HETATM    4  O   UNL     1      -8.142  19.982  69.132  1.00  0.00    -0.043 OA 
ENDROOT
BRANCH   3   5
HETATM    5  N   UNL     1     -10.664  18.199  68.206  1.00  0.00    -0.294 NA 
HETATM    6  H   UNL     1     -11.024  18.421  69.134  1.00  0.00     0.000 HD 
BRANCH   5   7
HETATM    7  C   UNL     1     -10.734  16.899  67.681  1.00  0.00    -0.290 A  
HETATM    8  C   UNL     1     -10.142  16.537  66.463  1.00  0.00    -0.307 A  
HETATM    9  C   UNL     1     -10.245  15.235  65.965  1.00  0.00    -0.335 A  
HETATM   10  C   UNL     1     -10.933  14.268  66.698  1.00  0.00    -0.310 A  
HETATM   11  C   UNL     1     -11.413  14.568  67.972  1.00  0.00    -0.345 A  
HETATM   12  C   UNL     1     -11.299  15.876  68.460  1.00  0.00    -0.374 A  
BRANCH  10  13
HETATM   13  S   UNL     1     -11.138  12.635  66.017  1.00  0.00    -0.299 S  
HETATM   14  O   UNL     1     -12.283  12.028  66.673  1.00  0.00    -0.550 OA 
HETATM   15  O   UNL     1     -11.105  12.772  64.571  1.00  0.00    -0.300 OA 
BRANCH  13  16
HETATM   16  C   UNL     1      -9.716  11.665  66.497  1.00  0.00    -0.206 A  
HETATM   17  C   UNL     1      -8.831  12.169  67.451  1.00  0.00    -0.181 A  
HETATM   18  C   UNL     1      -7.753  11.386  67.885  1.00  0.00    -0.114 A  
HETATM   19  C   UNL     1      -7.569  10.075  67.417  1.00  0.00    -0.091 A  
HETATM   20  C   UNL     1      -9.511  10.395  65.958  1.00  0.00    -0.232 A  
HETATM   21  C   UNL     1      -8.434   9.617  66.408  1.00  0.00    -0.128 A  
BRANCH  19  22
HETATM   22  N   UNL     1      -6.488   9.254  67.826  1.00  0.00    -0.059 NA 
HETATM   23  H   UNL     1      -6.047   8.575  67.205  1.00  0.00     0.000 HD 
BRANCH  22  24
HETATM   24  C   UNL     1      -6.049   9.458  69.218  1.00  0.00    -0.037 C  
HETATM   25  S   UNL     1      -6.291   7.868  70.117  1.00  0.00    -0.033 S  
HETATM   26  O   UNL     1      -5.540   7.962  71.411  1.00  0.00    -0.034 OA 
HETATM   27  O   UNL     1      -5.377   7.015  69.100  1.00  0.00    -0.014 OA 
ENDBRANCH  22  24
ENDBRANCH  19  22
ENDBRANCH  13  16
ENDBRANCH  10  13
ENDBRANCH   5   7
ENDBRANCH   3   5
TORSDOF 6
ENDMDL
MODEL      142
REMARK 921   NORMALIZED FREE ENERGY PREDICTED BY IDOCK:   -3.96 KCAL/MOL
REMARK 922        TOTAL FREE ENERGY PREDICTED BY IDOCK:   -6.14 KCAL/MOL
REMARK 923 INTER-LIGAND FREE ENERGY PREDICTED BY IDOCK:   -6.65 KCAL/MOL
REMARK 924 INTRA-LIGAND FREE ENERGY PREDICTED BY IDOCK:    0.51 KCAL/MOL
REMARK 927      BINDING AFFINITY PREDICTED BY RF-SCORE:    0.00 PKD
ROOT
HETATM    1  O   UNL     1     -11.059  16.733  64.235  1.00  0.00    -1.106 OA 
HETATM    2  S   UNL     1     -10.960  15.314  64.985  1.00  0.00    -0.436 S  
HETATM    3  C   UNL     1     -12.575  14.710  64.346  1.00  0.00    -0.132 C  
HETATM    4  O   UNL     1     -11.115  15.635  66.441  1.00  0.00    -0.254 OA 
ENDROOT
BRANCH   3   5
HETATM    5  N   UNL     1     -12.794  13.367  64.881  1.00  0.00    -0.723 NA 
HETATM    6  H   UNL     1     -13.689  13.093  65.287  1.00  0.00     0.000 HD 
BRANCH   5   7
HETATM    7  C   UNL     1     -11.715  12.472  64.809  1.00  0.00    -0.358 A  
HETATM    8  C   UNL     1     -11.170  11.844  65.937  1.00  0.00    -0.373 A  
HETATM    9  C   UNL     1     -10.084  10.969  65.827  1.00  0.00    -0.305 A  
HETATM   10  C   UNL     1      -9.541  10.698  64.571  1.00  0.00    -0.286 A  
HETATM   11  C   UNL     1     -10.150  11.203  63.423  1.00  0.00    -0.439 A  
HETATM   12  C   UNL     1     -11.239  12.074  63.549  1.00  0.00    -0.526 A  
BRANCH  10  13
HETATM   13  S   UNL     1      -8.103   9.654  64.447  1.00  0.00    -0.153 S  
HETATM   14  O   UNL     1      -7.952   9.282  63.051  1.00  0.00    -0.132 OA 
HETATM   15  O   UNL     1      -7.026  10.331  65.150  1.00  0.00    -0.134 OA 
BRANCH  13  16
HETATM   16  C   UNL     1      -8.453   8.141  65.332  1.00  0.00    -0.147 A  
HETATM   17  C   UNL     1      -7.661   7.015  65.106  1.00  0.00    -0.113 A  
HETATM   18  C   UNL     1      -7.883   5.846  65.847  1.00  0.00    -0.105 A  
HETATM   19  C   UNL     1      -8.858   5.797  66.856  1.00  0.00    -0.114 A  
HETATM   20  C   UNL     1      -9.480   8.094  66.274  1.00  0.00    -0.259 A  
HETATM   21  C   UNL     1      -9.686   6.921  67.017  1.00  0.00    -0.210 A  
BRANCH  19  22
HETATM   22  N   UNL     1      -9.118   4.632  67.622  1.00  0.00    -0.113 NA 
HETATM   23  H   UNL     1      -9.607   4.660  68.517  1.00  0.00     0.000 HD 
BRANCH  22  24
HETATM   24  C   UNL     1      -8.627   3.377  67.026  1.00  0.00    -0.113 C  
HETATM   25  S   UNL     1      -6.790   3.372  67.172  1.00  0.00    -0.050 S  
HETATM   26  O   UNL     1      -6.319   1.978  66.889  1.00  0.00    -0.023 OA 
HETATM   27  O   UNL     1      -6.797   3.556  68.773  1.00  0.00    -0.044 OA 
ENDBRANCH  22  24
ENDBRANCH  19  22
ENDBRANCH  13  16
ENDBRANCH  10  13
ENDBRANCH   5   7
ENDBRANCH   3   5
TORSDOF 6
ENDMDL
MODEL      143
REMARK 921   NORMALIZED FREE ENERGY PREDICTED BY IDOCK:   -3.95 KCAL/MOL
REMARK 922        TOTAL FREE ENERGY PREDICTED BY IDOCK:   -6.14 KCAL/MOL
REMARK 923 INTER-LIGAND FREE ENERGY PREDICTED BY IDOCK:   -5.35 KCAL/MOL
REMARK 924 INTRA-LIGAND FREE ENERGY PREDICTED BY IDOCK:   -0.79 KCAL/MOL
REMARK 927      BINDING AFFINITY PREDICTED BY RF-SCORE:    0.00 PKD
ROOT
HETATM    1  O   UNL     1      -6.387   7.302  67.582  1.00  0.00    -0.044 OA 
HETATM    2  S   UNL     1      -7.136   8.378  66.652  1.00  0.00    -0.074 S  
HETATM    3  C   UNL     1      -8.726   7.455  66.632  1.00  0.00    -0.135 C  
HETATM    4  O   UNL     1      -6.491   8.242  65.306  1.00  0.00    -0.051 OA 
ENDROOT
BRANCH   3   5
HETATM    5  N   UNL     1      -9.674   8.214  65.816  1.00  0.00    -0.401 NA 
HETATM    6  H   UNL     1     -10.021   7.855  64.927  1.00  0.00     0.000 HD 
BRANCH   5   7
HETATM    7  C   UNL     1     -10.084   9.460  66.317  1.00  0.00    -0.258 A  
HETATM    8  C   UNL     1     -10.581   9.633  67.616  1.00  0.00    -0.334 A  
HETATM    9  C   UNL     1     -10.993  10.888  68.074  1.00  0.00    -0.317 A  
HETATM   10  C   UNL     1     -10.895  11.997  67.233  1.00  0.00    -0.246 A  
HETATM   11  C   UNL     1     -10.280  11.876  65.988  1.00  0.00    -0.262 A  
HETATM   12  C   UNL     1      -9.868  10.613  65.544  1.00  0.00    -0.316 A  
BRANCH  10  13
HETATM   13  S   UNL     1     -11.505  13.575  67.790  1.00  0.00    -0.335 S  
HETATM   14  O   UNL     1     -12.107  14.238  66.648  1.00  0.00    -0.426 OA 
HETATM   15  O   UNL     1     -12.282  13.327  68.994  1.00  0.00    -0.277 OA 
BRANCH  13  16
HETATM   16  C   UNL     1     -10.095  14.567  68.258  1.00  0.00    -0.232 A  
HETATM   17  C   UNL     1      -9.029  13.971  68.933  1.00  0.00     0.059 A  
HETATM   18  C   UNL     1      -7.889  14.725  69.241  1.00  0.00    -0.122 A  
HETATM   19  C   UNL     1      -7.769  16.064  68.837  1.00  0.00    -0.196 A  
HETATM   20  C   UNL     1     -10.034  15.917  67.914  1.00  0.00    -0.221 A  
HETATM   21  C   UNL     1      -8.882  16.659  68.218  1.00  0.00    -0.214 A  
BRANCH  19  22
HETATM   22  N   UNL     1      -6.635  16.862  69.135  1.00  0.00    -0.212 NA 
HETATM   23  H   UNL     1      -5.832  16.505  69.653  1.00  0.00     0.000 HD 
BRANCH  22  24
HETATM   24  C   UNL     1      -6.706  18.247  68.637  1.00  0.00    -0.245 C  
HETATM   25  S   UNL     1      -5.349  18.470  67.411  1.00  0.00    -0.139 S  
HETATM   26  O   UNL     1      -5.622  19.738  66.660  1.00  0.00    -0.170 OA 
HETATM   27  O   UNL     1      -5.833  17.250  66.475  1.00  0.00    -0.186 OA 
ENDBRANCH  22  24
ENDBRANCH  19  22
ENDBRANCH  13  16
ENDBRANCH  10  13
ENDBRANCH   5   7
ENDBRANCH   3   5
TORSDOF 6
ENDMDL
MODEL      144
REMARK 921   NORMALIZED FREE ENERGY PREDICTED BY IDOCK:   -3.93 KCAL/MOL
REMARK 922        TOTAL FREE ENERGY PREDICTED BY IDOCK:   -6.11 KCAL/MOL
REMARK 923 INTER-LIGAND FREE ENERGY PREDICTED BY IDOCK:   -5.51 KCAL/MOL
REMARK 924 INTRA-LIGAND FREE ENERGY PREDICTED BY IDOCK:   -0.60 KCAL/MOL
REMARK 927      BINDING AFFINITY PREDICTED BY RF-SCORE:    0.00 PKD
ROOT
HETATM    1  O   UNL     1     -13.180  14.420  65.053  1.00  0.00    -0.562 OA 
HETATM    2  S   UNL     1     -11.761  14.251  65.790  1.00  0.00    -0.366 S  
HETATM    3  C   UNL     1     -11.149  12.975  64.616  1.00  0.00    -0.332 C  
HETATM    4  O   UNL     1     -12.079  13.584  67.094  1.00  0.00    -0.378 OA 
ENDROOT
BRANCH   3   5
HETATM    5  N   UNL     1      -9.803  12.587  65.039  1.00  0.00    -0.461 NA 
HETATM    6  H   UNL     1      -8.980  12.828  64.487  1.00  0.00     0.000 HD 
BRANCH   5   7
HETATM    7  C   UNL     1      -9.699  11.866  66.239  1.00  0.00    -0.229 A  
HETATM    8  C   UNL     1      -8.982  12.333  67.348  1.00  0.00    -0.183 A  
HETATM    9  C   UNL     1      -8.889  11.579  68.522  1.00  0.00    -0.139 A  
HETATM   10  C   UNL     1      -9.536  10.346  68.604  1.00  0.00    -0.167 A  
HETATM   11  C   UNL     1     -10.365   9.922  67.566  1.00  0.00    -0.289 A  
HETATM   12  C   UNL     1     -10.452  10.690  66.398  1.00  0.00    -0.276 A  
BRANCH  10  13
HETATM   13  S   UNL     1      -9.340   9.350  70.068  1.00  0.00    -0.242 S  
HETATM   14  O   UNL     1      -7.981   9.536  70.544  1.00  0.00    -0.162 OA 
HETATM   15  O   UNL     1     -10.471   9.643  70.933  1.00  0.00    -0.300 OA 
BRANCH  13  16
HETATM   16  C   UNL     1      -9.468   7.637  69.579  1.00  0.00    -0.152 A  
HETATM   17  C   UNL     1      -8.386   7.018  68.952  1.00  0.00    -0.125 A  
HETATM   18  C   UNL     1      -8.451   5.656  68.630  1.00  0.00    -0.105 A  
HETATM   19  C   UNL     1      -9.569   4.879  68.970  1.00  0.00    -0.157 A  
HETATM   20  C   UNL     1     -10.622   6.905  69.859  1.00  0.00    -0.256 A  
HETATM   21  C   UNL     1     -10.672   5.540  69.540  1.00  0.00    -0.332 A  
BRANCH  19  22
HETATM   22  N   UNL     1      -9.677   3.501  68.655  1.00  0.00    -0.063 NA 
HETATM   23  H   UNL     1     -10.497   3.104  68.195  1.00  0.00     0.000 HD 
BRANCH  22  24
HETATM   24  C   UNL     1      -8.512   2.685  69.042  1.00  0.00    -0.067 C  
HETATM   25  S   UNL     1      -8.498   2.571  70.881  1.00  0.00    -0.056 S  
HETATM   26  O   UNL     1      -7.541   1.482  71.259  1.00  0.00    -0.032 OA 
HETATM   27  O   UNL     1      -9.983   1.952  70.974  1.00  0.00    -0.081 OA 
ENDBRANCH  22  24
ENDBRANCH  19  22
ENDBRANCH  13  16
ENDBRANCH  10  13
ENDBRANCH   5   7
ENDBRANCH   3   5
TORSDOF 6
ENDMDL
MODEL      145
REMARK 921   NORMALIZED FREE ENERGY PREDICTED BY IDOCK:   -3.93 KCAL/MOL
REMARK 922        TOTAL FREE ENERGY PREDICTED BY IDOCK:   -6.10 KCAL/MOL
REMARK 923 INTER-LIGAND FREE ENERGY PREDICTED BY IDOCK:   -5.54 KCAL/MOL
REMARK 924 INTRA-LIGAND FREE ENERGY PREDICTED BY IDOCK:   -0.56 KCAL/MOL
REMARK 927      BINDING AFFINITY PREDICTED BY RF-SCORE:    0.00 PKD
ROOT
HETATM    1  O   UNL     1      -7.587  19.249  65.462  1.00  0.00    -0.445 OA 
HETATM    2  S   UNL     1      -6.663  18.197  66.252  1.00  0.00    -0.265 S  
HETATM    3  C   UNL     1      -7.976  16.914  66.355  1.00  0.00    -0.317 C  
HETATM    4  O   UNL     1      -6.475  18.793  67.614  1.00  0.00    -0.202 OA 
ENDROOT
BRANCH   3   5
HETATM    5  N   UNL     1      -7.421  15.761  67.064  1.00  0.00    -0.218 NA 
HETATM    6  H   UNL     1      -6.437  15.718  67.326  1.00  0.00     0.000 HD 
BRANCH   5   7
HETATM    7  C   UNL     1      -8.309  14.716  67.365  1.00  0.00    -0.206 A  
HETATM    8  C   UNL     1      -7.945  13.609  68.144  1.00  0.00    -0.148 A  
HETATM    9  C   UNL     1      -8.853  12.580  68.412  1.00  0.00    -0.123 A  
HETATM   10  C   UNL     1     -10.153  12.659  67.912  1.00  0.00    -0.222 A  
HETATM   11  C   UNL     1     -10.578  13.811  67.251  1.00  0.00    -0.275 A  
HETATM   12  C   UNL     1      -9.658  14.835  66.994  1.00  0.00    -0.248 A  
BRANCH  10  13
HETATM   13  S   UNL     1     -11.278  11.304  68.180  1.00  0.00    -0.313 S  
HETATM   14  O   UNL     1     -12.382  11.804  68.980  1.00  0.00    -0.254 OA 
HETATM   15  O   UNL     1     -11.524  10.696  66.883  1.00  0.00    -0.241 OA 
BRANCH  13  16
HETATM   16  C   UNL     1     -10.437  10.093  69.190  1.00  0.00    -0.222 A  
HETATM   17  C   UNL     1     -10.747   9.996  70.547  1.00  0.00    -0.352 A  
HETATM   18  C   UNL     1     -10.145   9.003  71.330  1.00  0.00    -0.399 A  
HETATM   19  C   UNL     1      -9.269   8.061  70.768  1.00  0.00    -0.157 A  
HETATM   20  C   UNL     1      -9.511   9.219  68.622  1.00  0.00    -0.148 A  
HETATM   21  C   UNL     1      -8.922   8.222  69.415  1.00  0.00    -0.147 A  
BRANCH  19  22
HETATM   22  N   UNL     1      -8.634   7.046  71.528  1.00  0.00    -0.117 NA 
HETATM   23  H   UNL     1      -7.682   7.139  71.883  1.00  0.00     0.000 HD 
BRANCH  22  24
HETATM   24  C   UNL     1      -9.457   5.847  71.767  1.00  0.00    -0.151 C  
HETATM   25  S   UNL     1      -9.290   4.755  70.292  1.00  0.00    -0.167 S  
HETATM   26  O   UNL     1      -9.832   3.408  70.665  1.00  0.00    -0.153 OA 
HETATM   27  O   UNL     1      -7.684   4.664  70.391  1.00  0.00    -0.053 OA 
ENDBRANCH  22  24
ENDBRANCH  19  22
ENDBRANCH  13  16
ENDBRANCH  10  13
ENDBRANCH   5   7
ENDBRANCH   3   5
TORSDOF 6
ENDMDL
MODEL      146
REMARK 921   NORMALIZED FREE ENERGY PREDICTED BY IDOCK:   -3.92 KCAL/MOL
REMARK 922        TOTAL FREE ENERGY PREDICTED BY IDOCK:   -6.09 KCAL/MOL
REMARK 923 INTER-LIGAND FREE ENERGY PREDICTED BY IDOCK:   -5.73 KCAL/MOL
REMARK 924 INTRA-LIGAND FREE ENERGY PREDICTED BY IDOCK:   -0.37 KCAL/MOL
REMARK 927      BINDING AFFINITY PREDICTED BY RF-SCORE:    0.00 PKD
ROOT
HETATM    1  O   UNL     1      -5.749   7.947  62.657  1.00  0.00    -0.065 OA 
HETATM    2  S   UNL     1      -7.305   7.618  62.893  1.00  0.00    -0.103 S  
HETATM    3  C   UNL     1      -7.811   9.385  62.948  1.00  0.00    -0.126 C  
HETATM    4  O   UNL     1      -7.376   7.060  64.283  1.00  0.00    -0.075 OA 
ENDROOT
BRANCH   3   5
HETATM    5  N   UNL     1      -9.256   9.431  63.167  1.00  0.00    -0.480 NA 
HETATM    6  H   UNL     1      -9.916   9.168  62.435  1.00  0.00     0.000 HD 
BRANCH   5   7
HETATM    7  C   UNL     1      -9.691   9.854  64.433  1.00  0.00    -0.107 A  
HETATM    8  C   UNL     1     -10.204  11.136  64.674  1.00  0.00    -0.376 A  
HETATM    9  C   UNL     1     -10.614  11.526  65.952  1.00  0.00    -0.318 A  
HETATM   10  C   UNL     1     -10.532  10.619  67.009  1.00  0.00    -0.243 A  
HETATM   11  C   UNL     1     -10.155   9.299  66.770  1.00  0.00    -0.331 A  
HETATM   12  C   UNL     1      -9.750   8.922  65.483  1.00  0.00     0.010 A  
BRANCH  10  13
HETATM   13  S   UNL     1     -10.972  11.149  68.652  1.00  0.00    -0.243 S  
HETATM   14  O   UNL     1     -12.366  10.805  68.864  1.00  0.00    -0.433 OA 
HETATM   15  O   UNL     1      -9.944  10.646  69.548  1.00  0.00    -0.197 OA 
BRANCH  13  16
HETATM   16  C   UNL     1     -10.887  12.934  68.687  1.00  0.00    -0.258 A  
HETATM   17  C   UNL     1      -9.850  13.559  69.381  1.00  0.00     0.656 A  
HETATM   18  C   UNL     1      -9.735  14.955  69.354  1.00  0.00    -0.099 A  
HETATM   19  C   UNL     1     -10.615  15.745  68.598  1.00  0.00    -0.250 A  
HETATM   20  C   UNL     1     -11.821  13.700  67.991  1.00  0.00    -0.397 A  
HETATM   21  C   UNL     1     -11.689  15.097  67.964  1.00  0.00    -0.304 A  
BRANCH  19  22
HETATM   22  N   UNL     1     -10.536  17.160  68.551  1.00  0.00    -0.362 NA 
HETATM   23  H   UNL     1     -10.647  17.745  69.380  1.00  0.00     0.000 HD 
BRANCH  22  24
HETATM   24  C   UNL     1     -10.281  17.721  67.212  1.00  0.00    -0.350 C  
HETATM   25  S   UNL     1     -10.430  19.553  67.338  1.00  0.00    -0.482 S  
HETATM   26  O   UNL     1      -9.844  20.141  66.090  1.00  0.00    -0.436 OA 
HETATM   27  O   UNL     1      -9.314  19.685  68.494  1.00  0.00    -0.355 OA 
ENDBRANCH  22  24
ENDBRANCH  19  22
ENDBRANCH  13  16
ENDBRANCH  10  13
ENDBRANCH   5   7
ENDBRANCH   3   5
TORSDOF 6
ENDMDL
MODEL      147
REMARK 921   NORMALIZED FREE ENERGY PREDICTED BY IDOCK:   -3.90 KCAL/MOL
REMARK 922        TOTAL FREE ENERGY PREDICTED BY IDOCK:   -6.06 KCAL/MOL
REMARK 923 INTER-LIGAND FREE ENERGY PREDICTED BY IDOCK:   -5.28 KCAL/MOL
REMARK 924 INTRA-LIGAND FREE ENERGY PREDICTED BY IDOCK:   -0.78 KCAL/MOL
REMARK 927      BINDING AFFINITY PREDICTED BY RF-SCORE:    0.00 PKD
ROOT
HETATM    1  O   UNL     1      -5.799   2.891  72.041  1.00  0.00    -0.008 OA 
HETATM    2  S   UNL     1      -6.097   4.068  73.095  1.00  0.00    -0.016 S  
HETATM    3  C   UNL     1      -7.898   3.711  73.192  1.00  0.00    -0.071 C  
HETATM    4  O   UNL     1      -5.906   5.338  72.321  1.00  0.00    -0.020 OA 
ENDROOT
BRANCH   3   5
HETATM    5  N   UNL     1      -8.496   4.668  74.122  1.00  0.00    -0.102 NA 
HETATM    6  H   UNL     1      -8.230   4.695  75.106  1.00  0.00     0.000 HD 
BRANCH   5   7
HETATM    7  C   UNL     1      -9.454   5.549  73.595  1.00  0.00    -0.138 A  
HETATM    8  C   UNL     1      -9.316   6.943  73.645  1.00  0.00    -0.207 A  
HETATM    9  C   UNL     1     -10.299   7.789  73.123  1.00  0.00    -0.403 A  
HETATM   10  C   UNL     1     -11.433   7.241  72.522  1.00  0.00    -0.281 A  
HETATM   11  C   UNL     1     -11.529   5.862  72.339  1.00  0.00    -0.358 A  
HETATM   12  C   UNL     1     -10.534   5.028  72.864  1.00  0.00    -0.256 A  
BRANCH  10  13
HETATM   13  S   UNL     1     -12.723   8.322  71.938  1.00  0.00    -0.350 S  
HETATM   14  O   UNL     1     -13.667   7.512  71.190  1.00  0.00    -0.285 OA 
HETATM   15  O   UNL     1     -13.166   9.106  73.080  1.00  0.00    -0.269 OA 
BRANCH  13  16
HETATM   16  C   UNL     1     -11.993   9.452  70.763  1.00  0.00    -0.231 A  
HETATM   17  C   UNL     1     -12.398  10.788  70.751  1.00  0.00    -0.480 A  
HETATM   18  C   UNL     1     -11.780  11.697  69.882  1.00  0.00    -0.414 A  
HETATM   19  C   UNL     1     -10.719  11.305  69.050  1.00  0.00    -0.217 A  
HETATM   20  C   UNL     1     -10.994   9.020  69.892  1.00  0.00    -0.204 A  
HETATM   21  C   UNL     1     -10.376   9.942  69.033  1.00  0.00    -0.224 A  
BRANCH  19  22
HETATM   22  N   UNL     1     -10.074  12.192  68.152  1.00  0.00    -0.201 NA 
HETATM   23  H   UNL     1     -10.162  13.206  68.222  1.00  0.00     0.000 HD 
BRANCH  22  24
HETATM   24  C   UNL     1      -9.264  11.536  67.110  1.00  0.00    -0.169 C  
HETATM   25  S   UNL     1      -7.553  12.209  67.228  1.00  0.00    -0.142 S  
HETATM   26  O   UNL     1      -6.660  11.315  66.421  1.00  0.00    -0.128 OA 
HETATM   27  O   UNL     1      -7.367  11.794  68.774  1.00  0.00    -0.109 OA 
ENDBRANCH  22  24
ENDBRANCH  19  22
ENDBRANCH  13  16
ENDBRANCH  10  13
ENDBRANCH   5   7
ENDBRANCH   3   5
TORSDOF 6
ENDMDL
MODEL      148
REMARK 921   NORMALIZED FREE ENERGY PREDICTED BY IDOCK:   -3.89 KCAL/MOL
REMARK 922        TOTAL FREE ENERGY PREDICTED BY IDOCK:   -6.05 KCAL/MOL
REMARK 923 INTER-LIGAND FREE ENERGY PREDICTED BY IDOCK:   -5.35 KCAL/MOL
REMARK 924 INTRA-LIGAND FREE ENERGY PREDICTED BY IDOCK:   -0.70 KCAL/MOL
REMARK 927      BINDING AFFINITY PREDICTED BY RF-SCORE:    0.00 PKD
ROOT
HETATM    1  O   UNL     1      -7.094   8.990  74.495  1.00  0.00    -0.401 OA 
HETATM    2  S   UNL     1      -6.590   8.327  73.120  1.00  0.00    -0.096 S  
HETATM    3  C   UNL     1      -7.583   6.795  73.335  1.00  0.00    -0.085 C  
HETATM    4  O   UNL     1      -5.147   7.995  73.357  1.00  0.00    -0.040 OA 
ENDROOT
BRANCH   3   5
HETATM    5  N   UNL     1      -7.329   5.930  72.183  1.00  0.00    -0.092 NA 
HETATM    6  H   UNL     1      -6.710   5.122  72.249  1.00  0.00     0.000 HD 
BRANCH   5   7
HETATM    7  C   UNL     1      -7.976   6.266  70.984  1.00  0.00    -0.116 A  
HETATM    8  C   UNL     1      -9.371   6.286  70.851  1.00  0.00    -0.171 A  
HETATM    9  C   UNL     1      -9.980   6.612  69.635  1.00  0.00    -0.191 A  
HETATM   10  C   UNL     1      -9.189   6.941  68.534  1.00  0.00    -0.129 A  
HETATM   11  C   UNL     1      -7.807   7.059  68.677  1.00  0.00    -0.119 A  
HETATM   12  C   UNL     1      -7.212   6.734  69.902  1.00  0.00    -0.080 A  
BRANCH  10  13
HETATM   13  S   UNL     1      -9.967   7.267  66.965  1.00  0.00    -0.245 S  
HETATM   14  O   UNL     1      -9.006   6.943  65.926  1.00  0.00    -0.145 OA 
HETATM   15  O   UNL     1     -11.268   6.619  66.995  1.00  0.00    -0.404 OA 
BRANCH  13  16
HETATM   16  C   UNL     1     -10.247   9.028  66.854  1.00  0.00    -0.269 A  
HETATM   17  C   UNL     1     -10.771   9.710  67.953  1.00  0.00    -0.302 A  
HETATM   18  C   UNL     1     -10.927  11.102  67.900  1.00  0.00    -0.307 A  
HETATM   19  C   UNL     1     -10.519  11.840  66.777  1.00  0.00    -0.225 A  
HETATM   20  C   UNL     1      -9.906   9.728  65.697  1.00  0.00    -0.371 A  
HETATM   21  C   UNL     1     -10.058  11.122  65.660  1.00  0.00    -0.304 A  
BRANCH  19  22
HETATM   22  N   UNL     1     -10.667  13.247  66.682  1.00  0.00    -0.279 NA 
HETATM   23  H   UNL     1     -10.447  13.767  65.833  1.00  0.00     0.000 HD 
BRANCH  22  24
HETATM   24  C   UNL     1     -11.165  13.900  67.906  1.00  0.00    -0.278 C  
HETATM   25  S   UNL     1      -9.912  15.150  68.419  1.00  0.00    -0.228 S  
HETATM   26  O   UNL     1     -10.555  16.040  69.439  1.00  0.00    -0.232 OA 
HETATM   27  O   UNL     1      -9.946  15.938  67.013  1.00  0.00    -0.239 OA 
ENDBRANCH  22  24
ENDBRANCH  19  22
ENDBRANCH  13  16
ENDBRANCH  10  13
ENDBRANCH   5   7
ENDBRANCH   3   5
TORSDOF 6
ENDMDL
MODEL      149
REMARK 921   NORMALIZED FREE ENERGY PREDICTED BY IDOCK:   -3.87 KCAL/MOL
REMARK 922        TOTAL FREE ENERGY PREDICTED BY IDOCK:   -6.03 KCAL/MOL
REMARK 923 INTER-LIGAND FREE ENERGY PREDICTED BY IDOCK:   -5.23 KCAL/MOL
REMARK 924 INTRA-LIGAND FREE ENERGY PREDICTED BY IDOCK:   -0.80 KCAL/MOL
REMARK 927      BINDING AFFINITY PREDICTED BY RF-SCORE:    0.00 PKD
ROOT
HETATM    1  O   UNL     1     -12.478  13.930  63.250  1.00  0.00    -0.817 OA 
HETATM    2  S   UNL     1     -12.496  14.096  64.849  1.00  0.00    -0.352 S  
HETATM    3  C   UNL     1     -10.744  14.644  64.948  1.00  0.00    -0.427 C  
HETATM    4  O   UNL     1     -12.587  12.698  65.382  1.00  0.00    -0.641 OA 
ENDROOT
BRANCH   3   5
HETATM    5  N   UNL     1     -10.429  14.888  66.355  1.00  0.00    -0.290 NA 
HETATM    6  H   UNL     1     -10.808  15.691  66.856  1.00  0.00     0.000 HD 
BRANCH   5   7
HETATM    7  C   UNL     1      -9.580  13.963  66.983  1.00  0.00    -0.254 A  
HETATM    8  C   UNL     1      -8.197  14.154  67.099  1.00  0.00    -0.166 A  
HETATM    9  C   UNL     1      -7.381  13.203  67.719  1.00  0.00    -0.143 A  
HETATM   10  C   UNL     1      -7.952  12.047  68.252  1.00  0.00    -0.149 A  
HETATM   11  C   UNL     1      -9.338  11.897  68.271  1.00  0.00    -0.193 A  
HETATM   12  C   UNL     1     -10.143  12.861  67.649  1.00  0.00    -0.221 A  
BRANCH  10  13
HETATM   13  S   UNL     1      -6.899  10.798  68.961  1.00  0.00    -0.085 S  
HETATM   14  O   UNL     1      -5.708  10.710  68.135  1.00  0.00    -0.043 OA 
HETATM   15  O   UNL     1      -6.791  11.091  70.381  1.00  0.00    -0.220 OA 
BRANCH  13  16
HETATM   16  C   UNL     1      -7.736   9.228  68.800  1.00  0.00    -0.083 A  
HETATM   17  C   UNL     1      -8.462   8.723  69.879  1.00  0.00    -0.131 A  
HETATM   18  C   UNL     1      -9.180   7.528  69.739  1.00  0.00    -0.147 A  
HETATM   19  C   UNL     1      -9.230   6.846  68.512  1.00  0.00    -0.129 A  
HETATM   20  C   UNL     1      -7.705   8.529  67.593  1.00  0.00    -0.102 A  
HETATM   21  C   UNL     1      -8.436   7.339  67.462  1.00  0.00    -0.119 A  
BRANCH  19  22
HETATM   22  N   UNL     1      -9.938   5.631  68.332  1.00  0.00    -0.146 NA 
HETATM   23  H   UNL     1     -10.954   5.570  68.410  1.00  0.00     0.000 HD 
BRANCH  22  24
HETATM   24  C   UNL     1      -9.094   4.463  68.022  1.00  0.00    -0.127 C  
HETATM   25  S   UNL     1      -8.145   4.042  69.544  1.00  0.00    -0.054 S  
HETATM   26  O   UNL     1      -7.560   2.676  69.347  1.00  0.00    -0.044 OA 
HETATM   27  O   UNL     1      -9.460   3.867  70.460  1.00  0.00    -0.149 OA 
ENDBRANCH  22  24
ENDBRANCH  19  22
ENDBRANCH  13  16
ENDBRANCH  10  13
ENDBRANCH   5   7
ENDBRANCH   3   5
TORSDOF 6
ENDMDL
MODEL      150
REMARK 921   NORMALIZED FREE ENERGY PREDICTED BY IDOCK:   -3.87 KCAL/MOL
REMARK 922        TOTAL FREE ENERGY PREDICTED BY IDOCK:   -6.02 KCAL/MOL
REMARK 923 INTER-LIGAND FREE ENERGY PREDICTED BY IDOCK:   -5.40 KCAL/MOL
REMARK 924 INTRA-LIGAND FREE ENERGY PREDICTED BY IDOCK:   -0.62 KCAL/MOL
REMARK 927      BINDING AFFINITY PREDICTED BY RF-SCORE:    0.00 PKD
ROOT
HETATM    1  O   UNL     1      -8.913   4.104  63.849  1.00  0.00    -0.126 OA 
HETATM    2  S   UNL     1      -7.870   4.962  64.722  1.00  0.00    -0.094 S  
HETATM    3  C   UNL     1      -8.120   6.506  63.754  1.00  0.00    -0.016 C  
HETATM    4  O   UNL     1      -6.524   4.400  64.379  1.00  0.00    -0.036 OA 
ENDROOT
BRANCH   3   5
HETATM    5  N   UNL     1      -7.259   7.539  64.328  1.00  0.00    -0.073 NA 
HETATM    6  H   UNL     1      -6.246   7.517  64.209  1.00  0.00     0.000 HD 
BRANCH   5   7
HETATM    7  C   UNL     1      -7.892   8.563  65.050  1.00  0.00    -0.112 A  
HETATM    8  C   UNL     1      -7.242   9.747  65.422  1.00  0.00    -0.114 A  
HETATM    9  C   UNL     1      -7.902  10.739  66.154  1.00  0.00    -0.155 A  
HETATM   10  C   UNL     1      -9.239  10.560  66.509  1.00  0.00    -0.161 A  
HETATM   11  C   UNL     1      -9.945   9.454  66.036  1.00  0.00    -0.352 A  
HETATM   12  C   UNL     1      -9.271   8.471  65.300  1.00  0.00     0.036 A  
BRANCH  10  13
HETATM   13  S   UNL     1     -10.048  11.784  67.518  1.00  0.00    -0.194 S  
HETATM   14  O   UNL     1     -11.465  11.740  67.206  1.00  0.00    -0.360 OA 
HETATM   15  O   UNL     1      -9.586  11.581  68.882  1.00  0.00    -0.146 OA 
BRANCH  13  16
HETATM   16  C   UNL     1      -9.470  13.390  66.990  1.00  0.00    -0.247 A  
HETATM   17  C   UNL     1     -10.232  14.131  66.085  1.00  0.00    -0.313 A  
HETATM   18  C   UNL     1      -9.823  15.420  65.720  1.00  0.00    -0.399 A  
HETATM   19  C   UNL     1      -8.682  16.011  66.286  1.00  0.00    -0.336 A  
HETATM   20  C   UNL     1      -8.290  13.923  67.508  1.00  0.00    -0.202 A  
HETATM   21  C   UNL     1      -7.896  15.220  67.142  1.00  0.00    -0.249 A  
BRANCH  19  22
HETATM   22  N   UNL     1      -8.231  17.309  65.938  1.00  0.00    -0.543 NA 
HETATM   23  H   UNL     1      -7.344  17.474  65.462  1.00  0.00     0.000 HD 
BRANCH  22  24
HETATM   24  C   UNL     1      -9.143  18.403  66.316  1.00  0.00    -0.201 C  
HETATM   25  S   UNL     1      -9.302  18.386  68.152  1.00  0.00    -0.328 S  
HETATM   26  O   UNL     1      -9.937  19.681  68.561  1.00  0.00    -0.400 OA 
HETATM   27  O   UNL     1      -7.718  18.531  68.410  1.00  0.00    -0.280 OA 
ENDBRANCH  22  24
ENDBRANCH  19  22
ENDBRANCH  13  16
ENDBRANCH  10  13
ENDBRANCH   5   7
ENDBRANCH   3   5
TORSDOF 6
ENDMDL
MODEL      151
REMARK 921   NORMALIZED FREE ENERGY PREDICTED BY IDOCK:   -3.82 KCAL/MOL
REMARK 922        TOTAL FREE ENERGY PREDICTED BY IDOCK:   -5.96 KCAL/MOL
REMARK 923 INTER-LIGAND FREE ENERGY PREDICTED BY IDOCK:   -5.74 KCAL/MOL
REMARK 924 INTRA-LIGAND FREE ENERGY PREDICTED BY IDOCK:   -0.23 KCAL/MOL
REMARK 927      BINDING AFFINITY PREDICTED BY RF-SCORE:    0.00 PKD
ROOT
HETATM    1  O   UNL     1      -8.839   3.759  74.564  1.00  0.00    -0.090 OA 
HETATM    2  S   UNL     1      -9.930   4.160  73.453  1.00  0.00    -0.137 S  
HETATM    3  C   UNL     1     -10.166   5.864  74.102  1.00  0.00    -0.283 C  
HETATM    4  O   UNL     1     -11.145   3.350  73.795  1.00  0.00    -0.225 OA 
ENDROOT
BRANCH   3   5
HETATM    5  N   UNL     1     -11.161   6.530  73.262  1.00  0.00    -0.475 NA 
HETATM    6  H   UNL     1     -12.067   6.816  73.632  1.00  0.00     0.000 HD 
BRANCH   5   7
HETATM    7  C   UNL     1     -10.810   6.756  71.922  1.00  0.00    -0.232 A  
HETATM    8  C   UNL     1      -9.679   7.493  71.544  1.00  0.00    -0.184 A  
HETATM    9  C   UNL     1      -9.369   7.710  70.199  1.00  0.00    -0.157 A  
HETATM   10  C   UNL     1     -10.187   7.168  69.206  1.00  0.00    -0.190 A  
HETATM   11  C   UNL     1     -11.237   6.320  69.553  1.00  0.00    -0.500 A  
HETATM   12  C   UNL     1     -11.533   6.109  70.906  1.00  0.00    -0.317 A  
BRANCH  10  13
HETATM   13  S   UNL     1      -9.838   7.522  67.496  1.00  0.00    -0.177 S  
HETATM   14  O   UNL     1      -8.572   6.892  67.168  1.00  0.00    -0.119 OA 
HETATM   15  O   UNL     1     -11.039   7.198  66.744  1.00  0.00    -0.254 OA 
BRANCH  13  16
HETATM   16  C   UNL     1      -9.573   9.283  67.349  1.00  0.00    -0.150 A  
HETATM   17  C   UNL     1      -8.661   9.913  68.197  1.00  0.00    -0.122 A  
HETATM   18  C   UNL     1      -8.394  11.279  68.043  1.00  0.00    -0.136 A  
HETATM   19  C   UNL     1      -8.988  12.027  67.013  1.00  0.00    -0.198 A  
HETATM   20  C   UNL     1     -10.235  10.019  66.368  1.00  0.00    -0.290 A  
HETATM   21  C   UNL     1      -9.951  11.385  66.217  1.00  0.00    -0.259 A  
BRANCH  19  22
HETATM   22  N   UNL     1      -8.749  13.412  66.829  1.00  0.00    -0.417 NA 
HETATM   23  H   UNL     1      -8.062  13.768  66.164  1.00  0.00     0.000 HD 
BRANCH  22  24
HETATM   24  C   UNL     1      -9.571  14.299  67.671  1.00  0.00    -0.219 C  
HETATM   25  S   UNL     1      -8.437  15.500  68.488  1.00  0.00    -0.174 S  
HETATM   26  O   UNL     1      -9.280  16.599  69.060  1.00  0.00    -0.263 OA 
HETATM   27  O   UNL     1      -7.822  16.046  67.102  1.00  0.00    -0.168 OA 
ENDBRANCH  22  24
ENDBRANCH  19  22
ENDBRANCH  13  16
ENDBRANCH  10  13
ENDBRANCH   5   7
ENDBRANCH   3   5
TORSDOF 6
ENDMDL
MODEL      152
REMARK 921   NORMALIZED FREE ENERGY PREDICTED BY IDOCK:   -3.81 KCAL/MOL
REMARK 922        TOTAL FREE ENERGY PREDICTED BY IDOCK:   -5.94 KCAL/MOL
REMARK 923 INTER-LIGAND FREE ENERGY PREDICTED BY IDOCK:   -5.27 KCAL/MOL
REMARK 924 INTRA-LIGAND FREE ENERGY PREDICTED BY IDOCK:   -0.67 KCAL/MOL
REMARK 927      BINDING AFFINITY PREDICTED BY RF-SCORE:    0.00 PKD
ROOT
HETATM    1  O   UNL     1      -8.753   5.302  64.253  1.00  0.00    -0.121 OA 
HETATM    2  S   UNL     1      -8.868   5.082  65.841  1.00  0.00    -0.139 S  
HETATM    3  C   UNL     1      -8.235   6.758  66.256  1.00  0.00    -0.120 C  
HETATM    4  O   UNL     1      -7.805   4.078  66.171  1.00  0.00    -0.089 OA 
ENDROOT
BRANCH   3   5
HETATM    5  N   UNL     1      -8.211   6.880  67.713  1.00  0.00    -0.117 NA 
HETATM    6  H   UNL     1      -7.602   6.299  68.288  1.00  0.00     0.000 HD 
BRANCH   5   7
HETATM    7  C   UNL     1      -9.067   7.836  68.283  1.00  0.00    -0.130 A  
HETATM    8  C   UNL     1      -8.890   8.342  69.578  1.00  0.00    -0.149 A  
HETATM    9  C   UNL     1      -9.773   9.283  70.116  1.00  0.00    -0.252 A  
HETATM   10  C   UNL     1     -10.842   9.745  69.349  1.00  0.00    -0.232 A  
HETATM   11  C   UNL     1     -10.961   9.360  68.014  1.00  0.00    -0.119 A  
HETATM   12  C   UNL     1     -10.066   8.420  67.487  1.00  0.00    -0.279 A  
BRANCH  10  13
HETATM   13  S   UNL     1     -12.014  10.875  70.071  1.00  0.00    -0.380 S  
HETATM   14  O   UNL     1     -13.268  10.721  69.355  1.00  0.00     0.205 OA 
HETATM   15  O   UNL     1     -11.958  10.680  71.510  1.00  0.00    -0.257 OA 
BRANCH  13  16
HETATM   16  C   UNL     1     -11.446  12.535  69.732  1.00  0.00    -0.141 A  
HETATM   17  C   UNL     1     -11.841  13.580  70.568  1.00  0.00    -0.254 A  
HETATM   18  C   UNL     1     -11.344  14.872  70.352  1.00  0.00    -0.287 A  
HETATM   19  C   UNL     1     -10.409  15.134  69.338  1.00  0.00    -0.255 A  
HETATM   20  C   UNL     1     -10.578  12.783  68.669  1.00  0.00    -0.256 A  
HETATM   21  C   UNL     1     -10.079  14.079  68.469  1.00  0.00    -0.236 A  
BRANCH  19  22
HETATM   22  N   UNL     1      -9.888  16.428  69.083  1.00  0.00    -0.271 NA 
HETATM   23  H   UNL     1      -9.690  17.097  69.827  1.00  0.00     0.000 HD 
BRANCH  22  24
HETATM   24  C   UNL     1      -9.654  16.731  67.660  1.00  0.00    -0.244 C  
HETATM   25  S   UNL     1     -10.696  18.186  67.221  1.00  0.00    -0.233 S  
HETATM   26  O   UNL     1     -10.215  18.704  65.900  1.00  0.00    -0.533 OA 
HETATM   27  O   UNL     1     -10.066  19.133  68.362  1.00  0.00    -0.380 OA 
ENDBRANCH  22  24
ENDBRANCH  19  22
ENDBRANCH  13  16
ENDBRANCH  10  13
ENDBRANCH   5   7
ENDBRANCH   3   5
TORSDOF 6
ENDMDL
MODEL      153
REMARK 921   NORMALIZED FREE ENERGY PREDICTED BY IDOCK:   -3.75 KCAL/MOL
REMARK 922        TOTAL FREE ENERGY PREDICTED BY IDOCK:   -5.86 KCAL/MOL
REMARK 923 INTER-LIGAND FREE ENERGY PREDICTED BY IDOCK:   -5.09 KCAL/MOL
REMARK 924 INTRA-LIGAND FREE ENERGY PREDICTED BY IDOCK:   -0.77 KCAL/MOL
REMARK 927      BINDING AFFINITY PREDICTED BY RF-SCORE:    0.00 PKD
ROOT
HETATM    1  O   UNL     1     -10.868   3.438  73.604  1.00  0.00    -0.197 OA 
HETATM    2  S   UNL     1     -10.519   4.894  74.188  1.00  0.00    -0.293 S  
HETATM    3  C   UNL     1     -11.491   5.790  72.911  1.00  0.00    -0.212 C  
HETATM    4  O   UNL     1      -9.061   5.089  73.898  1.00  0.00    -0.113 OA 
ENDROOT
BRANCH   3   5
HETATM    5  N   UNL     1     -11.368   7.223  73.176  1.00  0.00    -0.582 NA 
HETATM    6  H   UNL     1     -11.692   7.634  74.051  1.00  0.00     0.000 HD 
BRANCH   5   7
HETATM    7  C   UNL     1     -10.781   8.005  72.169  1.00  0.00    -0.276 A  
HETATM    8  C   UNL     1      -9.409   7.979  71.885  1.00  0.00    -0.225 A  
HETATM    9  C   UNL     1      -8.859   8.784  70.883  1.00  0.00    -0.243 A  
HETATM   10  C   UNL     1      -9.689   9.618  70.135  1.00  0.00    -0.254 A  
HETATM   11  C   UNL     1     -11.072   9.563  70.306  1.00  0.00    -0.317 A  
HETATM   12  C   UNL     1     -11.609   8.748  71.311  1.00  0.00    -0.353 A  
BRANCH  10  13
HETATM   13  S   UNL     1      -8.972  10.707  68.921  1.00  0.00    -0.153 S  
HETATM   14  O   UNL     1      -9.963  11.719  68.601  1.00  0.00    -0.212 OA 
HETATM   15  O   UNL     1      -7.661  11.091  69.419  1.00  0.00    -0.114 OA 
BRANCH  13  16
HETATM   16  C   UNL     1      -8.722   9.762  67.426  1.00  0.00    -0.132 A  
HETATM   17  C   UNL     1      -9.399   8.555  67.255  1.00  0.00    -0.184 A  
HETATM   18  C   UNL     1      -9.264   7.843  66.055  1.00  0.00    -0.162 A  
HETATM   19  C   UNL     1      -8.497   8.344  64.992  1.00  0.00    -0.141 A  
HETATM   20  C   UNL     1      -7.891  10.244  66.414  1.00  0.00    -0.119 A  
HETATM   21  C   UNL     1      -7.772   9.527  65.214  1.00  0.00    -0.111 A  
BRANCH  19  22
HETATM   22  N   UNL     1      -8.330   7.651  63.766  1.00  0.00    -0.372 NA 
HETATM   23  H   UNL     1      -8.917   7.826  62.951  1.00  0.00     0.000 HD 
BRANCH  22  24
HETATM   24  C   UNL     1      -7.242   6.657  63.762  1.00  0.00    -0.065 C  
HETATM   25  S   UNL     1      -8.012   4.986  63.874  1.00  0.00    -0.108 S  
HETATM   26  O   UNL     1      -6.958   3.979  63.527  1.00  0.00    -0.043 OA 
HETATM   27  O   UNL     1      -8.926   5.188  62.562  1.00  0.00    -0.111 OA 
ENDBRANCH  22  24
ENDBRANCH  19  22
ENDBRANCH  13  16
ENDBRANCH  10  13
ENDBRANCH   5   7
ENDBRANCH   3   5
TORSDOF 6
ENDMDL
MODEL      154
REMARK 921   NORMALIZED FREE ENERGY PREDICTED BY IDOCK:   -3.72 KCAL/MOL
REMARK 922        TOTAL FREE ENERGY PREDICTED BY IDOCK:   -5.83 KCAL/MOL
REMARK 923 INTER-LIGAND FREE ENERGY PREDICTED BY IDOCK:   -5.05 KCAL/MOL
REMARK 924 INTRA-LIGAND FREE ENERGY PREDICTED BY IDOCK:   -0.78 KCAL/MOL
REMARK 927      BINDING AFFINITY PREDICTED BY RF-SCORE:    0.00 PKD
ROOT
HETATM    1  O   UNL     1     -12.655  13.962  63.270  1.00  0.00    -0.824 OA 
HETATM    2  S   UNL     1     -12.543  12.548  64.026  1.00  0.00    -0.339 S  
HETATM    3  C   UNL     1     -12.124  13.295  65.652  1.00  0.00    -0.441 C  
HETATM    4  O   UNL     1     -11.310  11.907  63.465  1.00  0.00    -0.417 OA 
ENDROOT
BRANCH   3   5
HETATM    5  N   UNL     1     -11.943  12.206  66.612  1.00  0.00    -0.629 NA 
HETATM    6  H   UNL     1     -12.727  11.828  67.144  1.00  0.00     0.000 HD 
BRANCH   5   7
HETATM    7  C   UNL     1     -10.640  11.707  66.767  1.00  0.00    -0.244 A  
HETATM    8  C   UNL     1     -10.296  10.378  66.489  1.00  0.00    -0.287 A  
HETATM    9  C   UNL     1      -8.990   9.913  66.669  1.00  0.00    -0.157 A  
HETATM   10  C   UNL     1      -8.001  10.789  67.116  1.00  0.00    -0.124 A  
HETATM   11  C   UNL     1      -8.287  12.145  67.270  1.00  0.00    -0.179 A  
HETATM   12  C   UNL     1      -9.600  12.597  67.082  1.00  0.00    -0.207 A  
BRANCH  10  13
HETATM   13  S   UNL     1      -6.360  10.171  67.430  1.00  0.00    -0.067 S  
HETATM   14  O   UNL     1      -6.151   9.026  66.562  1.00  0.00    -0.061 OA 
HETATM   15  O   UNL     1      -5.460  11.312  67.374  1.00  0.00    -0.043 OA 
BRANCH  13  16
HETATM   16  C   UNL     1      -6.327   9.544  69.102  1.00  0.00    -0.041 A  
HETATM   17  C   UNL     1      -7.472   9.640  69.894  1.00  0.00    -0.127 A  
HETATM   18  C   UNL     1      -7.478   9.087  71.182  1.00  0.00    -0.119 A  
HETATM   19  C   UNL     1      -6.368   8.387  71.680  1.00  0.00    -0.055 A  
HETATM   20  C   UNL     1      -5.184   8.921  69.602  1.00  0.00    -0.030 A  
HETATM   21  C   UNL     1      -5.206   8.362  70.889  1.00  0.00    -0.028 A  
BRANCH  19  22
HETATM   22  N   UNL     1      -6.332   7.819  72.979  1.00  0.00    -0.062 NA 
HETATM   23  H   UNL     1      -5.496   7.380  73.364  1.00  0.00     0.000 HD 
BRANCH  22  24
HETATM   24  C   UNL     1      -7.597   7.913  73.729  1.00  0.00    -0.155 C  
HETATM   25  S   UNL     1      -8.480   6.308  73.536  1.00  0.00    -0.120 S  
HETATM   26  O   UNL     1      -9.577   6.270  74.557  1.00  0.00    -0.206 OA 
HETATM   27  O   UNL     1      -7.260   5.429  74.118  1.00  0.00    -0.084 OA 
ENDBRANCH  22  24
ENDBRANCH  19  22
ENDBRANCH  13  16
ENDBRANCH  10  13
ENDBRANCH   5   7
ENDBRANCH   3   5
TORSDOF 6
ENDMDL
MODEL      155
REMARK 921   NORMALIZED FREE ENERGY PREDICTED BY IDOCK:   -3.71 KCAL/MOL
REMARK 922        TOTAL FREE ENERGY PREDICTED BY IDOCK:   -5.81 KCAL/MOL
REMARK 923 INTER-LIGAND FREE ENERGY PREDICTED BY IDOCK:   -5.06 KCAL/MOL
REMARK 924 INTRA-LIGAND FREE ENERGY PREDICTED BY IDOCK:   -0.75 KCAL/MOL
REMARK 927      BINDING AFFINITY PREDICTED BY RF-SCORE:    0.00 PKD
ROOT
HETATM    1  O   UNL     1     -10.792   1.997  73.306  1.00  0.00    -0.135 OA 
HETATM    2  S   UNL     1      -9.939   3.319  73.636  1.00  0.00    -0.121 S  
HETATM    3  C   UNL     1     -11.326   4.470  73.273  1.00  0.00    -0.270 C  
HETATM    4  O   UNL     1      -8.936   3.420  72.526  1.00  0.00    -0.087 OA 
ENDROOT
BRANCH   3   5
HETATM    5  N   UNL     1     -10.844   5.835  73.488  1.00  0.00    -0.372 NA 
HETATM    6  H   UNL     1     -10.906   6.285  74.401  1.00  0.00     0.000 HD 
BRANCH   5   7
HETATM    7  C   UNL     1     -10.293   6.494  72.378  1.00  0.00    -0.188 A  
HETATM    8  C   UNL     1     -10.772   6.318  71.072  1.00  0.00    -0.313 A  
HETATM    9  C   UNL     1     -10.187   6.980  69.989  1.00  0.00    -0.206 A  
HETATM   10  C   UNL     1      -9.118   7.850  70.207  1.00  0.00    -0.152 A  
HETATM   11  C   UNL     1      -8.712   8.145  71.508  1.00  0.00    -0.185 A  
HETATM   12  C   UNL     1      -9.310   7.476  72.584  1.00  0.00    -0.208 A  
BRANCH  10  13
HETATM   13  S   UNL     1      -8.319   8.622  68.815  1.00  0.00    -0.122 S  
HETATM   14  O   UNL     1      -6.922   8.809  69.161  1.00  0.00    -0.057 OA 
HETATM   15  O   UNL     1      -8.692   7.857  67.636  1.00  0.00    -0.126 OA 
BRANCH  13  16
HETATM   16  C   UNL     1      -9.012  10.259  68.632  1.00  0.00    -0.144 A  
HETATM   17  C   UNL     1      -8.304  11.229  67.921  1.00  0.00    -0.131 A  
HETATM   18  C   UNL     1      -8.871  12.493  67.712  1.00  0.00    -0.178 A  
HETATM   19  C   UNL     1     -10.167  12.794  68.160  1.00  0.00    -0.241 A  
HETATM   20  C   UNL     1     -10.270  10.558  69.155  1.00  0.00    -0.241 A  
HETATM   21  C   UNL     1     -10.831  11.824  68.930  1.00  0.00    -0.265 A  
BRANCH  19  22
HETATM   22  N   UNL     1     -10.772  14.063  67.975  1.00  0.00    -0.242 NA 
HETATM   23  H   UNL     1     -11.633  14.336  68.449  1.00  0.00     0.000 HD 
BRANCH  22  24
HETATM   24  C   UNL     1     -10.062  14.957  67.044  1.00  0.00    -0.244 C  
HETATM   25  S   UNL     1     -10.522  16.689  67.473  1.00  0.00    -0.306 S  
HETATM   26  O   UNL     1      -9.557  17.599  66.774  1.00  0.00    -0.273 OA 
HETATM   27  O   UNL     1     -10.034  16.566  69.004  1.00  0.00    -0.250 OA 
ENDBRANCH  22  24
ENDBRANCH  19  22
ENDBRANCH  13  16
ENDBRANCH  10  13
ENDBRANCH   5   7
ENDBRANCH   3   5
TORSDOF 6
ENDMDL
MODEL      156
REMARK 921   NORMALIZED FREE ENERGY PREDICTED BY IDOCK:   -3.69 KCAL/MOL
REMARK 922        TOTAL FREE ENERGY PREDICTED BY IDOCK:   -5.78 KCAL/MOL
REMARK 923 INTER-LIGAND FREE ENERGY PREDICTED BY IDOCK:   -5.13 KCAL/MOL
REMARK 924 INTRA-LIGAND FREE ENERGY PREDICTED BY IDOCK:   -0.65 KCAL/MOL
REMARK 927      BINDING AFFINITY PREDICTED BY RF-SCORE:    0.00 PKD
ROOT
HETATM    1  O   UNL     1     -11.484  16.323  64.092  1.00  0.00    -0.821 OA 
HETATM    2  S   UNL     1     -10.346  15.811  65.106  1.00  0.00    -0.206 S  
HETATM    3  C   UNL     1     -10.612  14.032  64.722  1.00  0.00    -0.421 C  
HETATM    4  O   UNL     1     -10.893  16.088  66.474  1.00  0.00    -0.276 OA 
ENDROOT
BRANCH   3   5
HETATM    5  N   UNL     1      -9.676  13.254  65.533  1.00  0.00    -0.491 NA 
HETATM    6  H   UNL     1      -8.686  13.194  65.296  1.00  0.00     0.000 HD 
BRANCH   5   7
HETATM    7  C   UNL     1     -10.206  12.593  66.652  1.00  0.00    -0.236 A  
HETATM    8  C   UNL     1      -9.459  12.337  67.810  1.00  0.00    -0.197 A  
HETATM    9  C   UNL     1     -10.017  11.663  68.900  1.00  0.00    -0.083 A  
HETATM   10  C   UNL     1     -11.349  11.251  68.849  1.00  0.00    -0.275 A  
HETATM   11  C   UNL     1     -12.151  11.613  67.766  1.00  0.00     0.089 A  
HETATM   12  C   UNL     1     -11.578  12.292  66.683  1.00  0.00    -0.438 A  
BRANCH  10  13
HETATM   13  S   UNL     1     -12.029  10.315  70.203  1.00  0.00    -0.203 S  
HETATM   14  O   UNL     1     -11.555  10.920  71.434  1.00  0.00     0.090 OA 
HETATM   15  O   UNL     1     -13.454  10.178  69.949  1.00  0.00     0.232 OA 
BRANCH  13  16
HETATM   16  C   UNL     1     -11.314   8.678  70.143  1.00  0.00    -0.078 A  
HETATM   17  C   UNL     1     -11.680   7.734  71.102  1.00  0.00    -0.304 A  
HETATM   18  C   UNL     1     -11.179   6.427  71.022  1.00  0.00    -0.370 A  
HETATM   19  C   UNL     1     -10.352   6.028  69.960  1.00  0.00    -0.229 A  
HETATM   20  C   UNL     1     -10.432   8.328  69.121  1.00  0.00    -0.217 A  
HETATM   21  C   UNL     1      -9.945   7.015  69.045  1.00  0.00    -0.164 A  
BRANCH  19  22
HETATM   22  N   UNL     1      -9.819   4.718  69.847  1.00  0.00    -0.205 NA 
HETATM   23  H   UNL     1      -9.671   4.113  70.654  1.00  0.00     0.000 HD 
BRANCH  22  24
HETATM   24  C   UNL     1      -9.497   4.299  68.471  1.00  0.00    -0.153 C  
HETATM   25  S   UNL     1      -7.894   3.393  68.526  1.00  0.00    -0.058 S  
HETATM   26  O   UNL     1      -7.734   2.678  67.218  1.00  0.00    -0.068 OA 
HETATM   27  O   UNL     1      -8.406   2.307  69.601  1.00  0.00    -0.044 OA 
ENDBRANCH  22  24
ENDBRANCH  19  22
ENDBRANCH  13  16
ENDBRANCH  10  13
ENDBRANCH   5   7
ENDBRANCH   3   5
TORSDOF 6
ENDMDL
MODEL      157
REMARK 921   NORMALIZED FREE ENERGY PREDICTED BY IDOCK:   -3.63 KCAL/MOL
REMARK 922        TOTAL FREE ENERGY PREDICTED BY IDOCK:   -5.70 KCAL/MOL
REMARK 923 INTER-LIGAND FREE ENERGY PREDICTED BY IDOCK:   -4.95 KCAL/MOL
REMARK 924 INTRA-LIGAND FREE ENERGY PREDICTED BY IDOCK:   -0.75 KCAL/MOL
REMARK 927      BINDING AFFINITY PREDICTED BY RF-SCORE:    0.00 PKD
ROOT
HETATM    1  O   UNL     1     -12.368  13.765  66.490  1.00  0.00    -0.428 OA 
HETATM    2  S   UNL     1     -12.186  12.985  65.096  1.00  0.00    -0.482 S  
HETATM    3  C   UNL     1     -10.360  13.191  65.062  1.00  0.00    -0.330 C  
HETATM    4  O   UNL     1     -12.785  13.893  64.064  1.00  0.00    -0.665 OA 
ENDROOT
BRANCH   3   5
HETATM    5  N   UNL     1      -9.859  12.557  63.843  1.00  0.00    -0.636 NA 
HETATM    6  H   UNL     1      -9.887  13.035  62.943  1.00  0.00     0.000 HD 
BRANCH   5   7
HETATM    7  C   UNL     1      -9.339  11.259  63.972  1.00  0.00    -0.117 A  
HETATM    8  C   UNL     1      -9.143  10.637  65.212  1.00  0.00    -0.221 A  
HETATM    9  C   UNL     1      -8.608   9.348  65.302  1.00  0.00    -0.182 A  
HETATM   10  C   UNL     1      -8.280   8.655  64.136  1.00  0.00    -0.155 A  
HETATM   11  C   UNL     1      -8.591   9.197  62.890  1.00  0.00    -0.203 A  
HETATM   12  C   UNL     1      -9.130  10.488  62.817  1.00  0.00    -0.299 A  
BRANCH  10  13
HETATM   13  S   UNL     1      -7.516   7.050  64.258  1.00  0.00    -0.104 S  
HETATM   14  O   UNL     1      -7.985   6.257  63.136  1.00  0.00    -0.110 OA 
HETATM   15  O   UNL     1      -6.094   7.272  64.461  1.00  0.00    -0.037 OA 
BRANCH  13  16
HETATM   16  C   UNL     1      -8.151   6.259  65.729  1.00  0.00    -0.126 A  
HETATM   17  C   UNL     1      -9.499   5.906  65.792  1.00  0.00     0.034 A  
HETATM   18  C   UNL     1      -9.990   5.221  66.912  1.00  0.00    -0.219 A  
HETATM   19  C   UNL     1      -9.140   4.832  67.959  1.00  0.00    -0.117 A  
HETATM   20  C   UNL     1      -7.300   5.953  66.791  1.00  0.00    -0.079 A  
HETATM   21  C   UNL     1      -7.801   5.258  67.903  1.00  0.00    -0.092 A  
BRANCH  19  22
HETATM   22  N   UNL     1      -9.598   4.145  69.112  1.00  0.00    -0.181 NA 
HETATM   23  H   UNL     1     -10.558   3.811  69.207  1.00  0.00     0.000 HD 
BRANCH  22  24
HETATM   24  C   UNL     1      -8.582   3.950  70.161  1.00  0.00    -0.065 C  
HETATM   25  S   UNL     1      -8.597   2.168  70.628  1.00  0.00    -0.057 S  
HETATM   26  O   UNL     1      -7.357   1.899  71.425  1.00  0.00    -0.032 OA 
HETATM   27  O   UNL     1      -8.318   1.649  69.127  1.00  0.00    -0.047 OA 
ENDBRANCH  22  24
ENDBRANCH  19  22
ENDBRANCH  13  16
ENDBRANCH  10  13
ENDBRANCH   5   7
ENDBRANCH   3   5
TORSDOF 6
ENDMDL
MODEL      158
REMARK 921   NORMALIZED FREE ENERGY PREDICTED BY IDOCK:   -3.61 KCAL/MOL
REMARK 922        TOTAL FREE ENERGY PREDICTED BY IDOCK:   -5.68 KCAL/MOL
REMARK 923 INTER-LIGAND FREE ENERGY PREDICTED BY IDOCK:   -5.00 KCAL/MOL
REMARK 924 INTRA-LIGAND FREE ENERGY PREDICTED BY IDOCK:   -0.68 KCAL/MOL
REMARK 927      BINDING AFFINITY PREDICTED BY RF-SCORE:    0.00 PKD
ROOT
HETATM    1  O   UNL     1     -12.011  13.875  62.903  1.00  0.00     0.062 OA 
HETATM    2  S   UNL     1     -12.573  12.695  63.839  1.00  0.00    -0.299 S  
HETATM    3  C   UNL     1     -11.777  13.342  65.365  1.00  0.00    -0.343 C  
HETATM    4  O   UNL     1     -11.833  11.468  63.401  1.00  0.00    -0.346 OA 
ENDROOT
BRANCH   3   5
HETATM    5  N   UNL     1     -12.111  12.436  66.464  1.00  0.00    -0.598 NA 
HETATM    6  H   UNL     1     -13.029  12.452  66.908  1.00  0.00     0.000 HD 
BRANCH   5   7
HETATM    7  C   UNL     1     -11.110  11.544  66.877  1.00  0.00    -0.307 A  
HETATM    8  C   UNL     1      -9.825  11.528  66.316  1.00  0.00    -0.245 A  
HETATM    9  C   UNL     1      -8.857  10.614  66.744  1.00  0.00    -0.146 A  
HETATM   10  C   UNL     1      -9.164   9.710  67.761  1.00  0.00    -0.124 A  
HETATM   11  C   UNL     1     -10.386   9.795  68.426  1.00  0.00    -0.230 A  
HETATM   12  C   UNL     1     -11.345  10.718  67.989  1.00  0.00    -0.378 A  
BRANCH  10  13
HETATM   13  S   UNL     1      -7.958   8.489  68.240  1.00  0.00    -0.115 S  
HETATM   14  O   UNL     1      -6.726   8.792  67.533  1.00  0.00    -0.065 OA 
HETATM   15  O   UNL     1      -7.978   8.421  69.692  1.00  0.00    -0.101 OA 
BRANCH  13  16
HETATM   16  C   UNL     1      -8.513   6.908  67.621  1.00  0.00    -0.122 A  
HETATM   17  C   UNL     1      -7.685   6.173  66.772  1.00  0.00    -0.103 A  
HETATM   18  C   UNL     1      -8.081   4.901  66.339  1.00  0.00    -0.107 A  
HETATM   19  C   UNL     1      -9.279   4.319  66.784  1.00  0.00    -0.146 A  
HETATM   20  C   UNL     1      -9.744   6.386  68.016  1.00  0.00    -0.122 A  
HETATM   21  C   UNL     1     -10.126   5.106  67.584  1.00  0.00    -0.204 A  
BRANCH  19  22
HETATM   22  N   UNL     1      -9.718   3.038  66.364  1.00  0.00    -0.397 NA 
HETATM   23  H   UNL     1     -10.472   2.535  66.832  1.00  0.00     0.000 HD 
BRANCH  22  24
HETATM   24  C   UNL     1      -9.002   2.490  65.199  1.00  0.00    -0.133 C  
HETATM   25  S   UNL     1     -10.214   2.343  63.819  1.00  0.00    -0.091 S  
HETATM   26  O   UNL     1      -9.436   2.119  62.557  1.00  0.00    -0.090 OA 
HETATM   27  O   UNL     1     -10.625   3.901  63.853  1.00  0.00    -0.249 OA 
ENDBRANCH  22  24
ENDBRANCH  19  22
ENDBRANCH  13  16
ENDBRANCH  10  13
ENDBRANCH   5   7
ENDBRANCH   3   5
TORSDOF 6
ENDMDL
MODEL      159
REMARK 921   NORMALIZED FREE ENERGY PREDICTED BY IDOCK:   -3.61 KCAL/MOL
REMARK 922        TOTAL FREE ENERGY PREDICTED BY IDOCK:   -5.68 KCAL/MOL
REMARK 923 INTER-LIGAND FREE ENERGY PREDICTED BY IDOCK:   -5.08 KCAL/MOL
REMARK 924 INTRA-LIGAND FREE ENERGY PREDICTED BY IDOCK:   -0.59 KCAL/MOL
REMARK 927      BINDING AFFINITY PREDICTED BY RF-SCORE:    0.00 PKD
ROOT
HETATM    1  O   UNL     1      -5.366   4.956  67.954  1.00  0.00    -0.010 OA 
HETATM    2  S   UNL     1      -5.652   5.796  66.614  1.00  0.00    -0.013 S  
HETATM    3  C   UNL     1      -7.010   6.785  67.360  1.00  0.00    -0.082 C  
HETATM    4  O   UNL     1      -6.253   4.808  65.659  1.00  0.00    -0.032 OA 
ENDROOT
BRANCH   3   5
HETATM    5  N   UNL     1      -7.516   7.697  66.335  1.00  0.00    -0.082 NA 
HETATM    6  H   UNL     1      -7.218   7.625  65.362  1.00  0.00     0.000 HD 
BRANCH   5   7
HETATM    7  C   UNL     1      -8.431   8.676  66.753  1.00  0.00    -0.115 A  
HETATM    8  C   UNL     1      -9.088   9.536  65.862  1.00  0.00    -0.230 A  
HETATM    9  C   UNL     1      -9.982  10.509  66.318  1.00  0.00    -0.276 A  
HETATM   10  C   UNL     1     -10.245  10.619  67.684  1.00  0.00    -0.194 A  
HETATM   11  C   UNL     1      -9.710   9.690  68.575  1.00  0.00    -0.161 A  
HETATM   12  C   UNL     1      -8.819   8.718  68.103  1.00  0.00    -0.141 A  
BRANCH  10  13
HETATM   13  S   UNL     1     -11.316  11.918  68.267  1.00  0.00    -0.304 S  
HETATM   14  O   UNL     1     -12.387  12.069  67.298  1.00  0.00    -0.322 OA 
HETATM   15  O   UNL     1     -11.616  11.625  69.659  1.00  0.00    -0.290 OA 
BRANCH  13  16
HETATM   16  C   UNL     1     -10.387  13.444  68.228  1.00  0.00    -0.249 A  
HETATM   17  C   UNL     1     -10.554  14.376  69.253  1.00  0.00    -0.190 A  
HETATM   18  C   UNL     1      -9.778  15.542  69.268  1.00  0.00    -0.272 A  
HETATM   19  C   UNL     1      -8.792  15.776  68.297  1.00  0.00    -0.180 A  
HETATM   20  C   UNL     1      -9.469  13.688  67.207  1.00  0.00    -0.230 A  
HETATM   21  C   UNL     1      -8.691  14.855  67.239  1.00  0.00    -0.224 A  
BRANCH  19  22
HETATM   22  N   UNL     1      -7.992  16.946  68.273  1.00  0.00    -0.202 NA 
HETATM   23  H   UNL     1      -7.387  17.214  69.050  1.00  0.00     0.000 HD 
BRANCH  22  24
HETATM   24  C   UNL     1      -8.102  17.745  67.040  1.00  0.00    -0.219 C  
HETATM   25  S   UNL     1      -9.696  18.666  67.113  1.00  0.00    -0.315 S  
HETATM   26  O   UNL     1      -9.656  19.724  66.052  1.00  0.00    -0.392 OA 
HETATM   27  O   UNL     1      -9.354  19.387  68.514  1.00  0.00    -0.356 OA 
ENDBRANCH  22  24
ENDBRANCH  19  22
ENDBRANCH  13  16
ENDBRANCH  10  13
ENDBRANCH   5   7
ENDBRANCH   3   5
TORSDOF 6
ENDMDL
MODEL      160
REMARK 921   NORMALIZED FREE ENERGY PREDICTED BY IDOCK:   -3.59 KCAL/MOL
REMARK 922        TOTAL FREE ENERGY PREDICTED BY IDOCK:   -5.65 KCAL/MOL
REMARK 923 INTER-LIGAND FREE ENERGY PREDICTED BY IDOCK:   -4.87 KCAL/MOL
REMARK 924 INTRA-LIGAND FREE ENERGY PREDICTED BY IDOCK:   -0.78 KCAL/MOL
REMARK 927      BINDING AFFINITY PREDICTED BY RF-SCORE:    0.00 PKD
ROOT
HETATM    1  O   UNL     1     -12.573  13.949  63.447  1.00  0.00    -0.853 OA 
HETATM    2  S   UNL     1     -12.636  12.712  64.471  1.00  0.00    -0.346 S  
HETATM    3  C   UNL     1     -11.537  13.507  65.712  1.00  0.00    -0.330 C  
HETATM    4  O   UNL     1     -11.872  11.612  63.796  1.00  0.00    -0.396 OA 
ENDROOT
BRANCH   3   5
HETATM    5  N   UNL     1     -11.381  12.579  66.833  1.00  0.00    -0.306 NA 
HETATM    6  H   UNL     1     -11.914  12.690  67.695  1.00  0.00     0.000 HD 
BRANCH   5   7
HETATM    7  C   UNL     1     -10.464  11.530  66.664  1.00  0.00    -0.238 A  
HETATM    8  C   UNL     1     -10.816  10.181  66.805  1.00  0.00    -0.129 A  
HETATM    9  C   UNL     1      -9.871   9.164  66.644  1.00  0.00    -0.307 A  
HETATM   10  C   UNL     1      -8.554   9.490  66.318  1.00  0.00    -0.130 A  
HETATM   11  C   UNL     1      -8.211  10.813  66.041  1.00  0.00    -0.164 A  
HETATM   12  C   UNL     1      -9.170  11.821  66.202  1.00  0.00    -0.218 A  
BRANCH  10  13
HETATM   13  S   UNL     1      -7.334   8.197  66.203  1.00  0.00    -0.071 S  
HETATM   14  O   UNL     1      -7.788   7.257  65.193  1.00  0.00    -0.108 OA 
HETATM   15  O   UNL     1      -6.040   8.846  66.076  1.00  0.00    -0.051 OA 
BRANCH  13  16
HETATM   16  C   UNL     1      -7.339   7.307  67.752  1.00  0.00    -0.093 A  
HETATM   17  C   UNL     1      -6.518   7.738  68.794  1.00  0.00    -0.044 A  
HETATM   18  C   UNL     1      -6.568   7.090  70.035  1.00  0.00    -0.044 A  
HETATM   19  C   UNL     1      -7.469   6.041  70.275  1.00  0.00    -0.090 A  
HETATM   20  C   UNL     1      -8.188   6.217  67.939  1.00  0.00    -0.117 A  
HETATM   21  C   UNL     1      -8.236   5.582  69.190  1.00  0.00    -0.095 A  
BRANCH  19  22
HETATM   22  N   UNL     1      -7.545   5.355  71.513  1.00  0.00    -0.100 NA 
HETATM   23  H   UNL     1      -7.654   4.343  71.576  1.00  0.00     0.000 HD 
BRANCH  22  24
HETATM   24  C   UNL     1      -7.453   6.218  72.704  1.00  0.00    -0.099 C  
HETATM   25  S   UNL     1      -9.027   7.169  72.826  1.00  0.00    -0.136 S  
HETATM   26  O   UNL     1      -9.083   7.776  74.195  1.00  0.00    -0.240 OA 
HETATM   27  O   UNL     1      -9.959   5.854  72.852  1.00  0.00    -0.170 OA 
ENDBRANCH  22  24
ENDBRANCH  19  22
ENDBRANCH  13  16
ENDBRANCH  10  13
ENDBRANCH   5   7
ENDBRANCH   3   5
TORSDOF 6
ENDMDL
MODEL      161
REMARK 921   NORMALIZED FREE ENERGY PREDICTED BY IDOCK:   -3.57 KCAL/MOL
REMARK 922        TOTAL FREE ENERGY PREDICTED BY IDOCK:   -5.62 KCAL/MOL
REMARK 923 INTER-LIGAND FREE ENERGY PREDICTED BY IDOCK:   -5.40 KCAL/MOL
REMARK 924 INTRA-LIGAND FREE ENERGY PREDICTED BY IDOCK:   -0.22 KCAL/MOL
REMARK 927      BINDING AFFINITY PREDICTED BY RF-SCORE:    0.00 PKD
ROOT
HETATM    1  O   UNL     1      -5.371  10.082  74.559  1.00  0.00    -0.286 OA 
HETATM    2  S   UNL     1      -6.136   9.197  73.456  1.00  0.00     0.242 S  
HETATM    3  C   UNL     1      -6.197   7.691  74.509  1.00  0.00    -0.089 C  
HETATM    4  O   UNL     1      -5.127   8.977  72.370  1.00  0.00    -0.047 OA 
ENDROOT
BRANCH   3   5
HETATM    5  N   UNL     1      -6.869   6.639  73.747  1.00  0.00    -0.076 NA 
HETATM    6  H   UNL     1      -6.481   5.698  73.681  1.00  0.00     0.000 HD 
BRANCH   5   7
HETATM    7  C   UNL     1      -8.071   6.986  73.112  1.00  0.00    -0.101 A  
HETATM    8  C   UNL     1      -9.226   7.354  73.816  1.00  0.00    -0.305 A  
HETATM    9  C   UNL     1     -10.411   7.679  73.149  1.00  0.00    -0.411 A  
HETATM   10  C   UNL     1     -10.445   7.657  71.754  1.00  0.00    -0.205 A  
HETATM   11  C   UNL     1      -9.277   7.427  71.030  1.00  0.00    -0.153 A  
HETATM   12  C   UNL     1      -8.096   7.107  71.713  1.00  0.00    -0.101 A  
BRANCH  10  13
HETATM   13  S   UNL     1     -11.981   7.985  70.912  1.00  0.00    -0.121 S  
HETATM   14  O   UNL     1     -11.884   7.402  69.586  1.00  0.00     0.227 OA 
HETATM   15  O   UNL     1     -13.050   7.592  71.814  1.00  0.00    -0.338 OA 
BRANCH  13  16
HETATM   16  C   UNL     1     -12.102   9.751  70.674  1.00  0.00    -0.230 A  
HETATM   17  C   UNL     1     -11.688  10.312  69.465  1.00  0.00    -0.193 A  
HETATM   18  C   UNL     1     -11.845  11.686  69.243  1.00  0.00    -0.396 A  
HETATM   19  C   UNL     1     -12.462  12.513  70.195  1.00  0.00    -0.022 A  
HETATM   20  C   UNL     1     -12.647  10.564  71.668  1.00  0.00    -0.498 A  
HETATM   21  C   UNL     1     -12.809  11.937  71.430  1.00  0.00    -0.411 A  
BRANCH  19  22
HETATM   22  N   UNL     1     -12.634  13.908  70.011  1.00  0.00    -0.295 NA 
HETATM   23  H   UNL     1     -13.240  14.298  69.289  1.00  0.00     0.000 HD 
BRANCH  22  24
HETATM   24  C   UNL     1     -11.868  14.754  70.945  1.00  0.00    -0.322 C  
HETATM   25  S   UNL     1     -13.073  15.801  71.865  1.00  0.00    -0.333 S  
HETATM   26  O   UNL     1     -12.351  16.399  73.034  1.00  0.00    -0.476 OA 
HETATM   27  O   UNL     1     -13.921  14.548  72.421  1.00  0.00    -0.458 OA 
ENDBRANCH  22  24
ENDBRANCH  19  22
ENDBRANCH  13  16
ENDBRANCH  10  13
ENDBRANCH   5   7
ENDBRANCH   3   5
TORSDOF 6
ENDMDL
MODEL      162
REMARK 921   NORMALIZED FREE ENERGY PREDICTED BY IDOCK:   -3.55 KCAL/MOL
REMARK 922        TOTAL FREE ENERGY PREDICTED BY IDOCK:   -5.59 KCAL/MOL
REMARK 923 INTER-LIGAND FREE ENERGY PREDICTED BY IDOCK:   -5.03 KCAL/MOL
REMARK 924 INTRA-LIGAND FREE ENERGY PREDICTED BY IDOCK:   -0.56 KCAL/MOL
REMARK 927      BINDING AFFINITY PREDICTED BY RF-SCORE:    0.00 PKD
ROOT
HETATM    1  O   UNL     1      -7.926   5.821  65.689  1.00  0.00    -0.106 OA 
HETATM    2  S   UNL     1      -7.924   6.604  67.093  1.00  0.00    -0.110 S  
HETATM    3  C   UNL     1      -6.111   6.911  67.075  1.00  0.00    -0.036 C  
HETATM    4  O   UNL     1      -8.217   5.554  68.122  1.00  0.00    -0.096 OA 
ENDROOT
BRANCH   3   5
HETATM    5  N   UNL     1      -5.768   7.644  68.293  1.00  0.00    -0.027 NA 
HETATM    6  H   UNL     1      -5.402   7.169  69.117  1.00  0.00     0.000 HD 
BRANCH   5   7
HETATM    7  C   UNL     1      -5.967   9.034  68.272  1.00  0.00    -0.042 A  
HETATM    8  C   UNL     1      -5.798   9.811  67.118  1.00  0.00    -0.051 A  
HETATM    9  C   UNL     1      -5.991  11.195  67.140  1.00  0.00    -0.073 A  
HETATM   10  C   UNL     1      -6.377  11.819  68.327  1.00  0.00    -0.050 A  
HETATM   11  C   UNL     1      -6.682  11.054  69.451  1.00  0.00    -0.112 A  
HETATM   12  C   UNL     1      -6.488   9.667  69.413  1.00  0.00    -0.044 A  
BRANCH  10  13
HETATM   13  S   UNL     1      -6.535  13.593  68.372  1.00  0.00    -0.109 S  
HETATM   14  O   UNL     1      -6.696  13.982  69.761  1.00  0.00    -0.115 OA 
HETATM   15  O   UNL     1      -5.445  14.134  67.576  1.00  0.00    -0.338 OA 
BRANCH  13  16
HETATM   16  C   UNL     1      -8.062  14.023  67.551  1.00  0.00    -0.186 A  
HETATM   17  C   UNL     1      -8.184  15.268  66.934  1.00  0.00    -0.263 A  
HETATM   18  C   UNL     1      -9.351  15.586  66.227  1.00  0.00    -0.355 A  
HETATM   19  C   UNL     1     -10.391  14.654  66.080  1.00  0.00    -0.305 A  
HETATM   20  C   UNL     1      -9.112  13.108  67.486  1.00  0.00    -0.205 A  
HETATM   21  C   UNL     1     -10.273  13.434  66.767  1.00  0.00    -0.259 A  
BRANCH  19  22
HETATM   22  N   UNL     1     -11.590  14.940  65.379  1.00  0.00    -0.317 NA 
HETATM   23  H   UNL     1     -11.801  15.865  65.004  1.00  0.00     0.000 HD 
BRANCH  22  24
HETATM   24  C   UNL     1     -12.509  13.797  65.236  1.00  0.00    -0.480 C  
HETATM   25  S   UNL     1     -12.379  13.192  63.500  1.00  0.00    -0.282 S  
HETATM   26  O   UNL     1     -13.034  11.845  63.442  1.00  0.00    -0.730 OA 
HETATM   27  O   UNL     1     -10.789  12.943  63.579  1.00  0.00    -0.340 OA 
ENDBRANCH  22  24
ENDBRANCH  19  22
ENDBRANCH  13  16
ENDBRANCH  10  13
ENDBRANCH   5   7
ENDBRANCH   3   5
TORSDOF 6
ENDMDL
MODEL      163
REMARK 921   NORMALIZED FREE ENERGY PREDICTED BY IDOCK:   -3.51 KCAL/MOL
REMARK 922        TOTAL FREE ENERGY PREDICTED BY IDOCK:   -5.54 KCAL/MOL
REMARK 923 INTER-LIGAND FREE ENERGY PREDICTED BY IDOCK:   -4.72 KCAL/MOL
REMARK 924 INTRA-LIGAND FREE ENERGY PREDICTED BY IDOCK:   -0.82 KCAL/MOL
REMARK 927      BINDING AFFINITY PREDICTED BY RF-SCORE:    0.00 PKD
ROOT
HETATM    1  O   UNL     1     -11.549  15.598  71.949  1.00  0.00    -0.401 OA 
HETATM    2  S   UNL     1     -11.643  15.801  70.357  1.00  0.00    -0.381 S  
HETATM    3  C   UNL     1     -12.202  14.080  70.032  1.00  0.00    -0.352 C  
HETATM    4  O   UNL     1     -10.221  15.933  69.900  1.00  0.00    -0.273 OA 
ENDROOT
BRANCH   3   5
HETATM    5  N   UNL     1     -12.383  13.933  68.588  1.00  0.00    -0.454 NA 
HETATM    6  H   UNL     1     -13.146  14.397  68.096  1.00  0.00     0.000 HD 
BRANCH   5   7
HETATM    7  C   UNL     1     -11.458  13.122  67.913  1.00  0.00    -0.308 A  
HETATM    8  C   UNL     1     -11.662  12.659  66.606  1.00  0.00    -0.464 A  
HETATM    9  C   UNL     1     -10.724  11.840  65.971  1.00  0.00    -0.324 A  
HETATM   10  C   UNL     1      -9.550  11.489  66.638  1.00  0.00    -0.197 A  
HETATM   11  C   UNL     1      -9.262  12.046  67.883  1.00  0.00    -0.190 A  
HETATM   12  C   UNL     1     -10.210  12.868  68.506  1.00  0.00    -0.210 A  
BRANCH  10  13
HETATM   13  S   UNL     1      -8.400  10.374  65.859  1.00  0.00    -0.156 S  
HETATM   14  O   UNL     1      -9.104   9.704  64.780  1.00  0.00    -0.211 OA 
HETATM   15  O   UNL     1      -7.190  11.133  65.591  1.00  0.00     0.072 OA 
BRANCH  13  16
HETATM   16  C   UNL     1      -7.985   9.106  67.047  1.00  0.00    -0.102 A  
HETATM   17  C   UNL     1      -8.978   8.236  67.499  1.00  0.00    -0.141 A  
HETATM   18  C   UNL     1      -8.648   7.194  68.376  1.00  0.00    -0.123 A  
HETATM   19  C   UNL     1      -7.320   6.970  68.775  1.00  0.00    -0.093 A  
HETATM   20  C   UNL     1      -6.671   8.953  67.490  1.00  0.00    -0.066 A  
HETATM   21  C   UNL     1      -6.351   7.900  68.360  1.00  0.00    -0.049 A  
BRANCH  19  22
HETATM   22  N   UNL     1      -6.947   5.933  69.666  1.00  0.00    -0.064 NA 
HETATM   23  H   UNL     1      -7.349   4.997  69.620  1.00  0.00     0.000 HD 
BRANCH  22  24
HETATM   24  C   UNL     1      -5.932   6.312  70.665  1.00  0.00    -0.026 C  
HETATM   25  S   UNL     1      -6.803   7.152  72.054  1.00  0.00    -0.056 S  
HETATM   26  O   UNL     1      -5.847   7.228  73.206  1.00  0.00    -0.049 OA 
HETATM   27  O   UNL     1      -7.794   5.913  72.341  1.00  0.00    -0.101 OA 
ENDBRANCH  22  24
ENDBRANCH  19  22
ENDBRANCH  13  16
ENDBRANCH  10  13
ENDBRANCH   5   7
ENDBRANCH   3   5
TORSDOF 6
ENDMDL
MODEL      164
REMARK 921   NORMALIZED FREE ENERGY PREDICTED BY IDOCK:   -3.50 KCAL/MOL
REMARK 922        TOTAL FREE ENERGY PREDICTED BY IDOCK:   -5.52 KCAL/MOL
REMARK 923 INTER-LIGAND FREE ENERGY PREDICTED BY IDOCK:   -4.81 KCAL/MOL
REMARK 924 INTRA-LIGAND FREE ENERGY PREDICTED BY IDOCK:   -0.71 KCAL/MOL
REMARK 927      BINDING AFFINITY PREDICTED BY RF-SCORE:    0.00 PKD
ROOT
HETATM    1  O   UNL     1      -9.308   4.378  64.012  1.00  0.00    -0.153 OA 
HETATM    2  S   UNL     1      -9.218   4.657  65.593  1.00  0.00    -0.158 S  
HETATM    3  C   UNL     1      -7.387   4.827  65.597  1.00  0.00    -0.077 C  
HETATM    4  O   UNL     1      -9.574   3.351  66.237  1.00  0.00    -0.150 OA 
ENDROOT
BRANCH   3   5
HETATM    5  N   UNL     1      -6.964   5.097  66.971  1.00  0.00    -0.063 NA 
HETATM    6  H   UNL     1      -6.719   4.342  67.612  1.00  0.00     0.000 HD 
BRANCH   5   7
HETATM    7  C   UNL     1      -6.913   6.443  67.365  1.00  0.00    -0.075 A  
HETATM    8  C   UNL     1      -6.368   7.452  66.560  1.00  0.00    -0.045 A  
HETATM    9  C   UNL     1      -6.322   8.781  66.993  1.00  0.00    -0.060 A  
HETATM   10  C   UNL     1      -6.842   9.118  68.242  1.00  0.00    -0.065 A  
HETATM   11  C   UNL     1      -7.510   8.159  69.003  1.00  0.00    -0.088 A  
HETATM   12  C   UNL     1      -7.552   6.832  68.554  1.00  0.00    -0.104 A  
BRANCH  10  13
HETATM   13  S   UNL     1      -6.699  10.795  68.827  1.00  0.00    -0.065 S  
HETATM   14  O   UNL     1      -7.013  10.792  70.244  1.00  0.00    -0.233 OA 
HETATM   15  O   UNL     1      -5.420  11.299  68.356  1.00  0.00    -0.043 OA 
BRANCH  13  16
HETATM   16  C   UNL     1      -7.979  11.756  68.034  1.00  0.00    -0.141 A  
HETATM   17  C   UNL     1      -7.758  13.108  67.767  1.00  0.00    -0.153 A  
HETATM   18  C   UNL     1      -8.727  13.852  67.082  1.00  0.00    -0.233 A  
HETATM   19  C   UNL     1      -9.906  13.253  66.607  1.00  0.00    -0.276 A  
HETATM   20  C   UNL     1      -9.175  11.156  67.642  1.00  0.00    -0.151 A  
HETATM   21  C   UNL     1     -10.134  11.909  66.948  1.00  0.00    -0.229 A  
BRANCH  19  22
HETATM   22  N   UNL     1     -10.913  13.973  65.917  1.00  0.00    -0.284 NA 
HETATM   23  H   UNL     1     -10.868  14.982  65.774  1.00  0.00     0.000 HD 
BRANCH  22  24
HETATM   24  C   UNL     1     -12.031  13.151  65.422  1.00  0.00    -0.406 C  
HETATM   25  S   UNL     1     -11.931  13.122  63.583  1.00  0.00    -0.479 S  
HETATM   26  O   UNL     1     -12.835  12.030  63.098  1.00  0.00    -0.661 OA 
HETATM   27  O   UNL     1     -10.428  12.541  63.554  1.00  0.00    -0.420 OA 
ENDBRANCH  22  24
ENDBRANCH  19  22
ENDBRANCH  13  16
ENDBRANCH  10  13
ENDBRANCH   5   7
ENDBRANCH   3   5
TORSDOF 6
ENDMDL
MODEL      165
REMARK 921   NORMALIZED FREE ENERGY PREDICTED BY IDOCK:   -3.46 KCAL/MOL
REMARK 922        TOTAL FREE ENERGY PREDICTED BY IDOCK:   -5.47 KCAL/MOL
REMARK 923 INTER-LIGAND FREE ENERGY PREDICTED BY IDOCK:   -4.69 KCAL/MOL
REMARK 924 INTRA-LIGAND FREE ENERGY PREDICTED BY IDOCK:   -0.78 KCAL/MOL
REMARK 927      BINDING AFFINITY PREDICTED BY RF-SCORE:    0.00 PKD
ROOT
HETATM    1  O   UNL     1     -12.484  14.888  63.912  1.00  0.00    -0.806 OA 
HETATM    2  S   UNL     1     -12.427  13.296  64.129  1.00  0.00    -0.209 S  
HETATM    3  C   UNL     1     -12.228  13.414  65.953  1.00  0.00    -0.450 C  
HETATM    4  O   UNL     1     -11.117  12.873  63.535  1.00  0.00    -0.398 OA 
ENDROOT
BRANCH   3   5
HETATM    5  N   UNL     1     -12.136  12.054  66.483  1.00  0.00    -0.541 NA 
HETATM    6  H   UNL     1     -12.958  11.456  66.563  1.00  0.00     0.000 HD 
BRANCH   5   7
HETATM    7  C   UNL     1     -10.863  11.612  66.875  1.00  0.00    -0.278 A  
HETATM    8  C   UNL     1     -10.142  10.642  66.167  1.00  0.00    -0.306 A  
HETATM    9  C   UNL     1      -8.882  10.216  66.597  1.00  0.00    -0.145 A  
HETATM   10  C   UNL     1      -8.318  10.776  67.743  1.00  0.00    -0.113 A  
HETATM   11  C   UNL     1      -8.954  11.837  68.387  1.00  0.00    -0.168 A  
HETATM   12  C   UNL     1     -10.214  12.255  67.942  1.00  0.00    -0.202 A  
BRANCH  10  13
HETATM   13  S   UNL     1      -6.753  10.166  68.337  1.00  0.00    -0.054 S  
HETATM   14  O   UNL     1      -6.030   9.634  67.196  1.00  0.00    -0.051 OA 
HETATM   15  O   UNL     1      -6.171  11.219  69.153  1.00  0.00    -0.048 OA 
BRANCH  13  16
HETATM   16  C   UNL     1      -7.085   8.777  69.410  1.00  0.00    -0.057 A  
HETATM   17  C   UNL     1      -8.367   8.228  69.446  1.00  0.00    -0.122 A  
HETATM   18  C   UNL     1      -8.619   7.094  70.230  1.00  0.00    -0.143 A  
HETATM   19  C   UNL     1      -7.592   6.461  70.949  1.00  0.00    -0.093 A  
HETATM   20  C   UNL     1      -6.064   8.214  70.175  1.00  0.00    -0.032 A  
HETATM   21  C   UNL     1      -6.326   7.073  70.949  1.00  0.00    -0.040 A  
BRANCH  19  22
HETATM   22  N   UNL     1      -7.807   5.318  71.759  1.00  0.00    -0.108 NA 
HETATM   23  H   UNL     1      -7.204   5.082  72.547  1.00  0.00     0.000 HD 
BRANCH  22  24
HETATM   24  C   UNL     1      -8.970   4.499  71.375  1.00  0.00    -0.127 C  
HETATM   25  S   UNL     1      -8.370   3.176  70.241  1.00  0.00    -0.049 S  
HETATM   26  O   UNL     1      -9.459   2.153  70.125  1.00  0.00    -0.119 OA 
HETATM   27  O   UNL     1      -7.289   2.602  71.289  1.00  0.00    -0.032 OA 
ENDBRANCH  22  24
ENDBRANCH  19  22
ENDBRANCH  13  16
ENDBRANCH  10  13
ENDBRANCH   5   7
ENDBRANCH   3   5
TORSDOF 6
ENDMDL
MODEL      166
REMARK 921   NORMALIZED FREE ENERGY PREDICTED BY IDOCK:   -3.46 KCAL/MOL
REMARK 922        TOTAL FREE ENERGY PREDICTED BY IDOCK:   -5.47 KCAL/MOL
REMARK 923 INTER-LIGAND FREE ENERGY PREDICTED BY IDOCK:   -4.75 KCAL/MOL
REMARK 924 INTRA-LIGAND FREE ENERGY PREDICTED BY IDOCK:   -0.72 KCAL/MOL
REMARK 927      BINDING AFFINITY PREDICTED BY RF-SCORE:    0.00 PKD
ROOT
HETATM    1  O   UNL     1     -10.034   2.013  63.855  1.00  0.00    -0.133 OA 
HETATM    2  S   UNL     1     -10.349   3.540  63.463  1.00  0.00    -0.250 S  
HETATM    3  C   UNL     1      -8.723   4.169  64.047  1.00  0.00    -0.118 C  
HETATM    4  O   UNL     1     -11.404   3.978  64.434  1.00  0.00    -0.293 OA 
ENDROOT
BRANCH   3   5
HETATM    5  N   UNL     1      -8.694   5.614  63.820  1.00  0.00    -0.342 NA 
HETATM    6  H   UNL     1      -8.883   6.014  62.901  1.00  0.00     0.000 HD 
BRANCH   5   7
HETATM    7  C   UNL     1      -8.393   6.423  64.927  1.00  0.00    -0.061 A  
HETATM    8  C   UNL     1      -8.836   6.133  66.225  1.00  0.00    -0.150 A  
HETATM    9  C   UNL     1      -8.528   6.971  67.301  1.00  0.00    -0.121 A  
HETATM   10  C   UNL     1      -7.751   8.109  67.089  1.00  0.00    -0.097 A  
HETATM   11  C   UNL     1      -7.186   8.346  65.837  1.00  0.00    -0.072 A  
HETATM   12  C   UNL     1      -7.500   7.495  64.769  1.00  0.00    -0.091 A  
BRANCH  10  13
HETATM   13  S   UNL     1      -7.437   9.220  68.446  1.00  0.00    -0.078 S  
HETATM   14  O   UNL     1      -7.449   8.434  69.667  1.00  0.00    -0.070 OA 
HETATM   15  O   UNL     1      -6.269  10.007  68.087  1.00  0.00    -0.053 OA 
BRANCH  13  16
HETATM   16  C   UNL     1      -8.824  10.341  68.560  1.00  0.00    -0.127 A  
HETATM   17  C   UNL     1     -10.088   9.840  68.873  1.00  0.00    -0.194 A  
HETATM   18  C   UNL     1     -11.167  10.719  69.035  1.00  0.00    -0.322 A  
HETATM   19  C   UNL     1     -10.995  12.110  68.939  1.00  0.00    -0.224 A  
HETATM   20  C   UNL     1      -8.642  11.712  68.383  1.00  0.00    -0.156 A  
HETATM   21  C   UNL     1      -9.728  12.584  68.557  1.00  0.00    -0.133 A  
BRANCH  19  22
HETATM   22  N   UNL     1     -12.062  13.031  69.089  1.00  0.00    -0.245 NA 
HETATM   23  H   UNL     1     -13.005  12.841  68.748  1.00  0.00     0.000 HD 
BRANCH  22  24
HETATM   24  C   UNL     1     -11.704  14.285  69.775  1.00  0.00    -0.309 C  
HETATM   25  S   UNL     1     -13.160  14.810  70.774  1.00  0.00    -0.290 S  
HETATM   26  O   UNL     1     -12.697  15.871  71.725  1.00  0.00    -0.447 OA 
HETATM   27  O   UNL     1     -13.239  13.430  71.604  1.00  0.00    -0.375 OA 
ENDBRANCH  22  24
ENDBRANCH  19  22
ENDBRANCH  13  16
ENDBRANCH  10  13
ENDBRANCH   5   7
ENDBRANCH   3   5
TORSDOF 6
ENDMDL
MODEL      167
REMARK 921   NORMALIZED FREE ENERGY PREDICTED BY IDOCK:   -3.42 KCAL/MOL
REMARK 922        TOTAL FREE ENERGY PREDICTED BY IDOCK:   -5.42 KCAL/MOL
REMARK 923 INTER-LIGAND FREE ENERGY PREDICTED BY IDOCK:   -4.67 KCAL/MOL
REMARK 924 INTRA-LIGAND FREE ENERGY PREDICTED BY IDOCK:   -0.74 KCAL/MOL
REMARK 927      BINDING AFFINITY PREDICTED BY RF-SCORE:    0.00 PKD
ROOT
HETATM    1  O   UNL     1      -6.529   2.548  62.734  1.00  0.00    -0.016 OA 
HETATM    2  S   UNL     1      -7.952   2.984  63.344  1.00  0.00    -0.074 S  
HETATM    3  C   UNL     1      -7.574   4.783  63.297  1.00  0.00    -0.060 C  
HETATM    4  O   UNL     1      -7.916   2.529  64.772  1.00  0.00    -0.079 OA 
ENDROOT
BRANCH   3   5
HETATM    5  N   UNL     1      -8.736   5.499  63.822  1.00  0.00    -0.342 NA 
HETATM    6  H   UNL     1      -9.646   5.447  63.364  1.00  0.00     0.000 HD 
BRANCH   5   7
HETATM    7  C   UNL     1      -8.539   6.260  64.984  1.00  0.00     0.018 A  
HETATM    8  C   UNL     1      -9.215   6.006  66.185  1.00  0.00    -0.154 A  
HETATM    9  C   UNL     1      -9.003   6.796  67.319  1.00  0.00    -0.117 A  
HETATM   10  C   UNL     1      -8.088   7.847  67.266  1.00  0.00    -0.118 A  
HETATM   11  C   UNL     1      -7.306   8.036  66.128  1.00  0.00    -0.074 A  
HETATM   12  C   UNL     1      -7.527   7.234  65.001  1.00  0.00    -0.089 A  
BRANCH  10  13
HETATM   13  S   UNL     1      -7.888   8.906  68.685  1.00  0.00    -0.103 S  
HETATM   14  O   UNL     1      -8.573   8.276  69.800  1.00  0.00    -0.126 OA 
HETATM   15  O   UNL     1      -6.474   9.229  68.776  1.00  0.00    -0.048 OA 
BRANCH  13  16
HETATM   16  C   UNL     1      -8.766  10.427  68.355  1.00  0.00    -0.129 A  
HETATM   17  C   UNL     1      -8.118  11.460  67.677  1.00  0.00    -0.124 A  
HETATM   18  C   UNL     1      -8.820  12.628  67.351  1.00  0.00    -0.189 A  
HETATM   19  C   UNL     1     -10.185  12.766  67.647  1.00  0.00    -0.219 A  
HETATM   20  C   UNL     1     -10.101  10.569  68.731  1.00  0.00    -0.202 A  
HETATM   21  C   UNL     1     -10.796  11.740  68.390  1.00  0.00    -0.260 A  
BRANCH  19  22
HETATM   22  N   UNL     1     -10.928  13.934  67.341  1.00  0.00    -0.284 NA 
HETATM   23  H   UNL     1     -10.696  14.849  67.726  1.00  0.00     0.000 HD 
BRANCH  22  24
HETATM   24  C   UNL     1     -12.061  13.723  66.423  1.00  0.00    -0.444 C  
HETATM   25  S   UNL     1     -11.827  14.847  64.982  1.00  0.00    -0.251 S  
HETATM   26  O   UNL     1     -12.767  14.400  63.903  1.00  0.00    -0.771 OA 
HETATM   27  O   UNL     1     -10.370  14.266  64.612  1.00  0.00    -0.417 OA 
ENDBRANCH  22  24
ENDBRANCH  19  22
ENDBRANCH  13  16
ENDBRANCH  10  13
ENDBRANCH   5   7
ENDBRANCH   3   5
TORSDOF 6
ENDMDL
MODEL      168
REMARK 921   NORMALIZED FREE ENERGY PREDICTED BY IDOCK:   -3.40 KCAL/MOL
REMARK 922        TOTAL FREE ENERGY PREDICTED BY IDOCK:   -5.39 KCAL/MOL
REMARK 923 INTER-LIGAND FREE ENERGY PREDICTED BY IDOCK:   -4.57 KCAL/MOL
REMARK 924 INTRA-LIGAND FREE ENERGY PREDICTED BY IDOCK:   -0.82 KCAL/MOL
REMARK 927      BINDING AFFINITY PREDICTED BY RF-SCORE:    0.00 PKD
ROOT
HETATM    1  O   UNL     1      -8.061   3.841  63.457  1.00  0.00    -0.086 OA 
HETATM    2  S   UNL     1      -9.056   3.673  64.709  1.00  0.00    -0.143 S  
HETATM    3  C   UNL     1      -7.815   2.809  65.755  1.00  0.00    -0.081 C  
HETATM    4  O   UNL     1     -10.077   2.672  64.259  1.00  0.00    -0.115 OA 
ENDROOT
BRANCH   3   5
HETATM    5  N   UNL     1      -8.448   2.497  67.036  1.00  0.00    -0.095 NA 
HETATM    6  H   UNL     1      -8.804   1.564  67.242  1.00  0.00     0.000 HD 
BRANCH   5   7
HETATM    7  C   UNL     1      -8.541   3.543  67.968  1.00  0.00    -0.098 A  
HETATM    8  C   UNL     1      -7.516   4.477  68.170  1.00  0.00    -0.065 A  
HETATM    9  C   UNL     1      -7.640   5.497  69.118  1.00  0.00    -0.086 A  
HETATM   10  C   UNL     1      -8.812   5.604  69.867  1.00  0.00    -0.129 A  
HETATM   11  C   UNL     1      -9.897   4.772  69.590  1.00  0.00    -0.292 A  
HETATM   12  C   UNL     1      -9.759   3.758  68.635  1.00  0.00    -0.089 A  
BRANCH  10  13
HETATM   13  S   UNL     1      -8.929   6.849  71.136  1.00  0.00    -0.143 S  
HETATM   14  O   UNL     1      -9.727   6.298  72.217  1.00  0.00    -0.157 OA 
HETATM   15  O   UNL     1      -7.579   7.327  71.385  1.00  0.00    -0.081 OA 
BRANCH  13  16
HETATM   16  C   UNL     1      -9.867   8.215  70.469  1.00  0.00    -0.186 A  
HETATM   17  C   UNL     1     -11.116   8.521  71.012  1.00  0.00    -0.306 A  
HETATM   18  C   UNL     1     -11.827   9.634  70.544  1.00  0.00    -0.284 A  
HETATM   19  C   UNL     1     -11.286  10.487  69.568  1.00  0.00    -0.278 A  
HETATM   20  C   UNL     1      -9.342   9.001  69.444  1.00  0.00    -0.158 A  
HETATM   21  C   UNL     1     -10.059  10.119  68.990  1.00  0.00    -0.216 A  
BRANCH  19  22
HETATM   22  N   UNL     1     -11.977  11.618  69.063  1.00  0.00    -0.326 NA 
HETATM   23  H   UNL     1     -12.595  12.188  69.641  1.00  0.00     0.000 HD 
BRANCH  22  24
HETATM   24  C   UNL     1     -11.732  11.906  67.639  1.00  0.00    -0.275 C  
HETATM   25  S   UNL     1     -11.534  13.730  67.466  1.00  0.00    -0.351 S  
HETATM   26  O   UNL     1     -10.952  13.994  66.110  1.00  0.00    -0.292 OA 
HETATM   27  O   UNL     1     -10.324  13.820  68.527  1.00  0.00    -0.238 OA 
ENDBRANCH  22  24
ENDBRANCH  19  22
ENDBRANCH  13  16
ENDBRANCH  10  13
ENDBRANCH   5   7
ENDBRANCH   3   5
TORSDOF 6
ENDMDL
MODEL      169
REMARK 921   NORMALIZED FREE ENERGY PREDICTED BY IDOCK:   -3.40 KCAL/MOL
REMARK 922        TOTAL FREE ENERGY PREDICTED BY IDOCK:   -5.39 KCAL/MOL
REMARK 923 INTER-LIGAND FREE ENERGY PREDICTED BY IDOCK:   -4.77 KCAL/MOL
REMARK 924 INTRA-LIGAND FREE ENERGY PREDICTED BY IDOCK:   -0.61 KCAL/MOL
REMARK 927      BINDING AFFINITY PREDICTED BY RF-SCORE:    0.00 PKD
ROOT
HETATM    1  O   UNL     1      -9.082   1.485  66.312  1.00  0.00    -0.109 OA 
HETATM    2  S   UNL     1      -9.154   2.882  67.105  1.00  0.00    -0.155 S  
HETATM    3  C   UNL     1      -7.329   3.087  67.185  1.00  0.00    -0.062 C  
HETATM    4  O   UNL     1      -9.652   2.525  68.473  1.00  0.00    -0.180 OA 
ENDROOT
BRANCH   3   5
HETATM    5  N   UNL     1      -7.048   4.336  67.892  1.00  0.00    -0.059 NA 
HETATM    6  H   UNL     1      -6.890   4.356  68.900  1.00  0.00     0.000 HD 
BRANCH   5   7
HETATM    7  C   UNL     1      -7.007   5.507  67.118  1.00  0.00    -0.065 A  
HETATM    8  C   UNL     1      -6.482   5.543  65.820  1.00  0.00    -0.040 A  
HETATM    9  C   UNL     1      -6.445   6.732  65.085  1.00  0.00    -0.043 A  
HETATM   10  C   UNL     1      -6.955   7.904  65.642  1.00  0.00    -0.053 A  
HETATM   11  C   UNL     1      -7.604   7.866  66.876  1.00  0.00    -0.099 A  
HETATM   12  C   UNL     1      -7.637   6.667  67.599  1.00  0.00    -0.106 A  
BRANCH  10  13
HETATM   13  S   UNL     1      -6.824   9.433  64.738  1.00  0.00    -0.099 S  
HETATM   14  O   UNL     1      -5.736  10.196  65.324  1.00  0.00    -0.074 OA 
HETATM   15  O   UNL     1      -6.805   9.089  63.325  1.00  0.00    -0.090 OA 
BRANCH  13  16
HETATM   16  C   UNL     1      -8.313  10.372  65.041  1.00  0.00    -0.166 A  
HETATM   17  C   UNL     1      -9.419  10.192  64.210  1.00  0.00    -0.366 A  
HETATM   18  C   UNL     1     -10.615  10.871  64.483  1.00  0.00    -0.335 A  
HETATM   19  C   UNL     1     -10.744  11.696  65.612  1.00  0.00    -0.278 A  
HETATM   20  C   UNL     1      -8.390  11.247  66.124  1.00  0.00    -0.111 A  
HETATM   21  C   UNL     1      -9.595  11.913  66.393  1.00  0.00    -0.239 A  
BRANCH  19  22
HETATM   22  N   UNL     1     -11.932  12.406  65.918  1.00  0.00    -0.587 NA 
HETATM   23  H   UNL     1     -12.862  12.023  65.743  1.00  0.00     0.000 HD 
BRANCH  22  24
HETATM   24  C   UNL     1     -11.722  13.739  66.509  1.00  0.00    -0.385 C  
HETATM   25  S   UNL     1     -10.988  14.817  65.207  1.00  0.00    -0.399 S  
HETATM   26  O   UNL     1     -11.092  16.234  65.684  1.00  0.00    -0.148 OA 
HETATM   27  O   UNL     1     -12.192  14.579  64.162  1.00  0.00    -0.524 OA 
ENDBRANCH  22  24
ENDBRANCH  19  22
ENDBRANCH  13  16
ENDBRANCH  10  13
ENDBRANCH   5   7
ENDBRANCH   3   5
TORSDOF 6
ENDMDL
MODEL      170
REMARK 921   NORMALIZED FREE ENERGY PREDICTED BY IDOCK:   -3.10 KCAL/MOL
REMARK 922        TOTAL FREE ENERGY PREDICTED BY IDOCK:   -4.99 KCAL/MOL
REMARK 923 INTER-LIGAND FREE ENERGY PREDICTED BY IDOCK:   -4.39 KCAL/MOL
REMARK 924 INTRA-LIGAND FREE ENERGY PREDICTED BY IDOCK:   -0.59 KCAL/MOL
REMARK 927      BINDING AFFINITY PREDICTED BY RF-SCORE:    0.00 PKD
ROOT
HETATM    1  O   UNL     1      -5.375  10.086  74.556  1.00  0.00    -0.286 OA 
HETATM    2  S   UNL     1      -6.140   9.205  73.449  1.00  0.00     0.247 S  
HETATM    3  C   UNL     1      -6.207   7.697  74.499  1.00  0.00    -0.089 C  
HETATM    4  O   UNL     1      -5.129   8.984  72.365  1.00  0.00    -0.047 OA 
ENDROOT
BRANCH   3   5
HETATM    5  N   UNL     1      -6.879   6.647  73.733  1.00  0.00    -0.076 NA 
HETATM    6  H   UNL     1      -6.498   5.703  73.672  1.00  0.00     0.000 HD 
BRANCH   5   7
HETATM    7  C   UNL     1      -8.073   7.002  73.086  1.00  0.00    -0.101 A  
HETATM    8  C   UNL     1      -9.153   7.596  73.752  1.00  0.00    -0.332 A  
HETATM    9  C   UNL     1     -10.333   7.922  73.076  1.00  0.00    -0.401 A  
HETATM   10  C   UNL     1     -10.436   7.670  71.708  1.00  0.00    -0.205 A  
HETATM   11  C   UNL     1      -9.330   7.206  70.998  1.00  0.00    -0.158 A  
HETATM   12  C   UNL     1      -8.154   6.888  71.688  1.00  0.00    -0.105 A  
BRANCH  10  13
HETATM   13  S   UNL     1     -11.973   8.004  70.871  1.00  0.00    -0.121 S  
HETATM   14  O   UNL     1     -12.130   7.003  69.831  1.00  0.00    -0.020 OA 
HETATM   15  O   UNL     1     -12.988   8.165  71.898  1.00  0.00    -0.324 OA 
BRANCH  13  16
HETATM   16  C   UNL     1     -11.804   9.573  70.033  1.00  0.00     0.100 A  
HETATM   17  C   UNL     1     -11.437   9.596  68.687  1.00  0.00     0.227 A  
HETATM   18  C   UNL     1     -11.371  10.818  68.003  1.00  0.00    -0.378 A  
HETATM   19  C   UNL     1     -11.718  12.025  68.631  1.00  0.00    -0.326 A  
HETATM   20  C   UNL     1     -12.078  10.765  70.701  1.00  0.00    -0.467 A  
HETATM   21  C   UNL     1     -12.019  11.981  70.003  1.00  0.00    -0.400 A  
BRANCH  19  22
HETATM   22  N   UNL     1     -11.658  13.281  67.976  1.00  0.00    -0.314 NA 
HETATM   23  H   UNL     1     -12.264  13.522  67.191  1.00  0.00     0.000 HD 
BRANCH  22  24
HETATM   24  C   UNL     1     -10.652  14.212  68.516  1.00  0.00    -0.252 C  
HETATM   25  S   UNL     1      -8.989  13.491  68.185  1.00  0.00    -0.185 S  
HETATM   26  O   UNL     1      -7.975  14.570  68.414  1.00  0.00    -0.126 OA 
HETATM   27  O   UNL     1      -9.219  13.387  66.593  1.00  0.00    -0.251 OA 
ENDBRANCH  22  24
ENDBRANCH  19  22
ENDBRANCH  13  16
ENDBRANCH  10  13
ENDBRANCH   5   7
ENDBRANCH   3   5
TORSDOF 6
ENDMDL
MODEL      171
REMARK 921   NORMALIZED FREE ENERGY PREDICTED BY IDOCK:   -3.10 KCAL/MOL
REMARK 922        TOTAL FREE ENERGY PREDICTED BY IDOCK:   -4.98 KCAL/MOL
REMARK 923 INTER-LIGAND FREE ENERGY PREDICTED BY IDOCK:   -5.27 KCAL/MOL
REMARK 924 INTRA-LIGAND FREE ENERGY PREDICTED BY IDOCK:    0.29 KCAL/MOL
REMARK 927      BINDING AFFINITY PREDICTED BY RF-SCORE:    0.00 PKD
ROOT
HETATM    1  O   UNL     1      -5.627   9.703  74.309  1.00  0.00    -0.296 OA 
HETATM    2  S   UNL     1      -6.259   8.798  73.139  1.00  0.00     0.028 S  
HETATM    3  C   UNL     1      -5.134   7.376  73.444  1.00  0.00    -0.041 C  
HETATM    4  O   UNL     1      -5.842   9.469  71.865  1.00  0.00    -0.188 OA 
ENDROOT
BRANCH   3   5
HETATM    5  N   UNL     1      -5.468   6.326  72.483  1.00  0.00    -0.035 NA 
HETATM    6  H   UNL     1      -4.842   5.539  72.312  1.00  0.00     0.000 HD 
BRANCH   5   7
HETATM    7  C   UNL     1      -6.691   6.452  71.807  1.00  0.00    -0.063 A  
HETATM    8  C   UNL     1      -7.931   6.398  72.458  1.00  0.00    -0.102 A  
HETATM    9  C   UNL     1      -9.130   6.513  71.748  1.00  0.00    -0.142 A  
HETATM   10  C   UNL     1      -9.098   6.705  70.367  1.00  0.00    -0.152 A  
HETATM   11  C   UNL     1      -7.880   6.898  69.716  1.00  0.00    -0.115 A  
HETATM   12  C   UNL     1      -6.688   6.784  70.442  1.00  0.00    -0.057 A  
BRANCH  10  13
HETATM   13  S   UNL     1     -10.628   6.762  69.456  1.00  0.00    -0.248 S  
HETATM   14  O   UNL     1     -10.514   5.825  68.353  1.00  0.00    -0.197 OA 
HETATM   15  O   UNL     1     -11.703   6.632  70.426  1.00  0.00    -0.379 OA 
BRANCH  13  16
HETATM   16  C   UNL     1     -10.762   8.385  68.721  1.00  0.00    -0.051 A  
HETATM   17  C   UNL     1     -10.945   9.498  69.542  1.00  0.00    -0.217 A  
HETATM   18  C   UNL     1     -10.979  10.781  68.981  1.00  0.00    -0.289 A  
HETATM   19  C   UNL     1     -10.781  10.981  67.605  1.00  0.00    -0.238 A  
HETATM   20  C   UNL     1     -10.640   8.549  67.341  1.00  0.00    -0.304 A  
HETATM   21  C   UNL     1     -10.667   9.840  66.792  1.00  0.00    -0.143 A  
BRANCH  19  22
HETATM   22  N   UNL     1     -10.816  12.262  66.998  1.00  0.00    -0.241 NA 
HETATM   23  H   UNL     1     -10.857  13.126  67.540  1.00  0.00     0.000 HD 
BRANCH  22  24
HETATM   24  C   UNL     1     -10.789  12.249  65.525  1.00  0.00    -0.282 C  
HETATM   25  S   UNL     1     -12.504  12.569  64.933  1.00  0.00    -0.345 S  
HETATM   26  O   UNL     1     -12.423  12.896  63.472  1.00  0.00    -0.683 OA 
HETATM   27  O   UNL     1     -12.645  13.966  65.725  1.00  0.00    -0.491 OA 
ENDBRANCH  22  24
ENDBRANCH  19  22
ENDBRANCH  13  16
ENDBRANCH  10  13
ENDBRANCH   5   7
ENDBRANCH   3   5
TORSDOF 6
ENDMDL
MODEL      172
REMARK 921   NORMALIZED FREE ENERGY PREDICTED BY IDOCK:   -3.07 KCAL/MOL
REMARK 922        TOTAL FREE ENERGY PREDICTED BY IDOCK:   -4.95 KCAL/MOL
REMARK 923 INTER-LIGAND FREE ENERGY PREDICTED BY IDOCK:   -4.35 KCAL/MOL
REMARK 924 INTRA-LIGAND FREE ENERGY PREDICTED BY IDOCK:   -0.60 KCAL/MOL
REMARK 927      BINDING AFFINITY PREDICTED BY RF-SCORE:    0.00 PKD
ROOT
HETATM    1  O   UNL     1     -11.192   3.090  63.681  1.00  0.00    -0.279 OA 
HETATM    2  S   UNL     1      -9.944   3.971  64.181  1.00  0.00    -0.135 S  
HETATM    3  C   UNL     1      -8.843   3.441  62.807  1.00  0.00    -0.092 C  
HETATM    4  O   UNL     1      -9.482   3.307  65.442  1.00  0.00    -0.161 OA 
ENDROOT
BRANCH   3   5
HETATM    5  N   UNL     1      -7.552   4.104  62.985  1.00  0.00    -0.057 NA 
HETATM    6  H   UNL     1      -6.678   3.577  62.991  1.00  0.00     0.000 HD 
BRANCH   5   7
HETATM    7  C   UNL     1      -7.572   5.498  63.148  1.00  0.00    -0.072 A  
HETATM    8  C   UNL     1      -8.332   6.349  62.335  1.00  0.00    -0.020 A  
HETATM    9  C   UNL     1      -8.315   7.735  62.518  1.00  0.00    -0.052 A  
HETATM   10  C   UNL     1      -7.544   8.286  63.542  1.00  0.00    -0.134 A  
HETATM   11  C   UNL     1      -6.888   7.454  64.448  1.00  0.00    -0.054 A  
HETATM   12  C   UNL     1      -6.918   6.067  64.253  1.00  0.00    -0.051 A  
BRANCH  10  13
HETATM   13  S   UNL     1      -7.456  10.057  63.715  1.00  0.00    -0.128 S  
HETATM   14  O   UNL     1      -6.200  10.370  64.373  1.00  0.00    -0.127 OA 
HETATM   15  O   UNL     1      -7.768  10.625  62.413  1.00  0.00    -0.155 OA 
BRANCH  13  16
HETATM   16  C   UNL     1      -8.749  10.556  64.842  1.00  0.00    -0.181 A  
HETATM   17  C   UNL     1      -9.801  11.345  64.374  1.00  0.00    -0.303 A  
HETATM   18  C   UNL     1     -10.855  11.682  65.233  1.00  0.00    -0.340 A  
HETATM   19  C   UNL     1     -10.906  11.199  66.551  1.00  0.00    -0.245 A  
HETATM   20  C   UNL     1      -8.736  10.127  66.169  1.00  0.00    -0.154 A  
HETATM   21  C   UNL     1      -9.803  10.463  67.016  1.00  0.00    -0.234 A  
BRANCH  19  22
HETATM   22  N   UNL     1     -11.952  11.523  67.452  1.00  0.00    -0.597 NA 
HETATM   23  H   UNL     1     -12.765  10.923  67.589  1.00  0.00     0.000 HD 
BRANCH  22  24
HETATM   24  C   UNL     1     -11.771  12.793  68.177  1.00  0.00    -0.345 C  
HETATM   25  S   UNL     1     -12.169  12.485  69.949  1.00  0.00    -0.095 S  
HETATM   26  O   UNL     1     -11.665  13.656  70.736  1.00  0.00    -0.176 OA 
HETATM   27  O   UNL     1     -11.086  11.302  70.112  1.00  0.00    -0.159 OA 
ENDBRANCH  22  24
ENDBRANCH  19  22
ENDBRANCH  13  16
ENDBRANCH  10  13
ENDBRANCH   5   7
ENDBRANCH   3   5
TORSDOF 6
ENDMDL
MODEL      173
REMARK 921   NORMALIZED FREE ENERGY PREDICTED BY IDOCK:   -3.03 KCAL/MOL
REMARK 922        TOTAL FREE ENERGY PREDICTED BY IDOCK:   -4.89 KCAL/MOL
REMARK 923 INTER-LIGAND FREE ENERGY PREDICTED BY IDOCK:   -4.06 KCAL/MOL
REMARK 924 INTRA-LIGAND FREE ENERGY PREDICTED BY IDOCK:   -0.83 KCAL/MOL
REMARK 927      BINDING AFFINITY PREDICTED BY RF-SCORE:    0.00 PKD
ROOT
HETATM    1  O   UNL     1      -5.842  10.663  67.972  1.00  0.00    -0.043 OA 
HETATM    2  S   UNL     1      -6.153  11.948  67.058  1.00  0.00    -0.116 S  
HETATM    3  C   UNL     1      -5.135  13.090  68.078  1.00  0.00    -0.096 C  
HETATM    4  O   UNL     1      -7.600  12.256  67.303  1.00  0.00    -0.148 OA 
ENDROOT
BRANCH   3   5
HETATM    5  N   UNL     1      -5.218  14.422  67.478  1.00  0.00    -0.334 NA 
HETATM    6  H   UNL     1      -4.496  14.769  66.847  1.00  0.00     0.000 HD 
BRANCH   5   7
HETATM    7  C   UNL     1      -6.338  15.199  67.813  1.00  0.00    -0.160 A  
HETATM    8  C   UNL     1      -6.825  15.307  69.122  1.00  0.00    -0.138 A  
HETATM    9  C   UNL     1      -7.953  16.080  69.416  1.00  0.00    -0.152 A  
HETATM   10  C   UNL     1      -8.599  16.774  68.392  1.00  0.00    -0.235 A  
HETATM   11  C   UNL     1      -8.055  16.791  67.108  1.00  0.00    -0.210 A  
HETATM   12  C   UNL     1      -6.923  16.015  66.831  1.00  0.00    -0.139 A  
BRANCH  10  13
HETATM   13  S   UNL     1     -10.087  17.684  68.755  1.00  0.00    -0.361 S  
HETATM   14  O   UNL     1      -9.756  18.682  69.756  1.00  0.00     0.308 OA 
HETATM   15  O   UNL     1     -10.662  18.080  67.480  1.00  0.00    -0.404 OA 
BRANCH  13  16
HETATM   16  C   UNL     1     -11.235  16.558  69.534  1.00  0.00    -0.169 A  
HETATM   17  C   UNL     1     -11.935  15.639  68.751  1.00  0.00    -0.247 A  
HETATM   18  C   UNL     1     -12.783  14.705  69.360  1.00  0.00     0.186 A  
HETATM   19  C   UNL     1     -12.907  14.636  70.757  1.00  0.00    -0.358 A  
HETATM   20  C   UNL     1     -11.400  16.561  70.919  1.00  0.00    -0.073 A  
HETATM   21  C   UNL     1     -12.245  15.614  71.519  1.00  0.00    -0.487 A  
BRANCH  19  22
HETATM   22  N   UNL     1     -13.760  13.711  71.412  1.00  0.00    -0.163 NA 
HETATM   23  H   UNL     1     -14.771  13.703  71.275  1.00  0.00     0.000 HD 
BRANCH  22  24
HETATM   24  C   UNL     1     -13.072  12.761  72.304  1.00  0.00    -0.295 C  
HETATM   25  S   UNL     1     -13.489  11.059  71.735  1.00  0.00    -0.009 S  
HETATM   26  O   UNL     1     -12.539  10.114  72.405  1.00  0.00    -0.151 OA 
HETATM   27  O   UNL     1     -12.944  11.298  70.237  1.00  0.00    -0.060 OA 
ENDBRANCH  22  24
ENDBRANCH  19  22
ENDBRANCH  13  16
ENDBRANCH  10  13
ENDBRANCH   5   7
ENDBRANCH   3   5
TORSDOF 6
ENDMDL
MODEL      174
REMARK 921   NORMALIZED FREE ENERGY PREDICTED BY IDOCK:   -2.98 KCAL/MOL
REMARK 922        TOTAL FREE ENERGY PREDICTED BY IDOCK:   -4.82 KCAL/MOL
REMARK 923 INTER-LIGAND FREE ENERGY PREDICTED BY IDOCK:   -4.03 KCAL/MOL
REMARK 924 INTRA-LIGAND FREE ENERGY PREDICTED BY IDOCK:   -0.78 KCAL/MOL
REMARK 927      BINDING AFFINITY PREDICTED BY RF-SCORE:    0.00 PKD
ROOT
HETATM    1  O   UNL     1      -9.215   4.461  63.957  1.00  0.00    -0.152 OA 
HETATM    2  S   UNL     1      -9.054   4.674  65.543  1.00  0.00    -0.151 S  
HETATM    3  C   UNL     1      -7.221   4.531  65.513  1.00  0.00    -0.068 C  
HETATM    4  O   UNL     1      -9.617   3.429  66.159  1.00  0.00    -0.147 OA 
ENDROOT
BRANCH   3   5
HETATM    5  N   UNL     1      -6.738   4.685  66.885  1.00  0.00    -0.050 NA 
HETATM    6  H   UNL     1      -6.390   3.890  67.421  1.00  0.00     0.000 HD 
BRANCH   5   7
HETATM    7  C   UNL     1      -6.775   5.979  67.429  1.00  0.00    -0.061 A  
HETATM    8  C   UNL     1      -6.442   7.124  66.693  1.00  0.00    -0.054 A  
HETATM    9  C   UNL     1      -6.477   8.396  67.273  1.00  0.00    -0.058 A  
HETATM   10  C   UNL     1      -6.869   8.536  68.605  1.00  0.00    -0.063 A  
HETATM   11  C   UNL     1      -7.334   7.431  69.316  1.00  0.00    -0.086 A  
HETATM   12  C   UNL     1      -7.296   6.164  68.720  1.00  0.00    -0.086 A  
BRANCH  10  13
HETATM   13  S   UNL     1      -6.826  10.147  69.365  1.00  0.00    -0.081 S  
HETATM   14  O   UNL     1      -7.315  10.002  70.724  1.00  0.00    -0.323 OA 
HETATM   15  O   UNL     1      -5.505  10.699  69.111  1.00  0.00    -0.041 OA 
BRANCH  13  16
HETATM   16  C   UNL     1      -8.010  11.179  68.514  1.00  0.00    -0.143 A  
HETATM   17  C   UNL     1      -9.375  10.959  68.705  1.00  0.00    -0.190 A  
HETATM   18  C   UNL     1     -10.310  11.808  68.099  1.00  0.00    -0.213 A  
HETATM   19  C   UNL     1      -9.903  12.917  67.339  1.00  0.00    -0.207 A  
HETATM   20  C   UNL     1      -7.580  12.227  67.700  1.00  0.00    -0.144 A  
HETATM   21  C   UNL     1      -8.526  13.076  67.107  1.00  0.00    -0.176 A  
BRANCH  19  22
HETATM   22  N   UNL     1     -10.818  13.795  66.704  1.00  0.00    -0.287 NA 
HETATM   23  H   UNL     1     -11.818  13.787  66.905  1.00  0.00     0.000 HD 
BRANCH  22  24
HETATM   24  C   UNL     1     -10.212  14.720  65.730  1.00  0.00    -0.338 C  
HETATM   25  S   UNL     1     -10.607  16.437  66.273  1.00  0.00    -0.188 S  
HETATM   26  O   UNL     1      -9.722  17.369  65.502  1.00  0.00    -0.485 OA 
HETATM   27  O   UNL     1      -9.948  16.255  67.732  1.00  0.00    -0.239 OA 
ENDBRANCH  22  24
ENDBRANCH  19  22
ENDBRANCH  13  16
ENDBRANCH  10  13
ENDBRANCH   5   7
ENDBRANCH   3   5
TORSDOF 6
ENDMDL
MODEL      175
REMARK 921   NORMALIZED FREE ENERGY PREDICTED BY IDOCK:   -2.92 KCAL/MOL
REMARK 922        TOTAL FREE ENERGY PREDICTED BY IDOCK:   -4.74 KCAL/MOL
REMARK 923 INTER-LIGAND FREE ENERGY PREDICTED BY IDOCK:   -5.30 KCAL/MOL
REMARK 924 INTRA-LIGAND FREE ENERGY PREDICTED BY IDOCK:    0.55 KCAL/MOL
REMARK 927      BINDING AFFINITY PREDICTED BY RF-SCORE:    0.00 PKD
ROOT
HETATM    1  O   UNL     1      -9.375  20.269  66.419  1.00  0.00    -0.340 OA 
HETATM    2  S   UNL     1      -9.462  19.596  67.877  1.00  0.00    -0.363 S  
HETATM    3  C   UNL     1     -10.081  17.984  67.245  1.00  0.00    -0.342 C  
HETATM    4  O   UNL     1     -10.592  20.303  68.563  1.00  0.00    -0.268 OA 
ENDROOT
BRANCH   3   5
HETATM    5  N   UNL     1     -10.277  17.098  68.392  1.00  0.00    -0.317 NA 
HETATM    6  H   UNL     1     -10.927  17.332  69.143  1.00  0.00     0.000 HD 
BRANCH   5   7
HETATM    7  C   UNL     1      -9.529  15.911  68.411  1.00  0.00    -0.201 A  
HETATM    8  C   UNL     1      -8.297  15.798  69.070  1.00  0.00    -0.236 A  
HETATM    9  C   UNL     1      -7.572  14.603  69.054  1.00  0.00    -0.136 A  
HETATM   10  C   UNL     1      -8.089  13.491  68.388  1.00  0.00    -0.145 A  
HETATM   11  C   UNL     1      -9.371  13.538  67.842  1.00  0.00    -0.215 A  
HETATM   12  C   UNL     1     -10.086  14.742  67.869  1.00  0.00    -0.221 A  
BRANCH  10  13
HETATM   13  S   UNL     1      -7.121  11.998  68.295  1.00  0.00    -0.094 S  
HETATM   14  O   UNL     1      -6.416  12.013  67.026  1.00  0.00    -0.149 OA 
HETATM   15  O   UNL     1      -6.387  11.892  69.545  1.00  0.00    -0.102 OA 
BRANCH  13  16
HETATM   16  C   UNL     1      -8.256  10.621  68.220  1.00  0.00    -0.120 A  
HETATM   17  C   UNL     1      -7.795   9.374  67.797  1.00  0.00    -0.095 A  
HETATM   18  C   UNL     1      -8.660   8.271  67.802  1.00  0.00    -0.131 A  
HETATM   19  C   UNL     1      -9.977   8.380  68.277  1.00  0.00    -0.187 A  
HETATM   20  C   UNL     1      -9.582  10.773  68.623  1.00  0.00    -0.187 A  
HETATM   21  C   UNL     1     -10.436   9.660  68.634  1.00  0.00    -0.235 A  
BRANCH  19  22
HETATM   22  N   UNL     1     -10.885   7.291  68.292  1.00  0.00    -0.420 NA 
HETATM   23  H   UNL     1     -11.344   6.970  69.145  1.00  0.00     0.000 HD 
BRANCH  22  24
HETATM   24  C   UNL     1     -11.115   6.660  66.981  1.00  0.00    -0.325 C  
HETATM   25  S   UNL     1      -9.616   5.671  66.567  1.00  0.00    -0.160 S  
HETATM   26  O   UNL     1      -9.971   4.768  65.425  1.00  0.00    -0.160 OA 
HETATM   27  O   UNL     1      -9.682   4.785  67.912  1.00  0.00    -0.147 OA 
ENDBRANCH  22  24
ENDBRANCH  19  22
ENDBRANCH  13  16
ENDBRANCH  10  13
ENDBRANCH   5   7
ENDBRANCH   3   5
TORSDOF 6
ENDMDL
MODEL      176
REMARK 921   NORMALIZED FREE ENERGY PREDICTED BY IDOCK:   -2.83 KCAL/MOL
REMARK 922        TOTAL FREE ENERGY PREDICTED BY IDOCK:   -4.62 KCAL/MOL
REMARK 923 INTER-LIGAND FREE ENERGY PREDICTED BY IDOCK:   -3.94 KCAL/MOL
REMARK 924 INTRA-LIGAND FREE ENERGY PREDICTED BY IDOCK:   -0.68 KCAL/MOL
REMARK 927      BINDING AFFINITY PREDICTED BY RF-SCORE:    0.00 PKD
ROOT
HETATM    1  O   UNL     1      -9.770   1.679  64.272  1.00  0.00    -0.134 OA 
HETATM    2  S   UNL     1      -9.503   3.153  63.689  1.00  0.00    -0.110 S  
HETATM    3  C   UNL     1      -8.642   3.744  65.202  1.00  0.00    -0.113 C  
HETATM    4  O   UNL     1     -10.855   3.796  63.630  1.00  0.00    -0.256 OA 
ENDROOT
BRANCH   3   5
HETATM    5  N   UNL     1      -8.253   5.137  64.981  1.00  0.00    -0.124 NA 
HETATM    6  H   UNL     1      -7.944   5.466  64.067  1.00  0.00     0.000 HD 
BRANCH   5   7
HETATM    7  C   UNL     1      -8.325   5.998  66.087  1.00  0.00    -0.126 A  
HETATM    8  C   UNL     1      -9.512   6.232  66.795  1.00  0.00    -0.167 A  
HETATM    9  C   UNL     1      -9.548   7.109  67.883  1.00  0.00    -0.145 A  
HETATM   10  C   UNL     1      -8.378   7.751  68.291  1.00  0.00    -0.125 A  
HETATM   11  C   UNL     1      -7.161   7.432  67.691  1.00  0.00    -0.085 A  
HETATM   12  C   UNL     1      -7.140   6.549  66.603  1.00  0.00    -0.068 A  
BRANCH  10  13
HETATM   13  S   UNL     1      -8.447   8.934  69.621  1.00  0.00    -0.135 S  
HETATM   14  O   UNL     1      -9.732   8.778  70.278  1.00  0.00    -0.165 OA 
HETATM   15  O   UNL     1      -7.212   8.796  70.374  1.00  0.00    -0.041 OA 
BRANCH  13  16
HETATM   16  C   UNL     1      -8.453  10.567  68.894  1.00  0.00    -0.152 A  
HETATM   17  C   UNL     1      -7.291  11.338  68.929  1.00  0.00    -0.115 A  
HETATM   18  C   UNL     1      -7.265  12.589  68.299  1.00  0.00    -0.111 A  
HETATM   19  C   UNL     1      -8.374  13.069  67.584  1.00  0.00    -0.181 A  
HETATM   20  C   UNL     1      -9.594  11.054  68.257  1.00  0.00    -0.172 A  
HETATM   21  C   UNL     1      -9.552  12.304  67.622  1.00  0.00    -0.191 A  
BRANCH  19  22
HETATM   22  N   UNL     1      -8.390  14.333  66.940  1.00  0.00    -0.400 NA 
HETATM   23  H   UNL     1      -9.110  14.599  66.269  1.00  0.00     0.000 HD 
BRANCH  22  24
HETATM   24  C   UNL     1      -7.285  15.232  67.317  1.00  0.00    -0.178 C  
HETATM   25  S   UNL     1      -8.026  16.740  68.073  1.00  0.00    -0.183 S  
HETATM   26  O   UNL     1      -6.924  17.489  68.759  1.00  0.00    -0.217 OA 
HETATM   27  O   UNL     1      -8.825  15.923  69.210  1.00  0.00    -0.243 OA 
ENDBRANCH  22  24
ENDBRANCH  19  22
ENDBRANCH  13  16
ENDBRANCH  10  13
ENDBRANCH   5   7
ENDBRANCH   3   5
TORSDOF 6
ENDMDL
MODEL      177
REMARK 921   NORMALIZED FREE ENERGY PREDICTED BY IDOCK:   -2.77 KCAL/MOL
REMARK 922        TOTAL FREE ENERGY PREDICTED BY IDOCK:   -4.54 KCAL/MOL
REMARK 923 INTER-LIGAND FREE ENERGY PREDICTED BY IDOCK:   -3.81 KCAL/MOL
REMARK 924 INTRA-LIGAND FREE ENERGY PREDICTED BY IDOCK:   -0.73 KCAL/MOL
REMARK 927      BINDING AFFINITY PREDICTED BY RF-SCORE:    0.00 PKD
ROOT
HETATM    1  O   UNL     1      -7.986   3.716  63.406  1.00  0.00    -0.077 OA 
HETATM    2  S   UNL     1      -8.720   3.275  64.767  1.00  0.00    -0.108 S  
HETATM    3  C   UNL     1      -7.245   2.410  65.442  1.00  0.00    -0.058 C  
HETATM    4  O   UNL     1      -9.725   2.245  64.348  1.00  0.00    -0.136 OA 
ENDROOT
BRANCH   3   5
HETATM    5  N   UNL     1      -7.606   1.860  66.748  1.00  0.00    -0.064 NA 
HETATM    6  H   UNL     1      -7.704   0.856  66.897  1.00  0.00     0.000 HD 
BRANCH   5   7
HETATM    7  C   UNL     1      -7.812   2.781  67.788  1.00  0.00    -0.060 A  
HETATM    8  C   UNL     1      -6.969   3.878  68.012  1.00  0.00    -0.051 A  
HETATM    9  C   UNL     1      -7.198   4.766  69.067  1.00  0.00    -0.053 A  
HETATM   10  C   UNL     1      -8.296   4.573  69.905  1.00  0.00    -0.063 A  
HETATM   11  C   UNL     1      -9.223   3.571  69.622  1.00  0.00    -0.223 A  
HETATM   12  C   UNL     1      -8.982   2.691  68.559  1.00  0.00    -0.182 A  
BRANCH  10  13
HETATM   13  S   UNL     1      -8.533   5.655  71.301  1.00  0.00    -0.128 S  
HETATM   14  O   UNL     1      -9.219   4.895  72.331  1.00  0.00    -0.131 OA 
HETATM   15  O   UNL     1      -7.248   6.277  71.576  1.00  0.00    -0.079 OA 
BRANCH  13  16
HETATM   16  C   UNL     1      -9.658   6.948  70.800  1.00  0.00    -0.165 A  
HETATM   17  C   UNL     1     -10.960   6.959  71.303  1.00  0.00    -0.275 A  
HETATM   18  C   UNL     1     -11.827   8.009  70.972  1.00  0.00    -0.280 A  
HETATM   19  C   UNL     1     -11.399   9.086  70.180  1.00  0.00    -0.121 A  
HETATM   20  C   UNL     1      -9.232   7.967  69.948  1.00  0.00    -0.153 A  
HETATM   21  C   UNL     1     -10.107   9.017  69.632  1.00  0.00    -0.202 A  
BRANCH  19  22
HETATM   22  N   UNL     1     -12.248  10.162  69.817  1.00  0.00    -0.499 NA 
HETATM   23  H   UNL     1     -13.064  10.041  69.216  1.00  0.00     0.000 HD 
BRANCH  22  24
HETATM   24  C   UNL     1     -11.861  11.470  70.375  1.00  0.00    -0.320 C  
HETATM   25  S   UNL     1     -13.295  12.112  71.337  1.00  0.00     0.263 S  
HETATM   26  O   UNL     1     -12.803  13.252  72.176  1.00  0.00    -0.264 OA 
HETATM   27  O   UNL     1     -13.385  10.820  72.296  1.00  0.00    -0.385 OA 
ENDBRANCH  22  24
ENDBRANCH  19  22
ENDBRANCH  13  16
ENDBRANCH  10  13
ENDBRANCH   5   7
ENDBRANCH   3   5
TORSDOF 6
ENDMDL
MODEL      178
REMARK 921   NORMALIZED FREE ENERGY PREDICTED BY IDOCK:   -2.66 KCAL/MOL
REMARK 922        TOTAL FREE ENERGY PREDICTED BY IDOCK:   -4.39 KCAL/MOL
REMARK 923 INTER-LIGAND FREE ENERGY PREDICTED BY IDOCK:   -3.67 KCAL/MOL
REMARK 924 INTRA-LIGAND FREE ENERGY PREDICTED BY IDOCK:   -0.72 KCAL/MOL
REMARK 927      BINDING AFFINITY PREDICTED BY RF-SCORE:    0.00 PKD
ROOT
HETATM    1  O   UNL     1     -14.339   7.408  71.223  1.00  0.00    -0.421 OA 
HETATM    2  S   UNL     1     -12.833   7.838  71.585  1.00  0.00    -0.333 S  
HETATM    3  C   UNL     1     -12.416   6.226  72.366  1.00  0.00     0.046 C  
HETATM    4  O   UNL     1     -12.974   8.867  72.666  1.00  0.00    -0.407 OA 
ENDROOT
BRANCH   3   5
HETATM    5  N   UNL     1     -11.031   6.299  72.832  1.00  0.00    -0.255 NA 
HETATM    6  H   UNL     1     -10.787   6.130  73.807  1.00  0.00     0.000 HD 
BRANCH   5   7
HETATM    7  C   UNL     1     -10.056   6.611  71.872  1.00  0.00    -0.181 A  
HETATM    8  C   UNL     1      -9.330   7.810  71.885  1.00  0.00    -0.195 A  
HETATM    9  C   UNL     1      -8.376   8.092  70.903  1.00  0.00    -0.124 A  
HETATM   10  C   UNL     1      -8.124   7.158  69.898  1.00  0.00    -0.125 A  
HETATM   11  C   UNL     1      -8.733   5.905  69.939  1.00  0.00    -0.129 A  
HETATM   12  C   UNL     1      -9.684   5.635  70.932  1.00  0.00    -0.223 A  
BRANCH  10  13
HETATM   13  S   UNL     1      -6.973   7.561  68.599  1.00  0.00    -0.081 S  
HETATM   14  O   UNL     1      -7.276   8.907  68.148  1.00  0.00    -0.077 OA 
HETATM   15  O   UNL     1      -5.646   7.229  69.092  1.00  0.00    -0.018 OA 
BRANCH  13  16
HETATM   16  C   UNL     1      -7.317   6.482  67.217  1.00  0.00    -0.087 A  
HETATM   17  C   UNL     1      -8.233   6.882  66.245  1.00  0.00    -0.117 A  
HETATM   18  C   UNL     1      -8.456   6.075  65.121  1.00  0.00    -0.112 A  
HETATM   19  C   UNL     1      -7.735   4.887  64.922  1.00  0.00    -0.083 A  
HETATM   20  C   UNL     1      -6.644   5.268  67.082  1.00  0.00    -0.053 A  
HETATM   21  C   UNL     1      -6.868   4.473  65.948  1.00  0.00    -0.058 A  
BRANCH  19  22
HETATM   22  N   UNL     1      -7.937   4.040  63.803  1.00  0.00    -0.087 NA 
HETATM   23  H   UNL     1      -7.164   3.638  63.271  1.00  0.00     0.000 HD 
BRANCH  22  24
HETATM   24  C   UNL     1      -9.349   3.783  63.468  1.00  0.00    -0.129 C  
HETATM   25  S   UNL     1      -9.570   1.958  63.349  1.00  0.00    -0.110 S  
HETATM   26  O   UNL     1     -11.043   1.681  63.352  1.00  0.00    -0.197 OA 
HETATM   27  O   UNL     1      -9.031   1.674  64.841  1.00  0.00    -0.113 OA 
ENDBRANCH  22  24
ENDBRANCH  19  22
ENDBRANCH  13  16
ENDBRANCH  10  13
ENDBRANCH   5   7
ENDBRANCH   3   5
TORSDOF 6
ENDMDL
MODEL      179
REMARK 921   NORMALIZED FREE ENERGY PREDICTED BY IDOCK:   -2.58 KCAL/MOL
REMARK 922        TOTAL FREE ENERGY PREDICTED BY IDOCK:   -4.29 KCAL/MOL
REMARK 923 INTER-LIGAND FREE ENERGY PREDICTED BY IDOCK:   -3.61 KCAL/MOL
REMARK 924 INTRA-LIGAND FREE ENERGY PREDICTED BY IDOCK:   -0.67 KCAL/MOL
REMARK 927      BINDING AFFINITY PREDICTED BY RF-SCORE:    0.00 PKD
ROOT
HETATM    1  O   UNL     1     -14.320   9.478  70.783  1.00  0.00     0.167 OA 
HETATM    2  S   UNL     1     -12.800   9.599  71.292  1.00  0.00    -0.344 S  
HETATM    3  C   UNL     1     -12.885   8.087  72.335  1.00  0.00    -0.104 C  
HETATM    4  O   UNL     1     -12.787  10.797  72.192  1.00  0.00    -0.356 OA 
ENDROOT
BRANCH   3   5
HETATM    5  N   UNL     1     -11.582   7.910  72.976  1.00  0.00    -0.577 NA 
HETATM    6  H   UNL     1     -11.333   8.414  73.827  1.00  0.00     0.000 HD 
BRANCH   5   7
HETATM    7  C   UNL     1     -10.691   7.015  72.364  1.00  0.00    -0.231 A  
HETATM    8  C   UNL     1      -9.349   6.893  72.748  1.00  0.00    -0.154 A  
HETATM    9  C   UNL     1      -8.488   6.000  72.105  1.00  0.00    -0.124 A  
HETATM   10  C   UNL     1      -8.972   5.197  71.072  1.00  0.00    -0.133 A  
HETATM   11  C   UNL     1     -10.331   5.202  70.762  1.00  0.00    -0.294 A  
HETATM   12  C   UNL     1     -11.183   6.100  71.418  1.00  0.00    -0.346 A  
BRANCH  10  13
HETATM   13  S   UNL     1      -7.849   4.126  70.196  1.00  0.00    -0.051 S  
HETATM   14  O   UNL     1      -6.535   4.289  70.792  1.00  0.00    -0.025 OA 
HETATM   15  O   UNL     1      -8.475   2.815  70.137  1.00  0.00    -0.044 OA 
BRANCH  13  16
HETATM   16  C   UNL     1      -7.717   4.733  68.521  1.00  0.00    -0.077 A  
HETATM   17  C   UNL     1      -6.911   5.840  68.253  1.00  0.00    -0.069 A  
HETATM   18  C   UNL     1      -6.745   6.279  66.933  1.00  0.00    -0.061 A  
HETATM   19  C   UNL     1      -7.333   5.595  65.857  1.00  0.00    -0.073 A  
HETATM   20  C   UNL     1      -8.375   4.082  67.478  1.00  0.00    -0.098 A  
HETATM   21  C   UNL     1      -8.193   4.525  66.159  1.00  0.00    -0.106 A  
BRANCH  19  22
HETATM   22  N   UNL     1      -7.195   6.012  64.509  1.00  0.00    -0.060 NA 
HETATM   23  H   UNL     1      -7.601   5.494  63.729  1.00  0.00     0.000 HD 
BRANCH  22  24
HETATM   24  C   UNL     1      -6.421   7.252  64.321  1.00  0.00    -0.040 C  
HETATM   25  S   UNL     1      -7.577   8.541  63.692  1.00  0.00    -0.134 S  
HETATM   26  O   UNL     1      -6.890   9.867  63.825  1.00  0.00    -0.116 OA 
HETATM   27  O   UNL     1      -8.595   8.406  64.934  1.00  0.00    -0.161 OA 
ENDBRANCH  22  24
ENDBRANCH  19  22
ENDBRANCH  13  16
ENDBRANCH  10  13
ENDBRANCH   5   7
ENDBRANCH   3   5
TORSDOF 6
ENDMDL
MODEL      180
REMARK 921   NORMALIZED FREE ENERGY PREDICTED BY IDOCK:   -2.46 KCAL/MOL
REMARK 922        TOTAL FREE ENERGY PREDICTED BY IDOCK:   -4.12 KCAL/MOL
REMARK 923 INTER-LIGAND FREE ENERGY PREDICTED BY IDOCK:   -3.31 KCAL/MOL
REMARK 924 INTRA-LIGAND FREE ENERGY PREDICTED BY IDOCK:   -0.81 KCAL/MOL
REMARK 927      BINDING AFFINITY PREDICTED BY RF-SCORE:    0.00 PKD
ROOT
HETATM    1  O   UNL     1      -6.745   3.425  63.047  1.00  0.00    -0.029 OA 
HETATM    2  S   UNL     1      -7.994   4.000  63.881  1.00  0.00    -0.090 S  
HETATM    3  C   UNL     1      -7.571   5.761  63.561  1.00  0.00    -0.079 C  
HETATM    4  O   UNL     1      -7.679   3.689  65.313  1.00  0.00    -0.083 OA 
ENDROOT
BRANCH   3   5
HETATM    5  N   UNL     1      -8.573   6.591  64.229  1.00  0.00    -0.324 NA 
HETATM    6  H   UNL     1      -9.522   6.680  63.864  1.00  0.00     0.000 HD 
BRANCH   5   7
HETATM    7  C   UNL     1      -8.168   7.259  65.395  1.00  0.00    -0.137 A  
HETATM    8  C   UNL     1      -9.043   7.549  66.450  1.00  0.00    -0.210 A  
HETATM    9  C   UNL     1      -8.605   8.230  67.590  1.00  0.00    -0.130 A  
HETATM   10  C   UNL     1      -7.268   8.614  67.694  1.00  0.00    -0.084 A  
HETATM   11  C   UNL     1      -6.351   8.220  66.721  1.00  0.00    -0.056 A  
HETATM   12  C   UNL     1      -6.804   7.534  65.586  1.00  0.00    -0.056 A  
BRANCH  10  13
HETATM   13  S   UNL     1      -6.737   9.559  69.107  1.00  0.00    -0.050 S  
HETATM   14  O   UNL     1      -7.694   9.327  70.173  1.00  0.00    -0.088 OA 
HETATM   15  O   UNL     1      -5.326   9.267  69.305  1.00  0.00    -0.036 OA 
BRANCH  13  16
HETATM   16  C   UNL     1      -6.871  11.290  68.683  1.00  0.00    -0.076 A  
HETATM   17  C   UNL     1      -7.489  11.658  67.488  1.00  0.00    -0.123 A  
HETATM   18  C   UNL     1      -7.662  13.015  67.181  1.00  0.00    -0.049 A  
HETATM   19  C   UNL     1      -7.272  14.021  68.079  1.00  0.00    -0.144 A  
HETATM   20  C   UNL     1      -6.403  12.271  69.557  1.00  0.00    -0.121 A  
HETATM   21  C   UNL     1      -6.592  13.626  69.244  1.00  0.00    -0.110 A  
BRANCH  19  22
HETATM   22  N   UNL     1      -7.423  15.404  67.802  1.00  0.00    -0.141 NA 
HETATM   23  H   UNL     1      -6.735  15.936  67.270  1.00  0.00     0.000 HD 
BRANCH  22  24
HETATM   24  C   UNL     1      -8.651  16.011  68.344  1.00  0.00    -0.185 C  
HETATM   25  S   UNL     1      -9.350  17.111  67.041  1.00  0.00    -0.250 S  
HETATM   26  O   UNL     1     -10.752  17.455  67.444  1.00  0.00    -0.333 OA 
HETATM   27  O   UNL     1      -9.448  15.940  65.937  1.00  0.00    -0.328 OA 
ENDBRANCH  22  24
ENDBRANCH  19  22
ENDBRANCH  13  16
ENDBRANCH  10  13
ENDBRANCH   5   7
ENDBRANCH   3   5
TORSDOF 6
ENDMDL
MODEL      181
REMARK 921   NORMALIZED FREE ENERGY PREDICTED BY IDOCK:   -2.33 KCAL/MOL
REMARK 922        TOTAL FREE ENERGY PREDICTED BY IDOCK:   -3.94 KCAL/MOL
REMARK 923 INTER-LIGAND FREE ENERGY PREDICTED BY IDOCK:   -3.17 KCAL/MOL
REMARK 924 INTRA-LIGAND FREE ENERGY PREDICTED BY IDOCK:   -0.77 KCAL/MOL
REMARK 927      BINDING AFFINITY PREDICTED BY RF-SCORE:    0.00 PKD
ROOT
HETATM    1  O   UNL     1     -11.408   2.373  73.699  1.00  0.00    -0.213 OA 
HETATM    2  S   UNL     1     -10.563   3.664  74.150  1.00  0.00    -0.194 S  
HETATM    3  C   UNL     1     -11.448   4.808  73.014  1.00  0.00    -0.209 C  
HETATM    4  O   UNL     1      -9.184   3.433  73.610  1.00  0.00    -0.092 OA 
ENDROOT
BRANCH   3   5
HETATM    5  N   UNL     1     -10.878   6.144  73.190  1.00  0.00    -0.278 NA 
HETATM    6  H   UNL     1     -10.961   6.648  74.073  1.00  0.00     0.000 HD 
BRANCH   5   7
HETATM    7  C   UNL     1     -10.212   6.698  72.086  1.00  0.00    -0.190 A  
HETATM    8  C   UNL     1      -8.843   6.511  71.849  1.00  0.00    -0.134 A  
HETATM    9  C   UNL     1      -8.211   7.092  70.745  1.00  0.00    -0.121 A  
HETATM   10  C   UNL     1      -8.956   7.858  69.848  1.00  0.00    -0.146 A  
HETATM   11  C   UNL     1     -10.340   7.946  69.986  1.00  0.00    -0.221 A  
HETATM   12  C   UNL     1     -10.960   7.356  71.095  1.00  0.00    -0.265 A  
BRANCH  10  13
HETATM   13  S   UNL     1      -8.129   8.669  68.494  1.00  0.00    -0.118 S  
HETATM   14  O   UNL     1      -9.011   9.714  68.007  1.00  0.00    -0.123 OA 
HETATM   15  O   UNL     1      -6.786   8.990  68.950  1.00  0.00    -0.055 OA 
BRANCH  13  16
HETATM   16  C   UNL     1      -7.975   7.485  67.165  1.00  0.00    -0.117 A  
HETATM   17  C   UNL     1      -8.626   6.254  67.263  1.00  0.00    -0.107 A  
HETATM   18  C   UNL     1      -8.570   5.348  66.196  1.00  0.00    -0.126 A  
HETATM   19  C   UNL     1      -7.911   5.672  64.998  1.00  0.00    -0.115 A  
HETATM   20  C   UNL     1      -7.249   7.799  66.017  1.00  0.00    -0.073 A  
HETATM   21  C   UNL     1      -7.208   6.888  64.951  1.00  0.00    -0.078 A  
BRANCH  19  22
HETATM   22  N   UNL     1      -7.826   4.780  63.899  1.00  0.00    -0.082 NA 
HETATM   23  H   UNL     1      -8.632   4.541  63.321  1.00  0.00     0.000 HD 
BRANCH  22  24
HETATM   24  C   UNL     1      -6.482   4.226  63.656  1.00  0.00    -0.030 C  
HETATM   25  S   UNL     1      -6.500   2.464  64.194  1.00  0.00    -0.023 S  
HETATM   26  O   UNL     1      -5.270   1.811  63.641  1.00  0.00    -0.003 OA 
HETATM   27  O   UNL     1      -7.727   2.057  63.232  1.00  0.00    -0.053 OA 
ENDBRANCH  22  24
ENDBRANCH  19  22
ENDBRANCH  13  16
ENDBRANCH  10  13
ENDBRANCH   5   7
ENDBRANCH   3   5
TORSDOF 6
ENDMDL
MODEL      182
REMARK 921   NORMALIZED FREE ENERGY PREDICTED BY IDOCK:   -1.75 KCAL/MOL
REMARK 922        TOTAL FREE ENERGY PREDICTED BY IDOCK:   -3.16 KCAL/MOL
REMARK 923 INTER-LIGAND FREE ENERGY PREDICTED BY IDOCK:   -3.12 KCAL/MOL
REMARK 924 INTRA-LIGAND FREE ENERGY PREDICTED BY IDOCK:   -0.04 KCAL/MOL
REMARK 927      BINDING AFFINITY PREDICTED BY RF-SCORE:    0.00 PKD
ROOT
HETATM    1  O   UNL     1      -7.456   4.721  71.964  1.00  0.00    -0.077 OA 
HETATM    2  S   UNL     1      -8.619   4.756  70.855  1.00  0.00    -0.112 S  
HETATM    3  C   UNL     1      -9.403   6.277  71.529  1.00  0.00    -0.148 C  
HETATM    4  O   UNL     1      -9.498   3.586  71.180  1.00  0.00    -0.135 OA 
ENDROOT
BRANCH   3   5
HETATM    5  N   UNL     1     -10.563   6.590  70.695  1.00  0.00    -0.223 NA 
HETATM    6  H   UNL     1     -10.961   5.904  70.054  1.00  0.00     0.000 HD 
BRANCH   5   7
HETATM    7  C   UNL     1     -11.102   7.880  70.818  1.00  0.00    -0.256 A  
HETATM    8  C   UNL     1     -10.537   9.004  70.202  1.00  0.00    -0.250 A  
HETATM    9  C   UNL     1     -11.094  10.277  70.360  1.00  0.00    -0.391 A  
HETATM   10  C   UNL     1     -12.246  10.434  71.130  1.00  0.00    -0.394 A  
HETATM   11  C   UNL     1     -12.903   9.316  71.641  1.00  0.00    -0.447 A  
HETATM   12  C   UNL     1     -12.335   8.047  71.471  1.00  0.00    -0.335 A  
BRANCH  10  13
HETATM   13  S   UNL     1     -12.900  12.069  71.402  1.00  0.00    -0.189 S  
HETATM   14  O   UNL     1     -14.284  12.065  70.961  1.00  0.00     2.320 OA 
HETATM   15  O   UNL     1     -12.563  12.438  72.766  1.00  0.00     0.683 OA 
BRANCH  13  16
HETATM   16  C   UNL     1     -12.032  13.188  70.313  1.00  0.00    -0.292 A  
HETATM   17  C   UNL     1     -11.730  12.785  69.012  1.00  0.00    -0.371 A  
HETATM   18  C   UNL     1     -11.113  13.681  68.129  1.00  0.00    -0.281 A  
HETATM   19  C   UNL     1     -10.835  15.004  68.508  1.00  0.00    -0.250 A  
HETATM   20  C   UNL     1     -11.696  14.473  70.740  1.00  0.00    -0.325 A  
HETATM   21  C   UNL     1     -11.088  15.364  69.843  1.00  0.00    -0.304 A  
BRANCH  19  22
HETATM   22  N   UNL     1     -10.206  15.938  67.647  1.00  0.00    -0.257 NA 
HETATM   23  H   UNL     1     -10.601  16.208  66.745  1.00  0.00     0.000 HD 
BRANCH  22  24
HETATM   24  C   UNL     1      -8.938  16.490  68.155  1.00  0.00    -0.207 C  
HETATM   25  S   UNL     1      -7.652  16.211  66.865  1.00  0.00    -0.233 S  
HETATM   26  O   UNL     1      -6.467  17.058  67.217  1.00  0.00    -0.135 OA 
HETATM   27  O   UNL     1      -8.467  16.990  65.713  1.00  0.00    -0.508 OA 
ENDBRANCH  22  24
ENDBRANCH  19  22
ENDBRANCH  13  16
ENDBRANCH  10  13
ENDBRANCH   5   7
ENDBRANCH   3   5
TORSDOF 6
ENDMDL
MODEL      183
REMARK 921   NORMALIZED FREE ENERGY PREDICTED BY IDOCK:   -1.10 KCAL/MOL
REMARK 922        TOTAL FREE ENERGY PREDICTED BY IDOCK:   -2.29 KCAL/MOL
REMARK 923 INTER-LIGAND FREE ENERGY PREDICTED BY IDOCK:   -4.15 KCAL/MOL
REMARK 924 INTRA-LIGAND FREE ENERGY PREDICTED BY IDOCK:    1.87 KCAL/MOL
REMARK 927      BINDING AFFINITY PREDICTED BY RF-SCORE:    0.00 PKD
ROOT
HETATM    1  O   UNL     1     -12.741  13.557  65.622  1.00  0.00    -0.480 OA 
HETATM    2  S   UNL     1     -11.333  12.788  65.729  1.00  0.00    -0.337 S  
HETATM    3  C   UNL     1     -11.643  11.730  64.258  1.00  0.00    -0.277 C  
HETATM    4  O   UNL     1     -11.450  11.937  66.958  1.00  0.00    -0.350 OA 
ENDROOT
BRANCH   3   5
HETATM    5  N   UNL     1     -10.481  10.861  64.078  1.00  0.00    -0.449 NA 
HETATM    6  H   UNL     1     -10.252  10.457  63.170  1.00  0.00     0.000 HD 
BRANCH   5   7
HETATM    7  C   UNL     1      -9.696  10.609  65.214  1.00  0.00    -0.259 A  
HETATM    8  C   UNL     1      -8.499  11.289  65.478  1.00  0.00     0.076 A  
HETATM    9  C   UNL     1      -7.736  11.001  66.613  1.00  0.00    -0.153 A  
HETATM   10  C   UNL     1      -8.178  10.032  67.515  1.00  0.00    -0.114 A  
HETATM   11  C   UNL     1      -9.429   9.440  67.345  1.00  0.00    -0.163 A  
HETATM   12  C   UNL     1     -10.184   9.742  66.205  1.00  0.00    -0.278 A  
BRANCH  10  13
HETATM   13  S   UNL     1      -7.158   9.605  68.911  1.00  0.00    -0.068 S  
HETATM   14  O   UNL     1      -5.820   9.345  68.412  1.00  0.00    -0.041 OA 
HETATM   15  O   UNL     1      -7.381  10.624  69.925  1.00  0.00    -0.150 OA 
BRANCH  13  16
HETATM   16  C   UNL     1      -7.758   8.056  69.567  1.00  0.00    -0.103 A  
HETATM   17  C   UNL     1      -6.953   6.919  69.487  1.00  0.00    -0.063 A  
HETATM   18  C   UNL     1      -7.385   5.716  70.062  1.00  0.00    -0.069 A  
HETATM   19  C   UNL     1      -8.596   5.638  70.768  1.00  0.00    -0.128 A  
HETATM   20  C   UNL     1      -9.001   7.986  70.195  1.00  0.00    -0.150 A  
HETATM   21  C   UNL     1      -9.418   6.779  70.776  1.00  0.00    -0.167 A  
BRANCH  19  22
HETATM   22  N   UNL     1      -9.072   4.440  71.356  1.00  0.00    -0.122 NA 
HETATM   23  H   UNL     1      -9.012   4.258  72.358  1.00  0.00     0.000 HD 
BRANCH  22  24
HETATM   24  C   UNL     1      -9.659   3.476  70.409  1.00  0.00    -0.171 C  
HETATM   25  S   UNL     1      -8.272   2.671  69.501  1.00  0.00    -0.044 S  
HETATM   26  O   UNL     1      -8.829   1.469  68.800  1.00  0.00    -0.059 OA 
HETATM   27  O   UNL     1      -7.543   2.145  70.839  1.00  0.00    -0.033 OA 
ENDBRANCH  22  24
ENDBRANCH  19  22
ENDBRANCH  13  16
ENDBRANCH  10  13
ENDBRANCH   5   7
ENDBRANCH   3   5
TORSDOF 6
ENDMDL
MODEL      184
REMARK 921   NORMALIZED FREE ENERGY PREDICTED BY IDOCK:   -0.05 KCAL/MOL
REMARK 922        TOTAL FREE ENERGY PREDICTED BY IDOCK:   -0.86 KCAL/MOL
REMARK 923 INTER-LIGAND FREE ENERGY PREDICTED BY IDOCK:   -1.05 KCAL/MOL
REMARK 924 INTRA-LIGAND FREE ENERGY PREDICTED BY IDOCK:    0.19 KCAL/MOL
REMARK 927      BINDING AFFINITY PREDICTED BY RF-SCORE:    0.00 PKD
ROOT
HETATM    1  O   UNL     1     -11.703   2.906  73.487  1.00  0.00    -0.153 OA 
HETATM    2  S   UNL     1     -10.182   3.412  73.360  1.00  0.00    -0.154 S  
HETATM    3  C   UNL     1     -10.638   5.190  73.257  1.00  0.00    -0.239 C  
HETATM    4  O   UNL     1      -9.735   2.958  72.003  1.00  0.00    -0.138 OA 
ENDROOT
BRANCH   3   5
HETATM    5  N   UNL     1      -9.404   5.963  73.123  1.00  0.00    -0.140 NA 
HETATM    6  H   UNL     1      -8.539   5.672  73.580  1.00  0.00     0.000 HD 
BRANCH   5   7
HETATM    7  C   UNL     1      -9.465   7.124  72.336  1.00  0.00    -0.145 A  
HETATM    8  C   UNL     1      -8.563   7.387  71.296  1.00  0.00    -0.118 A  
HETATM    9  C   UNL     1      -8.646   8.562  70.543  1.00  0.00    -0.155 A  
HETATM   10  C   UNL     1      -9.657   9.485  70.813  1.00  0.00    -0.192 A  
HETATM   11  C   UNL     1     -10.645   9.184  71.749  1.00  0.00    -0.383 A  
HETATM   12  C   UNL     1     -10.550   8.001  72.494  1.00  0.00    -0.397 A  
BRANCH  10  13
HETATM   13  S   UNL     1      -9.704  11.020  69.911  1.00  0.00     1.045 S  
HETATM   14  O   UNL     1     -10.974  11.660  70.205  1.00  0.00     0.117 OA 
HETATM   15  O   UNL     1      -8.452  11.708  70.179  1.00  0.00     1.833 OA 
BRANCH  13  16
HETATM   16  C   UNL     1      -9.736  10.624  68.169  1.00  0.00    -0.156 A  
HETATM   17  C   UNL     1      -8.734   9.817  67.630  1.00  0.00    -0.125 A  
HETATM   18  C   UNL     1      -8.790   9.443  66.280  1.00  0.00    -0.172 A  
HETATM   19  C   UNL     1      -9.867   9.821  65.462  1.00  0.00    -0.308 A  
HETATM   20  C   UNL     1     -10.777  11.077  67.359  1.00  0.00    -0.303 A  
HETATM   21  C   UNL     1     -10.827  10.688  66.012  1.00  0.00    -0.051 A  
BRANCH  19  22
HETATM   22  N   UNL     1      -9.956   9.469  64.092  1.00  0.00    -0.157 NA 
HETATM   23  H   UNL     1     -10.731   8.923  63.714  1.00  0.00     0.000 HD 
BRANCH  22  24
HETATM   24  C   UNL     1      -8.844   9.953  63.256  1.00  0.00    -0.245 C  
HETATM   25  S   UNL     1      -7.366   8.923  63.643  1.00  0.00    -0.105 S  
HETATM   26  O   UNL     1      -6.348   9.174  62.572  1.00  0.00    -0.095 OA 
HETATM   27  O   UNL     1      -8.095   7.530  63.288  1.00  0.00    -0.116 OA 
ENDBRANCH  22  24
ENDBRANCH  19  22
ENDBRANCH  13  16
ENDBRANCH  10  13
ENDBRANCH   5   7
ENDBRANCH   3   5
TORSDOF 6
ENDMDL
MODEL      185
REMARK 921   NORMALIZED FREE ENERGY PREDICTED BY IDOCK:    0.25 KCAL/MOL
REMARK 922        TOTAL FREE ENERGY PREDICTED BY IDOCK:   -0.45 KCAL/MOL
REMARK 923 INTER-LIGAND FREE ENERGY PREDICTED BY IDOCK:   -1.71 KCAL/MOL
REMARK 924 INTRA-LIGAND FREE ENERGY PREDICTED BY IDOCK:    1.26 KCAL/MOL
REMARK 927      BINDING AFFINITY PREDICTED BY RF-SCORE:    0.00 PKD
ROOT
HETATM    1  O   UNL     1     -12.813  14.830  66.660  1.00  0.00     0.406 OA 
HETATM    2  S   UNL     1     -11.630  13.866  66.153  1.00  0.00    -0.376 S  
HETATM    3  C   UNL     1     -10.519  15.253  65.679  1.00  0.00    -0.358 C  
HETATM    4  O   UNL     1     -12.157  13.232  64.901  1.00  0.00    -0.358 OA 
ENDROOT
BRANCH   3   5
HETATM    5  N   UNL     1      -9.285  14.677  65.145  1.00  0.00     0.204 NA 
HETATM    6  H   UNL     1      -8.629  15.233  64.598  1.00  0.00     0.000 HD 
BRANCH   5   7
HETATM    7  C   UNL     1      -9.047  13.321  65.423  1.00  0.00     0.894 A  
HETATM    8  C   UNL     1      -8.435  12.882  66.604  1.00  0.00     0.068 A  
HETATM    9  C   UNL     1      -8.201  11.524  66.839  1.00  0.00    -0.167 A  
HETATM   10  C   UNL     1      -8.600  10.581  65.891  1.00  0.00    -0.164 A  
HETATM   11  C   UNL     1      -9.331  10.980  64.773  1.00  0.00    -0.239 A  
HETATM   12  C   UNL     1      -9.561  12.345  64.554  1.00  0.00     0.138 A  
BRANCH  10  13
HETATM   13  S   UNL     1      -8.219   8.860  66.154  1.00  0.00    -0.120 S  
HETATM   14  O   UNL     1      -9.104   8.083  65.305  1.00  0.00     0.041 OA 
HETATM   15  O   UNL     1      -6.776   8.724  66.038  1.00  0.00    -0.066 OA 
BRANCH  13  16
HETATM   16  C   UNL     1      -8.661   8.459  67.838  1.00  0.00    -0.138 A  
HETATM   17  C   UNL     1      -9.384   7.294  68.099  1.00  0.00    -0.131 A  
HETATM   18  C   UNL     1      -9.674   6.934  69.422  1.00  0.00    -0.157 A  
HETATM   19  C   UNL     1      -9.206   7.697  70.504  1.00  0.00    -0.159 A  
HETATM   20  C   UNL     1      -8.252   9.275  68.891  1.00  0.00    -0.111 A  
HETATM   21  C   UNL     1      -8.539   8.899  70.212  1.00  0.00    -0.178 A  
BRANCH  19  22
HETATM   22  N   UNL     1      -9.484   7.371  71.856  1.00  0.00    -0.144 NA 
HETATM   23  H   UNL     1     -10.235   7.813  72.385  1.00  0.00     0.000 HD 
BRANCH  22  24
HETATM   24  C   UNL     1      -8.603   6.342  72.437  1.00  0.00    -0.120 C  
HETATM   25  S   UNL     1      -9.314   5.855  74.066  1.00  0.00    -0.143 S  
HETATM   26  O   UNL     1      -8.634   4.591  74.495  1.00  0.00    -0.102 OA 
HETATM   27  O   UNL     1     -10.745   5.439  73.452  1.00  0.00    -0.233 OA 
ENDBRANCH  22  24
ENDBRANCH  19  22
ENDBRANCH  13  16
ENDBRANCH  10  13
ENDBRANCH   5   7
ENDBRANCH   3   5
TORSDOF 6
ENDMDL
MODEL      186
REMARK 921   NORMALIZED FREE ENERGY PREDICTED BY IDOCK:    0.69 KCAL/MOL
REMARK 922        TOTAL FREE ENERGY PREDICTED BY IDOCK:    0.13 KCAL/MOL
REMARK 923 INTER-LIGAND FREE ENERGY PREDICTED BY IDOCK:   -1.91 KCAL/MOL
REMARK 924 INTRA-LIGAND FREE ENERGY PREDICTED BY IDOCK:    2.04 KCAL/MOL
REMARK 927      BINDING AFFINITY PREDICTED BY RF-SCORE:    0.00 PKD
ROOT
HETATM    1  O   UNL     1      -8.840  19.515  65.176  1.00  0.00     0.450 OA 
HETATM    2  S   UNL     1      -7.687  18.757  66.002  1.00  0.00    -0.132 S  
HETATM    3  C   UNL     1      -7.395  20.164  67.150  1.00  0.00    -0.271 C  
HETATM    4  O   UNL     1      -6.528  18.669  65.056  1.00  0.00    -0.468 OA 
ENDROOT
BRANCH   3   5
HETATM    5  N   UNL     1      -6.337  19.771  68.080  1.00  0.00    -0.235 NA 
HETATM    6  H   UNL     1      -5.611  20.427  68.371  1.00  0.00     0.000 HD 
BRANCH   5   7
HETATM    7  C   UNL     1      -6.366  18.450  68.553  1.00  0.00    -0.216 A  
HETATM    8  C   UNL     1      -5.376  17.918  69.390  1.00  0.00    -0.195 A  
HETATM    9  C   UNL     1      -5.432  16.592  69.829  1.00  0.00    -0.165 A  
HETATM   10  C   UNL     1      -6.501  15.782  69.445  1.00  0.00    -0.165 A  
HETATM   11  C   UNL     1      -7.566  16.325  68.726  1.00  0.00    -0.199 A  
HETATM   12  C   UNL     1      -7.497  17.657  68.297  1.00  0.00    -0.251 A  
BRANCH  10  13
HETATM   13  S   UNL     1      -6.522  14.069  69.933  1.00  0.00    -0.056 S  
HETATM   14  O   UNL     1      -5.145  13.610  69.974  1.00  0.00    -0.088 OA 
HETATM   15  O   UNL     1      -7.366  13.975  71.113  1.00  0.00     1.532 OA 
BRANCH  13  16
HETATM   16  C   UNL     1      -7.318  13.143  68.629  1.00  0.00    -0.102 A  
HETATM   17  C   UNL     1      -8.187  13.797  67.755  1.00  0.00    -0.174 A  
HETATM   18  C   UNL     1      -8.760  13.095  66.686  1.00  0.00    -0.018 A  
HETATM   19  C   UNL     1      -8.439  11.750  66.440  1.00  0.00    -0.081 A  
HETATM   20  C   UNL     1      -7.042  11.788  68.453  1.00  0.00    -0.085 A  
HETATM   21  C   UNL     1      -7.615  11.098  67.374  1.00  0.00    -0.113 A  
BRANCH  19  22
HETATM   22  N   UNL     1      -9.003  11.004  65.375  1.00  0.00    -0.242 NA 
HETATM   23  H   UNL     1      -9.215  11.416  64.467  1.00  0.00     0.000 HD 
BRANCH  22  24
HETATM   24  C   UNL     1      -9.259   9.585  65.682  1.00  0.00    -0.223 C  
HETATM   25  S   UNL     1     -10.241   9.520  67.239  1.00  0.00    -0.250 S  
HETATM   26  O   UNL     1     -10.791   8.132  67.369  1.00  0.00    -0.226 OA 
HETATM   27  O   UNL     1     -11.429  10.450  66.670  1.00  0.00     0.061 OA 
ENDBRANCH  22  24
ENDBRANCH  19  22
ENDBRANCH  13  16
ENDBRANCH  10  13
ENDBRANCH   5   7
ENDBRANCH   3   5
TORSDOF 6
ENDMDL
MODEL      187
REMARK 921   NORMALIZED FREE ENERGY PREDICTED BY IDOCK:    2.19 KCAL/MOL
REMARK 922        TOTAL FREE ENERGY PREDICTED BY IDOCK:    2.17 KCAL/MOL
REMARK 923 INTER-LIGAND FREE ENERGY PREDICTED BY IDOCK:    2.92 KCAL/MOL
REMARK 924 INTRA-LIGAND FREE ENERGY PREDICTED BY IDOCK:   -0.75 KCAL/MOL
REMARK 927      BINDING AFFINITY PREDICTED BY RF-SCORE:    0.00 PKD
ROOT
HETATM    1  O   UNL     1      -8.909  19.934  66.694  1.00  0.00    -0.329 OA 
HETATM    2  S   UNL     1      -8.839  19.684  68.281  1.00  0.00    -0.279 S  
HETATM    3  C   UNL     1      -8.995  17.857  68.138  1.00  0.00    -0.268 C  
HETATM    4  O   UNL     1     -10.129  20.229  68.815  1.00  0.00    -0.292 OA 
ENDROOT
BRANCH   3   5
HETATM    5  N   UNL     1      -8.967  17.298  69.489  1.00  0.00     0.380 NA 
HETATM    6  H   UNL     1      -9.370  17.797  70.282  1.00  0.00     0.000 HD 
BRANCH   5   7
HETATM    7  C   UNL     1      -8.361  16.041  69.642  1.00  0.00     0.139 A  
HETATM    8  C   UNL     1      -6.971  15.860  69.640  1.00  0.00    -0.147 A  
HETATM    9  C   UNL     1      -6.404  14.591  69.780  1.00  0.00    -0.148 A  
HETATM   10  C   UNL     1      -7.231  13.480  69.945  1.00  0.00     0.638 A  
HETATM   11  C   UNL     1      -8.608  13.649  70.086  1.00  0.00     2.887 A  
HETATM   12  C   UNL     1      -9.162  14.928  69.947  1.00  0.00     0.303 A  
BRANCH  10  13
HETATM   13  S   UNL     1      -6.507  11.854  70.034  1.00  0.00     0.123 S  
HETATM   14  O   UNL     1      -5.175  12.000  70.593  1.00  0.00    -0.109 OA 
HETATM   15  O   UNL     1      -7.485  10.990  70.673  1.00  0.00     0.664 OA 
BRANCH  13  16
HETATM   16  C   UNL     1      -6.286  11.268  68.361  1.00  0.00    -0.045 A  
HETATM   17  C   UNL     1      -5.470  10.161  68.123  1.00  0.00    -0.038 A  
HETATM   18  C   UNL     1      -5.347   9.650  66.824  1.00  0.00    -0.045 A  
HETATM   19  C   UNL     1      -6.071  10.199  65.753  1.00  0.00    -0.098 A  
HETATM   20  C   UNL     1      -6.956  11.880  67.302  1.00  0.00    -0.145 A  
HETATM   21  C   UNL     1      -6.832  11.353  66.007  1.00  0.00     0.237 A  
BRANCH  19  22
HETATM   22  N   UNL     1      -5.969   9.716  64.424  1.00  0.00    -0.081 NA 
HETATM   23  H   UNL     1      -5.952  10.336  63.614  1.00  0.00     0.000 HD 
BRANCH  22  24
HETATM   24  C   UNL     1      -5.888   8.250  64.303  1.00  0.00    -0.064 C  
HETATM   25  S   UNL     1      -7.581   7.574  64.572  1.00  0.00    -0.116 S  
HETATM   26  O   UNL     1      -7.575   6.146  64.118  1.00  0.00    -0.081 OA 
HETATM   27  O   UNL     1      -8.247   8.445  63.391  1.00  0.00    -0.164 OA 
ENDBRANCH  22  24
ENDBRANCH  19  22
ENDBRANCH  13  16
ENDBRANCH  10  13
ENDBRANCH   5   7
ENDBRANCH   3   5
TORSDOF 6
ENDMDL
MODEL      188
REMARK 921   NORMALIZED FREE ENERGY PREDICTED BY IDOCK:    2.55 KCAL/MOL
REMARK 922        TOTAL FREE ENERGY PREDICTED BY IDOCK:    2.65 KCAL/MOL
REMARK 923 INTER-LIGAND FREE ENERGY PREDICTED BY IDOCK:    2.21 KCAL/MOL
REMARK 924 INTRA-LIGAND FREE ENERGY PREDICTED BY IDOCK:    0.43 KCAL/MOL
REMARK 927      BINDING AFFINITY PREDICTED BY RF-SCORE:    0.00 PKD
ROOT
HETATM    1  O   UNL     1     -12.169  17.208  63.391  1.00  0.00     2.990 OA 
HETATM    2  S   UNL     1     -10.933  16.211  63.643  1.00  0.00     3.467 S  
HETATM    3  C   UNL     1     -11.985  14.852  64.294  1.00  0.00    -0.338 C  
HETATM    4  O   UNL     1     -10.175  16.815  64.786  1.00  0.00    -0.150 OA 
ENDROOT
BRANCH   3   5
HETATM    5  N   UNL     1     -11.109  13.732  64.639  1.00  0.00    -0.373 NA 
HETATM    6  H   UNL     1     -10.399  13.391  63.991  1.00  0.00     0.000 HD 
BRANCH   5   7
HETATM    7  C   UNL     1     -11.292  13.151  65.904  1.00  0.00    -0.311 A  
HETATM    8  C   UNL     1     -10.607  12.002  66.320  1.00  0.00    -0.287 A  
HETATM    9  C   UNL     1     -10.826  11.443  67.583  1.00  0.00    -0.286 A  
HETATM   10  C   UNL     1     -11.730  12.047  68.457  1.00  0.00    -0.332 A  
HETATM   11  C   UNL     1     -12.321  13.264  68.120  1.00  0.00     0.099 A  
HETATM   12  C   UNL     1     -12.088  13.814  66.853  1.00  0.00    -0.454 A  
BRANCH  10  13
HETATM   13  S   UNL     1     -12.072  11.281  70.029  1.00  0.00    -0.347 S  
HETATM   14  O   UNL     1     -11.742  12.243  71.065  1.00  0.00     0.305 OA 
HETATM   15  O   UNL     1     -13.410  10.720  69.943  1.00  0.00     0.072 OA 
BRANCH  13  16
HETATM   16  C   UNL     1     -10.932   9.921  70.229  1.00  0.00    -0.309 A  
HETATM   17  C   UNL     1     -10.270   9.409  69.112  1.00  0.00    -0.209 A  
HETATM   18  C   UNL     1      -9.321   8.390  69.268  1.00  0.00    -0.154 A  
HETATM   19  C   UNL     1      -8.979   7.902  70.540  1.00  0.00    -0.145 A  
HETATM   20  C   UNL     1     -10.666   9.400  71.495  1.00  0.00    -0.367 A  
HETATM   21  C   UNL     1      -9.707   8.386  71.640  1.00  0.00    -0.287 A  
BRANCH  19  22
HETATM   22  N   UNL     1      -8.030   6.867  70.740  1.00  0.00    -0.104 NA 
HETATM   23  H   UNL     1      -7.164   6.805  70.204  1.00  0.00     0.000 HD 
BRANCH  22  24
HETATM   24  C   UNL     1      -8.391   5.890  71.781  1.00  0.00    -0.119 C  
HETATM   25  S   UNL     1      -7.726   4.252  71.263  1.00  0.00    -0.073 S  
HETATM   26  O   UNL     1      -7.785   3.343  72.454  1.00  0.00    -0.056 OA 
HETATM   27  O   UNL     1      -6.206   4.774  71.139  1.00  0.00    -0.017 OA 
ENDBRANCH  22  24
ENDBRANCH  19  22
ENDBRANCH  13  16
ENDBRANCH  10  13
ENDBRANCH   5   7
ENDBRANCH   3   5
TORSDOF 6
ENDMDL
MODEL      189
REMARK 921   NORMALIZED FREE ENERGY PREDICTED BY IDOCK:   10.12 KCAL/MOL
REMARK 922        TOTAL FREE ENERGY PREDICTED BY IDOCK:   12.88 KCAL/MOL
REMARK 923 INTER-LIGAND FREE ENERGY PREDICTED BY IDOCK:   12.82 KCAL/MOL
REMARK 924 INTRA-LIGAND FREE ENERGY PREDICTED BY IDOCK:    0.06 KCAL/MOL
REMARK 927      BINDING AFFINITY PREDICTED BY RF-SCORE:    0.00 PKD
ROOT
HETATM    1  O   UNL     1     -12.838   3.045  71.881  1.00  0.00     5.742 OA 
HETATM    2  S   UNL     1     -11.284   2.880  71.506  1.00  0.00     3.212 S  
HETATM    3  C   UNL     1     -11.268   4.315  70.356  1.00  0.00     3.421 C  
HETATM    4  O   UNL     1     -11.212   1.621  70.695  1.00  0.00     2.495 OA 
ENDROOT
BRANCH   3   5
HETATM    5  N   UNL     1      -9.916   4.439  69.812  1.00  0.00    -0.215 NA 
HETATM    6  H   UNL     1      -9.565   3.794  69.104  1.00  0.00     0.000 HD 
BRANCH   5   7
HETATM    7  C   UNL     1      -9.126   5.487  70.310  1.00  0.00    -0.138 A  
HETATM    8  C   UNL     1      -8.396   6.350  69.482  1.00  0.00    -0.126 A  
HETATM    9  C   UNL     1      -7.608   7.374  70.015  1.00  0.00    -0.089 A  
HETATM   10  C   UNL     1      -7.558   7.557  71.397  1.00  0.00    -0.081 A  
HETATM   11  C   UNL     1      -8.378   6.800  72.232  1.00  0.00    -0.106 A  
HETATM   12  C   UNL     1      -9.166   5.781  71.683  1.00  0.00    -0.158 A  
BRANCH  10  13
HETATM   13  S   UNL     1      -6.483   8.805  72.076  1.00  0.00    -0.022 S  
HETATM   14  O   UNL     1      -7.040   9.214  73.353  1.00  0.00    -0.222 OA 
HETATM   15  O   UNL     1      -5.128   8.285  71.996  1.00  0.00    -0.034 OA 
BRANCH  13  16
HETATM   16  C   UNL     1      -6.572  10.236  71.010  1.00  0.00     0.279 A  
HETATM   17  C   UNL     1      -5.733  11.325  71.250  1.00  0.00     0.208 A  
HETATM   18  C   UNL     1      -5.746  12.421  70.377  1.00  0.00    -0.168 A  
HETATM   19  C   UNL     1      -6.553  12.429  69.228  1.00  0.00    -0.093 A  
HETATM   20  C   UNL     1      -7.440  10.252  69.919  1.00  0.00    -0.165 A  
HETATM   21  C   UNL     1      -7.437  11.352  69.047  1.00  0.00    -0.093 A  
BRANCH  19  22
HETATM   22  N   UNL     1      -6.600  13.522  68.326  1.00  0.00    -0.093 NA 
HETATM   23  H   UNL     1      -5.767  13.896  67.872  1.00  0.00     0.000 HD 
BRANCH  22  24
HETATM   24  C   UNL     1      -7.946  14.074  68.093  1.00  0.00    -0.149 C  
HETATM   25  S   UNL     1      -7.786  15.907  67.989  1.00  0.00    -0.140 S  
HETATM   26  O   UNL     1      -9.066  16.440  67.420  1.00  0.00    -0.198 OA 
HETATM   27  O   UNL     1      -6.713  15.865  66.787  1.00  0.00    -0.249 OA 
ENDBRANCH  22  24
ENDBRANCH  19  22
ENDBRANCH  13  16
ENDBRANCH  10  13
ENDBRANCH   5   7
ENDBRANCH   3   5
TORSDOF 6
ENDMDL
