MODEL        1
REMARK 921   NORMALIZED FREE ENERGY PREDICTED BY IDOCK:   -5.79 KCAL/MOL
REMARK 922        TOTAL FREE ENERGY PREDICTED BY IDOCK:   -6.64 KCAL/MOL
REMARK 923 INTER-LIGAND FREE ENERGY PREDICTED BY IDOCK:   -6.47 KCAL/MOL
REMARK 924 INTRA-LIGAND FREE ENERGY PREDICTED BY IDOCK:   -0.17 KCAL/MOL
REMARK 927      BINDING AFFINITY PREDICTED BY RF-SCORE:    0.00 PKD
ROOT
HETATM    1  C   UNL     1     -14.066  15.149  71.418  1.00  0.00    -0.598 C  
HETATM    2  C   UNL     1     -12.693  15.547  70.950  1.00  0.00    -0.468 C  
HETATM    3  N   UNL     1     -12.431  15.227  69.614  1.00  0.00    -0.591 N  
HETATM    4  O   UNL     1     -11.878  16.072  71.694  1.00  0.00    -0.441 OA 
HETATM    5  H   UNL     1     -13.151  14.716  69.104  1.00  0.00     0.000 HD 
ENDROOT
BRANCH   3   6
HETATM    6  S   UNL     1     -11.041  15.612  68.788  1.00  0.00    -0.330 S  
HETATM    7  O   UNL     1     -10.999  17.060  68.784  1.00  0.00    -0.289 OA 
HETATM    8  O   UNL     1      -9.934  14.842  69.307  1.00  0.00    -0.217 OA 
BRANCH   6   9
HETATM    9  C   UNL     1     -11.401  15.083  67.133  1.00  0.00    -0.320 A  
HETATM   10  C   UNL     1     -12.285  14.021  66.926  1.00  0.00    -0.415 A  
HETATM   11  C   UNL     1     -12.583  13.616  65.622  1.00  0.00    -0.531 A  
HETATM   12  C   UNL     1     -11.981  14.238  64.523  1.00  0.00    -0.462 A  
HETATM   13  N   UNL     1     -12.372  13.897  63.224  1.00  0.00    -1.148 NA 
HETATM   14  C   UNL     1     -11.168  15.354  64.746  1.00  0.00    -0.404 A  
HETATM   15  H2  UNL     1     -13.381  14.019  63.150  1.00  0.00     0.000 HD 
HETATM   16  H1  UNL     1     -11.933  14.351  62.423  1.00  0.00     0.000 HD 
HETATM   17  C   UNL     1     -10.863  15.772  66.045  1.00  0.00    -0.256 A  
ENDBRANCH   6   9
ENDBRANCH   3   6
TORSDOF 2
ENDMDL
MODEL        2
REMARK 921   NORMALIZED FREE ENERGY PREDICTED BY IDOCK:   -5.69 KCAL/MOL
REMARK 922        TOTAL FREE ENERGY PREDICTED BY IDOCK:   -6.52 KCAL/MOL
REMARK 923 INTER-LIGAND FREE ENERGY PREDICTED BY IDOCK:   -6.44 KCAL/MOL
REMARK 924 INTRA-LIGAND FREE ENERGY PREDICTED BY IDOCK:   -0.08 KCAL/MOL
REMARK 927      BINDING AFFINITY PREDICTED BY RF-SCORE:    0.00 PKD
ROOT
HETATM    1  C   UNL     1     -12.876  13.768  71.754  1.00  0.00    -0.415 C  
HETATM    2  C   UNL     1     -12.393  12.747  70.760  1.00  0.00    -0.287 C  
HETATM    3  N   UNL     1     -11.963  13.292  69.546  1.00  0.00    -0.317 N  
HETATM    4  O   UNL     1     -12.413  11.548  70.996  1.00  0.00    -0.380 OA 
HETATM    5  H   UNL     1     -12.065  14.300  69.422  1.00  0.00     0.000 HD 
ENDROOT
BRANCH   3   6
HETATM    6  S   UNL     1     -11.301  12.433  68.286  1.00  0.00    -0.310 S  
HETATM    7  O   UNL     1      -9.915  12.236  68.659  1.00  0.00    -0.200 OA 
HETATM    8  O   UNL     1     -12.146  11.307  67.964  1.00  0.00    -0.638 OA 
BRANCH   6   9
HETATM    9  C   UNL     1     -11.335  13.598  66.948  1.00  0.00    -0.327 A  
HETATM   10  C   UNL     1     -12.232  13.410  65.893  1.00  0.00    -0.502 A  
HETATM   11  C   UNL     1     -12.272  14.337  64.848  1.00  0.00    -0.449 A  
HETATM   12  C   UNL     1     -11.400  15.431  64.828  1.00  0.00    -0.376 A  
HETATM   13  N   UNL     1     -11.527  16.408  63.835  1.00  0.00    -1.618 NA 
HETATM   14  C   UNL     1     -10.572  15.651  65.933  1.00  0.00    -0.354 A  
HETATM   15  H2  UNL     1     -12.484  16.759  63.849  1.00  0.00     0.000 HD 
HETATM   16  H1  UNL     1     -10.892  17.207  63.820  1.00  0.00     0.000 HD 
HETATM   17  C   UNL     1     -10.523  14.732  66.987  1.00  0.00    -0.270 A  
ENDBRANCH   6   9
ENDBRANCH   3   6
TORSDOF 2
ENDMDL
MODEL        3
REMARK 921   NORMALIZED FREE ENERGY PREDICTED BY IDOCK:   -5.44 KCAL/MOL
REMARK 922        TOTAL FREE ENERGY PREDICTED BY IDOCK:   -6.25 KCAL/MOL
REMARK 923 INTER-LIGAND FREE ENERGY PREDICTED BY IDOCK:   -6.44 KCAL/MOL
REMARK 924 INTRA-LIGAND FREE ENERGY PREDICTED BY IDOCK:    0.19 KCAL/MOL
REMARK 927      BINDING AFFINITY PREDICTED BY RF-SCORE:    0.00 PKD
ROOT
HETATM    1  C   UNL     1      -9.665  11.409  63.025  1.00  0.00    -0.393 C  
HETATM    2  C   UNL     1     -10.782  12.273  63.543  1.00  0.00    -0.451 C  
HETATM    3  N   UNL     1     -10.353  13.456  64.152  1.00  0.00    -0.638 N  
HETATM    4  O   UNL     1     -11.955  11.939  63.461  1.00  0.00    -0.489 OA 
HETATM    5  H   UNL     1      -9.347  13.599  64.241  1.00  0.00     0.000 HD 
ENDROOT
BRANCH   3   6
HETATM    6  S   UNL     1     -11.347  14.649  64.745  1.00  0.00    -0.383 S  
HETATM    7  O   UNL     1     -10.540  15.851  64.721  1.00  0.00    -0.562 OA 
HETATM    8  O   UNL     1     -12.624  14.602  64.071  1.00  0.00    -0.819 OA 
BRANCH   6   9
HETATM    9  C   UNL     1     -11.561  14.182  66.444  1.00  0.00    -0.369 A  
HETATM   10  C   UNL     1     -11.705  12.832  66.775  1.00  0.00    -0.459 A  
HETATM   11  C   UNL     1     -11.854  12.462  68.114  1.00  0.00    -0.372 A  
HETATM   12  C   UNL     1     -11.896  13.430  69.124  1.00  0.00    -0.336 A  
HETATM   13  N   UNL     1     -11.935  13.039  70.466  1.00  0.00    -0.534 NA 
HETATM   14  C   UNL     1     -11.663  14.766  68.783  1.00  0.00    -0.354 A  
HETATM   15  H2  UNL     1     -11.143  12.422  70.645  1.00  0.00     0.000 HD 
HETATM   16  H1  UNL     1     -11.965  13.745  71.203  1.00  0.00     0.000 HD 
HETATM   17  C   UNL     1     -11.510  15.150  67.447  1.00  0.00    -0.284 A  
ENDBRANCH   6   9
ENDBRANCH   3   6
TORSDOF 2
ENDMDL
MODEL        4
REMARK 921   NORMALIZED FREE ENERGY PREDICTED BY IDOCK:   -5.37 KCAL/MOL
REMARK 922        TOTAL FREE ENERGY PREDICTED BY IDOCK:   -6.17 KCAL/MOL
REMARK 923 INTER-LIGAND FREE ENERGY PREDICTED BY IDOCK:   -6.35 KCAL/MOL
REMARK 924 INTRA-LIGAND FREE ENERGY PREDICTED BY IDOCK:    0.18 KCAL/MOL
REMARK 927      BINDING AFFINITY PREDICTED BY RF-SCORE:    0.00 PKD
ROOT
HETATM    1  C   UNL     1     -10.194  17.097  66.090  1.00  0.00    -0.343 C  
HETATM    2  C   UNL     1     -11.033  16.325  65.109  1.00  0.00    -0.274 C  
HETATM    3  N   UNL     1     -11.229  14.985  65.456  1.00  0.00    -0.350 N  
HETATM    4  O   UNL     1     -11.468  16.831  64.084  1.00  0.00    -1.171 OA 
HETATM    5  H   UNL     1     -10.753  14.643  66.291  1.00  0.00     0.000 HD 
ENDROOT
BRANCH   3   6
HETATM    6  S   UNL     1     -12.174  13.903  64.620  1.00  0.00    -0.406 S  
HETATM    7  O   UNL     1     -13.351  13.723  65.445  1.00  0.00    -0.669 OA 
HETATM    8  O   UNL     1     -12.294  14.320  63.242  1.00  0.00    -0.616 OA 
BRANCH   6   9
HETATM    9  C   UNL     1     -11.230  12.403  64.702  1.00  0.00    -0.312 A  
HETATM   10  C   UNL     1     -10.997  11.801  65.941  1.00  0.00    -0.354 A  
HETATM   11  C   UNL     1     -10.269  10.609  66.003  1.00  0.00    -0.309 A  
HETATM   12  C   UNL     1      -9.741  10.031  64.844  1.00  0.00    -0.307 A  
HETATM   13  N   UNL     1      -9.112   8.784  64.908  1.00  0.00    -0.428 NA 
HETATM   14  C   UNL     1     -10.058  10.599  63.605  1.00  0.00    -0.311 A  
HETATM   15  H2  UNL     1      -9.757   8.119  65.335  1.00  0.00     0.000 HD 
HETATM   16  H1  UNL     1      -8.727   8.362  64.062  1.00  0.00     0.000 HD 
HETATM   17  C   UNL     1     -10.788  11.790  63.528  1.00  0.00    -0.496 A  
ENDBRANCH   6   9
ENDBRANCH   3   6
TORSDOF 2
ENDMDL
MODEL        5
REMARK 921   NORMALIZED FREE ENERGY PREDICTED BY IDOCK:   -5.37 KCAL/MOL
REMARK 922        TOTAL FREE ENERGY PREDICTED BY IDOCK:   -6.17 KCAL/MOL
REMARK 923 INTER-LIGAND FREE ENERGY PREDICTED BY IDOCK:   -6.33 KCAL/MOL
REMARK 924 INTRA-LIGAND FREE ENERGY PREDICTED BY IDOCK:    0.16 KCAL/MOL
REMARK 927      BINDING AFFINITY PREDICTED BY RF-SCORE:    0.00 PKD
ROOT
HETATM    1  C   UNL     1      -9.695  11.430  62.975  1.00  0.00    -0.393 C  
HETATM    2  C   UNL     1     -10.800  12.294  63.518  1.00  0.00    -0.454 C  
HETATM    3  N   UNL     1     -10.355  13.459  64.150  1.00  0.00    -0.638 N  
HETATM    4  O   UNL     1     -11.977  11.973  63.436  1.00  0.00    -0.484 OA 
HETATM    5  H   UNL     1      -9.348  13.590  64.236  1.00  0.00     0.000 HD 
ENDROOT
BRANCH   3   6
HETATM    6  S   UNL     1     -11.334  14.648  64.775  1.00  0.00    -0.383 S  
HETATM    7  O   UNL     1     -10.539  15.857  64.708  1.00  0.00    -0.562 OA 
HETATM    8  O   UNL     1     -12.638  14.585  64.156  1.00  0.00    -0.730 OA 
BRANCH   6   9
HETATM    9  C   UNL     1     -11.472  14.193  66.485  1.00  0.00    -0.358 A  
HETATM   10  C   UNL     1     -11.443  15.186  67.467  1.00  0.00    -0.306 A  
HETATM   11  C   UNL     1     -11.571  14.830  68.813  1.00  0.00    -0.347 A  
HETATM   12  C   UNL     1     -11.692  13.488  69.189  1.00  0.00    -0.327 A  
HETATM   13  N   UNL     1     -11.931  13.156  70.527  1.00  0.00    -0.527 NA 
HETATM   14  C   UNL     1     -11.808  12.517  68.189  1.00  0.00    -0.371 A  
HETATM   15  H2  UNL     1     -12.762  13.655  70.840  1.00  0.00     0.000 HD 
HETATM   16  H1  UNL     1     -12.020  12.177  70.802  1.00  0.00     0.000 HD 
HETATM   17  C   UNL     1     -11.684  12.860  66.839  1.00  0.00    -0.445 A  
ENDBRANCH   6   9
ENDBRANCH   3   6
TORSDOF 2
ENDMDL
MODEL        6
REMARK 921   NORMALIZED FREE ENERGY PREDICTED BY IDOCK:   -5.35 KCAL/MOL
REMARK 922        TOTAL FREE ENERGY PREDICTED BY IDOCK:   -6.14 KCAL/MOL
REMARK 923 INTER-LIGAND FREE ENERGY PREDICTED BY IDOCK:   -6.03 KCAL/MOL
REMARK 924 INTRA-LIGAND FREE ENERGY PREDICTED BY IDOCK:   -0.11 KCAL/MOL
REMARK 927      BINDING AFFINITY PREDICTED BY RF-SCORE:    0.00 PKD
ROOT
HETATM    1  C   UNL     1      -9.134  11.164  62.577  1.00  0.00    -0.347 C  
HETATM    2  C   UNL     1     -10.244  11.447  63.552  1.00  0.00    -0.413 C  
HETATM    3  N   UNL     1     -10.919  12.649  63.314  1.00  0.00    -0.669 N  
HETATM    4  O   UNL     1     -10.498  10.699  64.484  1.00  0.00    -0.345 OA 
HETATM    5  H   UNL     1     -10.573  13.239  62.558  1.00  0.00     0.000 HD 
ENDROOT
BRANCH   3   6
HETATM    6  S   UNL     1     -12.238  13.195  64.164  1.00  0.00    -0.387 S  
HETATM    7  O   UNL     1     -12.650  14.401  63.476  1.00  0.00    -0.784 OA 
HETATM    8  O   UNL     1     -13.169  12.110  64.375  1.00  0.00    -0.758 OA 
BRANCH   6   9
HETATM    9  C   UNL     1     -11.537  13.680  65.720  1.00  0.00    -0.333 A  
HETATM   10  C   UNL     1     -12.159  13.289  66.909  1.00  0.00    -0.389 A  
HETATM   11  C   UNL     1     -11.597  13.654  68.135  1.00  0.00    -0.367 A  
HETATM   12  C   UNL     1     -10.439  14.437  68.186  1.00  0.00    -0.237 A  
HETATM   13  N   UNL     1      -9.826  14.701  69.416  1.00  0.00    -0.422 NA 
HETATM   14  C   UNL     1      -9.782  14.745  66.990  1.00  0.00    -0.242 A  
HETATM   15  H2  UNL     1      -9.636  13.813  69.878  1.00  0.00     0.000 HD 
HETATM   16  H1  UNL     1      -8.981  15.272  69.454  1.00  0.00     0.000 HD 
HETATM   17  C   UNL     1     -10.332  14.383  65.757  1.00  0.00    -0.340 A  
ENDBRANCH   6   9
ENDBRANCH   3   6
TORSDOF 2
ENDMDL
MODEL        7
REMARK 921   NORMALIZED FREE ENERGY PREDICTED BY IDOCK:   -5.34 KCAL/MOL
REMARK 922        TOTAL FREE ENERGY PREDICTED BY IDOCK:   -6.14 KCAL/MOL
REMARK 923 INTER-LIGAND FREE ENERGY PREDICTED BY IDOCK:   -5.97 KCAL/MOL
REMARK 924 INTRA-LIGAND FREE ENERGY PREDICTED BY IDOCK:   -0.17 KCAL/MOL
REMARK 927      BINDING AFFINITY PREDICTED BY RF-SCORE:    0.00 PKD
ROOT
HETATM    1  C   UNL     1     -10.499  17.671  65.708  1.00  0.00    -0.208 C  
HETATM    2  C   UNL     1     -11.138  16.485  65.039  1.00  0.00    -0.166 C  
HETATM    3  N   UNL     1     -11.150  15.327  65.823  1.00  0.00    -0.328 N  
HETATM    4  O   UNL     1     -11.571  16.537  63.898  1.00  0.00    -1.175 OA 
HETATM    5  H   UNL     1     -10.688  15.370  66.731  1.00  0.00     0.000 HD 
ENDROOT
BRANCH   3   6
HETATM    6  S   UNL     1     -11.857  13.884  65.395  1.00  0.00    -0.375 S  
HETATM    7  O   UNL     1     -13.264  14.191  65.241  1.00  0.00    -0.760 OA 
HETATM    8  O   UNL     1     -11.111  13.274  64.318  1.00  0.00    -0.367 OA 
BRANCH   6   9
HETATM    9  C   UNL     1     -11.680  12.903  66.863  1.00  0.00    -0.382 A  
HETATM   10  C   UNL     1     -11.268  11.572  66.757  1.00  0.00    -0.350 A  
HETATM   11  C   UNL     1     -11.110  10.805  67.915  1.00  0.00    -0.369 A  
HETATM   12  C   UNL     1     -11.395  11.342  69.174  1.00  0.00    -0.288 A  
HETATM   13  N   UNL     1     -11.127  10.600  70.329  1.00  0.00    -0.425 NA 
HETATM   14  C   UNL     1     -11.722  12.699  69.268  1.00  0.00    -0.379 A  
HETATM   15  H2  UNL     1     -10.148  10.320  70.312  1.00  0.00     0.000 HD 
HETATM   16  H1  UNL     1     -11.335  10.992  71.248  1.00  0.00     0.000 HD 
HETATM   17  C   UNL     1     -11.880  13.480  68.118  1.00  0.00    -0.400 A  
ENDBRANCH   6   9
ENDBRANCH   3   6
TORSDOF 2
ENDMDL
MODEL        8
REMARK 921   NORMALIZED FREE ENERGY PREDICTED BY IDOCK:   -5.26 KCAL/MOL
REMARK 922        TOTAL FREE ENERGY PREDICTED BY IDOCK:   -6.04 KCAL/MOL
REMARK 923 INTER-LIGAND FREE ENERGY PREDICTED BY IDOCK:   -5.87 KCAL/MOL
REMARK 924 INTRA-LIGAND FREE ENERGY PREDICTED BY IDOCK:   -0.17 KCAL/MOL
REMARK 927      BINDING AFFINITY PREDICTED BY RF-SCORE:    0.00 PKD
ROOT
HETATM    1  C   UNL     1     -10.325  17.551  66.425  1.00  0.00    -0.334 C  
HETATM    2  C   UNL     1     -10.906  16.490  65.531  1.00  0.00    -0.188 C  
HETATM    3  N   UNL     1     -10.990  15.226  66.125  1.00  0.00    -0.325 N  
HETATM    4  O   UNL     1     -11.238  16.720  64.378  1.00  0.00    -1.112 OA 
HETATM    5  H   UNL     1     -10.609  15.125  67.066  1.00  0.00     0.000 HD 
ENDROOT
BRANCH   3   6
HETATM    6  S   UNL     1     -11.660  13.877  65.424  1.00  0.00    -0.339 S  
HETATM    7  O   UNL     1     -13.065  14.195  65.272  1.00  0.00    -0.763 OA 
HETATM    8  O   UNL     1     -10.867  13.470  64.287  1.00  0.00    -0.391 OA 
BRANCH   6   9
HETATM    9  C   UNL     1     -11.524  12.654  66.703  1.00  0.00    -0.351 A  
HETATM   10  C   UNL     1     -11.898  12.979  68.010  1.00  0.00    -0.391 A  
HETATM   11  C   UNL     1     -11.809  12.010  69.014  1.00  0.00    -0.372 A  
HETATM   12  C   UNL     1     -11.317  10.731  68.733  1.00  0.00    -0.288 A  
HETATM   13  N   UNL     1     -11.338   9.741  69.721  1.00  0.00    -0.383 NA 
HETATM   14  C   UNL     1     -11.031  10.398  67.405  1.00  0.00    -0.335 A  
HETATM   15  H2  UNL     1     -12.293   9.651  70.066  1.00  0.00     0.000 HD 
HETATM   16  H1  UNL     1     -10.980   8.808  69.516  1.00  0.00     0.000 HD 
HETATM   17  C   UNL     1     -11.119  11.356  66.390  1.00  0.00    -0.301 A  
ENDBRANCH   6   9
ENDBRANCH   3   6
TORSDOF 2
ENDMDL
MODEL        9
REMARK 921   NORMALIZED FREE ENERGY PREDICTED BY IDOCK:   -5.25 KCAL/MOL
REMARK 922        TOTAL FREE ENERGY PREDICTED BY IDOCK:   -6.04 KCAL/MOL
REMARK 923 INTER-LIGAND FREE ENERGY PREDICTED BY IDOCK:   -5.94 KCAL/MOL
REMARK 924 INTRA-LIGAND FREE ENERGY PREDICTED BY IDOCK:   -0.10 KCAL/MOL
REMARK 927      BINDING AFFINITY PREDICTED BY RF-SCORE:    0.00 PKD
ROOT
HETATM    1  C   UNL     1     -12.567  14.026  65.444  1.00  0.00    -0.529 C  
HETATM    2  C   UNL     1     -12.081  13.022  66.452  1.00  0.00    -0.358 C  
HETATM    3  N   UNL     1     -12.050  13.501  67.766  1.00  0.00    -0.327 N  
HETATM    4  O   UNL     1     -11.716  11.900  66.131  1.00  0.00    -0.484 OA 
HETATM    5  H   UNL     1     -12.298  14.479  67.913  1.00  0.00     0.000 HD 
ENDROOT
BRANCH   3   6
HETATM    6  S   UNL     1     -11.640  12.608  69.106  1.00  0.00    -0.331 S  
HETATM    7  O   UNL     1     -12.511  11.451  69.062  1.00  0.00    -0.364 OA 
HETATM    8  O   UNL     1     -10.205  12.451  69.171  1.00  0.00     0.027 OA 
BRANCH   6   9
HETATM    9  C   UNL     1     -12.181  13.634  70.449  1.00  0.00    -0.363 A  
HETATM   10  C   UNL     1     -13.017  13.098  71.433  1.00  0.00    -0.386 A  
HETATM   11  C   UNL     1     -13.428  13.900  72.501  1.00  0.00    -0.676 A  
HETATM   12  C   UNL     1     -13.042  15.242  72.578  1.00  0.00    -0.406 A  
HETATM   13  N   UNL     1     -13.369  16.001  73.707  1.00  0.00    -0.879 NA 
HETATM   14  C   UNL     1     -12.136  15.737  71.634  1.00  0.00    -0.522 A  
HETATM   15  H2  UNL     1     -13.018  15.517  74.533  1.00  0.00     0.000 HD 
HETATM   16  H1  UNL     1     -13.087  16.980  73.764  1.00  0.00     0.000 HD 
HETATM   17  C   UNL     1     -11.715  14.944  70.561  1.00  0.00    -0.344 A  
ENDBRANCH   6   9
ENDBRANCH   3   6
TORSDOF 2
ENDMDL
MODEL       10
REMARK 921   NORMALIZED FREE ENERGY PREDICTED BY IDOCK:   -5.20 KCAL/MOL
REMARK 922        TOTAL FREE ENERGY PREDICTED BY IDOCK:   -5.98 KCAL/MOL
REMARK 923 INTER-LIGAND FREE ENERGY PREDICTED BY IDOCK:   -6.13 KCAL/MOL
REMARK 924 INTRA-LIGAND FREE ENERGY PREDICTED BY IDOCK:    0.16 KCAL/MOL
REMARK 927      BINDING AFFINITY PREDICTED BY RF-SCORE:    0.00 PKD
ROOT
HETATM    1  C   UNL     1     -10.113  16.983  65.638  1.00  0.00    -0.136 C  
HETATM    2  C   UNL     1     -11.045  16.151  64.800  1.00  0.00    -0.333 C  
HETATM    3  N   UNL     1     -11.140  14.816  65.207  1.00  0.00    -0.350 N  
HETATM    4  O   UNL     1     -11.634  16.609  63.832  1.00  0.00    -1.204 OA 
HETATM    5  H   UNL     1     -10.543  14.518  65.978  1.00  0.00     0.000 HD 
ENDROOT
BRANCH   3   6
HETATM    6  S   UNL     1     -12.146  13.676  64.536  1.00  0.00    -0.419 S  
HETATM    7  O   UNL     1     -13.228  13.529  65.488  1.00  0.00    -0.536 OA 
HETATM    8  O   UNL     1     -12.415  14.010  63.157  1.00  0.00    -0.733 OA 
BRANCH   6   9
HETATM    9  C   UNL     1     -11.170  12.195  64.604  1.00  0.00    -0.323 A  
HETATM   10  C   UNL     1     -10.489  11.766  63.462  1.00  0.00    -0.500 A  
HETATM   11  C   UNL     1      -9.706  10.610  63.520  1.00  0.00    -0.389 A  
HETATM   12  C   UNL     1      -9.623   9.859  64.697  1.00  0.00    -0.252 A  
HETATM   13  N   UNL     1      -8.750   8.769  64.772  1.00  0.00    -0.350 NA 
HETATM   14  C   UNL     1     -10.240  10.350  65.852  1.00  0.00    -0.302 A  
HETATM   15  H2  UNL     1      -7.813   9.089  64.529  1.00  0.00     0.000 HD 
HETATM   16  H1  UNL     1      -8.690   8.221  65.631  1.00  0.00     0.000 HD 
HETATM   17  C   UNL     1     -11.025  11.507  65.809  1.00  0.00    -0.305 A  
ENDBRANCH   6   9
ENDBRANCH   3   6
TORSDOF 2
ENDMDL
MODEL       11
REMARK 921   NORMALIZED FREE ENERGY PREDICTED BY IDOCK:   -5.16 KCAL/MOL
REMARK 922        TOTAL FREE ENERGY PREDICTED BY IDOCK:   -5.94 KCAL/MOL
REMARK 923 INTER-LIGAND FREE ENERGY PREDICTED BY IDOCK:   -5.80 KCAL/MOL
REMARK 924 INTRA-LIGAND FREE ENERGY PREDICTED BY IDOCK:   -0.13 KCAL/MOL
REMARK 927      BINDING AFFINITY PREDICTED BY RF-SCORE:    0.00 PKD
ROOT
HETATM    1  C   UNL     1     -12.821  10.780  71.070  1.00  0.00    -0.480 C  
HETATM    2  C   UNL     1     -11.650  10.361  70.224  1.00  0.00    -0.327 C  
HETATM    3  N   UNL     1     -11.730  10.779  68.891  1.00  0.00    -0.436 N  
HETATM    4  O   UNL     1     -10.734   9.685  70.669  1.00  0.00    -0.276 OA 
HETATM    5  H   UNL     1     -12.577  11.269  68.604  1.00  0.00     0.000 HD 
ENDROOT
BRANCH   3   6
HETATM    6  S   UNL     1     -10.557  10.544  67.737  1.00  0.00    -0.264 S  
HETATM    7  O   UNL     1      -9.356  11.122  68.304  1.00  0.00    -0.162 OA 
HETATM    8  O   UNL     1     -10.576   9.169  67.293  1.00  0.00    -0.271 OA 
BRANCH   6   9
HETATM    9  C   UNL     1     -11.085  11.599  66.412  1.00  0.00    -0.291 A  
HETATM   10  C   UNL     1     -10.775  11.256  65.093  1.00  0.00    -0.312 A  
HETATM   11  C   UNL     1     -11.207  12.077  64.048  1.00  0.00    -0.468 A  
HETATM   12  C   UNL     1     -11.914  13.255  64.308  1.00  0.00    -0.421 A  
HETATM   13  N   UNL     1     -12.435  14.007  63.249  1.00  0.00    -1.112 NA 
HETATM   14  C   UNL     1     -12.291  13.536  65.625  1.00  0.00    -0.522 A  
HETATM   15  H2  UNL     1     -13.021  13.398  62.679  1.00  0.00     0.000 HD 
HETATM   16  H1  UNL     1     -12.952  14.867  63.439  1.00  0.00     0.000 HD 
HETATM   17  C   UNL     1     -11.868  12.722  66.681  1.00  0.00    -0.462 A  
ENDBRANCH   6   9
ENDBRANCH   3   6
TORSDOF 2
ENDMDL
MODEL       12
REMARK 921   NORMALIZED FREE ENERGY PREDICTED BY IDOCK:   -5.13 KCAL/MOL
REMARK 922        TOTAL FREE ENERGY PREDICTED BY IDOCK:   -5.91 KCAL/MOL
REMARK 923 INTER-LIGAND FREE ENERGY PREDICTED BY IDOCK:   -5.77 KCAL/MOL
REMARK 924 INTRA-LIGAND FREE ENERGY PREDICTED BY IDOCK:   -0.14 KCAL/MOL
REMARK 927      BINDING AFFINITY PREDICTED BY RF-SCORE:    0.00 PKD
ROOT
HETATM    1  C   UNL     1      -7.779  13.484  68.077  1.00  0.00    -0.143 C  
HETATM    2  C   UNL     1      -9.224  13.098  67.925  1.00  0.00    -0.207 C  
HETATM    3  N   UNL     1     -10.025  13.440  69.020  1.00  0.00    -0.421 N  
HETATM    4  O   UNL     1      -9.641  12.508  66.939  1.00  0.00    -0.216 OA 
HETATM    5  H   UNL     1      -9.561  13.857  69.826  1.00  0.00     0.000 HD 
ENDROOT
BRANCH   3   6
HETATM    6  S   UNL     1     -11.669  13.221  69.115  1.00  0.00    -0.339 S  
HETATM    7  O   UNL     1     -12.208  13.953  67.987  1.00  0.00    -0.326 OA 
HETATM    8  O   UNL     1     -11.967  11.818  69.296  1.00  0.00    -0.306 OA 
BRANCH   6   9
HETATM    9  C   UNL     1     -12.105  14.110  70.587  1.00  0.00    -0.351 A  
HETATM   10  C   UNL     1     -12.936  13.508  71.536  1.00  0.00    -0.440 A  
HETATM   11  C   UNL     1     -13.264  14.200  72.705  1.00  0.00    -0.612 A  
HETATM   12  C   UNL     1     -12.800  15.502  72.919  1.00  0.00    -0.457 A  
HETATM   13  N   UNL     1     -13.045  16.140  74.140  1.00  0.00    -0.941 NA 
HETATM   14  C   UNL     1     -11.901  16.055  72.002  1.00  0.00    -0.623 A  
HETATM   15  H2  UNL     1     -12.694  15.545  74.890  1.00  0.00     0.000 HD 
HETATM   16  H1  UNL     1     -12.706  17.090  74.297  1.00  0.00     0.000 HD 
HETATM   17  C   UNL     1     -11.562  15.372  70.830  1.00  0.00    -0.381 A  
ENDBRANCH   6   9
ENDBRANCH   3   6
TORSDOF 2
ENDMDL
MODEL       13
REMARK 921   NORMALIZED FREE ENERGY PREDICTED BY IDOCK:   -5.11 KCAL/MOL
REMARK 922        TOTAL FREE ENERGY PREDICTED BY IDOCK:   -5.88 KCAL/MOL
REMARK 923 INTER-LIGAND FREE ENERGY PREDICTED BY IDOCK:   -5.77 KCAL/MOL
REMARK 924 INTRA-LIGAND FREE ENERGY PREDICTED BY IDOCK:   -0.11 KCAL/MOL
REMARK 927      BINDING AFFINITY PREDICTED BY RF-SCORE:    0.00 PKD
ROOT
HETATM    1  C   UNL     1      -7.843  10.741  69.008  1.00  0.00    -0.138 C  
HETATM    2  C   UNL     1      -9.333  10.914  69.112  1.00  0.00    -0.078 C  
HETATM    3  N   UNL     1      -9.836  11.991  68.373  1.00  0.00    -0.211 N  
HETATM    4  O   UNL     1     -10.026  10.191  69.813  1.00  0.00    -0.231 OA 
HETATM    5  H   UNL     1      -9.161  12.581  67.888  1.00  0.00     0.000 HD 
ENDROOT
BRANCH   3   6
HETATM    6  S   UNL     1     -11.443  12.387  68.222  1.00  0.00    -0.333 S  
HETATM    7  O   UNL     1     -12.076  11.185  67.720  1.00  0.00    -0.606 OA 
HETATM    8  O   UNL     1     -11.909  13.016  69.436  1.00  0.00    -0.306 OA 
BRANCH   6   9
HETATM    9  C   UNL     1     -11.438  13.578  66.907  1.00  0.00    -0.344 A  
HETATM   10  C   UNL     1     -12.223  13.356  65.772  1.00  0.00    -0.507 A  
HETATM   11  C   UNL     1     -12.233  14.303  64.745  1.00  0.00    -0.456 A  
HETATM   12  C   UNL     1     -11.441  15.453  64.822  1.00  0.00    -0.336 A  
HETATM   13  N   UNL     1     -11.546  16.443  63.840  1.00  0.00    -1.602 NA 
HETATM   14  C   UNL     1     -10.731  15.701  66.001  1.00  0.00    -0.322 A  
HETATM   15  H2  UNL     1     -12.522  16.728  63.773  1.00  0.00     0.000 HD 
HETATM   16  H1  UNL     1     -10.968  17.282  63.896  1.00  0.00     0.000 HD 
HETATM   17  C   UNL     1     -10.713  14.763  67.039  1.00  0.00    -0.300 A  
ENDBRANCH   6   9
ENDBRANCH   3   6
TORSDOF 2
ENDMDL
MODEL       14
REMARK 921   NORMALIZED FREE ENERGY PREDICTED BY IDOCK:   -5.10 KCAL/MOL
REMARK 922        TOTAL FREE ENERGY PREDICTED BY IDOCK:   -5.87 KCAL/MOL
REMARK 923 INTER-LIGAND FREE ENERGY PREDICTED BY IDOCK:   -5.71 KCAL/MOL
REMARK 924 INTRA-LIGAND FREE ENERGY PREDICTED BY IDOCK:   -0.17 KCAL/MOL
REMARK 927      BINDING AFFINITY PREDICTED BY RF-SCORE:    0.00 PKD
ROOT
HETATM    1  C   UNL     1     -10.688  19.220  67.244  1.00  0.00    -0.594 C  
HETATM    2  C   UNL     1     -10.404  17.772  66.956  1.00  0.00    -0.344 C  
HETATM    3  N   UNL     1     -10.812  16.897  67.968  1.00  0.00    -0.362 N  
HETATM    4  O   UNL     1      -9.834  17.410  65.936  1.00  0.00    -0.501 OA 
HETATM    5  H   UNL     1     -11.204  17.311  68.814  1.00  0.00     0.000 HD 
ENDROOT
BRANCH   3   6
HETATM    6  S   UNL     1     -10.711  15.239  67.906  1.00  0.00    -0.283 S  
HETATM    7  O   UNL     1     -11.488  14.863  66.743  1.00  0.00    -0.347 OA 
HETATM    8  O   UNL     1      -9.332  14.827  68.039  1.00  0.00    -0.189 OA 
BRANCH   6   9
HETATM    9  C   UNL     1     -11.619  14.731  69.343  1.00  0.00    -0.310 A  
HETATM   10  C   UNL     1     -12.235  15.694  70.146  1.00  0.00    -0.387 A  
HETATM   11  C   UNL     1     -12.966  15.292  71.268  1.00  0.00    -0.511 A  
HETATM   12  C   UNL     1     -13.058  13.940  71.616  1.00  0.00    -0.367 A  
HETATM   13  N   UNL     1     -13.883  13.545  72.674  1.00  0.00    -0.753 NA 
HETATM   14  C   UNL     1     -12.510  12.985  70.753  1.00  0.00    -0.384 A  
HETATM   15  H2  UNL     1     -14.823  13.897  72.499  1.00  0.00     0.000 HD 
HETATM   16  H1  UNL     1     -13.951  12.559  72.928  1.00  0.00     0.000 HD 
HETATM   17  C   UNL     1     -11.778  13.373  69.626  1.00  0.00    -0.375 A  
ENDBRANCH   6   9
ENDBRANCH   3   6
TORSDOF 2
ENDMDL
MODEL       15
REMARK 921   NORMALIZED FREE ENERGY PREDICTED BY IDOCK:   -5.09 KCAL/MOL
REMARK 922        TOTAL FREE ENERGY PREDICTED BY IDOCK:   -5.86 KCAL/MOL
REMARK 923 INTER-LIGAND FREE ENERGY PREDICTED BY IDOCK:   -5.77 KCAL/MOL
REMARK 924 INTRA-LIGAND FREE ENERGY PREDICTED BY IDOCK:   -0.08 KCAL/MOL
REMARK 927      BINDING AFFINITY PREDICTED BY RF-SCORE:    0.00 PKD
ROOT
HETATM    1  C   UNL     1      -9.068   9.131  65.009  1.00  0.00    -0.215 C  
HETATM    2  C   UNL     1      -9.224  10.375  65.841  1.00  0.00    -0.170 C  
HETATM    3  N   UNL     1     -10.460  10.478  66.487  1.00  0.00    -0.234 N  
HETATM    4  O   UNL     1      -8.350  11.227  65.907  1.00  0.00    -0.130 OA 
HETATM    5  H   UNL     1     -11.149   9.751  66.299  1.00  0.00     0.000 HD 
ENDROOT
BRANCH   3   6
HETATM    6  S   UNL     1     -10.898  11.690  67.537  1.00  0.00    -0.253 S  
HETATM    7  O   UNL     1     -12.212  11.311  68.014  1.00  0.00    -0.621 OA 
HETATM    8  O   UNL     1      -9.821  11.947  68.465  1.00  0.00    -0.208 OA 
BRANCH   6   9
HETATM    9  C   UNL     1     -11.100  13.091  66.467  1.00  0.00    -0.288 A  
HETATM   10  C   UNL     1     -10.126  14.092  66.451  1.00  0.00    -0.299 A  
HETATM   11  C   UNL     1     -10.276  15.186  65.594  1.00  0.00    -0.387 A  
HETATM   12  C   UNL     1     -11.406  15.308  64.779  1.00  0.00    -0.391 A  
HETATM   13  N   UNL     1     -11.488  16.349  63.848  1.00  0.00    -1.618 NA 
HETATM   14  C   UNL     1     -12.325  14.255  64.743  1.00  0.00    -0.440 A  
HETATM   15  H2  UNL     1     -10.663  16.314  63.251  1.00  0.00     0.000 HD 
HETATM   16  H1  UNL     1     -12.312  16.438  63.253  1.00  0.00     0.000 HD 
HETATM   17  C   UNL     1     -12.187  13.153  65.593  1.00  0.00    -0.521 A  
ENDBRANCH   6   9
ENDBRANCH   3   6
TORSDOF 2
ENDMDL
MODEL       16
REMARK 921   NORMALIZED FREE ENERGY PREDICTED BY IDOCK:   -5.06 KCAL/MOL
REMARK 922        TOTAL FREE ENERGY PREDICTED BY IDOCK:   -5.82 KCAL/MOL
REMARK 923 INTER-LIGAND FREE ENERGY PREDICTED BY IDOCK:   -5.85 KCAL/MOL
REMARK 924 INTRA-LIGAND FREE ENERGY PREDICTED BY IDOCK:    0.03 KCAL/MOL
REMARK 927      BINDING AFFINITY PREDICTED BY RF-SCORE:    0.00 PKD
ROOT
HETATM    1  C   UNL     1     -11.567  15.093  71.319  1.00  0.00    -0.406 C  
HETATM    2  C   UNL     1     -11.850  14.408  70.010  1.00  0.00    -0.315 C  
HETATM    3  N   UNL     1     -10.866  13.494  69.620  1.00  0.00    -0.441 N  
HETATM    4  O   UNL     1     -12.840  14.666  69.341  1.00  0.00     0.080 OA 
HETATM    5  H   UNL     1     -10.039  13.415  70.212  1.00  0.00     0.000 HD 
ENDROOT
BRANCH   3   6
HETATM    6  S   UNL     1     -10.933  12.525  68.271  1.00  0.00    -0.256 S  
HETATM    7  O   UNL     1      -9.614  11.935  68.171  1.00  0.00    -0.184 OA 
HETATM    8  O   UNL     1     -12.113  11.693  68.324  1.00  0.00    -0.552 OA 
BRANCH   6   9
HETATM    9  C   UNL     1     -11.098  13.696  66.948  1.00  0.00    -0.304 A  
HETATM   10  C   UNL     1     -12.060  13.485  65.957  1.00  0.00    -0.489 A  
HETATM   11  C   UNL     1     -12.202  14.417  64.925  1.00  0.00    -0.440 A  
HETATM   12  C   UNL     1     -11.370  15.539  64.853  1.00  0.00    -0.335 A  
HETATM   13  N   UNL     1     -11.597  16.517  63.879  1.00  0.00    -1.578 NA 
HETATM   14  C   UNL     1     -10.473  15.778  65.899  1.00  0.00    -0.366 A  
HETATM   15  H2  UNL     1     -12.561  16.837  63.962  1.00  0.00     0.000 HD 
HETATM   16  H1  UNL     1     -10.990  17.336  63.827  1.00  0.00     0.000 HD 
HETATM   17  C   UNL     1     -10.322  14.856  66.939  1.00  0.00    -0.264 A  
ENDBRANCH   6   9
ENDBRANCH   3   6
TORSDOF 2
ENDMDL
MODEL       17
REMARK 921   NORMALIZED FREE ENERGY PREDICTED BY IDOCK:   -5.05 KCAL/MOL
REMARK 922        TOTAL FREE ENERGY PREDICTED BY IDOCK:   -5.81 KCAL/MOL
REMARK 923 INTER-LIGAND FREE ENERGY PREDICTED BY IDOCK:   -5.66 KCAL/MOL
REMARK 924 INTRA-LIGAND FREE ENERGY PREDICTED BY IDOCK:   -0.15 KCAL/MOL
REMARK 927      BINDING AFFINITY PREDICTED BY RF-SCORE:    0.00 PKD
ROOT
HETATM    1  C   UNL     1     -10.706  19.106  67.003  1.00  0.00    -0.542 C  
HETATM    2  C   UNL     1     -10.535  17.839  67.796  1.00  0.00    -0.397 C  
HETATM    3  N   UNL     1     -10.767  16.671  67.063  1.00  0.00    -0.234 N  
HETATM    4  O   UNL     1     -10.251  17.849  68.985  1.00  0.00    -0.378 OA 
HETATM    5  H   UNL     1     -11.079  16.778  66.098  1.00  0.00     0.000 HD 
ENDROOT
BRANCH   3   6
HETATM    6  S   UNL     1     -10.577  15.122  67.635  1.00  0.00    -0.268 S  
HETATM    7  O   UNL     1      -9.148  14.962  67.807  1.00  0.00    -0.180 OA 
HETATM    8  O   UNL     1     -11.484  14.893  68.737  1.00  0.00    -0.277 OA 
BRANCH   6   9
HETATM    9  C   UNL     1     -11.066  14.123  66.253  1.00  0.00    -0.318 A  
HETATM   10  C   UNL     1     -10.093  13.641  65.373  1.00  0.00    -0.291 A  
HETATM   11  C   UNL     1     -10.476  12.838  64.295  1.00  0.00    -0.423 A  
HETATM   12  C   UNL     1     -11.824  12.542  64.065  1.00  0.00    -0.431 A  
HETATM   13  N   UNL     1     -12.181  11.648  63.050  1.00  0.00    -0.951 NA 
HETATM   14  C   UNL     1     -12.773  12.959  65.004  1.00  0.00    -0.474 A  
HETATM   15  H2  UNL     1     -11.679  10.773  63.199  1.00  0.00     0.000 HD 
HETATM   16  H1  UNL     1     -13.164  11.432  62.883  1.00  0.00     0.000 HD 
HETATM   17  C   UNL     1     -12.403  13.761  66.089  1.00  0.00    -0.496 A  
ENDBRANCH   6   9
ENDBRANCH   3   6
TORSDOF 2
ENDMDL
MODEL       18
REMARK 921   NORMALIZED FREE ENERGY PREDICTED BY IDOCK:   -5.03 KCAL/MOL
REMARK 922        TOTAL FREE ENERGY PREDICTED BY IDOCK:   -5.80 KCAL/MOL
REMARK 923 INTER-LIGAND FREE ENERGY PREDICTED BY IDOCK:   -5.82 KCAL/MOL
REMARK 924 INTRA-LIGAND FREE ENERGY PREDICTED BY IDOCK:    0.03 KCAL/MOL
REMARK 927      BINDING AFFINITY PREDICTED BY RF-SCORE:    0.00 PKD
ROOT
HETATM    1  C   UNL     1      -7.569  11.960  68.272  1.00  0.00    -0.116 C  
HETATM    2  C   UNL     1      -8.983  12.008  67.762  1.00  0.00    -0.176 C  
HETATM    3  N   UNL     1      -9.919  12.431  68.712  1.00  0.00    -0.418 N  
HETATM    4  O   UNL     1      -9.277  11.671  66.624  1.00  0.00    -0.180 OA 
HETATM    5  H   UNL     1      -9.578  12.610  69.656  1.00  0.00     0.000 HD 
ENDROOT
BRANCH   3   6
HETATM    6  S   UNL     1     -11.539  12.665  68.428  1.00  0.00    -0.347 S  
HETATM    7  O   UNL     1     -12.015  11.394  67.921  1.00  0.00    -0.626 OA 
HETATM    8  O   UNL     1     -12.155  13.277  69.583  1.00  0.00    -0.306 OA 
BRANCH   6   9
HETATM    9  C   UNL     1     -11.546  13.816  67.078  1.00  0.00    -0.365 A  
HETATM   10  C   UNL     1     -10.789  14.987  67.167  1.00  0.00    -0.314 A  
HETATM   11  C   UNL     1     -10.778  15.885  66.096  1.00  0.00    -0.273 A  
HETATM   12  C   UNL     1     -11.545  15.642  64.951  1.00  0.00    -0.156 A  
HETATM   13  N   UNL     1     -11.438  16.492  63.845  1.00  0.00    -1.599 NA 
HETATM   14  C   UNL     1     -12.226  14.425  64.844  1.00  0.00    -0.440 A  
HETATM   15  H2  UNL     1     -10.458  16.543  63.571  1.00  0.00     0.000 HD 
HETATM   16  H1  UNL     1     -11.997  16.315  63.009  1.00  0.00     0.000 HD 
HETATM   17  C   UNL     1     -12.242  13.517  65.907  1.00  0.00    -0.507 A  
ENDBRANCH   6   9
ENDBRANCH   3   6
TORSDOF 2
ENDMDL
MODEL       19
REMARK 921   NORMALIZED FREE ENERGY PREDICTED BY IDOCK:   -5.02 KCAL/MOL
REMARK 922        TOTAL FREE ENERGY PREDICTED BY IDOCK:   -5.77 KCAL/MOL
REMARK 923 INTER-LIGAND FREE ENERGY PREDICTED BY IDOCK:   -5.60 KCAL/MOL
REMARK 924 INTRA-LIGAND FREE ENERGY PREDICTED BY IDOCK:   -0.17 KCAL/MOL
REMARK 927      BINDING AFFINITY PREDICTED BY RF-SCORE:    0.00 PKD
ROOT
HETATM    1  C   UNL     1     -10.107  10.656  64.588  1.00  0.00    -0.417 C  
HETATM    2  C   UNL     1     -10.838  11.964  64.454  1.00  0.00    -0.332 C  
HETATM    3  N   UNL     1     -11.112  12.593  65.673  1.00  0.00    -0.284 N  
HETATM    4  O   UNL     1     -11.184  12.408  63.369  1.00  0.00    -0.456 OA 
HETATM    5  H   UNL     1     -10.852  12.096  66.525  1.00  0.00     0.000 HD 
ENDROOT
BRANCH   3   6
HETATM    6  S   UNL     1     -11.830  14.082  65.848  1.00  0.00    -0.401 S  
HETATM    7  O   UNL     1     -10.905  15.014  65.236  1.00  0.00    -0.334 OA 
HETATM    8  O   UNL     1     -13.207  14.016  65.416  1.00  0.00    -0.761 OA 
BRANCH   6   9
HETATM    9  C   UNL     1     -11.775  14.347  67.601  1.00  0.00    -0.391 A  
HETATM   10  C   UNL     1     -11.882  13.256  68.467  1.00  0.00    -0.384 A  
HETATM   11  C   UNL     1     -11.820  13.463  69.848  1.00  0.00    -0.385 A  
HETATM   12  C   UNL     1     -11.688  14.752  70.374  1.00  0.00    -0.295 A  
HETATM   13  N   UNL     1     -11.516  14.933  71.751  1.00  0.00    -0.516 NA 
HETATM   14  C   UNL     1     -11.495  15.821  69.492  1.00  0.00    -0.356 A  
HETATM   15  H2  UNL     1     -10.714  14.379  72.050  1.00  0.00     0.000 HD 
HETATM   16  H1  UNL     1     -11.419  15.874  72.134  1.00  0.00     0.000 HD 
HETATM   17  C   UNL     1     -11.552  15.628  68.108  1.00  0.00    -0.290 A  
ENDBRANCH   6   9
ENDBRANCH   3   6
TORSDOF 2
ENDMDL
MODEL       20
REMARK 921   NORMALIZED FREE ENERGY PREDICTED BY IDOCK:   -5.01 KCAL/MOL
REMARK 922        TOTAL FREE ENERGY PREDICTED BY IDOCK:   -5.76 KCAL/MOL
REMARK 923 INTER-LIGAND FREE ENERGY PREDICTED BY IDOCK:   -5.58 KCAL/MOL
REMARK 924 INTRA-LIGAND FREE ENERGY PREDICTED BY IDOCK:   -0.18 KCAL/MOL
REMARK 927      BINDING AFFINITY PREDICTED BY RF-SCORE:    0.00 PKD
ROOT
HETATM    1  C   UNL     1     -10.707  19.492  67.947  1.00  0.00    -0.423 C  
HETATM    2  C   UNL     1     -10.243  18.676  66.773  1.00  0.00    -0.393 C  
HETATM    3  N   UNL     1     -10.527  17.310  66.879  1.00  0.00    -0.303 N  
HETATM    4  O   UNL     1      -9.640  19.172  65.832  1.00  0.00    -0.445 OA 
HETATM    5  H   UNL     1     -10.961  16.988  67.744  1.00  0.00     0.000 HD 
ENDROOT
BRANCH   3   6
HETATM    6  S   UNL     1     -10.215  16.169  65.712  1.00  0.00    -0.370 S  
HETATM    7  O   UNL     1     -11.139  16.473  64.638  1.00  0.00    -0.699 OA 
HETATM    8  O   UNL     1      -8.793  16.097  65.465  1.00  0.00    -0.239 OA 
BRANCH   6   9
HETATM    9  C   UNL     1     -10.756  14.661  66.473  1.00  0.00    -0.312 A  
HETATM   10  C   UNL     1     -10.956  14.619  67.856  1.00  0.00    -0.283 A  
HETATM   11  C   UNL     1     -11.401  13.437  68.453  1.00  0.00    -0.329 A  
HETATM   12  C   UNL     1     -11.615  12.285  67.690  1.00  0.00    -0.354 A  
HETATM   13  N   UNL     1     -12.165  11.144  68.283  1.00  0.00    -0.709 NA 
HETATM   14  C   UNL     1     -11.495  12.369  66.298  1.00  0.00    -0.423 A  
HETATM   15  H2  UNL     1     -13.045  11.404  68.727  1.00  0.00     0.000 HD 
HETATM   16  H1  UNL     1     -12.322  10.304  67.725  1.00  0.00     0.000 HD 
HETATM   17  C   UNL     1     -11.053  13.547  65.687  1.00  0.00    -0.299 A  
ENDBRANCH   6   9
ENDBRANCH   3   6
TORSDOF 2
ENDMDL
MODEL       21
REMARK 921   NORMALIZED FREE ENERGY PREDICTED BY IDOCK:   -5.00 KCAL/MOL
REMARK 922        TOTAL FREE ENERGY PREDICTED BY IDOCK:   -5.76 KCAL/MOL
REMARK 923 INTER-LIGAND FREE ENERGY PREDICTED BY IDOCK:   -5.97 KCAL/MOL
REMARK 924 INTRA-LIGAND FREE ENERGY PREDICTED BY IDOCK:    0.21 KCAL/MOL
REMARK 927      BINDING AFFINITY PREDICTED BY RF-SCORE:    0.00 PKD
ROOT
HETATM    1  C   UNL     1     -10.499   9.824  69.408  1.00  0.00    -0.241 C  
HETATM    2  C   UNL     1     -11.230  11.053  68.942  1.00  0.00    -0.265 C  
HETATM    3  N   UNL     1     -10.661  12.255  69.377  1.00  0.00    -0.442 N  
HETATM    4  O   UNL     1     -12.251  10.989  68.272  1.00  0.00    -0.582 OA 
HETATM    5  H   UNL     1      -9.857  12.193  70.000  1.00  0.00     0.000 HD 
ENDROOT
BRANCH   3   6
HETATM    6  S   UNL     1     -11.190  13.775  68.961  1.00  0.00    -0.277 S  
HETATM    7  O   UNL     1      -9.987  14.506  68.620  1.00  0.00    -0.227 OA 
HETATM    8  O   UNL     1     -12.284  13.673  68.023  1.00  0.00    -0.323 OA 
BRANCH   6   9
HETATM    9  C   UNL     1     -11.791  14.422  70.500  1.00  0.00    -0.299 A  
HETATM   10  C   UNL     1     -11.424  15.711  70.896  1.00  0.00    -0.425 A  
HETATM   11  C   UNL     1     -11.913  16.228  72.099  1.00  0.00    -0.575 A  
HETATM   12  C   UNL     1     -12.736  15.459  72.927  1.00  0.00    -0.427 A  
HETATM   13  N   UNL     1     -13.307  16.028  74.071  1.00  0.00    -0.848 NA 
HETATM   14  C   UNL     1     -13.164  14.207  72.474  1.00  0.00    -0.596 A  
HETATM   15  H2  UNL     1     -13.820  16.864  73.793  1.00  0.00     0.000 HD 
HETATM   16  H1  UNL     1     -13.908  15.467  74.675  1.00  0.00     0.000 HD 
HETATM   17  C   UNL     1     -12.685  13.678  71.271  1.00  0.00    -0.443 A  
ENDBRANCH   6   9
ENDBRANCH   3   6
TORSDOF 2
ENDMDL
MODEL       22
REMARK 921   NORMALIZED FREE ENERGY PREDICTED BY IDOCK:   -4.95 KCAL/MOL
REMARK 922        TOTAL FREE ENERGY PREDICTED BY IDOCK:   -5.70 KCAL/MOL
REMARK 923 INTER-LIGAND FREE ENERGY PREDICTED BY IDOCK:   -5.51 KCAL/MOL
REMARK 924 INTRA-LIGAND FREE ENERGY PREDICTED BY IDOCK:   -0.18 KCAL/MOL
REMARK 927      BINDING AFFINITY PREDICTED BY RF-SCORE:    0.00 PKD
ROOT
HETATM    1  C   UNL     1      -7.558  11.156  69.067  1.00  0.00    -0.119 C  
HETATM    2  C   UNL     1      -8.858  10.690  68.471  1.00  0.00    -0.148 C  
HETATM    3  N   UNL     1      -9.469  11.626  67.630  1.00  0.00    -0.174 N  
HETATM    4  O   UNL     1      -9.342   9.599  68.736  1.00  0.00    -0.143 OA 
HETATM    5  H   UNL     1      -9.021  12.538  67.542  1.00  0.00     0.000 HD 
ENDROOT
BRANCH   3   6
HETATM    6  S   UNL     1     -10.864  11.375  66.763  1.00  0.00    -0.287 S  
HETATM    7  O   UNL     1     -10.503  10.404  65.751  1.00  0.00    -0.210 OA 
HETATM    8  O   UNL     1     -11.964  11.126  67.667  1.00  0.00    -0.613 OA 
BRANCH   6   9
HETATM    9  C   UNL     1     -11.113  12.931  65.948  1.00  0.00    -0.283 A  
HETATM   10  C   UNL     1     -10.044  13.822  65.823  1.00  0.00    -0.322 A  
HETATM   11  C   UNL     1     -10.235  15.040  65.164  1.00  0.00    -0.399 A  
HETATM   12  C   UNL     1     -11.492  15.392  64.660  1.00  0.00    -0.337 A  
HETATM   13  N   UNL     1     -11.641  16.562  63.908  1.00  0.00    -1.578 NA 
HETATM   14  C   UNL     1     -12.526  14.452  64.717  1.00  0.00    -0.371 A  
HETATM   15  H2  UNL     1     -10.979  16.533  63.133  1.00  0.00     0.000 HD 
HETATM   16  H1  UNL     1     -12.558  16.819  63.540  1.00  0.00     0.000 HD 
HETATM   17  C   UNL     1     -12.348  13.229  65.371  1.00  0.00    -0.528 A  
ENDBRANCH   6   9
ENDBRANCH   3   6
TORSDOF 2
ENDMDL
MODEL       23
REMARK 921   NORMALIZED FREE ENERGY PREDICTED BY IDOCK:   -4.93 KCAL/MOL
REMARK 922        TOTAL FREE ENERGY PREDICTED BY IDOCK:   -5.68 KCAL/MOL
REMARK 923 INTER-LIGAND FREE ENERGY PREDICTED BY IDOCK:   -5.52 KCAL/MOL
REMARK 924 INTRA-LIGAND FREE ENERGY PREDICTED BY IDOCK:   -0.16 KCAL/MOL
REMARK 927      BINDING AFFINITY PREDICTED BY RF-SCORE:    0.00 PKD
ROOT
HETATM    1  C   UNL     1     -12.807  14.949  70.645  1.00  0.00    -0.406 C  
HETATM    2  C   UNL     1     -12.190  13.988  69.667  1.00  0.00    -0.332 C  
HETATM    3  N   UNL     1     -11.898  12.731  70.209  1.00  0.00    -0.537 N  
HETATM    4  O   UNL     1     -11.939  14.303  68.513  1.00  0.00    -0.341 OA 
HETATM    5  H   UNL     1     -12.072  12.599  71.205  1.00  0.00     0.000 HD 
ENDROOT
BRANCH   3   6
HETATM    6  S   UNL     1     -11.290  11.437  69.363  1.00  0.00    -0.312 S  
HETATM    7  O   UNL     1     -12.322  11.102  68.403  1.00  0.00    -0.556 OA 
HETATM    8  O   UNL     1      -9.942  11.725  68.927  1.00  0.00    -0.151 OA 
BRANCH   6   9
HETATM    9  C   UNL     1     -11.252  10.147  70.580  1.00  0.00    -0.340 A  
HETATM   10  C   UNL     1     -10.047   9.496  70.858  1.00  0.00    -0.330 A  
HETATM   11  C   UNL     1     -10.013   8.493  71.831  1.00  0.00    -0.365 A  
HETATM   12  C   UNL     1     -11.177   8.109  72.504  1.00  0.00    -0.391 A  
HETATM   13  N   UNL     1     -11.108   7.183  73.551  1.00  0.00    -0.547 NA 
HETATM   14  C   UNL     1     -12.354   8.830  72.277  1.00  0.00    -0.448 A  
HETATM   15  H2  UNL     1     -10.436   7.524  74.237  1.00  0.00     0.000 HD 
HETATM   16  H1  UNL     1     -11.957   6.903  74.042  1.00  0.00     0.000 HD 
HETATM   17  C   UNL     1     -12.402   9.838  71.308  1.00  0.00    -0.465 A  
ENDBRANCH   6   9
ENDBRANCH   3   6
TORSDOF 2
ENDMDL
MODEL       24
REMARK 921   NORMALIZED FREE ENERGY PREDICTED BY IDOCK:   -4.93 KCAL/MOL
REMARK 922        TOTAL FREE ENERGY PREDICTED BY IDOCK:   -5.68 KCAL/MOL
REMARK 923 INTER-LIGAND FREE ENERGY PREDICTED BY IDOCK:   -5.49 KCAL/MOL
REMARK 924 INTRA-LIGAND FREE ENERGY PREDICTED BY IDOCK:   -0.19 KCAL/MOL
REMARK 927      BINDING AFFINITY PREDICTED BY RF-SCORE:    0.00 PKD
ROOT
HETATM    1  C   UNL     1     -10.637   7.361  67.403  1.00  0.00    -0.371 C  
HETATM    2  C   UNL     1     -10.522   8.818  67.048  1.00  0.00    -0.268 C  
HETATM    3  N   UNL     1     -11.071   9.682  68.002  1.00  0.00    -0.509 N  
HETATM    4  O   UNL     1     -10.022   9.195  65.999  1.00  0.00    -0.291 OA 
HETATM    5  H   UNL     1     -11.538   9.259  68.803  1.00  0.00     0.000 HD 
ENDROOT
BRANCH   3   6
HETATM    6  S   UNL     1     -11.025  11.342  67.935  1.00  0.00    -0.261 S  
HETATM    7  O   UNL     1      -9.622  11.680  68.057  1.00  0.00    -0.172 OA 
HETATM    8  O   UNL     1     -11.802  11.809  66.809  1.00  0.00    -0.586 OA 
BRANCH   6   9
HETATM    9  C   UNL     1     -11.825  11.824  69.443  1.00  0.00    -0.334 A  
HETATM   10  C   UNL     1     -11.984  13.181  69.736  1.00  0.00    -0.382 A  
HETATM   11  C   UNL     1     -12.631  13.561  70.915  1.00  0.00    -0.414 A  
HETATM   12  C   UNL     1     -13.090  12.600  71.822  1.00  0.00    -0.360 A  
HETATM   13  N   UNL     1     -13.833  12.992  72.941  1.00  0.00    -0.611 NA 
HETATM   14  C   UNL     1     -13.001  11.249  71.471  1.00  0.00    -0.520 A  
HETATM   15  H2  UNL     1     -14.630  13.541  72.622  1.00  0.00     0.000 HD 
HETATM   16  H1  UNL     1     -14.168  12.290  73.602  1.00  0.00     0.000 HD 
HETATM   17  C   UNL     1     -12.359  10.854  70.293  1.00  0.00    -0.412 A  
ENDBRANCH   6   9
ENDBRANCH   3   6
TORSDOF 2
ENDMDL
MODEL       25
REMARK 921   NORMALIZED FREE ENERGY PREDICTED BY IDOCK:   -4.92 KCAL/MOL
REMARK 922        TOTAL FREE ENERGY PREDICTED BY IDOCK:   -5.67 KCAL/MOL
REMARK 923 INTER-LIGAND FREE ENERGY PREDICTED BY IDOCK:   -5.66 KCAL/MOL
REMARK 924 INTRA-LIGAND FREE ENERGY PREDICTED BY IDOCK:   -0.01 KCAL/MOL
REMARK 927      BINDING AFFINITY PREDICTED BY RF-SCORE:    0.00 PKD
ROOT
HETATM    1  C   UNL     1     -12.385  13.991  64.981  1.00  0.00    -0.458 C  
HETATM    2  C   UNL     1     -11.684  14.579  66.175  1.00  0.00    -0.350 C  
HETATM    3  N   UNL     1     -12.180  14.134  67.404  1.00  0.00    -0.570 N  
HETATM    4  O   UNL     1     -10.784  15.398  66.062  1.00  0.00    -0.307 OA 
HETATM    5  H   UNL     1     -12.988  13.512  67.386  1.00  0.00     0.000 HD 
ENDROOT
BRANCH   3   6
HETATM    6  S   UNL     1     -11.562  14.538  68.894  1.00  0.00    -0.329 S  
HETATM    7  O   UNL     1     -10.127  14.405  68.749  1.00  0.00    -0.236 OA 
HETATM    8  O   UNL     1     -12.147  15.779  69.347  1.00  0.00    -0.354 OA 
BRANCH   6   9
HETATM    9  C   UNL     1     -12.121  13.211  69.930  1.00  0.00    -0.287 A  
HETATM   10  C   UNL     1     -11.761  11.896  69.621  1.00  0.00    -0.413 A  
HETATM   11  C   UNL     1     -12.185  10.852  70.448  1.00  0.00    -0.453 A  
HETATM   12  C   UNL     1     -12.994  11.104  71.561  1.00  0.00    -0.437 A  
HETATM   13  N   UNL     1     -13.318  10.065  72.440  1.00  0.00    -0.595 NA 
HETATM   14  C   UNL     1     -13.271  12.431  71.904  1.00  0.00    -0.486 A  
HETATM   15  H2  UNL     1     -12.453   9.634  72.762  1.00  0.00     0.000 HD 
HETATM   16  H1  UNL     1     -13.909  10.249  73.252  1.00  0.00     0.000 HD 
HETATM   17  C   UNL     1     -12.851  13.486  71.087  1.00  0.00    -0.387 A  
ENDBRANCH   6   9
ENDBRANCH   3   6
TORSDOF 2
ENDMDL
MODEL       26
REMARK 921   NORMALIZED FREE ENERGY PREDICTED BY IDOCK:   -4.86 KCAL/MOL
REMARK 922        TOTAL FREE ENERGY PREDICTED BY IDOCK:   -5.61 KCAL/MOL
REMARK 923 INTER-LIGAND FREE ENERGY PREDICTED BY IDOCK:   -5.47 KCAL/MOL
REMARK 924 INTRA-LIGAND FREE ENERGY PREDICTED BY IDOCK:   -0.14 KCAL/MOL
REMARK 927      BINDING AFFINITY PREDICTED BY RF-SCORE:    0.00 PKD
ROOT
HETATM    1  C   UNL     1     -12.214  13.296  64.225  1.00  0.00    -0.454 C  
HETATM    2  C   UNL     1     -11.873  13.380  65.688  1.00  0.00    -0.370 C  
HETATM    3  N   UNL     1     -11.298  14.596  66.071  1.00  0.00    -0.343 N  
HETATM    4  O   UNL     1     -12.057  12.446  66.454  1.00  0.00    -0.607 OA 
HETATM    5  H   UNL     1     -11.113  15.278  65.336  1.00  0.00     0.000 HD 
ENDROOT
BRANCH   3   6
HETATM    6  S   UNL     1     -10.890  15.020  67.626  1.00  0.00    -0.299 S  
HETATM    7  O   UNL     1     -12.112  14.859  68.387  1.00  0.00    -0.249 OA 
HETATM    8  O   UNL     1      -9.679  14.336  68.018  1.00  0.00    -0.212 OA 
BRANCH   6   9
HETATM    9  C   UNL     1     -10.568  16.760  67.493  1.00  0.00    -0.309 A  
HETATM   10  C   UNL     1     -10.336  17.508  68.650  1.00  0.00    -0.369 A  
HETATM   11  C   UNL     1     -10.063  18.875  68.544  1.00  0.00    -0.460 A  
HETATM   12  C   UNL     1     -10.054  19.509  67.297  1.00  0.00    -0.405 A  
HETATM   13  N   UNL     1      -9.671  20.851  67.197  1.00  0.00    -0.654 NA 
HETATM   14  C   UNL     1     -10.201  18.729  66.145  1.00  0.00    -0.462 A  
HETATM   15  H2  UNL     1      -8.748  20.954  67.618  1.00  0.00     0.000 HD 
HETATM   16  H1  UNL     1      -9.664  21.313  66.287  1.00  0.00     0.000 HD 
HETATM   17  C   UNL     1     -10.472  17.360  66.237  1.00  0.00    -0.276 A  
ENDBRANCH   6   9
ENDBRANCH   3   6
TORSDOF 2
ENDMDL
MODEL       27
REMARK 921   NORMALIZED FREE ENERGY PREDICTED BY IDOCK:   -4.86 KCAL/MOL
REMARK 922        TOTAL FREE ENERGY PREDICTED BY IDOCK:   -5.61 KCAL/MOL
REMARK 923 INTER-LIGAND FREE ENERGY PREDICTED BY IDOCK:   -5.44 KCAL/MOL
REMARK 924 INTRA-LIGAND FREE ENERGY PREDICTED BY IDOCK:   -0.17 KCAL/MOL
REMARK 927      BINDING AFFINITY PREDICTED BY RF-SCORE:    0.00 PKD
ROOT
HETATM    1  C   UNL     1      -9.327   9.081  71.096  1.00  0.00    -0.336 C  
HETATM    2  C   UNL     1      -9.941   9.808  69.931  1.00  0.00    -0.245 C  
HETATM    3  N   UNL     1     -10.674  10.944  70.289  1.00  0.00    -0.390 N  
HETATM    4  O   UNL     1      -9.828   9.408  68.781  1.00  0.00    -0.156 OA 
HETATM    5  H   UNL     1     -10.773  11.143  71.284  1.00  0.00     0.000 HD 
ENDROOT
BRANCH   3   6
HETATM    6  S   UNL     1     -11.398  11.997  69.226  1.00  0.00    -0.256 S  
HETATM    7  O   UNL     1     -10.300  12.693  68.587  1.00  0.00    -0.228 OA 
HETATM    8  O   UNL     1     -12.386  11.295  68.439  1.00  0.00    -0.545 OA 
BRANCH   6   9
HETATM    9  C   UNL     1     -12.212  13.151  70.299  1.00  0.00    -0.306 A  
HETATM   10  C   UNL     1     -12.797  12.697  71.484  1.00  0.00    -0.368 A  
HETATM   11  C   UNL     1     -13.421  13.610  72.339  1.00  0.00    -0.685 A  
HETATM   12  C   UNL     1     -13.498  14.966  72.006  1.00  0.00    -0.388 A  
HETATM   13  N   UNL     1     -14.027  15.882  72.921  1.00  0.00    -0.599 NA 
HETATM   14  C   UNL     1     -12.832  15.416  70.861  1.00  0.00    -0.536 A  
HETATM   15  H2  UNL     1     -13.514  15.795  73.797  1.00  0.00     0.000 HD 
HETATM   16  H1  UNL     1     -14.083  16.872  72.678  1.00  0.00     0.000 HD 
HETATM   17  C   UNL     1     -12.201  14.514  69.998  1.00  0.00    -0.396 A  
ENDBRANCH   6   9
ENDBRANCH   3   6
TORSDOF 2
ENDMDL
MODEL       28
REMARK 921   NORMALIZED FREE ENERGY PREDICTED BY IDOCK:   -4.86 KCAL/MOL
REMARK 922        TOTAL FREE ENERGY PREDICTED BY IDOCK:   -5.60 KCAL/MOL
REMARK 923 INTER-LIGAND FREE ENERGY PREDICTED BY IDOCK:   -5.43 KCAL/MOL
REMARK 924 INTRA-LIGAND FREE ENERGY PREDICTED BY IDOCK:   -0.17 KCAL/MOL
REMARK 927      BINDING AFFINITY PREDICTED BY RF-SCORE:    0.00 PKD
ROOT
HETATM    1  C   UNL     1     -14.409   7.148  71.772  1.00  0.00    -0.515 C  
HETATM    2  C   UNL     1     -13.072   7.587  71.241  1.00  0.00    -0.266 C  
HETATM    3  N   UNL     1     -12.960   8.967  71.045  1.00  0.00    -0.524 N  
HETATM    4  O   UNL     1     -12.183   6.790  70.977  1.00  0.00    -0.377 OA 
HETATM    5  H   UNL     1     -13.790   9.533  71.220  1.00  0.00     0.000 HD 
ENDROOT
BRANCH   3   6
HETATM    6  S   UNL     1     -11.586   9.760  70.550  1.00  0.00    -0.290 S  
HETATM    7  O   UNL     1     -10.633   9.557  71.621  1.00  0.00    -0.291 OA 
HETATM    8  O   UNL     1     -11.264   9.382  69.193  1.00  0.00    -0.082 OA 
BRANCH   6   9
HETATM    9  C   UNL     1     -12.076  11.465  70.585  1.00  0.00    -0.372 A  
HETATM   10  C   UNL     1     -11.734  12.303  69.520  1.00  0.00    -0.398 A  
HETATM   11  C   UNL     1     -12.136  13.641  69.538  1.00  0.00    -0.368 A  
HETATM   12  C   UNL     1     -12.845  14.161  70.626  1.00  0.00    -0.290 A  
HETATM   13  N   UNL     1     -13.336  15.470  70.580  1.00  0.00    -0.794 NA 
HETATM   14  C   UNL     1     -13.254  13.289  71.640  1.00  0.00    -0.446 A  
HETATM   15  H2  UNL     1     -13.909  15.570  69.744  1.00  0.00     0.000 HD 
HETATM   16  H1  UNL     1     -13.853  15.850  71.374  1.00  0.00     0.000 HD 
HETATM   17  C   UNL     1     -12.861  11.947  71.633  1.00  0.00    -0.417 A  
ENDBRANCH   6   9
ENDBRANCH   3   6
TORSDOF 2
ENDMDL
MODEL       29
REMARK 921   NORMALIZED FREE ENERGY PREDICTED BY IDOCK:   -4.85 KCAL/MOL
REMARK 922        TOTAL FREE ENERGY PREDICTED BY IDOCK:   -5.59 KCAL/MOL
REMARK 923 INTER-LIGAND FREE ENERGY PREDICTED BY IDOCK:   -5.43 KCAL/MOL
REMARK 924 INTRA-LIGAND FREE ENERGY PREDICTED BY IDOCK:   -0.16 KCAL/MOL
REMARK 927      BINDING AFFINITY PREDICTED BY RF-SCORE:    0.00 PKD
ROOT
HETATM    1  C   UNL     1     -10.261  11.017  63.427  1.00  0.00    -0.404 C  
HETATM    2  C   UNL     1     -11.428  11.934  63.671  1.00  0.00    -0.461 C  
HETATM    3  N   UNL     1     -11.155  12.981  64.558  1.00  0.00    -0.332 N  
HETATM    4  O   UNL     1     -12.521  11.748  63.157  1.00  0.00    -0.490 OA 
HETATM    5  H   UNL     1     -10.233  12.997  64.993  1.00  0.00     0.000 HD 
ENDROOT
BRANCH   3   6
HETATM    6  S   UNL     1     -12.211  14.199  64.961  1.00  0.00    -0.448 S  
HETATM    7  O   UNL     1     -12.414  14.937  63.731  1.00  0.00    -0.768 OA 
HETATM    8  O   UNL     1     -13.333  13.654  65.690  1.00  0.00    -0.480 OA 
BRANCH   6   9
HETATM    9  C   UNL     1     -11.245  15.221  66.044  1.00  0.00    -0.231 A  
HETATM   10  C   UNL     1     -10.527  16.297  65.518  1.00  0.00    -0.383 A  
HETATM   11  C   UNL     1      -9.782  17.114  66.374  1.00  0.00    -0.307 A  
HETATM   12  C   UNL     1      -9.718  16.844  67.745  1.00  0.00    -0.250 A  
HETATM   13  N   UNL     1      -9.060  17.732  68.603  1.00  0.00    -0.283 NA 
HETATM   14  C   UNL     1     -10.512  15.817  68.265  1.00  0.00    -0.259 A  
HETATM   15  H2  UNL     1      -9.461  18.660  68.475  1.00  0.00     0.000 HD 
HETATM   16  H1  UNL     1      -9.013  17.536  69.603  1.00  0.00     0.000 HD 
HETATM   17  C   UNL     1     -11.264  14.994  67.421  1.00  0.00    -0.337 A  
ENDBRANCH   6   9
ENDBRANCH   3   6
TORSDOF 2
ENDMDL
MODEL       30
REMARK 921   NORMALIZED FREE ENERGY PREDICTED BY IDOCK:   -4.84 KCAL/MOL
REMARK 922        TOTAL FREE ENERGY PREDICTED BY IDOCK:   -5.58 KCAL/MOL
REMARK 923 INTER-LIGAND FREE ENERGY PREDICTED BY IDOCK:   -5.43 KCAL/MOL
REMARK 924 INTRA-LIGAND FREE ENERGY PREDICTED BY IDOCK:   -0.16 KCAL/MOL
REMARK 927      BINDING AFFINITY PREDICTED BY RF-SCORE:    0.00 PKD
ROOT
HETATM    1  C   UNL     1      -6.229  17.026  66.477  1.00  0.00    -0.205 C  
HETATM    2  C   UNL     1      -7.654  17.421  66.201  1.00  0.00    -0.286 C  
HETATM    3  N   UNL     1      -8.586  16.408  66.453  1.00  0.00    -0.295 N  
HETATM    4  O   UNL     1      -7.951  18.522  65.763  1.00  0.00    -0.498 OA 
HETATM    5  H   UNL     1      -8.223  15.499  66.739  1.00  0.00     0.000 HD 
ENDROOT
BRANCH   3   6
HETATM    6  S   UNL     1     -10.235  16.566  66.323  1.00  0.00    -0.339 S  
HETATM    7  O   UNL     1     -10.597  17.532  67.339  1.00  0.00    -0.351 OA 
HETATM    8  O   UNL     1     -10.600  16.775  64.941  1.00  0.00    -0.702 OA 
BRANCH   6   9
HETATM    9  C   UNL     1     -10.830  14.981  66.856  1.00  0.00    -0.315 A  
HETATM   10  C   UNL     1     -11.219  14.035  65.904  1.00  0.00    -0.308 A  
HETATM   11  C   UNL     1     -11.669  12.780  66.323  1.00  0.00    -0.460 A  
HETATM   12  C   UNL     1     -11.769  12.472  67.683  1.00  0.00    -0.361 A  
HETATM   13  N   UNL     1     -12.114  11.177  68.085  1.00  0.00    -0.737 NA 
HETATM   14  C   UNL     1     -11.293  13.398  68.618  1.00  0.00    -0.322 A  
HETATM   15  H2  UNL     1     -11.464  10.522  67.653  1.00  0.00     0.000 HD 
HETATM   16  H1  UNL     1     -12.187  10.953  69.078  1.00  0.00     0.000 HD 
HETATM   17  C   UNL     1     -10.837  14.656  68.213  1.00  0.00    -0.249 A  
ENDBRANCH   6   9
ENDBRANCH   3   6
TORSDOF 2
ENDMDL
MODEL       31
REMARK 921   NORMALIZED FREE ENERGY PREDICTED BY IDOCK:   -4.84 KCAL/MOL
REMARK 922        TOTAL FREE ENERGY PREDICTED BY IDOCK:   -5.58 KCAL/MOL
REMARK 923 INTER-LIGAND FREE ENERGY PREDICTED BY IDOCK:   -5.46 KCAL/MOL
REMARK 924 INTRA-LIGAND FREE ENERGY PREDICTED BY IDOCK:   -0.13 KCAL/MOL
REMARK 927      BINDING AFFINITY PREDICTED BY RF-SCORE:    0.00 PKD
ROOT
HETATM    1  C   UNL     1     -10.802  16.050  69.577  1.00  0.00    -0.317 C  
HETATM    2  C   UNL     1     -10.697  14.796  68.752  1.00  0.00    -0.253 C  
HETATM    3  N   UNL     1     -10.948  13.620  69.467  1.00  0.00    -0.448 N  
HETATM    4  O   UNL     1     -10.386  14.818  67.571  1.00  0.00    -0.237 OA 
HETATM    5  H   UNL     1     -11.119  13.709  70.469  1.00  0.00     0.000 HD 
ENDROOT
BRANCH   3   6
HETATM    6  S   UNL     1     -10.989  12.091  68.819  1.00  0.00    -0.244 S  
HETATM    7  O   UNL     1     -11.953  12.170  67.741  1.00  0.00    -0.506 OA 
HETATM    8  O   UNL     1      -9.643  11.626  68.574  1.00  0.00    -0.196 OA 
BRANCH   6   9
HETATM    9  C   UNL     1     -11.718  11.127  70.118  1.00  0.00    -0.353 A  
HETATM   10  C   UNL     1     -12.651  11.717  70.974  1.00  0.00    -0.431 A  
HETATM   11  C   UNL     1     -13.240  10.952  71.986  1.00  0.00    -0.456 A  
HETATM   12  C   UNL     1     -12.879   9.614  72.174  1.00  0.00    -0.375 A  
HETATM   13  N   UNL     1     -13.555   8.833  73.116  1.00  0.00    -0.950 NA 
HETATM   14  C   UNL     1     -12.010   9.017  71.255  1.00  0.00    -0.374 A  
HETATM   15  H2  UNL     1     -14.553   8.871  72.911  1.00  0.00     0.000 HD 
HETATM   16  H1  UNL     1     -13.292   7.856  73.254  1.00  0.00     0.000 HD 
HETATM   17  C   UNL     1     -11.416   9.769  70.236  1.00  0.00    -0.317 A  
ENDBRANCH   6   9
ENDBRANCH   3   6
TORSDOF 2
ENDMDL
MODEL       32
REMARK 921   NORMALIZED FREE ENERGY PREDICTED BY IDOCK:   -4.84 KCAL/MOL
REMARK 922        TOTAL FREE ENERGY PREDICTED BY IDOCK:   -5.57 KCAL/MOL
REMARK 923 INTER-LIGAND FREE ENERGY PREDICTED BY IDOCK:   -5.70 KCAL/MOL
REMARK 924 INTRA-LIGAND FREE ENERGY PREDICTED BY IDOCK:    0.12 KCAL/MOL
REMARK 927      BINDING AFFINITY PREDICTED BY RF-SCORE:    0.00 PKD
ROOT
HETATM    1  C   UNL     1     -11.684  12.746  63.508  1.00  0.00    -0.597 C  
HETATM    2  C   UNL     1     -11.716  14.089  64.184  1.00  0.00    -0.315 C  
HETATM    3  N   UNL     1     -10.557  14.392  64.906  1.00  0.00    -0.432 N  
HETATM    4  O   UNL     1     -12.691  14.824  64.127  1.00  0.00    -0.758 OA 
HETATM    5  H   UNL     1      -9.835  13.674  64.956  1.00  0.00     0.000 HD 
ENDROOT
BRANCH   3   6
HETATM    6  S   UNL     1     -10.260  15.828  65.689  1.00  0.00    -0.388 S  
HETATM    7  O   UNL     1      -8.816  15.913  65.775  1.00  0.00    -0.252 OA 
HETATM    8  O   UNL     1     -11.027  16.888  65.077  1.00  0.00    -0.593 OA 
BRANCH   6   9
HETATM    9  C   UNL     1     -10.875  15.524  67.325  1.00  0.00    -0.313 A  
HETATM   10  C   UNL     1     -11.444  14.285  67.629  1.00  0.00    -0.370 A  
HETATM   11  C   UNL     1     -11.912  14.039  68.923  1.00  0.00    -0.387 A  
HETATM   12  C   UNL     1     -11.850  15.030  69.907  1.00  0.00    -0.324 A  
HETATM   13  N   UNL     1     -12.220  14.734  71.223  1.00  0.00    -0.314 NA 
HETATM   14  C   UNL     1     -11.199  16.232  69.610  1.00  0.00    -0.311 A  
HETATM   15  H2  UNL     1     -11.674  13.933  71.538  1.00  0.00     0.000 HD 
HETATM   16  H1  UNL     1     -12.174  15.457  71.942  1.00  0.00     0.000 HD 
HETATM   17  C   UNL     1     -10.724  16.491  68.321  1.00  0.00    -0.345 A  
ENDBRANCH   6   9
ENDBRANCH   3   6
TORSDOF 2
ENDMDL
MODEL       33
REMARK 921   NORMALIZED FREE ENERGY PREDICTED BY IDOCK:   -4.84 KCAL/MOL
REMARK 922        TOTAL FREE ENERGY PREDICTED BY IDOCK:   -5.57 KCAL/MOL
REMARK 923 INTER-LIGAND FREE ENERGY PREDICTED BY IDOCK:   -5.40 KCAL/MOL
REMARK 924 INTRA-LIGAND FREE ENERGY PREDICTED BY IDOCK:   -0.17 KCAL/MOL
REMARK 927      BINDING AFFINITY PREDICTED BY RF-SCORE:    0.00 PKD
ROOT
HETATM    1  C   UNL     1     -12.276  12.875  63.593  1.00  0.00    -0.581 C  
HETATM    2  C   UNL     1     -11.584  12.110  64.688  1.00  0.00    -0.328 C  
HETATM    3  N   UNL     1     -11.671  12.711  65.947  1.00  0.00    -0.398 N  
HETATM    4  O   UNL     1     -10.973  11.073  64.472  1.00  0.00    -0.270 OA 
HETATM    5  H   UNL     1     -12.134  13.618  66.002  1.00  0.00     0.000 HD 
ENDROOT
BRANCH   3   6
HETATM    6  S   UNL     1     -11.082  12.070  67.363  1.00  0.00    -0.301 S  
HETATM    7  O   UNL     1     -11.902  10.902  67.611  1.00  0.00    -0.572 OA 
HETATM    8  O   UNL     1      -9.643  11.960  67.289  1.00  0.00    -0.176 OA 
BRANCH   6   9
HETATM    9  C   UNL     1     -11.517  13.296  68.568  1.00  0.00    -0.312 A  
HETATM   10  C   UNL     1     -11.962  12.895  69.831  1.00  0.00    -0.377 A  
HETATM   11  C   UNL     1     -12.287  13.861  70.787  1.00  0.00    -0.449 A  
HETATM   12  C   UNL     1     -12.206  15.224  70.484  1.00  0.00    -0.371 A  
HETATM   13  N   UNL     1     -12.427  16.178  71.483  1.00  0.00    -0.566 NA 
HETATM   14  C   UNL     1     -11.677  15.608  69.247  1.00  0.00    -0.388 A  
HETATM   15  H2  UNL     1     -11.797  15.983  72.259  1.00  0.00     0.000 HD 
HETATM   16  H1  UNL     1     -12.369  17.173  71.262  1.00  0.00     0.000 HD 
HETATM   17  C   UNL     1     -11.345  14.651  68.282  1.00  0.00    -0.317 A  
ENDBRANCH   6   9
ENDBRANCH   3   6
TORSDOF 2
ENDMDL
MODEL       34
REMARK 921   NORMALIZED FREE ENERGY PREDICTED BY IDOCK:   -4.82 KCAL/MOL
REMARK 922        TOTAL FREE ENERGY PREDICTED BY IDOCK:   -5.56 KCAL/MOL
REMARK 923 INTER-LIGAND FREE ENERGY PREDICTED BY IDOCK:   -5.51 KCAL/MOL
REMARK 924 INTRA-LIGAND FREE ENERGY PREDICTED BY IDOCK:   -0.05 KCAL/MOL
REMARK 927      BINDING AFFINITY PREDICTED BY RF-SCORE:    0.00 PKD
ROOT
HETATM    1  C   UNL     1     -10.339   7.292  67.227  1.00  0.00    -0.349 C  
HETATM    2  C   UNL     1     -10.215   8.559  68.028  1.00  0.00    -0.213 C  
HETATM    3  N   UNL     1     -10.887   9.653  67.472  1.00  0.00    -0.391 N  
HETATM    4  O   UNL     1      -9.554   8.619  69.054  1.00  0.00    -0.159 OA 
HETATM    5  H   UNL     1     -11.341   9.515  66.570  1.00  0.00     0.000 HD 
ENDROOT
BRANCH   3   6
HETATM    6  S   UNL     1     -11.004  11.161  68.161  1.00  0.00    -0.262 S  
HETATM    7  O   UNL     1     -12.165  11.086  69.024  1.00  0.00    -0.483 OA 
HETATM    8  O   UNL     1      -9.719  11.562  68.686  1.00  0.00    -0.197 OA 
BRANCH   6   9
HETATM    9  C   UNL     1     -11.427  12.197  66.785  1.00  0.00    -0.356 A  
HETATM   10  C   UNL     1     -11.118  11.780  65.487  1.00  0.00    -0.336 A  
HETATM   11  C   UNL     1     -11.468  12.587  64.401  1.00  0.00    -0.406 A  
HETATM   12  C   UNL     1     -12.092  13.823  64.599  1.00  0.00    -0.421 A  
HETATM   13  N   UNL     1     -12.535  14.568  63.501  1.00  0.00    -1.063 NA 
HETATM   14  C   UNL     1     -12.471  14.184  65.896  1.00  0.00    -0.479 A  
HETATM   15  H2  UNL     1     -13.153  13.981  62.943  1.00  0.00     0.000 HD 
HETATM   16  H1  UNL     1     -12.990  15.470  63.646  1.00  0.00     0.000 HD 
HETATM   17  C   UNL     1     -12.130  13.385  66.992  1.00  0.00    -0.390 A  
ENDBRANCH   6   9
ENDBRANCH   3   6
TORSDOF 2
ENDMDL
MODEL       35
REMARK 921   NORMALIZED FREE ENERGY PREDICTED BY IDOCK:   -4.82 KCAL/MOL
REMARK 922        TOTAL FREE ENERGY PREDICTED BY IDOCK:   -5.56 KCAL/MOL
REMARK 923 INTER-LIGAND FREE ENERGY PREDICTED BY IDOCK:   -5.93 KCAL/MOL
REMARK 924 INTRA-LIGAND FREE ENERGY PREDICTED BY IDOCK:    0.38 KCAL/MOL
REMARK 927      BINDING AFFINITY PREDICTED BY RF-SCORE:    0.00 PKD
ROOT
HETATM    1  C   UNL     1     -12.488  12.172  70.960  1.00  0.00    -0.369 C  
HETATM    2  C   UNL     1     -12.277  13.560  70.421  1.00  0.00    -0.356 C  
HETATM    3  N   UNL     1     -11.110  13.707  69.664  1.00  0.00    -0.457 N  
HETATM    4  O   UNL     1     -13.048  14.477  70.663  1.00  0.00    -0.357 OA 
HETATM    5  H   UNL     1     -10.493  12.898  69.592  1.00  0.00     0.000 HD 
ENDROOT
BRANCH   3   6
HETATM    6  S   UNL     1     -10.646  15.092  68.871  1.00  0.00    -0.251 S  
HETATM    7  O   UNL     1     -11.517  16.127  69.390  1.00  0.00    -0.328 OA 
HETATM    8  O   UNL     1      -9.210  15.235  68.934  1.00  0.00    -0.187 OA 
BRANCH   6   9
HETATM    9  C   UNL     1     -11.133  14.774  67.195  1.00  0.00    -0.333 A  
HETATM   10  C   UNL     1     -11.938  13.669  66.908  1.00  0.00    -0.454 A  
HETATM   11  C   UNL     1     -12.338  13.429  65.591  1.00  0.00    -0.521 A  
HETATM   12  C   UNL     1     -11.912  14.262  64.551  1.00  0.00    -0.462 A  
HETATM   13  N   UNL     1     -12.409  14.075  63.256  1.00  0.00    -1.145 NA 
HETATM   14  C   UNL     1     -11.181  15.411  64.867  1.00  0.00    -0.410 A  
HETATM   15  H2  UNL     1     -13.427  14.102  63.295  1.00  0.00     0.000 HD 
HETATM   16  H1  UNL     1     -12.099  14.682  62.497  1.00  0.00     0.000 HD 
HETATM   17  C   UNL     1     -10.776  15.665  66.181  1.00  0.00    -0.305 A  
ENDBRANCH   6   9
ENDBRANCH   3   6
TORSDOF 2
ENDMDL
MODEL       36
REMARK 921   NORMALIZED FREE ENERGY PREDICTED BY IDOCK:   -4.82 KCAL/MOL
REMARK 922        TOTAL FREE ENERGY PREDICTED BY IDOCK:   -5.55 KCAL/MOL
REMARK 923 INTER-LIGAND FREE ENERGY PREDICTED BY IDOCK:   -5.38 KCAL/MOL
REMARK 924 INTRA-LIGAND FREE ENERGY PREDICTED BY IDOCK:   -0.17 KCAL/MOL
REMARK 927      BINDING AFFINITY PREDICTED BY RF-SCORE:    0.00 PKD
ROOT
HETATM    1  C   UNL     1     -12.516  13.037  64.726  1.00  0.00    -0.485 C  
HETATM    2  C   UNL     1     -11.550  13.981  65.389  1.00  0.00    -0.328 C  
HETATM    3  N   UNL     1     -11.759  14.139  66.763  1.00  0.00    -0.391 N  
HETATM    4  O   UNL     1     -10.687  14.576  64.761  1.00  0.00    -0.413 OA 
HETATM    5  H   UNL     1     -12.560  13.659  67.173  1.00  0.00     0.000 HD 
ENDROOT
BRANCH   3   6
HETATM    6  S   UNL     1     -10.810  15.046  67.782  1.00  0.00    -0.292 S  
HETATM    7  O   UNL     1      -9.533  14.362  67.808  1.00  0.00    -0.204 OA 
HETATM    8  O   UNL     1     -10.893  16.441  67.417  1.00  0.00    -0.302 OA 
BRANCH   6   9
HETATM    9  C   UNL     1     -11.578  14.804  69.363  1.00  0.00    -0.310 A  
HETATM   10  C   UNL     1     -11.848  15.910  70.174  1.00  0.00    -0.327 A  
HETATM   11  C   UNL     1     -12.471  15.721  71.411  1.00  0.00    -0.513 A  
HETATM   12  C   UNL     1     -12.794  14.438  71.862  1.00  0.00    -0.349 A  
HETATM   13  N   UNL     1     -13.515  14.274  73.050  1.00  0.00    -0.635 NA 
HETATM   14  C   UNL     1     -12.597  13.353  71.001  1.00  0.00    -0.425 A  
HETATM   15  H2  UNL     1     -14.375  14.818  72.982  1.00  0.00     0.000 HD 
HETATM   16  H1  UNL     1     -13.752  13.337  73.379  1.00  0.00     0.000 HD 
HETATM   17  C   UNL     1     -11.977  13.527  69.759  1.00  0.00    -0.405 A  
ENDBRANCH   6   9
ENDBRANCH   3   6
TORSDOF 2
ENDMDL
MODEL       37
REMARK 921   NORMALIZED FREE ENERGY PREDICTED BY IDOCK:   -4.80 KCAL/MOL
REMARK 922        TOTAL FREE ENERGY PREDICTED BY IDOCK:   -5.53 KCAL/MOL
REMARK 923 INTER-LIGAND FREE ENERGY PREDICTED BY IDOCK:   -5.35 KCAL/MOL
REMARK 924 INTRA-LIGAND FREE ENERGY PREDICTED BY IDOCK:   -0.18 KCAL/MOL
REMARK 927      BINDING AFFINITY PREDICTED BY RF-SCORE:    0.00 PKD
ROOT
HETATM    1  C   UNL     1      -7.966  13.691  68.286  1.00  0.00    -0.150 C  
HETATM    2  C   UNL     1      -9.460  13.577  68.157  1.00  0.00    -0.214 C  
HETATM    3  N   UNL     1     -10.020  12.538  68.908  1.00  0.00    -0.425 N  
HETATM    4  O   UNL     1     -10.109  14.313  67.428  1.00  0.00    -0.243 OA 
HETATM    5  H   UNL     1      -9.379  11.931  69.418  1.00  0.00     0.000 HD 
ENDROOT
BRANCH   3   6
HETATM    6  S   UNL     1     -11.644  12.211  69.036  1.00  0.00    -0.338 S  
HETATM    7  O   UNL     1     -12.209  13.380  69.678  1.00  0.00    -0.291 OA 
HETATM    8  O   UNL     1     -12.153  11.748  67.765  1.00  0.00    -0.595 OA 
BRANCH   6   9
HETATM    9  C   UNL     1     -11.692  10.881  70.209  1.00  0.00    -0.347 A  
HETATM   10  C   UNL     1     -10.607  10.006  70.303  1.00  0.00    -0.354 A  
HETATM   11  C   UNL     1     -10.637   8.969  71.240  1.00  0.00    -0.378 A  
HETATM   12  C   UNL     1     -11.753   8.776  72.060  1.00  0.00    -0.372 A  
HETATM   13  N   UNL     1     -11.723   7.805  73.067  1.00  0.00    -0.616 NA 
HETATM   14  C   UNL     1     -12.791   9.713  72.013  1.00  0.00    -0.497 A  
HETATM   15  H2  UNL     1     -10.914   7.983  73.661  1.00  0.00     0.000 HD 
HETATM   16  H1  UNL     1     -12.538   7.665  73.665  1.00  0.00     0.000 HD 
HETATM   17  C   UNL     1     -12.774  10.756  71.082  1.00  0.00    -0.532 A  
ENDBRANCH   6   9
ENDBRANCH   3   6
TORSDOF 2
ENDMDL
MODEL       38
REMARK 921   NORMALIZED FREE ENERGY PREDICTED BY IDOCK:   -4.78 KCAL/MOL
REMARK 922        TOTAL FREE ENERGY PREDICTED BY IDOCK:   -5.51 KCAL/MOL
REMARK 923 INTER-LIGAND FREE ENERGY PREDICTED BY IDOCK:   -5.33 KCAL/MOL
REMARK 924 INTRA-LIGAND FREE ENERGY PREDICTED BY IDOCK:   -0.19 KCAL/MOL
REMARK 927      BINDING AFFINITY PREDICTED BY RF-SCORE:    0.00 PKD
ROOT
HETATM    1  C   UNL     1     -10.726  15.798  65.070  1.00  0.00    -0.443 C  
HETATM    2  C   UNL     1     -10.628  14.347  65.456  1.00  0.00    -0.347 C  
HETATM    3  N   UNL     1     -11.052  14.074  66.761  1.00  0.00    -0.301 N  
HETATM    4  O   UNL     1     -10.181  13.500  64.696  1.00  0.00    -0.387 OA 
HETATM    5  H   UNL     1     -11.330  14.867  67.338  1.00  0.00     0.000 HD 
ENDROOT
BRANCH   3   6
HETATM    6  S   UNL     1     -11.140  12.562  67.446  1.00  0.00    -0.289 S  
HETATM    7  O   UNL     1     -12.144  11.861  66.673  1.00  0.00    -0.587 OA 
HETATM    8  O   UNL     1      -9.811  12.016  67.600  1.00  0.00    -0.184 OA 
BRANCH   6   9
HETATM    9  C   UNL     1     -11.830  12.891  69.047  1.00  0.00    -0.306 A  
HETATM   10  C   UNL     1     -12.215  14.192  69.379  1.00  0.00    -0.329 A  
HETATM   11  C   UNL     1     -12.776  14.448  70.633  1.00  0.00    -0.421 A  
HETATM   12  C   UNL     1     -12.925  13.423  71.573  1.00  0.00    -0.341 A  
HETATM   13  N   UNL     1     -13.589  13.671  72.779  1.00  0.00    -0.686 NA 
HETATM   14  C   UNL     1     -12.617  12.112  71.193  1.00  0.00    -0.360 A  
HETATM   15  H2  UNL     1     -14.510  14.050  72.568  1.00  0.00     0.000 HD 
HETATM   16  H1  UNL     1     -13.697  12.923  73.465  1.00  0.00     0.000 HD 
HETATM   17  C   UNL     1     -12.057  11.842  69.940  1.00  0.00    -0.344 A  
ENDBRANCH   6   9
ENDBRANCH   3   6
TORSDOF 2
ENDMDL
MODEL       39
REMARK 921   NORMALIZED FREE ENERGY PREDICTED BY IDOCK:   -4.76 KCAL/MOL
REMARK 922        TOTAL FREE ENERGY PREDICTED BY IDOCK:   -5.49 KCAL/MOL
REMARK 923 INTER-LIGAND FREE ENERGY PREDICTED BY IDOCK:   -5.31 KCAL/MOL
REMARK 924 INTRA-LIGAND FREE ENERGY PREDICTED BY IDOCK:   -0.17 KCAL/MOL
REMARK 927      BINDING AFFINITY PREDICTED BY RF-SCORE:    0.00 PKD
ROOT
HETATM    1  C   UNL     1     -10.878   6.418  68.433  1.00  0.00    -0.383 C  
HETATM    2  C   UNL     1     -11.210   6.736  69.865  1.00  0.00    -0.326 C  
HETATM    3  N   UNL     1     -11.578   8.068  70.084  1.00  0.00    -0.470 N  
HETATM    4  O   UNL     1     -11.126   5.901  70.754  1.00  0.00    -0.293 OA 
HETATM    5  H   UNL     1     -11.535   8.702  69.287  1.00  0.00     0.000 HD 
ENDROOT
BRANCH   3   6
HETATM    6  S   UNL     1     -12.078   8.701  71.537  1.00  0.00    -0.332 S  
HETATM    7  O   UNL     1     -13.402   8.152  71.746  1.00  0.00    -0.335 OA 
HETATM    8  O   UNL     1     -11.041   8.529  72.529  1.00  0.00    -0.355 OA 
BRANCH   6   9
HETATM    9  C   UNL     1     -12.266  10.428  71.175  1.00  0.00    -0.394 A  
HETATM   10  C   UNL     1     -11.621  10.973  70.062  1.00  0.00    -0.427 A  
HETATM   11  C   UNL     1     -11.785  12.330  69.766  1.00  0.00    -0.368 A  
HETATM   12  C   UNL     1     -12.557  13.155  70.591  1.00  0.00    -0.211 A  
HETATM   13  N   UNL     1     -12.801  14.482  70.222  1.00  0.00    -0.530 NA 
HETATM   14  C   UNL     1     -13.264  12.574  71.649  1.00  0.00    -0.381 A  
HETATM   15  H2  UNL     1     -13.210  14.486  69.288  1.00  0.00     0.000 HD 
HETATM   16  H1  UNL     1     -13.365  15.083  70.823  1.00  0.00     0.000 HD 
HETATM   17  C   UNL     1     -13.112  11.218  71.955  1.00  0.00    -0.510 A  
ENDBRANCH   6   9
ENDBRANCH   3   6
TORSDOF 2
ENDMDL
MODEL       40
REMARK 921   NORMALIZED FREE ENERGY PREDICTED BY IDOCK:   -4.76 KCAL/MOL
REMARK 922        TOTAL FREE ENERGY PREDICTED BY IDOCK:   -5.49 KCAL/MOL
REMARK 923 INTER-LIGAND FREE ENERGY PREDICTED BY IDOCK:   -5.47 KCAL/MOL
REMARK 924 INTRA-LIGAND FREE ENERGY PREDICTED BY IDOCK:   -0.02 KCAL/MOL
REMARK 927      BINDING AFFINITY PREDICTED BY RF-SCORE:    0.00 PKD
ROOT
HETATM    1  C   UNL     1      -9.597  10.588  63.300  1.00  0.00    -0.373 C  
HETATM    2  C   UNL     1     -10.514  11.674  63.792  1.00  0.00    -0.402 C  
HETATM    3  N   UNL     1     -10.979  11.481  65.097  1.00  0.00    -0.267 N  
HETATM    4  O   UNL     1     -10.842  12.618  63.088  1.00  0.00    -0.254 OA 
HETATM    5  H   UNL     1     -10.708  10.618  65.567  1.00  0.00     0.000 HD 
ENDROOT
BRANCH   3   6
HETATM    6  S   UNL     1     -11.936  12.544  65.944  1.00  0.00    -0.347 S  
HETATM    7  O   UNL     1     -13.064  12.803  65.074  1.00  0.00    -0.811 OA 
HETATM    8  O   UNL     1     -12.137  12.056  67.289  1.00  0.00    -0.572 OA 
BRANCH   6   9
HETATM    9  C   UNL     1     -10.949  14.017  65.994  1.00  0.00    -0.298 A  
HETATM   10  C   UNL     1      -9.688  13.983  66.596  1.00  0.00    -0.296 A  
HETATM   11  C   UNL     1      -8.903  15.139  66.619  1.00  0.00    -0.321 A  
HETATM   12  C   UNL     1      -9.377  16.338  66.077  1.00  0.00    -0.326 A  
HETATM   13  N   UNL     1      -8.538  17.455  66.007  1.00  0.00    -0.534 NA 
HETATM   14  C   UNL     1     -10.602  16.332  65.401  1.00  0.00    -0.371 A  
HETATM   15  H2  UNL     1      -7.689  17.190  65.509  1.00  0.00     0.000 HD 
HETATM   16  H1  UNL     1      -8.884  18.330  65.612  1.00  0.00     0.000 HD 
HETATM   17  C   UNL     1     -11.397  15.182  65.369  1.00  0.00    -0.298 A  
ENDBRANCH   6   9
ENDBRANCH   3   6
TORSDOF 2
ENDMDL
MODEL       41
REMARK 921   NORMALIZED FREE ENERGY PREDICTED BY IDOCK:   -4.74 KCAL/MOL
REMARK 922        TOTAL FREE ENERGY PREDICTED BY IDOCK:   -5.47 KCAL/MOL
REMARK 923 INTER-LIGAND FREE ENERGY PREDICTED BY IDOCK:   -5.31 KCAL/MOL
REMARK 924 INTRA-LIGAND FREE ENERGY PREDICTED BY IDOCK:   -0.15 KCAL/MOL
REMARK 927      BINDING AFFINITY PREDICTED BY RF-SCORE:    0.00 PKD
ROOT
HETATM    1  C   UNL     1     -14.027  15.269  71.431  1.00  0.00    -0.601 C  
HETATM    2  C   UNL     1     -12.866  14.718  70.650  1.00  0.00    -0.343 C  
HETATM    3  N   UNL     1     -12.264  15.646  69.793  1.00  0.00    -0.479 N  
HETATM    4  O   UNL     1     -12.514  13.551  70.741  1.00  0.00    -0.351 OA 
HETATM    5  H   UNL     1     -12.688  16.571  69.733  1.00  0.00     0.000 HD 
ENDROOT
BRANCH   3   6
HETATM    6  S   UNL     1     -10.914  15.362  68.865  1.00  0.00    -0.279 S  
HETATM    7  O   UNL     1      -9.863  15.071  69.817  1.00  0.00    -0.149 OA 
HETATM    8  O   UNL     1     -11.234  14.430  67.808  1.00  0.00    -0.277 OA 
BRANCH   6   9
HETATM    9  C   UNL     1     -10.573  16.955  68.162  1.00  0.00    -0.360 A  
HETATM   10  C   UNL     1     -10.275  18.031  69.003  1.00  0.00    -0.262 A  
HETATM   11  C   UNL     1      -9.988  19.281  68.448  1.00  0.00    -0.502 A  
HETATM   12  C   UNL     1     -10.029  19.477  67.064  1.00  0.00    -0.378 A  
HETATM   13  N   UNL     1      -9.631  20.702  66.518  1.00  0.00    -0.644 NA 
HETATM   14  C   UNL     1     -10.242  18.371  66.235  1.00  0.00    -0.427 A  
HETATM   15  H2  UNL     1      -8.688  20.910  66.845  1.00  0.00     0.000 HD 
HETATM   16  H1  UNL     1      -9.661  20.845  65.508  1.00  0.00     0.000 HD 
HETATM   17  C   UNL     1     -10.528  17.113  66.776  1.00  0.00    -0.263 A  
ENDBRANCH   6   9
ENDBRANCH   3   6
TORSDOF 2
ENDMDL
MODEL       42
REMARK 921   NORMALIZED FREE ENERGY PREDICTED BY IDOCK:   -4.73 KCAL/MOL
REMARK 922        TOTAL FREE ENERGY PREDICTED BY IDOCK:   -5.45 KCAL/MOL
REMARK 923 INTER-LIGAND FREE ENERGY PREDICTED BY IDOCK:   -5.28 KCAL/MOL
REMARK 924 INTRA-LIGAND FREE ENERGY PREDICTED BY IDOCK:   -0.18 KCAL/MOL
REMARK 927      BINDING AFFINITY PREDICTED BY RF-SCORE:    0.00 PKD
ROOT
HETATM    1  C   UNL     1     -11.769  12.027  63.951  1.00  0.00    -0.537 C  
HETATM    2  C   UNL     1     -11.292  13.111  64.878  1.00  0.00    -0.309 C  
HETATM    3  N   UNL     1     -11.540  12.855  66.231  1.00  0.00    -0.352 N  
HETATM    4  O   UNL     1     -10.767  14.136  64.467  1.00  0.00    -0.403 OA 
HETATM    5  H   UNL     1     -12.058  12.006  66.459  1.00  0.00     0.000 HD 
ENDROOT
BRANCH   3   6
HETATM    6  S   UNL     1     -11.061  13.819  67.497  1.00  0.00    -0.286 S  
HETATM    7  O   UNL     1      -9.616  13.723  67.510  1.00  0.00    -0.210 OA 
HETATM    8  O   UNL     1     -11.715  15.104  67.408  1.00  0.00    -0.306 OA 
BRANCH   6   9
HETATM    9  C   UNL     1     -11.668  12.945  68.916  1.00  0.00    -0.327 A  
HETATM   10  C   UNL     1     -12.105  13.663  70.032  1.00  0.00    -0.417 A  
HETATM   11  C   UNL     1     -12.602  12.975  71.143  1.00  0.00    -0.388 A  
HETATM   12  C   UNL     1     -12.634  11.577  71.165  1.00  0.00    -0.359 A  
HETATM   13  N   UNL     1     -13.234  10.907  72.236  1.00  0.00    -0.556 NA 
HETATM   14  C   UNL     1     -12.275  10.879  70.007  1.00  0.00    -0.422 A  
HETATM   15  H2  UNL     1     -14.188  11.252  72.338  1.00  0.00     0.000 HD 
HETATM   16  H1  UNL     1     -13.258   9.887  72.251  1.00  0.00     0.000 HD 
HETATM   17  C   UNL     1     -11.779  11.554  68.887  1.00  0.00    -0.403 A  
ENDBRANCH   6   9
ENDBRANCH   3   6
TORSDOF 2
ENDMDL
MODEL       43
REMARK 921   NORMALIZED FREE ENERGY PREDICTED BY IDOCK:   -4.72 KCAL/MOL
REMARK 922        TOTAL FREE ENERGY PREDICTED BY IDOCK:   -5.45 KCAL/MOL
REMARK 923 INTER-LIGAND FREE ENERGY PREDICTED BY IDOCK:   -5.53 KCAL/MOL
REMARK 924 INTRA-LIGAND FREE ENERGY PREDICTED BY IDOCK:    0.08 KCAL/MOL
REMARK 927      BINDING AFFINITY PREDICTED BY RF-SCORE:    0.00 PKD
ROOT
HETATM    1  C   UNL     1     -11.704  15.570  69.340  1.00  0.00    -0.382 C  
HETATM    2  C   UNL     1     -11.277  15.252  67.933  1.00  0.00    -0.331 C  
HETATM    3  N   UNL     1     -12.200  14.482  67.217  1.00  0.00    -0.581 N  
HETATM    4  O   UNL     1     -10.199  15.612  67.483  1.00  0.00    -0.253 OA 
HETATM    5  H   UNL     1     -13.032  14.166  67.714  1.00  0.00     0.000 HD 
ENDROOT
BRANCH   3   6
HETATM    6  S   UNL     1     -12.051  14.042  65.621  1.00  0.00    -0.439 S  
HETATM    7  O   UNL     1     -13.410  13.840  65.163  1.00  0.00    -0.688 OA 
HETATM    8  O   UNL     1     -11.170  14.962  64.939  1.00  0.00    -0.378 OA 
BRANCH   6   9
HETATM    9  C   UNL     1     -11.277  12.448  65.718  1.00  0.00    -0.333 A  
HETATM   10  C   UNL     1     -11.323  11.731  66.917  1.00  0.00    -0.386 A  
HETATM   11  C   UNL     1     -10.730  10.468  66.988  1.00  0.00    -0.310 A  
HETATM   12  C   UNL     1     -10.061   9.927  65.884  1.00  0.00    -0.245 A  
HETATM   13  N   UNL     1      -9.570   8.618  65.936  1.00  0.00    -0.430 NA 
HETATM   14  C   UNL     1     -10.101  10.619  64.669  1.00  0.00    -0.417 A  
HETATM   15  H2  UNL     1     -10.338   7.996  66.184  1.00  0.00     0.000 HD 
HETATM   16  H1  UNL     1      -9.082   8.224  65.131  1.00  0.00     0.000 HD 
HETATM   17  C   UNL     1     -10.694  11.883  64.583  1.00  0.00    -0.356 A  
ENDBRANCH   6   9
ENDBRANCH   3   6
TORSDOF 2
ENDMDL
MODEL       44
REMARK 921   NORMALIZED FREE ENERGY PREDICTED BY IDOCK:   -4.71 KCAL/MOL
REMARK 922        TOTAL FREE ENERGY PREDICTED BY IDOCK:   -5.43 KCAL/MOL
REMARK 923 INTER-LIGAND FREE ENERGY PREDICTED BY IDOCK:   -5.35 KCAL/MOL
REMARK 924 INTRA-LIGAND FREE ENERGY PREDICTED BY IDOCK:   -0.08 KCAL/MOL
REMARK 927      BINDING AFFINITY PREDICTED BY RF-SCORE:    0.00 PKD
ROOT
HETATM    1  C   UNL     1     -11.623  15.694  70.719  1.00  0.00    -0.412 C  
HETATM    2  C   UNL     1     -11.626  14.427  69.909  1.00  0.00    -0.284 C  
HETATM    3  N   UNL     1     -10.390  14.116  69.332  1.00  0.00    -0.433 N  
HETATM    4  O   UNL     1     -12.636  13.757  69.751  1.00  0.00    -0.233 OA 
HETATM    5  H   UNL     1      -9.632  14.785  69.460  1.00  0.00     0.000 HD 
ENDROOT
BRANCH   3   6
HETATM    6  S   UNL     1     -10.056  12.744  68.455  1.00  0.00    -0.197 S  
HETATM    7  O   UNL     1      -8.617  12.747  68.293  1.00  0.00    -0.177 OA 
HETATM    8  O   UNL     1     -10.731  11.610  69.043  1.00  0.00    -0.209 OA 
BRANCH   6   9
HETATM    9  C   UNL     1     -10.774  13.099  66.871  1.00  0.00    -0.263 A  
HETATM   10  C   UNL     1     -10.347  14.222  66.157  1.00  0.00    -0.305 A  
HETATM   11  C   UNL     1     -10.898  14.492  64.902  1.00  0.00    -0.436 A  
HETATM   12  C   UNL     1     -11.897  13.671  64.367  1.00  0.00    -0.424 A  
HETATM   13  N   UNL     1     -12.358  13.889  63.064  1.00  0.00    -1.023 NA 
HETATM   14  C   UNL     1     -12.248  12.505  65.055  1.00  0.00    -0.519 A  
HETATM   15  H2  UNL     1     -11.559  13.877  62.433  1.00  0.00     0.000 HD 
HETATM   16  H1  UNL     1     -13.087  13.290  62.674  1.00  0.00     0.000 HD 
HETATM   17  C   UNL     1     -11.702  12.222  66.311  1.00  0.00    -0.431 A  
ENDBRANCH   6   9
ENDBRANCH   3   6
TORSDOF 2
ENDMDL
MODEL       45
REMARK 921   NORMALIZED FREE ENERGY PREDICTED BY IDOCK:   -4.70 KCAL/MOL
REMARK 922        TOTAL FREE ENERGY PREDICTED BY IDOCK:   -5.42 KCAL/MOL
REMARK 923 INTER-LIGAND FREE ENERGY PREDICTED BY IDOCK:   -5.80 KCAL/MOL
REMARK 924 INTRA-LIGAND FREE ENERGY PREDICTED BY IDOCK:    0.38 KCAL/MOL
REMARK 927      BINDING AFFINITY PREDICTED BY RF-SCORE:    0.00 PKD
ROOT
HETATM    1  C   UNL     1      -9.647  19.818  68.098  1.00  0.00    -0.483 C  
HETATM    2  C   UNL     1      -9.407  18.366  68.405  1.00  0.00    -0.329 C  
HETATM    3  N   UNL     1     -10.573  17.598  68.482  1.00  0.00    -0.323 N  
HETATM    4  O   UNL     1      -8.286  17.919  68.602  1.00  0.00    -0.299 OA 
HETATM    5  H   UNL     1     -11.463  18.086  68.383  1.00  0.00     0.000 HD 
ENDROOT
BRANCH   3   6
HETATM    6  S   UNL     1     -10.628  15.954  68.724  1.00  0.00    -0.262 S  
HETATM    7  O   UNL     1      -9.255  15.570  68.978  1.00  0.00    -0.202 OA 
HETATM    8  O   UNL     1     -11.673  15.633  69.669  1.00  0.00    -0.319 OA 
BRANCH   6   9
HETATM    9  C   UNL     1     -11.071  15.331  67.123  1.00  0.00    -0.323 A  
HETATM   10  C   UNL     1     -11.986  14.279  67.021  1.00  0.00    -0.463 A  
HETATM   11  C   UNL     1     -12.349  13.801  65.759  1.00  0.00    -0.523 A  
HETATM   12  C   UNL     1     -11.781  14.337  64.599  1.00  0.00    -0.430 A  
HETATM   13  N   UNL     1     -12.236  13.925  63.342  1.00  0.00    -1.102 NA 
HETATM   14  C   UNL     1     -10.935  15.445  64.716  1.00  0.00    -0.411 A  
HETATM   15  H2  UNL     1     -13.245  14.066  63.302  1.00  0.00     0.000 HD 
HETATM   16  H1  UNL     1     -11.822  14.316  62.496  1.00  0.00     0.000 HD 
HETATM   17  C   UNL     1     -10.566  15.936  65.972  1.00  0.00    -0.331 A  
ENDBRANCH   6   9
ENDBRANCH   3   6
TORSDOF 2
ENDMDL
MODEL       46
REMARK 921   NORMALIZED FREE ENERGY PREDICTED BY IDOCK:   -4.59 KCAL/MOL
REMARK 922        TOTAL FREE ENERGY PREDICTED BY IDOCK:   -5.30 KCAL/MOL
REMARK 923 INTER-LIGAND FREE ENERGY PREDICTED BY IDOCK:   -5.27 KCAL/MOL
REMARK 924 INTRA-LIGAND FREE ENERGY PREDICTED BY IDOCK:   -0.02 KCAL/MOL
REMARK 927      BINDING AFFINITY PREDICTED BY RF-SCORE:    0.00 PKD
ROOT
HETATM    1  C   UNL     1     -10.178  19.933  66.045  1.00  0.00    -0.591 C  
HETATM    2  C   UNL     1     -10.208  18.672  66.863  1.00  0.00    -0.385 C  
HETATM    3  N   UNL     1      -9.242  17.730  66.494  1.00  0.00    -0.269 N  
HETATM    4  O   UNL     1     -11.033  18.487  67.746  1.00  0.00    -0.329 OA 
HETATM    5  H   UNL     1      -8.656  17.950  65.690  1.00  0.00     0.000 HD 
ENDROOT
BRANCH   3   6
HETATM    6  S   UNL     1      -8.971  16.279  67.260  1.00  0.00    -0.199 S  
HETATM    7  O   UNL     1      -7.670  15.849  66.791  1.00  0.00    -0.231 OA 
HETATM    8  O   UNL     1      -9.240  16.414  68.673  1.00  0.00    -0.213 OA 
BRANCH   6   9
HETATM    9  C   UNL     1     -10.184  15.210  66.529  1.00  0.00    -0.276 A  
HETATM   10  C   UNL     1     -10.320  15.170  65.139  1.00  0.00    -0.416 A  
HETATM   11  C   UNL     1     -11.263  14.314  64.562  1.00  0.00    -0.331 A  
HETATM   12  C   UNL     1     -12.096  13.524  65.361  1.00  0.00    -0.415 A  
HETATM   13  N   UNL     1     -12.955  12.593  64.769  1.00  0.00    -0.867 NA 
HETATM   14  C   UNL     1     -11.886  13.512  66.744  1.00  0.00    -0.450 A  
HETATM   15  H2  UNL     1     -12.402  11.978  64.173  1.00  0.00     0.000 HD 
HETATM   16  H1  UNL     1     -13.563  12.016  65.352  1.00  0.00     0.000 HD 
HETATM   17  C   UNL     1     -10.945  14.361  67.334  1.00  0.00    -0.303 A  
ENDBRANCH   6   9
ENDBRANCH   3   6
TORSDOF 2
ENDMDL
MODEL       47
REMARK 921   NORMALIZED FREE ENERGY PREDICTED BY IDOCK:   -4.58 KCAL/MOL
REMARK 922        TOTAL FREE ENERGY PREDICTED BY IDOCK:   -5.29 KCAL/MOL
REMARK 923 INTER-LIGAND FREE ENERGY PREDICTED BY IDOCK:   -5.19 KCAL/MOL
REMARK 924 INTRA-LIGAND FREE ENERGY PREDICTED BY IDOCK:   -0.10 KCAL/MOL
REMARK 927      BINDING AFFINITY PREDICTED BY RF-SCORE:    0.00 PKD
ROOT
HETATM    1  C   UNL     1     -11.156  11.963  65.989  1.00  0.00    -0.369 C  
HETATM    2  C   UNL     1     -10.303  10.995  66.761  1.00  0.00    -0.238 C  
HETATM    3  N   UNL     1     -10.778  10.714  68.047  1.00  0.00    -0.213 N  
HETATM    4  O   UNL     1      -9.269  10.530  66.304  1.00  0.00    -0.161 OA 
HETATM    5  H   UNL     1     -11.607  11.218  68.360  1.00  0.00     0.000 HD 
ENDROOT
BRANCH   3   6
HETATM    6  S   UNL     1     -10.103   9.625  69.105  1.00  0.00    -0.201 S  
HETATM    7  O   UNL     1     -10.015   8.386  68.359  1.00  0.00    -0.175 OA 
HETATM    8  O   UNL     1      -8.929  10.202  69.719  1.00  0.00    -0.199 OA 
BRANCH   6   9
HETATM    9  C   UNL     1     -11.369   9.423  70.331  1.00  0.00    -0.248 A  
HETATM   10  C   UNL     1     -11.566   8.171  70.920  1.00  0.00    -0.283 A  
HETATM   11  C   UNL     1     -12.551   8.016  71.900  1.00  0.00    -0.359 A  
HETATM   12  C   UNL     1     -13.366   9.091  72.272  1.00  0.00    -0.467 A  
HETATM   13  N   UNL     1     -14.270   8.949  73.330  1.00  0.00    -1.237 NA 
HETATM   14  C   UNL     1     -13.097  10.355  71.737  1.00  0.00    -0.567 A  
HETATM   15  H2  UNL     1     -13.757   8.634  74.152  1.00  0.00     0.000 HD 
HETATM   16  H1  UNL     1     -14.864   9.733  73.601  1.00  0.00     0.000 HD 
HETATM   17  C   UNL     1     -12.113  10.525  70.758  1.00  0.00    -0.470 A  
ENDBRANCH   6   9
ENDBRANCH   3   6
TORSDOF 2
ENDMDL
MODEL       48
REMARK 921   NORMALIZED FREE ENERGY PREDICTED BY IDOCK:   -4.54 KCAL/MOL
REMARK 922        TOTAL FREE ENERGY PREDICTED BY IDOCK:   -5.25 KCAL/MOL
REMARK 923 INTER-LIGAND FREE ENERGY PREDICTED BY IDOCK:   -5.06 KCAL/MOL
REMARK 924 INTRA-LIGAND FREE ENERGY PREDICTED BY IDOCK:   -0.19 KCAL/MOL
REMARK 927      BINDING AFFINITY PREDICTED BY RF-SCORE:    0.00 PKD
ROOT
HETATM    1  C   UNL     1     -11.844  11.636  69.919  1.00  0.00    -0.434 C  
HETATM    2  C   UNL     1     -11.751  11.931  68.447  1.00  0.00    -0.326 C  
HETATM    3  N   UNL     1     -11.505  13.275  68.149  1.00  0.00    -0.291 N  
HETATM    4  O   UNL     1     -11.912  11.066  67.598  1.00  0.00    -0.583 OA 
HETATM    5  H   UNL     1     -11.468  13.929  68.930  1.00  0.00     0.000 HD 
ENDROOT
BRANCH   3   6
HETATM    6  S   UNL     1     -11.269  13.894  66.625  1.00  0.00    -0.330 S  
HETATM    7  O   UNL     1     -10.051  13.266  66.153  1.00  0.00    -0.282 OA 
HETATM    8  O   UNL     1     -12.492  13.799  65.862  1.00  0.00    -0.457 OA 
BRANCH   6   9
HETATM    9  C   UNL     1     -10.903  15.601  66.940  1.00  0.00    -0.282 A  
HETATM   10  C   UNL     1     -10.819  16.056  68.259  1.00  0.00    -0.319 A  
HETATM   11  C   UNL     1     -10.512  17.397  68.508  1.00  0.00    -0.370 A  
HETATM   12  C   UNL     1     -10.323  18.296  67.454  1.00  0.00    -0.392 A  
HETATM   13  N   UNL     1      -9.908  19.606  67.717  1.00  0.00    -0.360 NA 
HETATM   14  C   UNL     1     -10.324  17.805  66.144  1.00  0.00    -0.340 A  
HETATM   15  H2  UNL     1      -9.050  19.568  68.265  1.00  0.00     0.000 HD 
HETATM   16  H1  UNL     1      -9.770  20.262  66.947  1.00  0.00     0.000 HD 
HETATM   17  C   UNL     1     -10.627  16.466  65.880  1.00  0.00    -0.294 A  
ENDBRANCH   6   9
ENDBRANCH   3   6
TORSDOF 2
ENDMDL
MODEL       49
REMARK 921   NORMALIZED FREE ENERGY PREDICTED BY IDOCK:   -4.54 KCAL/MOL
REMARK 922        TOTAL FREE ENERGY PREDICTED BY IDOCK:   -5.25 KCAL/MOL
REMARK 923 INTER-LIGAND FREE ENERGY PREDICTED BY IDOCK:   -5.15 KCAL/MOL
REMARK 924 INTRA-LIGAND FREE ENERGY PREDICTED BY IDOCK:   -0.10 KCAL/MOL
REMARK 927      BINDING AFFINITY PREDICTED BY RF-SCORE:    0.00 PKD
ROOT
HETATM    1  C   UNL     1      -8.575  10.809  68.725  1.00  0.00    -0.156 C  
HETATM    2  C   UNL     1      -8.878  12.189  68.209  1.00  0.00    -0.182 C  
HETATM    3  N   UNL     1      -9.849  12.874  68.947  1.00  0.00    -0.420 N  
HETATM    4  O   UNL     1      -8.339  12.644  67.210  1.00  0.00    -0.176 OA 
HETATM    5  H   UNL     1     -10.295  12.371  69.714  1.00  0.00     0.000 HD 
ENDROOT
BRANCH   3   6
HETATM    6  S   UNL     1     -10.337  14.439  68.676  1.00  0.00    -0.246 S  
HETATM    7  O   UNL     1     -11.433  14.652  69.598  1.00  0.00    -0.262 OA 
HETATM    8  O   UNL     1      -9.189  15.317  68.677  1.00  0.00    -0.184 OA 
BRANCH   6   9
HETATM    9  C   UNL     1     -11.020  14.366  67.040  1.00  0.00    -0.304 A  
HETATM   10  C   UNL     1     -10.533  15.225  66.051  1.00  0.00    -0.328 A  
HETATM   11  C   UNL     1     -11.058  15.154  64.757  1.00  0.00    -0.395 A  
HETATM   12  C   UNL     1     -12.089  14.260  64.450  1.00  0.00    -0.468 A  
HETATM   13  N   UNL     1     -12.526  14.124  63.128  1.00  0.00    -1.037 NA 
HETATM   14  C   UNL     1     -12.502  13.350  65.428  1.00  0.00    -0.543 A  
HETATM   15  H2  UNL     1     -11.722  13.901  62.544  1.00  0.00     0.000 HD 
HETATM   16  H1  UNL     1     -13.278  13.471  62.904  1.00  0.00     0.000 HD 
HETATM   17  C   UNL     1     -11.984  13.407  66.726  1.00  0.00    -0.447 A  
ENDBRANCH   6   9
ENDBRANCH   3   6
TORSDOF 2
ENDMDL
MODEL       50
REMARK 921   NORMALIZED FREE ENERGY PREDICTED BY IDOCK:   -4.53 KCAL/MOL
REMARK 922        TOTAL FREE ENERGY PREDICTED BY IDOCK:   -5.24 KCAL/MOL
REMARK 923 INTER-LIGAND FREE ENERGY PREDICTED BY IDOCK:   -5.23 KCAL/MOL
REMARK 924 INTRA-LIGAND FREE ENERGY PREDICTED BY IDOCK:   -0.01 KCAL/MOL
REMARK 927      BINDING AFFINITY PREDICTED BY RF-SCORE:    0.00 PKD
ROOT
HETATM    1  C   UNL     1     -12.164  12.055  63.245  1.00  0.00    -0.531 C  
HETATM    2  C   UNL     1     -12.229  12.296  64.728  1.00  0.00    -0.365 C  
HETATM    3  N   UNL     1     -11.163  11.740  65.444  1.00  0.00    -0.285 N  
HETATM    4  O   UNL     1     -13.156  12.897  65.250  1.00  0.00    -0.682 OA 
HETATM    5  H   UNL     1     -10.485  11.188  64.919  1.00  0.00     0.000 HD 
ENDROOT
BRANCH   3   6
HETATM    6  S   UNL     1     -10.912  11.906  67.078  1.00  0.00    -0.294 S  
HETATM    7  O   UNL     1     -12.134  11.430  67.692  1.00  0.00    -0.630 OA 
HETATM    8  O   UNL     1      -9.634  11.335  67.438  1.00  0.00    -0.168 OA 
BRANCH   6   9
HETATM    9  C   UNL     1     -10.854  13.665  67.296  1.00  0.00    -0.284 A  
HETATM   10  C   UNL     1     -11.680  14.270  68.247  1.00  0.00    -0.377 A  
HETATM   11  C   UNL     1     -11.620  15.654  68.433  1.00  0.00    -0.358 A  
HETATM   12  C   UNL     1     -10.770  16.445  67.653  1.00  0.00    -0.312 A  
HETATM   13  N   UNL     1     -10.640  17.811  67.925  1.00  0.00    -0.396 NA 
HETATM   14  C   UNL     1      -9.888  15.814  66.769  1.00  0.00    -0.256 A  
HETATM   15  H2  UNL     1     -10.376  17.921  68.904  1.00  0.00     0.000 HD 
HETATM   16  H1  UNL     1     -10.019  18.388  67.357  1.00  0.00     0.000 HD 
HETATM   17  C   UNL     1      -9.935  14.430  66.576  1.00  0.00    -0.291 A  
ENDBRANCH   6   9
ENDBRANCH   3   6
TORSDOF 2
ENDMDL
MODEL       51
REMARK 921   NORMALIZED FREE ENERGY PREDICTED BY IDOCK:   -4.50 KCAL/MOL
REMARK 922        TOTAL FREE ENERGY PREDICTED BY IDOCK:   -5.20 KCAL/MOL
REMARK 923 INTER-LIGAND FREE ENERGY PREDICTED BY IDOCK:   -5.03 KCAL/MOL
REMARK 924 INTRA-LIGAND FREE ENERGY PREDICTED BY IDOCK:   -0.17 KCAL/MOL
REMARK 927      BINDING AFFINITY PREDICTED BY RF-SCORE:    0.00 PKD
ROOT
HETATM    1  C   UNL     1     -10.402   8.556  68.200  1.00  0.00    -0.258 C  
HETATM    2  C   UNL     1     -10.505   9.714  67.247  1.00  0.00    -0.258 C  
HETATM    3  N   UNL     1     -10.997  10.889  67.826  1.00  0.00    -0.261 N  
HETATM    4  O   UNL     1     -10.214   9.612  66.064  1.00  0.00    -0.265 OA 
HETATM    5  H   UNL     1     -11.288  10.843  68.802  1.00  0.00     0.000 HD 
ENDROOT
BRANCH   3   6
HETATM    6  S   UNL     1     -11.147  12.353  67.054  1.00  0.00    -0.296 S  
HETATM    7  O   UNL     1      -9.802  12.691  66.635  1.00  0.00    -0.232 OA 
HETATM    8  O   UNL     1     -12.226  12.293  66.095  1.00  0.00    -0.647 OA 
BRANCH   6   9
HETATM    9  C   UNL     1     -11.591  13.455  68.371  1.00  0.00    -0.332 A  
HETATM   10  C   UNL     1     -11.911  12.934  69.628  1.00  0.00    -0.387 A  
HETATM   11  C   UNL     1     -12.242  13.803  70.671  1.00  0.00    -0.434 A  
HETATM   12  C   UNL     1     -12.291  15.185  70.463  1.00  0.00    -0.358 A  
HETATM   13  N   UNL     1     -12.515  16.048  71.542  1.00  0.00    -0.565 NA 
HETATM   14  C   UNL     1     -11.883  15.694  69.226  1.00  0.00    -0.378 A  
HETATM   15  H2  UNL     1     -11.817  15.854  72.259  1.00  0.00     0.000 HD 
HETATM   16  H1  UNL     1     -12.550  17.056  71.390  1.00  0.00     0.000 HD 
HETATM   17  C   UNL     1     -11.546  14.836  68.174  1.00  0.00    -0.356 A  
ENDBRANCH   6   9
ENDBRANCH   3   6
TORSDOF 2
ENDMDL
MODEL       52
REMARK 921   NORMALIZED FREE ENERGY PREDICTED BY IDOCK:   -4.48 KCAL/MOL
REMARK 922        TOTAL FREE ENERGY PREDICTED BY IDOCK:   -5.18 KCAL/MOL
REMARK 923 INTER-LIGAND FREE ENERGY PREDICTED BY IDOCK:   -5.02 KCAL/MOL
REMARK 924 INTRA-LIGAND FREE ENERGY PREDICTED BY IDOCK:   -0.16 KCAL/MOL
REMARK 927      BINDING AFFINITY PREDICTED BY RF-SCORE:    0.00 PKD
ROOT
HETATM    1  C   UNL     1     -14.408   7.202  71.969  1.00  0.00    -0.398 C  
HETATM    2  C   UNL     1     -12.962   7.350  71.582  1.00  0.00    -0.366 C  
HETATM    3  N   UNL     1     -12.663   8.557  70.942  1.00  0.00    -0.489 N  
HETATM    4  O   UNL     1     -12.140   6.469  71.786  1.00  0.00    -0.338 OA 
HETATM    5  H   UNL     1     -13.440   9.189  70.748  1.00  0.00     0.000 HD 
ENDROOT
BRANCH   3   6
HETATM    6  S   UNL     1     -11.147   9.046  70.470  1.00  0.00    -0.258 S  
HETATM    7  O   UNL     1     -10.391   9.153  71.701  1.00  0.00    -0.334 OA 
HETATM    8  O   UNL     1     -10.679   8.214  69.385  1.00  0.00    -0.224 OA 
BRANCH   6   9
HETATM    9  C   UNL     1     -11.427  10.692  69.869  1.00  0.00    -0.317 A  
HETATM   10  C   UNL     1     -11.121  11.003  68.542  1.00  0.00    -0.297 A  
HETATM   11  C   UNL     1     -11.360  12.295  68.064  1.00  0.00    -0.348 A  
HETATM   12  C   UNL     1     -11.867  13.288  68.907  1.00  0.00    -0.327 A  
HETATM   13  N   UNL     1     -12.204  14.543  68.387  1.00  0.00    -0.608 NA 
HETATM   14  C   UNL     1     -12.249  12.937  70.206  1.00  0.00    -0.362 A  
HETATM   15  H2  UNL     1     -12.860  14.407  67.618  1.00  0.00     0.000 HD 
HETATM   16  H1  UNL     1     -12.575  15.268  69.003  1.00  0.00     0.000 HD 
HETATM   17  C   UNL     1     -12.019  11.647  70.697  1.00  0.00    -0.356 A  
ENDBRANCH   6   9
ENDBRANCH   3   6
TORSDOF 2
ENDMDL
MODEL       53
REMARK 921   NORMALIZED FREE ENERGY PREDICTED BY IDOCK:   -4.47 KCAL/MOL
REMARK 922        TOTAL FREE ENERGY PREDICTED BY IDOCK:   -5.17 KCAL/MOL
REMARK 923 INTER-LIGAND FREE ENERGY PREDICTED BY IDOCK:   -5.01 KCAL/MOL
REMARK 924 INTRA-LIGAND FREE ENERGY PREDICTED BY IDOCK:   -0.16 KCAL/MOL
REMARK 927      BINDING AFFINITY PREDICTED BY RF-SCORE:    0.00 PKD
ROOT
HETATM    1  C   UNL     1      -8.881  10.061  65.237  1.00  0.00    -0.205 C  
HETATM    2  C   UNL     1      -9.965  11.000  64.784  1.00  0.00    -0.294 C  
HETATM    3  N   UNL     1     -10.356  11.930  65.754  1.00  0.00    -0.239 N  
HETATM    4  O   UNL     1     -10.474  10.922  63.675  1.00  0.00    -0.346 OA 
HETATM    5  H   UNL     1      -9.925  11.855  66.674  1.00  0.00     0.000 HD 
ENDROOT
BRANCH   3   6
HETATM    6  S   UNL     1     -11.466  13.146  65.528  1.00  0.00    -0.327 S  
HETATM    7  O   UNL     1     -10.850  14.039  64.569  1.00  0.00    -0.400 OA 
HETATM    8  O   UNL     1     -12.771  12.577  65.276  1.00  0.00    -0.654 OA 
BRANCH   6   9
HETATM    9  C   UNL     1     -11.478  13.972  67.098  1.00  0.00    -0.352 A  
HETATM   10  C   UNL     1     -11.141  15.326  67.167  1.00  0.00    -0.323 A  
HETATM   11  C   UNL     1     -11.169  15.982  68.401  1.00  0.00    -0.364 A  
HETATM   12  C   UNL     1     -11.494  15.290  69.572  1.00  0.00    -0.305 A  
HETATM   13  N   UNL     1     -11.626  15.982  70.781  1.00  0.00    -0.416 NA 
HETATM   14  C   UNL     1     -11.913  13.959  69.472  1.00  0.00    -0.396 A  
HETATM   15  H2  UNL     1     -12.303  16.732  70.650  1.00  0.00     0.000 HD 
HETATM   16  H1  UNL     1     -11.863  15.478  71.635  1.00  0.00     0.000 HD 
HETATM   17  C   UNL     1     -11.893  13.291  68.244  1.00  0.00    -0.389 A  
ENDBRANCH   6   9
ENDBRANCH   3   6
TORSDOF 2
ENDMDL
MODEL       54
REMARK 921   NORMALIZED FREE ENERGY PREDICTED BY IDOCK:   -4.46 KCAL/MOL
REMARK 922        TOTAL FREE ENERGY PREDICTED BY IDOCK:   -5.16 KCAL/MOL
REMARK 923 INTER-LIGAND FREE ENERGY PREDICTED BY IDOCK:   -5.04 KCAL/MOL
REMARK 924 INTRA-LIGAND FREE ENERGY PREDICTED BY IDOCK:   -0.11 KCAL/MOL
REMARK 927      BINDING AFFINITY PREDICTED BY RF-SCORE:    0.00 PKD
ROOT
HETATM    1  C   UNL     1      -6.294  18.534  66.619  1.00  0.00    -0.206 C  
HETATM    2  C   UNL     1      -7.754  18.840  66.424  1.00  0.00    -0.269 C  
HETATM    3  N   UNL     1      -8.592  17.728  66.559  1.00  0.00    -0.258 N  
HETATM    4  O   UNL     1      -8.153  19.959  66.140  1.00  0.00    -0.335 OA 
HETATM    5  H   UNL     1      -8.148  16.823  66.716  1.00  0.00     0.000 HD 
ENDROOT
BRANCH   3   6
HETATM    6  S   UNL     1     -10.252  17.760  66.482  1.00  0.00    -0.351 S  
HETATM    7  O   UNL     1     -10.672  18.293  67.762  1.00  0.00    -0.411 OA 
HETATM    8  O   UNL     1     -10.673  18.382  65.248  1.00  0.00    -0.594 OA 
BRANCH   6   9
HETATM    9  C   UNL     1     -10.683  16.039  66.452  1.00  0.00    -0.232 A  
HETATM   10  C   UNL     1     -11.234  15.446  67.591  1.00  0.00    -0.311 A  
HETATM   11  C   UNL     1     -11.591  14.095  67.561  1.00  0.00    -0.396 A  
HETATM   12  C   UNL     1     -11.371  13.321  66.417  1.00  0.00    -0.312 A  
HETATM   13  N   UNL     1     -11.834  12.003  66.364  1.00  0.00    -0.593 NA 
HETATM   14  C   UNL     1     -10.901  13.951  65.260  1.00  0.00    -0.337 A  
HETATM   15  H2  UNL     1     -12.834  12.004  66.565  1.00  0.00     0.000 HD 
HETATM   16  H1  UNL     1     -11.674  11.438  65.529  1.00  0.00     0.000 HD 
HETATM   17  C   UNL     1     -10.542  15.303  65.275  1.00  0.00    -0.438 A  
ENDBRANCH   6   9
ENDBRANCH   3   6
TORSDOF 2
ENDMDL
MODEL       55
REMARK 921   NORMALIZED FREE ENERGY PREDICTED BY IDOCK:   -4.44 KCAL/MOL
REMARK 922        TOTAL FREE ENERGY PREDICTED BY IDOCK:   -5.13 KCAL/MOL
REMARK 923 INTER-LIGAND FREE ENERGY PREDICTED BY IDOCK:   -4.99 KCAL/MOL
REMARK 924 INTRA-LIGAND FREE ENERGY PREDICTED BY IDOCK:   -0.14 KCAL/MOL
REMARK 927      BINDING AFFINITY PREDICTED BY RF-SCORE:    0.00 PKD
ROOT
HETATM    1  C   UNL     1      -6.207  17.087  66.817  1.00  0.00    -0.245 C  
HETATM    2  C   UNL     1      -7.508  17.453  67.478  1.00  0.00    -0.182 C  
HETATM    3  N   UNL     1      -8.614  16.749  66.990  1.00  0.00    -0.199 N  
HETATM    4  O   UNL     1      -7.580  18.318  68.339  1.00  0.00    -0.271 OA 
HETATM    5  H   UNL     1      -8.455  16.108  66.213  1.00  0.00     0.000 HD 
ENDROOT
BRANCH   3   6
HETATM    6  S   UNL     1     -10.165  16.871  67.573  1.00  0.00    -0.302 S  
HETATM    7  O   UNL     1     -10.072  16.479  68.964  1.00  0.00    -0.250 OA 
HETATM    8  O   UNL     1     -10.729  18.149  67.202  1.00  0.00    -0.375 OA 
BRANCH   6   9
HETATM    9  C   UNL     1     -11.019  15.577  66.709  1.00  0.00    -0.257 A  
HETATM   10  C   UNL     1     -11.025  15.569  65.312  1.00  0.00    -0.391 A  
HETATM   11  C   UNL     1     -11.681  14.540  64.631  1.00  0.00    -0.438 A  
HETATM   12  C   UNL     1     -12.361  13.538  65.331  1.00  0.00    -0.478 A  
HETATM   13  N   UNL     1     -12.918  12.456  64.640  1.00  0.00    -0.802 NA 
HETATM   14  C   UNL     1     -12.271  13.514  66.727  1.00  0.00    -0.392 A  
HETATM   15  H2  UNL     1     -12.185  12.019  64.083  1.00  0.00     0.000 HD 
HETATM   16  H1  UNL     1     -13.414  11.725  65.151  1.00  0.00     0.000 HD 
HETATM   17  C   UNL     1     -11.615  14.536  67.420  1.00  0.00    -0.406 A  
ENDBRANCH   6   9
ENDBRANCH   3   6
TORSDOF 2
ENDMDL
MODEL       56
REMARK 921   NORMALIZED FREE ENERGY PREDICTED BY IDOCK:   -4.43 KCAL/MOL
REMARK 922        TOTAL FREE ENERGY PREDICTED BY IDOCK:   -5.12 KCAL/MOL
REMARK 923 INTER-LIGAND FREE ENERGY PREDICTED BY IDOCK:   -5.01 KCAL/MOL
REMARK 924 INTRA-LIGAND FREE ENERGY PREDICTED BY IDOCK:   -0.11 KCAL/MOL
REMARK 927      BINDING AFFINITY PREDICTED BY RF-SCORE:    0.00 PKD
ROOT
HETATM    1  C   UNL     1      -7.696  12.026  67.107  1.00  0.00    -0.161 C  
HETATM    2  C   UNL     1      -9.087  11.968  67.678  1.00  0.00    -0.179 C  
HETATM    3  N   UNL     1     -10.045  12.645  66.915  1.00  0.00    -0.227 N  
HETATM    4  O   UNL     1      -9.335  11.405  68.734  1.00  0.00    -0.179 OA 
HETATM    5  H   UNL     1      -9.716  13.151  66.093  1.00  0.00     0.000 HD 
ENDROOT
BRANCH   3   6
HETATM    6  S   UNL     1     -11.674  12.692  67.239  1.00  0.00    -0.338 S  
HETATM    7  O   UNL     1     -12.264  13.341  66.086  1.00  0.00    -0.420 OA 
HETATM    8  O   UNL     1     -12.127  11.387  67.665  1.00  0.00    -0.630 OA 
BRANCH   6   9
HETATM    9  C   UNL     1     -11.777  13.824  68.602  1.00  0.00    -0.356 A  
HETATM   10  C   UNL     1     -12.154  13.353  69.862  1.00  0.00    -0.389 A  
HETATM   11  C   UNL     1     -12.217  14.241  70.939  1.00  0.00    -0.425 A  
HETATM   12  C   UNL     1     -11.941  15.601  70.764  1.00  0.00    -0.398 A  
HETATM   13  N   UNL     1     -11.900  16.456  71.871  1.00  0.00    -0.658 NA 
HETATM   14  C   UNL     1     -11.481  16.038  69.517  1.00  0.00    -0.326 A  
HETATM   15  H2  UNL     1     -11.236  16.077  72.545  1.00  0.00     0.000 HD 
HETATM   16  H1  UNL     1     -11.699  17.448  71.742  1.00  0.00     0.000 HD 
HETATM   17  C   UNL     1     -11.411  15.159  68.431  1.00  0.00    -0.326 A  
ENDBRANCH   6   9
ENDBRANCH   3   6
TORSDOF 2
ENDMDL
MODEL       57
REMARK 921   NORMALIZED FREE ENERGY PREDICTED BY IDOCK:   -4.42 KCAL/MOL
REMARK 922        TOTAL FREE ENERGY PREDICTED BY IDOCK:   -5.11 KCAL/MOL
REMARK 923 INTER-LIGAND FREE ENERGY PREDICTED BY IDOCK:   -4.99 KCAL/MOL
REMARK 924 INTRA-LIGAND FREE ENERGY PREDICTED BY IDOCK:   -0.12 KCAL/MOL
REMARK 927      BINDING AFFINITY PREDICTED BY RF-SCORE:    0.00 PKD
ROOT
HETATM    1  C   UNL     1     -10.885   6.252  66.897  1.00  0.00    -0.428 C  
HETATM    2  C   UNL     1      -9.804   7.296  66.955  1.00  0.00    -0.214 C  
HETATM    3  N   UNL     1     -10.096   8.460  66.235  1.00  0.00    -0.455 N  
HETATM    4  O   UNL     1      -8.754   7.115  67.554  1.00  0.00    -0.121 OA 
HETATM    5  H   UNL     1     -10.966   8.475  65.702  1.00  0.00     0.000 HD 
ENDROOT
BRANCH   3   6
HETATM    6  S   UNL     1      -9.142   9.819  66.175  1.00  0.00    -0.171 S  
HETATM    7  O   UNL     1      -8.990  10.227  67.556  1.00  0.00    -0.134 OA 
HETATM    8  O   UNL     1      -7.985   9.569  65.346  1.00  0.00    -0.108 OA 
BRANCH   6   9
HETATM    9  C   UNL     1     -10.191  11.008  65.378  1.00  0.00    -0.274 A  
HETATM   10  C   UNL     1     -10.962  11.876  66.154  1.00  0.00    -0.352 A  
HETATM   11  C   UNL     1     -11.774  12.826  65.527  1.00  0.00    -0.436 A  
HETATM   12  C   UNL     1     -11.850  12.893  64.132  1.00  0.00    -0.414 A  
HETATM   13  N   UNL     1     -12.579  13.917  63.519  1.00  0.00    -0.991 NA 
HETATM   14  C   UNL     1     -11.006  12.075  63.372  1.00  0.00    -0.475 A  
HETATM   15  H2  UNL     1     -12.233  14.811  63.866  1.00  0.00     0.000 HD 
HETATM   16  H1  UNL     1     -12.635  13.966  62.501  1.00  0.00     0.000 HD 
HETATM   17  C   UNL     1     -10.187  11.123  63.987  1.00  0.00    -0.419 A  
ENDBRANCH   6   9
ENDBRANCH   3   6
TORSDOF 2
ENDMDL
MODEL       58
REMARK 921   NORMALIZED FREE ENERGY PREDICTED BY IDOCK:   -4.42 KCAL/MOL
REMARK 922        TOTAL FREE ENERGY PREDICTED BY IDOCK:   -5.11 KCAL/MOL
REMARK 923 INTER-LIGAND FREE ENERGY PREDICTED BY IDOCK:   -5.09 KCAL/MOL
REMARK 924 INTRA-LIGAND FREE ENERGY PREDICTED BY IDOCK:   -0.02 KCAL/MOL
REMARK 927      BINDING AFFINITY PREDICTED BY RF-SCORE:    0.00 PKD
ROOT
HETATM    1  C   UNL     1      -9.388   7.212  66.431  1.00  0.00    -0.190 C  
HETATM    2  C   UNL     1      -9.905   8.612  66.618  1.00  0.00    -0.266 C  
HETATM    3  N   UNL     1     -10.283   8.910  67.932  1.00  0.00    -0.210 N  
HETATM    4  O   UNL     1     -10.012   9.397  65.687  1.00  0.00    -0.304 OA 
HETATM    5  H   UNL     1     -10.229   8.157  68.617  1.00  0.00     0.000 HD 
ENDROOT
BRANCH   3   6
HETATM    6  S   UNL     1     -10.812  10.392  68.468  1.00  0.00    -0.253 S  
HETATM    7  O   UNL     1      -9.611  11.087  68.885  1.00  0.00    -0.196 OA 
HETATM    8  O   UNL     1     -11.703  10.976  67.492  1.00  0.00    -0.565 OA 
BRANCH   6   9
HETATM    9  C   UNL     1     -11.729   9.982  69.931  1.00  0.00    -0.125 A  
HETATM   10  C   UNL     1     -12.593  10.927  70.490  1.00  0.00    -0.409 A  
HETATM   11  C   UNL     1     -13.330  10.598  71.631  1.00  0.00    -0.407 A  
HETATM   12  C   UNL     1     -13.185   9.347  72.241  1.00  0.00    -0.446 A  
HETATM   13  N   UNL     1     -14.008   8.992  73.315  1.00  0.00    -1.199 NA 
HETATM   14  C   UNL     1     -12.383   8.385  71.619  1.00  0.00    -0.359 A  
HETATM   15  H2  UNL     1     -14.980   9.099  73.025  1.00  0.00     0.000 HD 
HETATM   16  H1  UNL     1     -13.903   8.080  73.760  1.00  0.00     0.000 HD 
HETATM   17  C   UNL     1     -11.642   8.700  70.475  1.00  0.00    -0.158 A  
ENDBRANCH   6   9
ENDBRANCH   3   6
TORSDOF 2
ENDMDL
MODEL       59
REMARK 921   NORMALIZED FREE ENERGY PREDICTED BY IDOCK:   -4.42 KCAL/MOL
REMARK 922        TOTAL FREE ENERGY PREDICTED BY IDOCK:   -5.10 KCAL/MOL
REMARK 923 INTER-LIGAND FREE ENERGY PREDICTED BY IDOCK:   -5.10 KCAL/MOL
REMARK 924 INTRA-LIGAND FREE ENERGY PREDICTED BY IDOCK:   -0.00 KCAL/MOL
REMARK 927      BINDING AFFINITY PREDICTED BY RF-SCORE:    0.00 PKD
ROOT
HETATM    1  C   UNL     1      -7.478  14.978  69.327  1.00  0.00    -0.188 C  
HETATM    2  C   UNL     1      -8.831  15.277  68.743  1.00  0.00    -0.192 C  
HETATM    3  N   UNL     1      -9.844  14.417  69.180  1.00  0.00    -0.406 N  
HETATM    4  O   UNL     1      -9.006  16.175  67.932  1.00  0.00    -0.182 OA 
HETATM    5  H   UNL     1      -9.574  13.649  69.794  1.00  0.00     0.000 HD 
ENDROOT
BRANCH   3   6
HETATM    6  S   UNL     1     -11.452  14.543  68.779  1.00  0.00    -0.313 S  
HETATM    7  O   UNL     1     -12.113  13.524  69.569  1.00  0.00    -0.316 OA 
HETATM    8  O   UNL     1     -11.869  15.924  68.856  1.00  0.00    -0.397 OA 
BRANCH   6   9
HETATM    9  C   UNL     1     -11.484  14.012  67.086  1.00  0.00    -0.352 A  
HETATM   10  C   UNL     1     -11.657  12.657  66.792  1.00  0.00    -0.438 A  
HETATM   11  C   UNL     1     -11.701  12.241  65.458  1.00  0.00    -0.433 A  
HETATM   12  C   UNL     1     -11.539  13.160  64.416  1.00  0.00    -0.377 A  
HETATM   13  N   UNL     1     -11.696  12.747  63.089  1.00  0.00    -0.825 NA 
HETATM   14  C   UNL     1     -11.454  14.521  64.727  1.00  0.00    -0.408 A  
HETATM   15  H2  UNL     1     -12.612  12.310  62.993  1.00  0.00     0.000 HD 
HETATM   16  H1  UNL     1     -11.577  13.417  62.328  1.00  0.00     0.000 HD 
HETATM   17  C   UNL     1     -11.412  14.951  66.057  1.00  0.00    -0.275 A  
ENDBRANCH   6   9
ENDBRANCH   3   6
TORSDOF 2
ENDMDL
MODEL       60
REMARK 921   NORMALIZED FREE ENERGY PREDICTED BY IDOCK:   -4.38 KCAL/MOL
REMARK 922        TOTAL FREE ENERGY PREDICTED BY IDOCK:   -5.07 KCAL/MOL
REMARK 923 INTER-LIGAND FREE ENERGY PREDICTED BY IDOCK:   -4.88 KCAL/MOL
REMARK 924 INTRA-LIGAND FREE ENERGY PREDICTED BY IDOCK:   -0.18 KCAL/MOL
REMARK 927      BINDING AFFINITY PREDICTED BY RF-SCORE:    0.00 PKD
ROOT
HETATM    1  C   UNL     1      -7.991   6.841  64.069  1.00  0.00    -0.075 C  
HETATM    2  C   UNL     1      -8.280   7.567  65.354  1.00  0.00    -0.135 C  
HETATM    3  N   UNL     1      -9.024   8.740  65.192  1.00  0.00    -0.384 N  
HETATM    4  O   UNL     1      -7.865   7.170  66.433  1.00  0.00    -0.103 OA 
HETATM    5  H   UNL     1      -9.251   9.023  64.239  1.00  0.00     0.000 HD 
ENDROOT
BRANCH   3   6
HETATM    6  S   UNL     1      -9.570   9.711  66.426  1.00  0.00    -0.228 S  
HETATM    7  O   UNL     1     -10.597   8.931  67.087  1.00  0.00    -0.286 OA 
HETATM    8  O   UNL     1      -8.447  10.235  67.170  1.00  0.00    -0.125 OA 
BRANCH   6   9
HETATM    9  C   UNL     1     -10.375  11.036  65.564  1.00  0.00    -0.260 A  
HETATM   10  C   UNL     1     -10.169  11.192  64.191  1.00  0.00    -0.405 A  
HETATM   11  C   UNL     1     -10.818  12.224  63.509  1.00  0.00    -0.508 A  
HETATM   12  C   UNL     1     -11.644  13.124  64.190  1.00  0.00    -0.410 A  
HETATM   13  N   UNL     1     -12.373  14.082  63.477  1.00  0.00    -1.118 NA 
HETATM   14  C   UNL     1     -11.909  12.900  65.545  1.00  0.00    -0.455 A  
HETATM   15  H2  UNL     1     -12.932  13.602  62.771  1.00  0.00     0.000 HD 
HETATM   16  H1  UNL     1     -12.976  14.738  63.974  1.00  0.00     0.000 HD 
HETATM   17  C   UNL     1     -11.268  11.870  66.240  1.00  0.00    -0.392 A  
ENDBRANCH   6   9
ENDBRANCH   3   6
TORSDOF 2
ENDMDL
MODEL       61
REMARK 921   NORMALIZED FREE ENERGY PREDICTED BY IDOCK:   -4.38 KCAL/MOL
REMARK 922        TOTAL FREE ENERGY PREDICTED BY IDOCK:   -5.06 KCAL/MOL
REMARK 923 INTER-LIGAND FREE ENERGY PREDICTED BY IDOCK:   -4.96 KCAL/MOL
REMARK 924 INTRA-LIGAND FREE ENERGY PREDICTED BY IDOCK:   -0.10 KCAL/MOL
REMARK 927      BINDING AFFINITY PREDICTED BY RF-SCORE:    0.00 PKD
ROOT
HETATM    1  C   UNL     1      -6.230  17.935  66.455  1.00  0.00    -0.239 C  
HETATM    2  C   UNL     1      -7.656  18.359  66.234  1.00  0.00    -0.256 C  
HETATM    3  N   UNL     1      -8.602  17.482  66.774  1.00  0.00    -0.243 N  
HETATM    4  O   UNL     1      -7.946  19.365  65.604  1.00  0.00    -0.427 OA 
HETATM    5  H   UNL     1      -8.254  16.628  67.210  1.00  0.00     0.000 HD 
ENDROOT
BRANCH   3   6
HETATM    6  S   UNL     1     -10.247  17.717  66.766  1.00  0.00    -0.351 S  
HETATM    7  O   UNL     1     -10.440  19.016  67.378  1.00  0.00    -0.402 OA 
HETATM    8  O   UNL     1     -10.776  17.434  65.451  1.00  0.00    -0.595 OA 
BRANCH   6   9
HETATM    9  C   UNL     1     -10.831  16.494  67.910  1.00  0.00    -0.326 A  
HETATM   10  C   UNL     1     -11.338  15.284  67.428  1.00  0.00    -0.285 A  
HETATM   11  C   UNL     1     -11.781  14.313  68.330  1.00  0.00    -0.377 A  
HETATM   12  C   UNL     1     -11.755  14.551  69.708  1.00  0.00    -0.303 A  
HETATM   13  N   UNL     1     -12.096  13.529  70.601  1.00  0.00    -0.466 NA 
HETATM   14  C   UNL     1     -11.164  15.729  70.176  1.00  0.00    -0.357 A  
HETATM   15  H2  UNL     1     -11.510  12.719  70.403  1.00  0.00     0.000 HD 
HETATM   16  H1  UNL     1     -12.077  13.703  71.607  1.00  0.00     0.000 HD 
HETATM   17  C   UNL     1     -10.715  16.709  69.284  1.00  0.00    -0.337 A  
ENDBRANCH   6   9
ENDBRANCH   3   6
TORSDOF 2
ENDMDL
MODEL       62
REMARK 921   NORMALIZED FREE ENERGY PREDICTED BY IDOCK:   -4.36 KCAL/MOL
REMARK 922        TOTAL FREE ENERGY PREDICTED BY IDOCK:   -5.04 KCAL/MOL
REMARK 923 INTER-LIGAND FREE ENERGY PREDICTED BY IDOCK:   -4.87 KCAL/MOL
REMARK 924 INTRA-LIGAND FREE ENERGY PREDICTED BY IDOCK:   -0.17 KCAL/MOL
REMARK 927      BINDING AFFINITY PREDICTED BY RF-SCORE:    0.00 PKD
ROOT
HETATM    1  C   UNL     1      -6.753  16.718  66.815  1.00  0.00    -0.257 C  
HETATM    2  C   UNL     1      -7.958  16.357  67.639  1.00  0.00    -0.149 C  
HETATM    3  N   UNL     1      -8.855  15.500  66.992  1.00  0.00    -0.213 N  
HETATM    4  O   UNL     1      -8.140  16.808  68.760  1.00  0.00    -0.236 OA 
HETATM    5  H   UNL     1      -8.648  15.248  66.026  1.00  0.00     0.000 HD 
ENDROOT
BRANCH   3   6
HETATM    6  S   UNL     1     -10.232  14.860  67.669  1.00  0.00    -0.236 S  
HETATM    7  O   UNL     1      -9.756  13.966  68.704  1.00  0.00    -0.220 OA 
HETATM    8  O   UNL     1     -11.164  15.920  67.979  1.00  0.00    -0.343 OA 
BRANCH   6   9
HETATM    9  C   UNL     1     -10.892  13.861  66.360  1.00  0.00    -0.291 A  
HETATM   10  C   UNL     1     -12.248  13.956  66.036  1.00  0.00    -0.495 A  
HETATM   11  C   UNL     1     -12.764  13.182  64.993  1.00  0.00    -0.456 A  
HETATM   12  C   UNL     1     -11.947  12.289  64.292  1.00  0.00    -0.407 A  
HETATM   13  N   UNL     1     -12.451  11.605  63.180  1.00  0.00    -0.949 NA 
HETATM   14  C   UNL     1     -10.577  12.272  64.570  1.00  0.00    -0.346 A  
HETATM   15  H2  UNL     1     -12.820  12.289  62.521  1.00  0.00     0.000 HD 
HETATM   16  H1  UNL     1     -11.855  10.953  62.669  1.00  0.00     0.000 HD 
HETATM   17  C   UNL     1     -10.046  13.042  65.610  1.00  0.00    -0.276 A  
ENDBRANCH   6   9
ENDBRANCH   3   6
TORSDOF 2
ENDMDL
MODEL       63
REMARK 921   NORMALIZED FREE ENERGY PREDICTED BY IDOCK:   -4.36 KCAL/MOL
REMARK 922        TOTAL FREE ENERGY PREDICTED BY IDOCK:   -5.04 KCAL/MOL
REMARK 923 INTER-LIGAND FREE ENERGY PREDICTED BY IDOCK:   -4.87 KCAL/MOL
REMARK 924 INTRA-LIGAND FREE ENERGY PREDICTED BY IDOCK:   -0.16 KCAL/MOL
REMARK 927      BINDING AFFINITY PREDICTED BY RF-SCORE:    0.00 PKD
ROOT
HETATM    1  C   UNL     1     -11.135  11.458  64.681  1.00  0.00    -0.277 C  
HETATM    2  C   UNL     1     -11.017  12.457  65.799  1.00  0.00    -0.298 C  
HETATM    3  N   UNL     1     -11.344  11.945  67.059  1.00  0.00    -0.321 N  
HETATM    4  O   UNL     1     -10.695  13.620  65.602  1.00  0.00    -0.274 OA 
HETATM    5  H   UNL     1     -11.678  10.983  67.101  1.00  0.00     0.000 HD 
ENDROOT
BRANCH   3   6
HETATM    6  S   UNL     1     -11.232  12.777  68.494  1.00  0.00    -0.300 S  
HETATM    7  O   UNL     1      -9.826  13.100  68.628  1.00  0.00    -0.188 OA 
HETATM    8  O   UNL     1     -12.236  13.815  68.538  1.00  0.00    -0.348 OA 
BRANCH   6   9
HETATM    9  C   UNL     1     -11.613  11.537  69.704  1.00  0.00    -0.333 A  
HETATM   10  C   UNL     1     -12.523  11.826  70.725  1.00  0.00    -0.405 A  
HETATM   11  C   UNL     1     -12.838  10.844  71.667  1.00  0.00    -0.554 A  
HETATM   12  C   UNL     1     -12.227   9.586  71.622  1.00  0.00    -0.398 A  
HETATM   13  N   UNL     1     -12.634   8.578  72.503  1.00  0.00    -0.547 NA 
HETATM   14  C   UNL     1     -11.388   9.285  70.544  1.00  0.00    -0.306 A  
HETATM   15  H2  UNL     1     -13.641   8.451  72.405  1.00  0.00     0.000 HD 
HETATM   16  H1  UNL     1     -12.189   7.661  72.470  1.00  0.00     0.000 HD 
HETATM   17  C   UNL     1     -11.066  10.258  69.593  1.00  0.00    -0.323 A  
ENDBRANCH   6   9
ENDBRANCH   3   6
TORSDOF 2
ENDMDL
MODEL       64
REMARK 921   NORMALIZED FREE ENERGY PREDICTED BY IDOCK:   -4.35 KCAL/MOL
REMARK 922        TOTAL FREE ENERGY PREDICTED BY IDOCK:   -5.03 KCAL/MOL
REMARK 923 INTER-LIGAND FREE ENERGY PREDICTED BY IDOCK:   -5.12 KCAL/MOL
REMARK 924 INTRA-LIGAND FREE ENERGY PREDICTED BY IDOCK:    0.08 KCAL/MOL
REMARK 927      BINDING AFFINITY PREDICTED BY RF-SCORE:    0.00 PKD
ROOT
HETATM    1  C   UNL     1      -7.726  13.891  68.380  1.00  0.00    -0.139 C  
HETATM    2  C   UNL     1      -9.204  13.748  68.143  1.00  0.00    -0.199 C  
HETATM    3  N   UNL     1     -10.000  14.400  69.091  1.00  0.00    -0.408 N  
HETATM    4  O   UNL     1      -9.654  13.088  67.218  1.00  0.00    -0.213 OA 
HETATM    5  H   UNL     1      -9.524  14.854  69.869  1.00  0.00     0.000 HD 
ENDROOT
BRANCH   3   6
HETATM    6  S   UNL     1     -11.659  14.494  69.053  1.00  0.00    -0.318 S  
HETATM    7  O   UNL     1     -11.979  15.709  69.773  1.00  0.00    -0.346 OA 
HETATM    8  O   UNL     1     -12.130  14.289  67.702  1.00  0.00    -0.376 OA 
BRANCH   6   9
HETATM    9  C   UNL     1     -12.159  13.124  70.064  1.00  0.00    -0.305 A  
HETATM   10  C   UNL     1     -12.826  13.364  71.268  1.00  0.00    -0.407 A  
HETATM   11  C   UNL     1     -13.237  12.285  72.056  1.00  0.00    -0.508 A  
HETATM   12  C   UNL     1     -12.957  10.970  71.671  1.00  0.00    -0.456 A  
HETATM   13  N   UNL     1     -13.470   9.899  72.411  1.00  0.00    -0.625 NA 
HETATM   14  C   UNL     1     -12.368  10.746  70.422  1.00  0.00    -0.438 A  
HETATM   15  H2  UNL     1     -14.482  10.008  72.476  1.00  0.00     0.000 HD 
HETATM   16  H1  UNL     1     -13.266   8.940  72.130  1.00  0.00     0.000 HD 
HETATM   17  C   UNL     1     -11.954  11.817  69.622  1.00  0.00    -0.378 A  
ENDBRANCH   6   9
ENDBRANCH   3   6
TORSDOF 2
ENDMDL
MODEL       65
REMARK 921   NORMALIZED FREE ENERGY PREDICTED BY IDOCK:   -4.32 KCAL/MOL
REMARK 922        TOTAL FREE ENERGY PREDICTED BY IDOCK:   -5.00 KCAL/MOL
REMARK 923 INTER-LIGAND FREE ENERGY PREDICTED BY IDOCK:   -4.83 KCAL/MOL
REMARK 924 INTRA-LIGAND FREE ENERGY PREDICTED BY IDOCK:   -0.17 KCAL/MOL
REMARK 927      BINDING AFFINITY PREDICTED BY RF-SCORE:    0.00 PKD
ROOT
HETATM    1  C   UNL     1      -8.033   6.187  68.033  1.00  0.00    -0.110 C  
HETATM    2  C   UNL     1      -7.980   7.636  68.435  1.00  0.00    -0.123 C  
HETATM    3  N   UNL     1      -9.024   8.033  69.278  1.00  0.00    -0.148 N  
HETATM    4  O   UNL     1      -7.114   8.394  68.025  1.00  0.00    -0.082 OA 
HETATM    5  H   UNL     1      -9.740   7.340  69.494  1.00  0.00     0.000 HD 
ENDROOT
BRANCH   3   6
HETATM    6  S   UNL     1      -9.192   9.541  69.956  1.00  0.00    -0.247 S  
HETATM    7  O   UNL     1      -8.089   9.654  70.888  1.00  0.00    -0.293 OA 
HETATM    8  O   UNL     1      -9.385  10.526  68.916  1.00  0.00    -0.170 OA 
BRANCH   6   9
HETATM    9  C   UNL     1     -10.683   9.387  70.905  1.00  0.00    -0.323 A  
HETATM   10  C   UNL     1     -11.679  10.360  70.788  1.00  0.00    -0.464 A  
HETATM   11  C   UNL     1     -12.861  10.229  71.522  1.00  0.00    -0.557 A  
HETATM   12  C   UNL     1     -13.044   9.155  72.398  1.00  0.00    -0.423 A  
HETATM   13  N   UNL     1     -14.275   8.978  73.041  1.00  0.00    -1.154 NA 
HETATM   14  C   UNL     1     -12.076   8.146  72.437  1.00  0.00    -0.406 A  
HETATM   15  H2  UNL     1     -15.006   8.944  72.332  1.00  0.00     0.000 HD 
HETATM   16  H1  UNL     1     -14.408   8.194  73.680  1.00  0.00     0.000 HD 
HETATM   17  C   UNL     1     -10.889   8.263  71.706  1.00  0.00    -0.332 A  
ENDBRANCH   6   9
ENDBRANCH   3   6
TORSDOF 2
ENDMDL
MODEL       66
REMARK 921   NORMALIZED FREE ENERGY PREDICTED BY IDOCK:   -4.30 KCAL/MOL
REMARK 922        TOTAL FREE ENERGY PREDICTED BY IDOCK:   -4.98 KCAL/MOL
REMARK 923 INTER-LIGAND FREE ENERGY PREDICTED BY IDOCK:   -4.82 KCAL/MOL
REMARK 924 INTRA-LIGAND FREE ENERGY PREDICTED BY IDOCK:   -0.16 KCAL/MOL
REMARK 927      BINDING AFFINITY PREDICTED BY RF-SCORE:    0.00 PKD
ROOT
HETATM    1  C   UNL     1      -7.106  14.751  67.470  1.00  0.00    -0.209 C  
HETATM    2  C   UNL     1      -8.474  15.285  67.147  1.00  0.00    -0.209 C  
HETATM    3  N   UNL     1      -9.468  14.891  68.049  1.00  0.00    -0.195 N  
HETATM    4  O   UNL     1      -8.688  15.974  66.160  1.00  0.00    -0.327 OA 
HETATM    5  H   UNL     1      -9.197  14.248  68.792  1.00  0.00     0.000 HD 
ENDROOT
BRANCH   3   6
HETATM    6  S   UNL     1     -11.055  15.383  68.007  1.00  0.00    -0.321 S  
HETATM    7  O   UNL     1     -11.011  16.804  68.283  1.00  0.00    -0.361 OA 
HETATM    8  O   UNL     1     -11.692  14.882  66.810  1.00  0.00    -0.335 OA 
BRANCH   6   9
HETATM    9  C   UNL     1     -11.758  14.583  69.426  1.00  0.00    -0.318 A  
HETATM   10  C   UNL     1     -12.339  15.355  70.435  1.00  0.00    -0.443 A  
HETATM   11  C   UNL     1     -12.910  14.725  71.544  1.00  0.00    -0.406 A  
HETATM   12  C   UNL     1     -12.875  13.332  71.673  1.00  0.00    -0.302 A  
HETATM   13  N   UNL     1     -13.547  12.710  72.731  1.00  0.00    -0.642 NA 
HETATM   14  C   UNL     1     -12.369  12.572  70.613  1.00  0.00    -0.369 A  
HETATM   15  H2  UNL     1     -14.521  13.008  72.713  1.00  0.00     0.000 HD 
HETATM   16  H1  UNL     1     -13.521  11.694  72.824  1.00  0.00     0.000 HD 
HETATM   17  C   UNL     1     -11.797  13.190  69.496  1.00  0.00    -0.383 A  
ENDBRANCH   6   9
ENDBRANCH   3   6
TORSDOF 2
ENDMDL
MODEL       67
REMARK 921   NORMALIZED FREE ENERGY PREDICTED BY IDOCK:   -4.29 KCAL/MOL
REMARK 922        TOTAL FREE ENERGY PREDICTED BY IDOCK:   -4.97 KCAL/MOL
REMARK 923 INTER-LIGAND FREE ENERGY PREDICTED BY IDOCK:   -4.80 KCAL/MOL
REMARK 924 INTRA-LIGAND FREE ENERGY PREDICTED BY IDOCK:   -0.17 KCAL/MOL
REMARK 927      BINDING AFFINITY PREDICTED BY RF-SCORE:    0.00 PKD
ROOT
HETATM    1  C   UNL     1     -11.399   6.346  69.873  1.00  0.00    -0.500 C  
HETATM    2  C   UNL     1     -11.030   7.776  70.159  1.00  0.00    -0.241 C  
HETATM    3  N   UNL     1     -10.912   8.574  69.016  1.00  0.00    -0.430 N  
HETATM    4  O   UNL     1     -10.822   8.181  71.293  1.00  0.00    -0.229 OA 
HETATM    5  H   UNL     1     -11.027   8.117  68.112  1.00  0.00     0.000 HD 
ENDROOT
BRANCH   3   6
HETATM    6  S   UNL     1     -10.599  10.207  69.011  1.00  0.00    -0.236 S  
HETATM    7  O   UNL     1     -11.750  10.808  69.654  1.00  0.00    -0.274 OA 
HETATM    8  O   UNL     1      -9.264  10.451  69.507  1.00  0.00    -0.194 OA 
BRANCH   6   9
HETATM    9  C   UNL     1     -10.671  10.621  67.287  1.00  0.00    -0.285 A  
HETATM   10  C   UNL     1     -10.005   9.819  66.357  1.00  0.00    -0.314 A  
HETATM   11  C   UNL     1     -10.078  10.135  64.997  1.00  0.00    -0.305 A  
HETATM   12  C   UNL     1     -10.780  11.263  64.560  1.00  0.00    -0.323 A  
HETATM   13  N   UNL     1     -10.936  11.503  63.191  1.00  0.00    -0.782 NA 
HETATM   14  C   UNL     1     -11.512  12.003  65.495  1.00  0.00    -0.368 A  
HETATM   15  H2  UNL     1     -11.356  10.678  62.765  1.00  0.00     0.000 HD 
HETATM   16  H1  UNL     1     -11.448  12.326  62.872  1.00  0.00     0.000 HD 
HETATM   17  C   UNL     1     -11.450  11.697  66.858  1.00  0.00    -0.320 A  
ENDBRANCH   6   9
ENDBRANCH   3   6
TORSDOF 2
ENDMDL
MODEL       68
REMARK 921   NORMALIZED FREE ENERGY PREDICTED BY IDOCK:   -4.29 KCAL/MOL
REMARK 922        TOTAL FREE ENERGY PREDICTED BY IDOCK:   -4.97 KCAL/MOL
REMARK 923 INTER-LIGAND FREE ENERGY PREDICTED BY IDOCK:   -4.88 KCAL/MOL
REMARK 924 INTRA-LIGAND FREE ENERGY PREDICTED BY IDOCK:   -0.09 KCAL/MOL
REMARK 927      BINDING AFFINITY PREDICTED BY RF-SCORE:    0.00 PKD
ROOT
HETATM    1  C   UNL     1     -12.256  12.585  69.904  1.00  0.00    -0.233 C  
HETATM    2  C   UNL     1     -12.031  11.163  70.336  1.00  0.00    -0.378 C  
HETATM    3  N   UNL     1     -10.684  10.788  70.387  1.00  0.00    -0.375 N  
HETATM    4  O   UNL     1     -12.956  10.403  70.584  1.00  0.00    -0.368 OA 
HETATM    5  H   UNL     1      -9.995  11.475  70.081  1.00  0.00     0.000 HD 
ENDROOT
BRANCH   3   6
HETATM    6  S   UNL     1     -10.114   9.315  70.904  1.00  0.00    -0.303 S  
HETATM    7  O   UNL     1      -8.677   9.480  70.984  1.00  0.00    -0.260 OA 
HETATM    8  O   UNL     1     -10.871   8.873  72.052  1.00  0.00    -0.349 OA 
BRANCH   6   9
HETATM    9  C   UNL     1     -10.455   8.250  69.527  1.00  0.00    -0.227 A  
HETATM   10  C   UNL     1     -10.188   8.693  68.229  1.00  0.00    -0.237 A  
HETATM   11  C   UNL     1     -10.438   7.847  67.146  1.00  0.00    -0.414 A  
HETATM   12  C   UNL     1     -10.986   6.575  67.342  1.00  0.00    -0.378 A  
HETATM   13  N   UNL     1     -11.128   5.699  66.261  1.00  0.00    -0.772 NA 
HETATM   14  C   UNL     1     -11.165   6.115  68.651  1.00  0.00    -0.275 A  
HETATM   15  H2  UNL     1     -10.219   5.592  65.812  1.00  0.00     0.000 HD 
HETATM   16  H1  UNL     1     -11.528   4.771  66.404  1.00  0.00     0.000 HD 
HETATM   17  C   UNL     1     -10.916   6.951  69.745  1.00  0.00    -0.310 A  
ENDBRANCH   6   9
ENDBRANCH   3   6
TORSDOF 2
ENDMDL
MODEL       69
REMARK 921   NORMALIZED FREE ENERGY PREDICTED BY IDOCK:   -4.27 KCAL/MOL
REMARK 922        TOTAL FREE ENERGY PREDICTED BY IDOCK:   -4.94 KCAL/MOL
REMARK 923 INTER-LIGAND FREE ENERGY PREDICTED BY IDOCK:   -5.09 KCAL/MOL
REMARK 924 INTRA-LIGAND FREE ENERGY PREDICTED BY IDOCK:    0.15 KCAL/MOL
REMARK 927      BINDING AFFINITY PREDICTED BY RF-SCORE:    0.00 PKD
ROOT
HETATM    1  C   UNL     1     -12.714  13.835  71.250  1.00  0.00    -0.450 C  
HETATM    2  C   UNL     1     -12.190  12.553  70.664  1.00  0.00    -0.276 C  
HETATM    3  N   UNL     1     -11.481  12.719  69.469  1.00  0.00    -0.426 N  
HETATM    4  O   UNL     1     -12.403  11.466  71.181  1.00  0.00    -0.353 OA 
HETATM    5  H   UNL     1     -11.432  13.660  69.081  1.00  0.00     0.000 HD 
ENDROOT
BRANCH   3   6
HETATM    6  S   UNL     1     -10.713  11.507  68.630  1.00  0.00    -0.217 S  
HETATM    7  O   UNL     1      -9.300  11.758  68.825  1.00  0.00    -0.130 OA 
HETATM    8  O   UNL     1     -11.292  10.229  68.976  1.00  0.00    -0.231 OA 
BRANCH   6   9
HETATM    9  C   UNL     1     -11.096  11.888  66.940  1.00  0.00    -0.305 A  
HETATM   10  C   UNL     1     -12.139  12.772  66.652  1.00  0.00    -0.316 A  
HETATM   11  C   UNL     1     -12.428  13.087  65.321  1.00  0.00    -0.555 A  
HETATM   12  C   UNL     1     -11.710  12.502  64.274  1.00  0.00    -0.382 A  
HETATM   13  N   UNL     1     -11.936  12.910  62.955  1.00  0.00    -0.785 NA 
HETATM   14  C   UNL     1     -10.614  11.689  64.583  1.00  0.00    -0.366 A  
HETATM   15  H2  UNL     1     -11.812  13.920  62.905  1.00  0.00     0.000 HD 
HETATM   16  H1  UNL     1     -11.412  12.483  62.191  1.00  0.00     0.000 HD 
HETATM   17  C   UNL     1     -10.312  11.367  65.910  1.00  0.00    -0.299 A  
ENDBRANCH   6   9
ENDBRANCH   3   6
TORSDOF 2
ENDMDL
MODEL       70
REMARK 921   NORMALIZED FREE ENERGY PREDICTED BY IDOCK:   -4.27 KCAL/MOL
REMARK 922        TOTAL FREE ENERGY PREDICTED BY IDOCK:   -4.94 KCAL/MOL
REMARK 923 INTER-LIGAND FREE ENERGY PREDICTED BY IDOCK:   -4.82 KCAL/MOL
REMARK 924 INTRA-LIGAND FREE ENERGY PREDICTED BY IDOCK:   -0.12 KCAL/MOL
REMARK 927      BINDING AFFINITY PREDICTED BY RF-SCORE:    0.00 PKD
ROOT
HETATM    1  C   UNL     1      -5.937  11.317  66.536  1.00  0.00    -0.144 C  
HETATM    2  C   UNL     1      -7.395  11.366  66.902  1.00  0.00    -0.147 C  
HETATM    3  N   UNL     1      -8.135  10.269  66.446  1.00  0.00    -0.119 N  
HETATM    4  O   UNL     1      -7.882  12.305  67.514  1.00  0.00    -0.144 OA 
HETATM    5  H   UNL     1      -7.647   9.581  65.874  1.00  0.00     0.000 HD 
ENDROOT
BRANCH   3   6
HETATM    6  S   UNL     1      -9.744   9.998  66.761  1.00  0.00    -0.199 S  
HETATM    7  O   UNL     1     -10.010   8.678  66.225  1.00  0.00    -0.277 OA 
HETATM    8  O   UNL     1     -10.032  10.306  68.142  1.00  0.00    -0.142 OA 
BRANCH   6   9
HETATM    9  C   UNL     1     -10.560  11.174  65.712  1.00  0.00    -0.227 A  
HETATM   10  C   UNL     1     -11.432  12.110  66.274  1.00  0.00    -0.433 A  
HETATM   11  C   UNL     1     -12.059  13.049  65.451  1.00  0.00    -0.490 A  
HETATM   12  C   UNL     1     -11.853  13.041  64.068  1.00  0.00    -0.445 A  
HETATM   13  N   UNL     1     -12.399  14.054  63.273  1.00  0.00    -1.145 NA 
HETATM   14  C   UNL     1     -10.910  12.155  63.535  1.00  0.00    -0.518 A  
HETATM   15  H2  UNL     1     -12.090  14.953  63.639  1.00  0.00     0.000 HD 
HETATM   16  H1  UNL     1     -12.248  14.048  62.263  1.00  0.00     0.000 HD 
HETATM   17  C   UNL     1     -10.273  11.212  64.347  1.00  0.00    -0.390 A  
ENDBRANCH   6   9
ENDBRANCH   3   6
TORSDOF 2
ENDMDL
MODEL       71
REMARK 921   NORMALIZED FREE ENERGY PREDICTED BY IDOCK:   -4.27 KCAL/MOL
REMARK 922        TOTAL FREE ENERGY PREDICTED BY IDOCK:   -4.94 KCAL/MOL
REMARK 923 INTER-LIGAND FREE ENERGY PREDICTED BY IDOCK:   -5.16 KCAL/MOL
REMARK 924 INTRA-LIGAND FREE ENERGY PREDICTED BY IDOCK:    0.22 KCAL/MOL
REMARK 927      BINDING AFFINITY PREDICTED BY RF-SCORE:    0.00 PKD
ROOT
HETATM    1  C   UNL     1      -9.239   9.259  70.809  1.00  0.00    -0.316 C  
HETATM    2  C   UNL     1     -10.447  10.055  70.398  1.00  0.00    -0.240 C  
HETATM    3  N   UNL     1     -10.239  10.874  69.284  1.00  0.00    -0.351 N  
HETATM    4  O   UNL     1     -11.501  10.004  71.016  1.00  0.00    -0.348 OA 
HETATM    5  H   UNL     1      -9.298  10.902  68.893  1.00  0.00     0.000 HD 
ENDROOT
BRANCH   3   6
HETATM    6  S   UNL     1     -11.400  11.805  68.544  1.00  0.00    -0.302 S  
HETATM    7  O   UNL     1     -12.657  11.167  68.879  1.00  0.00    -0.358 OA 
HETATM    8  O   UNL     1     -11.175  13.200  68.847  1.00  0.00    -0.253 OA 
BRANCH   6   9
HETATM    9  C   UNL     1     -11.099  11.522  66.819  1.00  0.00    -0.302 A  
HETATM   10  C   UNL     1     -11.688  12.361  65.869  1.00  0.00    -0.476 A  
HETATM   11  C   UNL     1     -11.436  12.149  64.511  1.00  0.00    -0.397 A  
HETATM   12  C   UNL     1     -10.630  11.087  64.089  1.00  0.00    -0.342 A  
HETATM   13  N   UNL     1     -10.297  10.955  62.737  1.00  0.00    -0.783 NA 
HETATM   14  C   UNL     1      -9.979  10.313  65.055  1.00  0.00    -0.393 A  
HETATM   15  H2  UNL     1      -9.872  11.826  62.423  1.00  0.00     0.000 HD 
HETATM   16  H1  UNL     1      -9.709  10.180  62.429  1.00  0.00     0.000 HD 
HETATM   17  C   UNL     1     -10.220  10.515  66.418  1.00  0.00    -0.296 A  
ENDBRANCH   6   9
ENDBRANCH   3   6
TORSDOF 2
ENDMDL
MODEL       72
REMARK 921   NORMALIZED FREE ENERGY PREDICTED BY IDOCK:   -4.26 KCAL/MOL
REMARK 922        TOTAL FREE ENERGY PREDICTED BY IDOCK:   -4.93 KCAL/MOL
REMARK 923 INTER-LIGAND FREE ENERGY PREDICTED BY IDOCK:   -5.00 KCAL/MOL
REMARK 924 INTRA-LIGAND FREE ENERGY PREDICTED BY IDOCK:    0.07 KCAL/MOL
REMARK 927      BINDING AFFINITY PREDICTED BY RF-SCORE:    0.00 PKD
ROOT
HETATM    1  C   UNL     1      -7.316  12.372  68.574  1.00  0.00    -0.105 C  
HETATM    2  C   UNL     1      -8.460  11.589  67.989  1.00  0.00    -0.148 C  
HETATM    3  N   UNL     1      -9.680  11.785  68.645  1.00  0.00    -0.329 N  
HETATM    4  O   UNL     1      -8.312  10.827  67.045  1.00  0.00    -0.124 OA 
HETATM    5  H   UNL     1      -9.676  12.380  69.473  1.00  0.00     0.000 HD 
ENDROOT
BRANCH   3   6
HETATM    6  S   UNL     1     -11.135  11.128  68.186  1.00  0.00    -0.290 S  
HETATM    7  O   UNL     1     -10.822   9.768  67.797  1.00  0.00    -0.275 OA 
HETATM    8  O   UNL     1     -12.135  11.397  69.194  1.00  0.00    -0.324 OA 
BRANCH   6   9
HETATM    9  C   UNL     1     -11.531  12.028  66.709  1.00  0.00    -0.345 A  
HETATM   10  C   UNL     1     -12.067  13.315  66.809  1.00  0.00    -0.403 A  
HETATM   11  C   UNL     1     -12.362  14.031  65.646  1.00  0.00    -0.502 A  
HETATM   12  C   UNL     1     -12.159  13.463  64.384  1.00  0.00    -0.416 A  
HETATM   13  N   UNL     1     -12.353  14.231  63.231  1.00  0.00    -1.092 NA 
HETATM   14  C   UNL     1     -11.541  12.211  64.302  1.00  0.00    -0.444 A  
HETATM   15  H2  UNL     1     -11.779  15.070  63.302  1.00  0.00     0.000 HD 
HETATM   16  H1  UNL     1     -12.206  13.816  62.310  1.00  0.00     0.000 HD 
HETATM   17  C   UNL     1     -11.239  11.484  65.458  1.00  0.00    -0.204 A  
ENDBRANCH   6   9
ENDBRANCH   3   6
TORSDOF 2
ENDMDL
MODEL       73
REMARK 921   NORMALIZED FREE ENERGY PREDICTED BY IDOCK:   -4.23 KCAL/MOL
REMARK 922        TOTAL FREE ENERGY PREDICTED BY IDOCK:   -4.90 KCAL/MOL
REMARK 923 INTER-LIGAND FREE ENERGY PREDICTED BY IDOCK:   -4.73 KCAL/MOL
REMARK 924 INTRA-LIGAND FREE ENERGY PREDICTED BY IDOCK:   -0.17 KCAL/MOL
REMARK 927      BINDING AFFINITY PREDICTED BY RF-SCORE:    0.00 PKD
ROOT
HETATM    1  C   UNL     1     -10.848   3.989  73.622  1.00  0.00    -0.338 C  
HETATM    2  C   UNL     1     -10.523   4.553  72.267  1.00  0.00    -0.145 C  
HETATM    3  N   UNL     1     -11.087   5.810  72.021  1.00  0.00    -0.265 N  
HETATM    4  O   UNL     1      -9.851   3.940  71.450  1.00  0.00    -0.182 OA 
HETATM    5  H   UNL     1     -11.698   6.197  72.740  1.00  0.00     0.000 HD 
ENDROOT
BRANCH   3   6
HETATM    6  S   UNL     1     -10.843   6.723  70.654  1.00  0.00    -0.265 S  
HETATM    7  O   UNL     1      -9.417   6.981  70.630  1.00  0.00    -0.165 OA 
HETATM    8  O   UNL     1     -11.501   6.104  69.527  1.00  0.00    -0.429 OA 
BRANCH   6   9
HETATM    9  C   UNL     1     -11.657   8.250  71.045  1.00  0.00    -0.275 A  
HETATM   10  C   UNL     1     -12.760   8.244  71.902  1.00  0.00    -0.373 A  
HETATM   11  C   UNL     1     -13.390   9.449  72.225  1.00  0.00    -0.539 A  
HETATM   12  C   UNL     1     -12.951  10.657  71.673  1.00  0.00    -0.477 A  
HETATM   13  N   UNL     1     -13.519  11.865  72.091  1.00  0.00    -0.515 NA 
HETATM   14  C   UNL     1     -11.793  10.655  70.888  1.00  0.00    -0.433 A  
HETATM   15  H2  UNL     1     -13.437  11.926  73.105  1.00  0.00     0.000 HD 
HETATM   16  H1  UNL     1     -13.198  12.747  71.688  1.00  0.00     0.000 HD 
HETATM   17  C   UNL     1     -11.151   9.457  70.559  1.00  0.00    -0.330 A  
ENDBRANCH   6   9
ENDBRANCH   3   6
TORSDOF 2
ENDMDL
MODEL       74
REMARK 921   NORMALIZED FREE ENERGY PREDICTED BY IDOCK:   -4.23 KCAL/MOL
REMARK 922        TOTAL FREE ENERGY PREDICTED BY IDOCK:   -4.89 KCAL/MOL
REMARK 923 INTER-LIGAND FREE ENERGY PREDICTED BY IDOCK:   -4.82 KCAL/MOL
REMARK 924 INTRA-LIGAND FREE ENERGY PREDICTED BY IDOCK:   -0.07 KCAL/MOL
REMARK 927      BINDING AFFINITY PREDICTED BY RF-SCORE:    0.00 PKD
ROOT
HETATM    1  C   UNL     1     -14.390   7.365  71.414  1.00  0.00    -0.522 C  
HETATM    2  C   UNL     1     -13.374   8.446  71.664  1.00  0.00    -0.338 C  
HETATM    3  N   UNL     1     -12.435   8.595  70.638  1.00  0.00    -0.468 N  
HETATM    4  O   UNL     1     -13.364   9.104  72.694  1.00  0.00    -0.454 OA 
HETATM    5  H   UNL     1     -12.485   7.939  69.859  1.00  0.00     0.000 HD 
ENDROOT
BRANCH   3   6
HETATM    6  S   UNL     1     -11.244   9.753  70.585  1.00  0.00    -0.358 S  
HETATM    7  O   UNL     1     -11.930  11.004  70.837  1.00  0.00    -0.329 OA 
HETATM    8  O   UNL     1     -10.127   9.345  71.406  1.00  0.00    -0.301 OA 
BRANCH   6   9
HETATM    9  C   UNL     1     -10.755   9.745  68.879  1.00  0.00    -0.217 A  
HETATM   10  C   UNL     1     -10.496   8.528  68.243  1.00  0.00    -0.222 A  
HETATM   11  C   UNL     1     -10.129   8.520  66.894  1.00  0.00    -0.364 A  
HETATM   12  C   UNL     1      -9.985   9.717  66.184  1.00  0.00    -0.276 A  
HETATM   13  N   UNL     1      -9.727   9.688  64.809  1.00  0.00    -0.431 NA 
HETATM   14  C   UNL     1     -10.333  10.917  66.812  1.00  0.00    -0.289 A  
HETATM   15  H2  UNL     1     -10.450   9.130  64.357  1.00  0.00     0.000 HD 
HETATM   16  H1  UNL     1      -9.621  10.561  64.291  1.00  0.00     0.000 HD 
HETATM   17  C   UNL     1     -10.704  10.939  68.160  1.00  0.00    -0.256 A  
ENDBRANCH   6   9
ENDBRANCH   3   6
TORSDOF 2
ENDMDL
MODEL       75
REMARK 921   NORMALIZED FREE ENERGY PREDICTED BY IDOCK:   -4.21 KCAL/MOL
REMARK 922        TOTAL FREE ENERGY PREDICTED BY IDOCK:   -4.87 KCAL/MOL
REMARK 923 INTER-LIGAND FREE ENERGY PREDICTED BY IDOCK:   -4.72 KCAL/MOL
REMARK 924 INTRA-LIGAND FREE ENERGY PREDICTED BY IDOCK:   -0.15 KCAL/MOL
REMARK 927      BINDING AFFINITY PREDICTED BY RF-SCORE:    0.00 PKD
ROOT
HETATM    1  C   UNL     1      -6.119  19.371  65.752  1.00  0.00    -0.212 C  
HETATM    2  C   UNL     1      -7.375  19.764  66.481  1.00  0.00    -0.259 C  
HETATM    3  N   UNL     1      -8.363  18.774  66.490  1.00  0.00    -0.289 N  
HETATM    4  O   UNL     1      -7.516  20.868  66.986  1.00  0.00    -0.306 OA 
HETATM    5  H   UNL     1      -8.174  17.919  65.969  1.00  0.00     0.000 HD 
ENDROOT
BRANCH   3   6
HETATM    6  S   UNL     1      -9.822  18.879  67.281  1.00  0.00    -0.336 S  
HETATM    7  O   UNL     1      -9.476  19.071  68.674  1.00  0.00    -0.366 OA 
HETATM    8  O   UNL     1     -10.684  19.816  66.597  1.00  0.00    -0.473 OA 
BRANCH   6   9
HETATM    9  C   UNL     1     -10.483  17.241  67.114  1.00  0.00    -0.297 A  
HETATM   10  C   UNL     1     -10.391  16.582  65.886  1.00  0.00    -0.365 A  
HETATM   11  C   UNL     1     -10.896  15.284  65.760  1.00  0.00    -0.363 A  
HETATM   12  C   UNL     1     -11.523  14.651  66.838  1.00  0.00    -0.363 A  
HETATM   13  N   UNL     1     -11.922  13.315  66.730  1.00  0.00    -0.390 NA 
HETATM   14  C   UNL     1     -11.527  15.291  68.082  1.00  0.00    -0.357 A  
HETATM   15  H2  UNL     1     -11.113  12.759  66.456  1.00  0.00     0.000 HD 
HETATM   16  H1  UNL     1     -12.379  12.854  67.517  1.00  0.00     0.000 HD 
HETATM   17  C   UNL     1     -11.024  16.589  68.223  1.00  0.00    -0.346 A  
ENDBRANCH   6   9
ENDBRANCH   3   6
TORSDOF 2
ENDMDL
MODEL       76
REMARK 921   NORMALIZED FREE ENERGY PREDICTED BY IDOCK:   -4.20 KCAL/MOL
REMARK 922        TOTAL FREE ENERGY PREDICTED BY IDOCK:   -4.86 KCAL/MOL
REMARK 923 INTER-LIGAND FREE ENERGY PREDICTED BY IDOCK:   -4.71 KCAL/MOL
REMARK 924 INTRA-LIGAND FREE ENERGY PREDICTED BY IDOCK:   -0.15 KCAL/MOL
REMARK 927      BINDING AFFINITY PREDICTED BY RF-SCORE:    0.00 PKD
ROOT
HETATM    1  C   UNL     1     -11.996   6.643  71.290  1.00  0.00    -0.409 C  
HETATM    2  C   UNL     1     -11.168   6.855  70.053  1.00  0.00    -0.299 C  
HETATM    3  N   UNL     1     -11.182   8.170  69.576  1.00  0.00    -0.439 N  
HETATM    4  O   UNL     1     -10.570   5.941  69.504  1.00  0.00    -0.244 OA 
HETATM    5  H   UNL     1     -11.780   8.838  70.062  1.00  0.00     0.000 HD 
ENDROOT
BRANCH   3   6
HETATM    6  S   UNL     1     -10.304   8.733  68.282  1.00  0.00    -0.188 S  
HETATM    7  O   UNL     1      -8.943   8.829  68.769  1.00  0.00    -0.137 OA 
HETATM    8  O   UNL     1     -10.615   7.956  67.104  1.00  0.00    -0.320 OA 
BRANCH   6   9
HETATM    9  C   UNL     1     -10.916  10.386  68.074  1.00  0.00    -0.291 A  
HETATM   10  C   UNL     1     -11.440  11.071  69.174  1.00  0.00    -0.370 A  
HETATM   11  C   UNL     1     -11.904  12.379  69.015  1.00  0.00    -0.349 A  
HETATM   12  C   UNL     1     -11.883  12.999  67.761  1.00  0.00    -0.347 A  
HETATM   13  N   UNL     1     -12.247  14.344  67.639  1.00  0.00    -0.623 NA 
HETATM   14  C   UNL     1     -11.276  12.332  66.692  1.00  0.00    -0.367 A  
HETATM   15  H2  UNL     1     -11.674  14.892  68.278  1.00  0.00     0.000 HD 
HETATM   16  H1  UNL     1     -12.232  14.796  66.724  1.00  0.00     0.000 HD 
HETATM   17  C   UNL     1     -10.805  11.023  66.838  1.00  0.00    -0.324 A  
ENDBRANCH   6   9
ENDBRANCH   3   6
TORSDOF 2
ENDMDL
MODEL       77
REMARK 921   NORMALIZED FREE ENERGY PREDICTED BY IDOCK:   -4.20 KCAL/MOL
REMARK 922        TOTAL FREE ENERGY PREDICTED BY IDOCK:   -4.86 KCAL/MOL
REMARK 923 INTER-LIGAND FREE ENERGY PREDICTED BY IDOCK:   -4.73 KCAL/MOL
REMARK 924 INTRA-LIGAND FREE ENERGY PREDICTED BY IDOCK:   -0.13 KCAL/MOL
REMARK 927      BINDING AFFINITY PREDICTED BY RF-SCORE:    0.00 PKD
ROOT
HETATM    1  C   UNL     1     -10.879  16.032  64.712  1.00  0.00    -0.315 C  
HETATM    2  C   UNL     1     -11.766  14.825  64.581  1.00  0.00    -0.422 C  
HETATM    3  N   UNL     1     -11.073  13.612  64.502  1.00  0.00    -0.382 N  
HETATM    4  O   UNL     1     -12.984  14.916  64.514  1.00  0.00    -0.356 OA 
HETATM    5  H   UNL     1     -10.055  13.656  64.485  1.00  0.00     0.000 HD 
ENDROOT
BRANCH   3   6
HETATM    6  S   UNL     1     -11.774  12.106  64.435  1.00  0.00    -0.344 S  
HETATM    7  O   UNL     1     -12.249  11.857  65.780  1.00  0.00    -0.422 OA 
HETATM    8  O   UNL     1     -12.675  12.035  63.308  1.00  0.00    -0.685 OA 
BRANCH   6   9
HETATM    9  C   UNL     1     -10.389  11.035  64.150  1.00  0.00    -0.369 A  
HETATM   10  C   UNL     1      -9.765  11.033  62.900  1.00  0.00    -0.353 A  
HETATM   11  C   UNL     1      -8.662  10.203  62.681  1.00  0.00    -0.218 A  
HETATM   12  C   UNL     1      -8.197   9.349  63.686  1.00  0.00    -0.169 A  
HETATM   13  N   UNL     1      -7.027   8.607  63.490  1.00  0.00    -0.088 NA 
HETATM   14  C   UNL     1      -8.778   9.428  64.957  1.00  0.00    -0.216 A  
HETATM   15  H2  UNL     1      -6.277   9.250  63.241  1.00  0.00     0.000 HD 
HETATM   16  H1  UNL     1      -6.688   7.984  64.224  1.00  0.00     0.000 HD 
HETATM   17  C   UNL     1      -9.880  10.256  65.190  1.00  0.00    -0.389 A  
ENDBRANCH   6   9
ENDBRANCH   3   6
TORSDOF 2
ENDMDL
MODEL       78
REMARK 921   NORMALIZED FREE ENERGY PREDICTED BY IDOCK:   -4.16 KCAL/MOL
REMARK 922        TOTAL FREE ENERGY PREDICTED BY IDOCK:   -4.82 KCAL/MOL
REMARK 923 INTER-LIGAND FREE ENERGY PREDICTED BY IDOCK:   -4.95 KCAL/MOL
REMARK 924 INTRA-LIGAND FREE ENERGY PREDICTED BY IDOCK:    0.14 KCAL/MOL
REMARK 927      BINDING AFFINITY PREDICTED BY RF-SCORE:    0.00 PKD
ROOT
HETATM    1  C   UNL     1     -14.191  15.352  71.857  1.00  0.00    -0.640 C  
HETATM    2  C   UNL     1     -12.803  15.113  71.330  1.00  0.00    -0.391 C  
HETATM    3  N   UNL     1     -12.714  15.120  69.934  1.00  0.00    -0.612 N  
HETATM    4  O   UNL     1     -11.854  14.898  72.069  1.00  0.00    -0.362 OA 
HETATM    5  H   UNL     1     -13.582  15.227  69.410  1.00  0.00     0.000 HD 
ENDROOT
BRANCH   3   6
HETATM    6  S   UNL     1     -11.309  14.967  69.059  1.00  0.00    -0.310 S  
HETATM    7  O   UNL     1     -11.596  15.591  67.784  1.00  0.00    -0.302 OA 
HETATM    8  O   UNL     1     -10.185  15.400  69.858  1.00  0.00    -0.282 OA 
BRANCH   6   9
HETATM    9  C   UNL     1     -11.197  13.218  68.786  1.00  0.00    -0.276 A  
HETATM   10  C   UNL     1     -10.145  12.705  68.024  1.00  0.00    -0.229 A  
HETATM   11  C   UNL     1     -10.046  11.325  67.825  1.00  0.00    -0.199 A  
HETATM   12  C   UNL     1     -11.007  10.455  68.349  1.00  0.00    -0.264 A  
HETATM   13  N   UNL     1     -10.835   9.071  68.236  1.00  0.00    -0.454 NA 
HETATM   14  C   UNL     1     -12.003  10.977  69.181  1.00  0.00    -0.394 A  
HETATM   15  H2  UNL     1      -9.929   8.826  68.632  1.00  0.00     0.000 HD 
HETATM   16  H1  UNL     1     -11.537   8.436  68.619  1.00  0.00     0.000 HD 
HETATM   17  C   UNL     1     -12.112  12.355  69.392  1.00  0.00    -0.237 A  
ENDBRANCH   6   9
ENDBRANCH   3   6
TORSDOF 2
ENDMDL
MODEL       79
REMARK 921   NORMALIZED FREE ENERGY PREDICTED BY IDOCK:   -4.15 KCAL/MOL
REMARK 922        TOTAL FREE ENERGY PREDICTED BY IDOCK:   -4.81 KCAL/MOL
REMARK 923 INTER-LIGAND FREE ENERGY PREDICTED BY IDOCK:   -4.63 KCAL/MOL
REMARK 924 INTRA-LIGAND FREE ENERGY PREDICTED BY IDOCK:   -0.18 KCAL/MOL
REMARK 927      BINDING AFFINITY PREDICTED BY RF-SCORE:    0.00 PKD
ROOT
HETATM    1  C   UNL     1     -13.929   9.035  72.307  1.00  0.00    -0.522 C  
HETATM    2  C   UNL     1     -12.576   8.643  71.780  1.00  0.00    -0.349 C  
HETATM    3  N   UNL     1     -12.231   9.265  70.575  1.00  0.00    -0.483 N  
HETATM    4  O   UNL     1     -11.868   7.824  72.348  1.00  0.00    -0.324 OA 
HETATM    5  H   UNL     1     -12.929   9.869  70.143  1.00  0.00     0.000 HD 
ENDROOT
BRANCH   3   6
HETATM    6  S   UNL     1     -10.775   9.099  69.790  1.00  0.00    -0.216 S  
HETATM    7  O   UNL     1      -9.795   9.651  70.704  1.00  0.00    -0.265 OA 
HETATM    8  O   UNL     1     -10.640   7.751  69.288  1.00  0.00    -0.220 OA 
BRANCH   6   9
HETATM    9  C   UNL     1     -10.928  10.223  68.426  1.00  0.00    -0.260 A  
HETATM   10  C   UNL     1     -11.681  11.390  68.575  1.00  0.00    -0.386 A  
HETATM   11  C   UNL     1     -11.785  12.285  67.507  1.00  0.00    -0.402 A  
HETATM   12  C   UNL     1     -11.175  12.009  66.279  1.00  0.00    -0.342 A  
HETATM   13  N   UNL     1     -11.195  12.963  65.257  1.00  0.00    -0.284 NA 
HETATM   14  C   UNL     1     -10.354  10.881  66.175  1.00  0.00    -0.305 A  
HETATM   15  H2  UNL     1     -10.808  13.833  65.620  1.00  0.00     0.000 HD 
HETATM   16  H1  UNL     1     -10.750  12.762  64.361  1.00  0.00     0.000 HD 
HETATM   17  C   UNL     1     -10.238   9.978  67.237  1.00  0.00    -0.275 A  
ENDBRANCH   6   9
ENDBRANCH   3   6
TORSDOF 2
ENDMDL
MODEL       80
REMARK 921   NORMALIZED FREE ENERGY PREDICTED BY IDOCK:   -4.14 KCAL/MOL
REMARK 922        TOTAL FREE ENERGY PREDICTED BY IDOCK:   -4.80 KCAL/MOL
REMARK 923 INTER-LIGAND FREE ENERGY PREDICTED BY IDOCK:   -4.68 KCAL/MOL
REMARK 924 INTRA-LIGAND FREE ENERGY PREDICTED BY IDOCK:   -0.12 KCAL/MOL
REMARK 927      BINDING AFFINITY PREDICTED BY RF-SCORE:    0.00 PKD
ROOT
HETATM    1  C   UNL     1     -12.031  11.228  69.494  1.00  0.00    -0.421 C  
HETATM    2  C   UNL     1     -12.428  10.348  70.647  1.00  0.00    -0.348 C  
HETATM    3  N   UNL     1     -12.076   9.004  70.487  1.00  0.00    -0.476 N  
HETATM    4  O   UNL     1     -13.036  10.780  71.616  1.00  0.00    -0.430 OA 
HETATM    5  H   UNL     1     -11.644   8.736  69.603  1.00  0.00     0.000 HD 
ENDROOT
BRANCH   3   6
HETATM    6  S   UNL     1     -12.304   7.809  71.619  1.00  0.00    -0.331 S  
HETATM    7  O   UNL     1     -11.660   8.304  72.818  1.00  0.00    -0.395 OA 
HETATM    8  O   UNL     1     -13.693   7.411  71.637  1.00  0.00    -0.377 OA 
BRANCH   6   9
HETATM    9  C   UNL     1     -11.318   6.474  70.993  1.00  0.00    -0.323 A  
HETATM   10  C   UNL     1     -10.882   5.471  71.863  1.00  0.00    -0.286 A  
HETATM   11  C   UNL     1     -10.121   4.409  71.367  1.00  0.00    -0.210 A  
HETATM   12  C   UNL     1      -9.760   4.357  70.017  1.00  0.00    -0.216 A  
HETATM   13  N   UNL     1      -9.094   3.234  69.513  1.00  0.00    -0.118 NA 
HETATM   14  C   UNL     1     -10.277   5.320  69.145  1.00  0.00    -0.281 A  
HETATM   15  H2  UNL     1      -9.647   2.406  69.731  1.00  0.00     0.000 HD 
HETATM   16  H1  UNL     1      -8.831   3.196  68.528  1.00  0.00     0.000 HD 
HETATM   17  C   UNL     1     -11.043   6.387  69.627  1.00  0.00    -0.465 A  
ENDBRANCH   6   9
ENDBRANCH   3   6
TORSDOF 2
ENDMDL
MODEL       81
REMARK 921   NORMALIZED FREE ENERGY PREDICTED BY IDOCK:   -4.13 KCAL/MOL
REMARK 922        TOTAL FREE ENERGY PREDICTED BY IDOCK:   -4.79 KCAL/MOL
REMARK 923 INTER-LIGAND FREE ENERGY PREDICTED BY IDOCK:   -4.73 KCAL/MOL
REMARK 924 INTRA-LIGAND FREE ENERGY PREDICTED BY IDOCK:   -0.06 KCAL/MOL
REMARK 927      BINDING AFFINITY PREDICTED BY RF-SCORE:    0.00 PKD
ROOT
HETATM    1  C   UNL     1      -8.265  12.933  67.267  1.00  0.00    -0.176 C  
HETATM    2  C   UNL     1      -9.474  13.816  67.118  1.00  0.00    -0.244 C  
HETATM    3  N   UNL     1      -9.176  15.139  66.776  1.00  0.00    -0.237 N  
HETATM    4  O   UNL     1     -10.608  13.406  67.317  1.00  0.00    -0.252 OA 
HETATM    5  H   UNL     1      -8.191  15.396  66.714  1.00  0.00     0.000 HD 
ENDROOT
BRANCH   3   6
HETATM    6  S   UNL     1     -10.295  16.327  66.461  1.00  0.00    -0.300 S  
HETATM    7  O   UNL     1     -10.624  16.167  65.060  1.00  0.00    -0.588 OA 
HETATM    8  O   UNL     1     -11.329  16.305  67.470  1.00  0.00    -0.132 OA 
BRANCH   6   9
HETATM    9  C   UNL     1      -9.348  17.819  66.622  1.00  0.00    -0.287 A  
HETATM   10  C   UNL     1      -9.988  19.005  66.990  1.00  0.00    -0.405 A  
HETATM   11  C   UNL     1      -9.240  20.177  67.135  1.00  0.00    -0.506 A  
HETATM   12  C   UNL     1      -7.864  20.184  66.882  1.00  0.00    -0.315 A  
HETATM   13  N   UNL     1      -7.111  21.334  67.138  1.00  0.00    -0.762 NA 
HETATM   14  C   UNL     1      -7.227  18.970  66.601  1.00  0.00    -0.227 A  
HETATM   15  H2  UNL     1      -7.262  21.608  68.108  1.00  0.00     0.000 HD 
HETATM   16  H1  UNL     1      -6.107  21.339  66.953  1.00  0.00     0.000 HD 
HETATM   17  C   UNL     1      -7.963  17.790  66.455  1.00  0.00    -0.299 A  
ENDBRANCH   6   9
ENDBRANCH   3   6
TORSDOF 2
ENDMDL
MODEL       82
REMARK 921   NORMALIZED FREE ENERGY PREDICTED BY IDOCK:   -4.13 KCAL/MOL
REMARK 922        TOTAL FREE ENERGY PREDICTED BY IDOCK:   -4.79 KCAL/MOL
REMARK 923 INTER-LIGAND FREE ENERGY PREDICTED BY IDOCK:   -4.78 KCAL/MOL
REMARK 924 INTRA-LIGAND FREE ENERGY PREDICTED BY IDOCK:   -0.01 KCAL/MOL
REMARK 927      BINDING AFFINITY PREDICTED BY RF-SCORE:    0.00 PKD
ROOT
HETATM    1  C   UNL     1     -10.168   9.925  67.128  1.00  0.00    -0.285 C  
HETATM    2  C   UNL     1     -10.216  11.077  66.162  1.00  0.00    -0.247 C  
HETATM    3  N   UNL     1     -11.510  11.479  65.817  1.00  0.00    -0.115 N  
HETATM    4  O   UNL     1      -9.203  11.583  65.701  1.00  0.00    -0.218 OA 
HETATM    5  H   UNL     1     -12.286  10.936  66.195  1.00  0.00     0.000 HD 
ENDROOT
BRANCH   3   6
HETATM    6  S   UNL     1     -11.888  12.770  64.840  1.00  0.00    -0.404 S  
HETATM    7  O   UNL     1     -10.970  12.673  63.725  1.00  0.00    -0.398 OA 
HETATM    8  O   UNL     1     -13.316  12.816  64.620  1.00  0.00    -0.665 OA 
BRANCH   6   9
HETATM    9  C   UNL     1     -11.398  14.167  65.818  1.00  0.00    -0.317 A  
HETATM   10  C   UNL     1     -11.925  14.328  67.102  1.00  0.00    -0.449 A  
HETATM   11  C   UNL     1     -11.525  15.418  67.880  1.00  0.00    -0.306 A  
HETATM   12  C   UNL     1     -10.630  16.368  67.375  1.00  0.00    -0.306 A  
HETATM   13  N   UNL     1     -10.154  17.390  68.203  1.00  0.00    -0.309 NA 
HETATM   14  C   UNL     1     -10.047  16.143  66.124  1.00  0.00    -0.356 A  
HETATM   15  H2  UNL     1      -9.740  16.967  69.033  1.00  0.00     0.000 HD 
HETATM   16  H1  UNL     1      -9.501  18.083  67.835  1.00  0.00     0.000 HD 
HETATM   17  C   UNL     1     -10.436  15.055  65.336  1.00  0.00    -0.406 A  
ENDBRANCH   6   9
ENDBRANCH   3   6
TORSDOF 2
ENDMDL
MODEL       83
REMARK 921   NORMALIZED FREE ENERGY PREDICTED BY IDOCK:   -4.13 KCAL/MOL
REMARK 922        TOTAL FREE ENERGY PREDICTED BY IDOCK:   -4.79 KCAL/MOL
REMARK 923 INTER-LIGAND FREE ENERGY PREDICTED BY IDOCK:   -4.64 KCAL/MOL
REMARK 924 INTRA-LIGAND FREE ENERGY PREDICTED BY IDOCK:   -0.15 KCAL/MOL
REMARK 927      BINDING AFFINITY PREDICTED BY RF-SCORE:    0.00 PKD
ROOT
HETATM    1  C   UNL     1      -6.873  15.453  68.625  1.00  0.00    -0.106 C  
HETATM    2  C   UNL     1      -8.172  15.887  68.006  1.00  0.00    -0.148 C  
HETATM    3  N   UNL     1      -9.308  15.373  68.642  1.00  0.00    -0.193 N  
HETATM    4  O   UNL     1      -8.215  16.599  67.013  1.00  0.00    -0.165 OA 
HETATM    5  H   UNL     1      -9.158  14.722  69.412  1.00  0.00     0.000 HD 
ENDROOT
BRANCH   3   6
HETATM    6  S   UNL     1     -10.880  15.735  68.244  1.00  0.00    -0.319 S  
HETATM    7  O   UNL     1     -10.997  17.164  68.455  1.00  0.00    -0.337 OA 
HETATM    8  O   UNL     1     -11.210  15.148  66.965  1.00  0.00    -0.335 OA 
BRANCH   6   9
HETATM    9  C   UNL     1     -11.811  14.928  69.520  1.00  0.00    -0.325 A  
HETATM   10  C   UNL     1     -11.695  13.546  69.688  1.00  0.00    -0.378 A  
HETATM   11  C   UNL     1     -12.414  12.912  70.706  1.00  0.00    -0.370 A  
HETATM   12  C   UNL     1     -13.273  13.639  71.535  1.00  0.00    -0.331 A  
HETATM   13  N   UNL     1     -13.899  13.012  72.618  1.00  0.00    -0.742 NA 
HETATM   14  C   UNL     1     -13.309  15.032  71.410  1.00  0.00    -0.513 A  
HETATM   15  H2  UNL     1     -13.182  12.579  73.198  1.00  0.00     0.000 HD 
HETATM   16  H1  UNL     1     -14.526  13.542  73.223  1.00  0.00     0.000 HD 
HETATM   17  C   UNL     1     -12.593  15.679  70.397  1.00  0.00    -0.376 A  
ENDBRANCH   6   9
ENDBRANCH   3   6
TORSDOF 2
ENDMDL
MODEL       84
REMARK 921   NORMALIZED FREE ENERGY PREDICTED BY IDOCK:   -4.13 KCAL/MOL
REMARK 922        TOTAL FREE ENERGY PREDICTED BY IDOCK:   -4.79 KCAL/MOL
REMARK 923 INTER-LIGAND FREE ENERGY PREDICTED BY IDOCK:   -4.72 KCAL/MOL
REMARK 924 INTRA-LIGAND FREE ENERGY PREDICTED BY IDOCK:   -0.07 KCAL/MOL
REMARK 927      BINDING AFFINITY PREDICTED BY RF-SCORE:    0.00 PKD
ROOT
HETATM    1  C   UNL     1      -9.738   4.939  69.381  1.00  0.00    -0.261 C  
HETATM    2  C   UNL     1     -10.396   5.342  70.672  1.00  0.00    -0.254 C  
HETATM    3  N   UNL     1     -11.038   6.583  70.622  1.00  0.00    -0.287 N  
HETATM    4  O   UNL     1     -10.335   4.649  71.677  1.00  0.00    -0.187 OA 
HETATM    5  H   UNL     1     -10.959   7.117  69.757  1.00  0.00     0.000 HD 
ENDROOT
BRANCH   3   6
HETATM    6  S   UNL     1     -11.921   7.260  71.857  1.00  0.00    -0.313 S  
HETATM    7  O   UNL     1     -13.250   6.702  71.713  1.00  0.00    -0.266 OA 
HETATM    8  O   UNL     1     -11.197   7.135  73.101  1.00  0.00    -0.278 OA 
BRANCH   6   9
HETATM    9  C   UNL     1     -12.006   8.971  71.395  1.00  0.00    -0.332 A  
HETATM   10  C   UNL     1     -12.914   9.815  72.039  1.00  0.00    -0.515 A  
HETATM   11  C   UNL     1     -12.968  11.167  71.689  1.00  0.00    -0.548 A  
HETATM   12  C   UNL     1     -12.149  11.677  70.676  1.00  0.00    -0.335 A  
HETATM   13  N   UNL     1     -12.135  13.051  70.413  1.00  0.00    -0.468 NA 
HETATM   14  C   UNL     1     -11.186  10.839  70.104  1.00  0.00    -0.345 A  
HETATM   15  H2  UNL     1     -11.920  13.543  71.280  1.00  0.00     0.000 HD 
HETATM   16  H1  UNL     1     -11.537  13.424  69.675  1.00  0.00     0.000 HD 
HETATM   17  C   UNL     1     -11.119   9.485  70.447  1.00  0.00    -0.330 A  
ENDBRANCH   6   9
ENDBRANCH   3   6
TORSDOF 2
ENDMDL
MODEL       85
REMARK 921   NORMALIZED FREE ENERGY PREDICTED BY IDOCK:   -4.12 KCAL/MOL
REMARK 922        TOTAL FREE ENERGY PREDICTED BY IDOCK:   -4.78 KCAL/MOL
REMARK 923 INTER-LIGAND FREE ENERGY PREDICTED BY IDOCK:   -4.88 KCAL/MOL
REMARK 924 INTRA-LIGAND FREE ENERGY PREDICTED BY IDOCK:    0.10 KCAL/MOL
REMARK 927      BINDING AFFINITY PREDICTED BY RF-SCORE:    0.00 PKD
ROOT
HETATM    1  C   UNL     1      -9.631   8.448  72.235  1.00  0.00    -0.374 C  
HETATM    2  C   UNL     1     -11.077   8.715  71.917  1.00  0.00    -0.346 C  
HETATM    3  N   UNL     1     -11.321   9.991  71.399  1.00  0.00    -0.284 N  
HETATM    4  O   UNL     1     -11.954   7.891  72.131  1.00  0.00    -0.303 OA 
HETATM    5  H   UNL     1     -10.529  10.630  71.337  1.00  0.00     0.000 HD 
ENDROOT
BRANCH   3   6
HETATM    6  S   UNL     1     -12.796  10.551  70.877  1.00  0.00    -0.380 S  
HETATM    7  O   UNL     1     -12.769  10.385  69.438  1.00  0.00    -0.071 OA 
HETATM    8  O   UNL     1     -13.852   9.963  71.669  1.00  0.00    -0.197 OA 
BRANCH   6   9
HETATM    9  C   UNL     1     -12.705  12.291  71.216  1.00  0.00    -0.251 A  
HETATM   10  C   UNL     1     -13.317  12.803  72.363  1.00  0.00    -0.479 A  
HETATM   11  C   UNL     1     -13.229  14.170  72.640  1.00  0.00    -0.612 A  
HETATM   12  C   UNL     1     -12.566  15.036  71.765  1.00  0.00    -0.341 A  
HETATM   13  N   UNL     1     -12.390  16.381  72.110  1.00  0.00    -0.531 NA 
HETATM   14  C   UNL     1     -11.885  14.494  70.670  1.00  0.00    -0.367 A  
HETATM   15  H2  UNL     1     -11.928  16.422  73.018  1.00  0.00     0.000 HD 
HETATM   16  H1  UNL     1     -11.906  17.013  71.472  1.00  0.00     0.000 HD 
HETATM   17  C   UNL     1     -11.962  13.128  70.382  1.00  0.00    -0.343 A  
ENDBRANCH   6   9
ENDBRANCH   3   6
TORSDOF 2
ENDMDL
MODEL       86
REMARK 921   NORMALIZED FREE ENERGY PREDICTED BY IDOCK:   -4.06 KCAL/MOL
REMARK 922        TOTAL FREE ENERGY PREDICTED BY IDOCK:   -4.71 KCAL/MOL
REMARK 923 INTER-LIGAND FREE ENERGY PREDICTED BY IDOCK:   -4.68 KCAL/MOL
REMARK 924 INTRA-LIGAND FREE ENERGY PREDICTED BY IDOCK:   -0.02 KCAL/MOL
REMARK 927      BINDING AFFINITY PREDICTED BY RF-SCORE:    0.00 PKD
ROOT
HETATM    1  C   UNL     1     -10.078   5.192  66.848  1.00  0.00    -0.258 C  
HETATM    2  C   UNL     1      -9.790   6.637  67.147  1.00  0.00    -0.151 C  
HETATM    3  N   UNL     1     -10.239   7.061  68.403  1.00  0.00    -0.172 N  
HETATM    4  O   UNL     1      -9.242   7.373  66.340  1.00  0.00    -0.163 OA 
HETATM    5  H   UNL     1     -10.758   6.387  68.966  1.00  0.00     0.000 HD 
ENDROOT
BRANCH   3   6
HETATM    6  S   UNL     1      -9.997   8.571  69.052  1.00  0.00    -0.198 S  
HETATM    7  O   UNL     1      -8.733   8.477  69.752  1.00  0.00    -0.129 OA 
HETATM    8  O   UNL     1     -10.207   9.579  68.038  1.00  0.00    -0.179 OA 
BRANCH   6   9
HETATM    9  C   UNL     1     -11.278   8.690  70.274  1.00  0.00    -0.184 A  
HETATM   10  C   UNL     1     -11.755   7.529  70.888  1.00  0.00    -0.307 A  
HETATM   11  C   UNL     1     -12.750   7.624  71.864  1.00  0.00    -0.320 A  
HETATM   12  C   UNL     1     -13.300   8.863  72.209  1.00  0.00    -0.449 A  
HETATM   13  N   UNL     1     -14.214   8.955  73.263  1.00  0.00    -1.237 NA 
HETATM   14  C   UNL     1     -12.750  10.021  71.648  1.00  0.00    -0.535 A  
HETATM   15  H2  UNL     1     -13.787   8.549  74.096  1.00  0.00     0.000 HD 
HETATM   16  H1  UNL     1     -14.615   9.859  73.515  1.00  0.00     0.000 HD 
HETATM   17  C   UNL     1     -11.752   9.941  70.672  1.00  0.00    -0.404 A  
ENDBRANCH   6   9
ENDBRANCH   3   6
TORSDOF 2
ENDMDL
MODEL       87
REMARK 921   NORMALIZED FREE ENERGY PREDICTED BY IDOCK:   -4.04 KCAL/MOL
REMARK 922        TOTAL FREE ENERGY PREDICTED BY IDOCK:   -4.69 KCAL/MOL
REMARK 923 INTER-LIGAND FREE ENERGY PREDICTED BY IDOCK:   -4.54 KCAL/MOL
REMARK 924 INTRA-LIGAND FREE ENERGY PREDICTED BY IDOCK:   -0.15 KCAL/MOL
REMARK 927      BINDING AFFINITY PREDICTED BY RF-SCORE:    0.00 PKD
ROOT
HETATM    1  C   UNL     1      -9.231   8.987  71.198  1.00  0.00    -0.326 C  
HETATM    2  C   UNL     1     -10.672   9.415  71.250  1.00  0.00    -0.350 C  
HETATM    3  N   UNL     1     -10.914  10.673  70.689  1.00  0.00    -0.370 N  
HETATM    4  O   UNL     1     -11.537   8.727  71.771  1.00  0.00    -0.299 OA 
HETATM    5  H   UNL     1     -10.108  11.200  70.355  1.00  0.00     0.000 HD 
ENDROOT
BRANCH   3   6
HETATM    6  S   UNL     1     -12.409  11.381  70.524  1.00  0.00    -0.329 S  
HETATM    7  O   UNL     1     -13.072  10.612  69.491  1.00  0.00     0.001 OA 
HETATM    8  O   UNL     1     -13.017  11.551  71.824  1.00  0.00    -0.446 OA 
BRANCH   6   9
HETATM    9  C   UNL     1     -12.023  12.973  69.842  1.00  0.00    -0.311 A  
HETATM   10  C   UNL     1     -11.590  13.069  68.517  1.00  0.00    -0.363 A  
HETATM   11  C   UNL     1     -11.305  14.324  67.973  1.00  0.00    -0.318 A  
HETATM   12  C   UNL     1     -11.413  15.482  68.750  1.00  0.00    -0.355 A  
HETATM   13  N   UNL     1     -11.232  16.739  68.163  1.00  0.00    -0.256 NA 
HETATM   14  C   UNL     1     -11.931  15.376  70.045  1.00  0.00    -0.383 A  
HETATM   15  H2  UNL     1     -11.870  16.820  67.373  1.00  0.00     0.000 HD 
HETATM   16  H1  UNL     1     -11.311  17.584  68.730  1.00  0.00     0.000 HD 
HETATM   17  C   UNL     1     -12.224  14.126  70.601  1.00  0.00    -0.432 A  
ENDBRANCH   6   9
ENDBRANCH   3   6
TORSDOF 2
ENDMDL
MODEL       88
REMARK 921   NORMALIZED FREE ENERGY PREDICTED BY IDOCK:   -4.00 KCAL/MOL
REMARK 922        TOTAL FREE ENERGY PREDICTED BY IDOCK:   -4.64 KCAL/MOL
REMARK 923 INTER-LIGAND FREE ENERGY PREDICTED BY IDOCK:   -4.72 KCAL/MOL
REMARK 924 INTRA-LIGAND FREE ENERGY PREDICTED BY IDOCK:    0.08 KCAL/MOL
REMARK 927      BINDING AFFINITY PREDICTED BY RF-SCORE:    0.00 PKD
ROOT
HETATM    1  C   UNL     1     -10.269   5.034  69.728  1.00  0.00    -0.336 C  
HETATM    2  C   UNL     1     -10.832   6.266  70.380  1.00  0.00    -0.299 C  
HETATM    3  N   UNL     1      -9.864   7.121  70.918  1.00  0.00    -0.181 N  
HETATM    4  O   UNL     1     -12.035   6.472  70.455  1.00  0.00    -0.388 OA 
HETATM    5  H   UNL     1      -8.892   6.814  70.872  1.00  0.00     0.000 HD 
ENDROOT
BRANCH   3   6
HETATM    6  S   UNL     1     -10.166   8.594  71.625  1.00  0.00    -0.324 S  
HETATM    7  O   UNL     1     -11.331   8.373  72.459  1.00  0.00    -0.375 OA 
HETATM    8  O   UNL     1      -8.947   9.128  72.186  1.00  0.00    -0.315 OA 
BRANCH   6   9
HETATM    9  C   UNL     1     -10.673   9.598  70.253  1.00  0.00    -0.281 A  
HETATM   10  C   UNL     1     -11.611  10.614  70.452  1.00  0.00    -0.441 A  
HETATM   11  C   UNL     1     -11.996  11.418  69.375  1.00  0.00    -0.407 A  
HETATM   12  C   UNL     1     -11.480  11.195  68.095  1.00  0.00    -0.303 A  
HETATM   13  N   UNL     1     -11.788  12.076  67.052  1.00  0.00    -0.611 NA 
HETATM   14  C   UNL     1     -10.477  10.233  67.933  1.00  0.00    -0.253 A  
HETATM   15  H2  UNL     1     -11.535  13.019  67.342  1.00  0.00     0.000 HD 
HETATM   16  H1  UNL     1     -11.411  11.913  66.118  1.00  0.00     0.000 HD 
HETATM   17  C   UNL     1     -10.081   9.423  69.002  1.00  0.00    -0.202 A  
ENDBRANCH   6   9
ENDBRANCH   3   6
TORSDOF 2
ENDMDL
MODEL       89
REMARK 921   NORMALIZED FREE ENERGY PREDICTED BY IDOCK:   -3.95 KCAL/MOL
REMARK 922        TOTAL FREE ENERGY PREDICTED BY IDOCK:   -4.58 KCAL/MOL
REMARK 923 INTER-LIGAND FREE ENERGY PREDICTED BY IDOCK:   -4.54 KCAL/MOL
REMARK 924 INTRA-LIGAND FREE ENERGY PREDICTED BY IDOCK:   -0.05 KCAL/MOL
REMARK 927      BINDING AFFINITY PREDICTED BY RF-SCORE:    0.00 PKD
ROOT
HETATM    1  C   UNL     1     -12.065  14.806  64.251  1.00  0.00    -0.415 C  
HETATM    2  C   UNL     1     -11.982  13.816  65.381  1.00  0.00    -0.379 C  
HETATM    3  N   UNL     1     -10.999  14.115  66.330  1.00  0.00    -0.307 N  
HETATM    4  O   UNL     1     -12.694  12.824  65.431  1.00  0.00    -0.621 OA 
HETATM    5  H   UNL     1     -10.404  14.924  66.150  1.00  0.00     0.000 HD 
ENDROOT
BRANCH   3   6
HETATM    6  S   UNL     1     -10.721  13.261  67.729  1.00  0.00    -0.249 S  
HETATM    7  O   UNL     1      -9.500  13.822  68.270  1.00  0.00    -0.207 OA 
HETATM    8  O   UNL     1     -11.928  13.215  68.522  1.00  0.00    -0.337 OA 
BRANCH   6   9
HETATM    9  C   UNL     1     -10.345  11.633  67.133  1.00  0.00    -0.217 A  
HETATM   10  C   UNL     1      -9.391  11.471  66.126  1.00  0.00    -0.230 A  
HETATM   11  C   UNL     1      -9.080  10.186  65.670  1.00  0.00    -0.216 A  
HETATM   12  C   UNL     1      -9.739   9.065  66.185  1.00  0.00    -0.283 A  
HETATM   13  N   UNL     1      -9.340   7.781  65.799  1.00  0.00    -0.401 NA 
HETATM   14  C   UNL     1     -10.626   9.238  67.252  1.00  0.00    -0.303 A  
HETATM   15  H2  UNL     1      -8.343   7.683  65.987  1.00  0.00     0.000 HD 
HETATM   16  H1  UNL     1      -9.821   6.963  66.175  1.00  0.00     0.000 HD 
HETATM   17  C   UNL     1     -10.944  10.518  67.720  1.00  0.00    -0.372 A  
ENDBRANCH   6   9
ENDBRANCH   3   6
TORSDOF 2
ENDMDL
MODEL       90
REMARK 921   NORMALIZED FREE ENERGY PREDICTED BY IDOCK:   -3.95 KCAL/MOL
REMARK 922        TOTAL FREE ENERGY PREDICTED BY IDOCK:   -4.58 KCAL/MOL
REMARK 923 INTER-LIGAND FREE ENERGY PREDICTED BY IDOCK:   -4.73 KCAL/MOL
REMARK 924 INTRA-LIGAND FREE ENERGY PREDICTED BY IDOCK:    0.15 KCAL/MOL
REMARK 927      BINDING AFFINITY PREDICTED BY RF-SCORE:    0.00 PKD
ROOT
HETATM    1  C   UNL     1     -11.926  13.632  68.620  1.00  0.00    -0.395 C  
HETATM    2  C   UNL     1     -11.429  12.230  68.401  1.00  0.00    -0.307 C  
HETATM    3  N   UNL     1     -10.219  11.946  69.041  1.00  0.00    -0.417 N  
HETATM    4  O   UNL     1     -12.026  11.431  67.693  1.00  0.00    -0.630 OA 
HETATM    5  H   UNL     1      -9.763  12.710  69.540  1.00  0.00     0.000 HD 
ENDROOT
BRANCH   3   6
HETATM    6  S   UNL     1      -9.462  10.466  69.056  1.00  0.00    -0.200 S  
HETATM    7  O   UNL     1      -9.486  10.023  67.677  1.00  0.00    -0.143 OA 
HETATM    8  O   UNL     1      -8.215  10.561  69.780  1.00  0.00    -0.101 OA 
BRANCH   6   9
HETATM    9  C   UNL     1     -10.595   9.448  69.966  1.00  0.00    -0.235 A  
HETATM   10  C   UNL     1     -10.604   8.067  69.753  1.00  0.00    -0.238 A  
HETATM   11  C   UNL     1     -11.483   7.263  70.483  1.00  0.00    -0.310 A  
HETATM   12  C   UNL     1     -12.378   7.827  71.399  1.00  0.00    -0.323 A  
HETATM   13  N   UNL     1     -13.172   7.001  72.201  1.00  0.00    -0.542 NA 
HETATM   14  C   UNL     1     -12.294   9.198  71.662  1.00  0.00    -0.434 A  
HETATM   15  H2  UNL     1     -12.563   6.356  72.702  1.00  0.00     0.000 HD 
HETATM   16  H1  UNL     1     -13.825   7.413  72.869  1.00  0.00     0.000 HD 
HETATM   17  C   UNL     1     -11.417  10.015  70.941  1.00  0.00    -0.452 A  
ENDBRANCH   6   9
ENDBRANCH   3   6
TORSDOF 2
ENDMDL
MODEL       91
REMARK 921   NORMALIZED FREE ENERGY PREDICTED BY IDOCK:   -3.94 KCAL/MOL
REMARK 922        TOTAL FREE ENERGY PREDICTED BY IDOCK:   -4.57 KCAL/MOL
REMARK 923 INTER-LIGAND FREE ENERGY PREDICTED BY IDOCK:   -4.69 KCAL/MOL
REMARK 924 INTRA-LIGAND FREE ENERGY PREDICTED BY IDOCK:    0.12 KCAL/MOL
REMARK 927      BINDING AFFINITY PREDICTED BY RF-SCORE:    0.00 PKD
ROOT
HETATM    1  C   UNL     1     -10.044   8.862  66.399  1.00  0.00    -0.333 C  
HETATM    2  C   UNL     1     -10.400   7.741  67.336  1.00  0.00    -0.284 C  
HETATM    3  N   UNL     1      -9.553   7.631  68.444  1.00  0.00    -0.150 N  
HETATM    4  O   UNL     1     -11.331   6.979  67.116  1.00  0.00    -0.240 OA 
HETATM    5  H   UNL     1      -8.757   8.267  68.489  1.00  0.00     0.000 HD 
ENDROOT
BRANCH   3   6
HETATM    6  S   UNL     1      -9.736   6.550  69.692  1.00  0.00    -0.157 S  
HETATM    7  O   UNL     1     -10.301   5.366  69.078  1.00  0.00    -0.217 OA 
HETATM    8  O   UNL     1      -8.513   6.473  70.458  1.00  0.00    -0.134 OA 
BRANCH   6   9
HETATM    9  C   UNL     1     -11.005   7.296  70.683  1.00  0.00    -0.256 A  
HETATM   10  C   UNL     1     -12.238   6.653  70.823  1.00  0.00    -0.302 A  
HETATM   11  C   UNL     1     -13.231   7.231  71.618  1.00  0.00    -0.421 A  
HETATM   12  C   UNL     1     -13.019   8.462  72.247  1.00  0.00    -0.301 A  
HETATM   13  N   UNL     1     -13.978   8.973  73.127  1.00  0.00    -1.215 NA 
HETATM   14  C   UNL     1     -11.751   9.047  72.168  1.00  0.00    -0.366 A  
HETATM   15  H2  UNL     1     -14.163   8.273  73.844  1.00  0.00     0.000 HD 
HETATM   16  H1  UNL     1     -13.823   9.871  73.586  1.00  0.00     0.000 HD 
HETATM   17  C   UNL     1     -10.747   8.478  71.377  1.00  0.00    -0.317 A  
ENDBRANCH   6   9
ENDBRANCH   3   6
TORSDOF 2
ENDMDL
MODEL       92
REMARK 921   NORMALIZED FREE ENERGY PREDICTED BY IDOCK:   -3.93 KCAL/MOL
REMARK 922        TOTAL FREE ENERGY PREDICTED BY IDOCK:   -4.56 KCAL/MOL
REMARK 923 INTER-LIGAND FREE ENERGY PREDICTED BY IDOCK:   -4.47 KCAL/MOL
REMARK 924 INTRA-LIGAND FREE ENERGY PREDICTED BY IDOCK:   -0.08 KCAL/MOL
REMARK 927      BINDING AFFINITY PREDICTED BY RF-SCORE:    0.00 PKD
ROOT
HETATM    1  C   UNL     1     -10.652  11.307  65.021  1.00  0.00    -0.353 C  
HETATM    2  C   UNL     1     -10.053  10.679  66.249  1.00  0.00    -0.235 C  
HETATM    3  N   UNL     1     -10.823  10.842  67.406  1.00  0.00    -0.272 N  
HETATM    4  O   UNL     1      -8.971  10.110  66.229  1.00  0.00    -0.145 OA 
HETATM    5  H   UNL     1     -11.670  11.404  67.330  1.00  0.00     0.000 HD 
ENDROOT
BRANCH   3   6
HETATM    6  S   UNL     1     -10.469  10.194  68.896  1.00  0.00    -0.224 S  
HETATM    7  O   UNL     1     -10.966   8.835  68.837  1.00  0.00    -0.071 OA 
HETATM    8  O   UNL     1      -9.090  10.463  69.232  1.00  0.00    -0.187 OA 
BRANCH   6   9
HETATM    9  C   UNL     1     -11.529  11.105  69.988  1.00  0.00    -0.292 A  
HETATM   10  C   UNL     1     -11.706  12.477  69.792  1.00  0.00    -0.355 A  
HETATM   11  C   UNL     1     -12.556  13.192  70.641  1.00  0.00    -0.286 A  
HETATM   12  C   UNL     1     -13.204  12.557  71.706  1.00  0.00    -0.344 A  
HETATM   13  N   UNL     1     -14.136  13.259  72.477  1.00  0.00    -0.701 NA 
HETATM   14  C   UNL     1     -13.085  11.169  71.833  1.00  0.00    -0.513 A  
HETATM   15  H2  UNL     1     -14.843  13.647  71.854  1.00  0.00     0.000 HD 
HETATM   16  H1  UNL     1     -14.609  12.796  73.254  1.00  0.00     0.000 HD 
HETATM   17  C   UNL     1     -12.240  10.441  70.989  1.00  0.00    -0.498 A  
ENDBRANCH   6   9
ENDBRANCH   3   6
TORSDOF 2
ENDMDL
MODEL       93
REMARK 921   NORMALIZED FREE ENERGY PREDICTED BY IDOCK:   -3.92 KCAL/MOL
REMARK 922        TOTAL FREE ENERGY PREDICTED BY IDOCK:   -4.55 KCAL/MOL
REMARK 923 INTER-LIGAND FREE ENERGY PREDICTED BY IDOCK:   -4.53 KCAL/MOL
REMARK 924 INTRA-LIGAND FREE ENERGY PREDICTED BY IDOCK:   -0.03 KCAL/MOL
REMARK 927      BINDING AFFINITY PREDICTED BY RF-SCORE:    0.00 PKD
ROOT
HETATM    1  C   UNL     1     -11.083  14.527  64.698  1.00  0.00    -0.356 C  
HETATM    2  C   UNL     1     -11.571  14.451  66.119  1.00  0.00    -0.369 C  
HETATM    3  N   UNL     1     -10.624  14.846  67.070  1.00  0.00    -0.283 N  
HETATM    4  O   UNL     1     -12.689  14.045  66.403  1.00  0.00    -0.369 OA 
HETATM    5  H   UNL     1      -9.694  15.090  66.731  1.00  0.00     0.000 HD 
ENDROOT
BRANCH   3   6
HETATM    6  S   UNL     1     -10.891  14.950  68.707  1.00  0.00    -0.263 S  
HETATM    7  O   UNL     1      -9.618  15.358  69.265  1.00  0.00    -0.235 OA 
HETATM    8  O   UNL     1     -12.089  15.718  68.960  1.00  0.00    -0.349 OA 
BRANCH   6   9
HETATM    9  C   UNL     1     -11.164  13.261  69.175  1.00  0.00    -0.251 A  
HETATM   10  C   UNL     1     -12.136  12.959  70.132  1.00  0.00    -0.373 A  
HETATM   11  C   UNL     1     -12.365  11.626  70.486  1.00  0.00    -0.410 A  
HETATM   12  C   UNL     1     -11.608  10.595  69.921  1.00  0.00    -0.316 A  
HETATM   13  N   UNL     1     -11.922   9.261  70.202  1.00  0.00    -0.454 NA 
HETATM   14  C   UNL     1     -10.701  10.907  68.903  1.00  0.00    -0.252 A  
HETATM   15  H2  UNL     1     -12.902   9.105  69.971  1.00  0.00     0.000 HD 
HETATM   16  H1  UNL     1     -11.369   8.509  69.790  1.00  0.00     0.000 HD 
HETATM   17  C   UNL     1     -10.465  12.236  68.536  1.00  0.00    -0.248 A  
ENDBRANCH   6   9
ENDBRANCH   3   6
TORSDOF 2
ENDMDL
MODEL       94
REMARK 921   NORMALIZED FREE ENERGY PREDICTED BY IDOCK:   -3.92 KCAL/MOL
REMARK 922        TOTAL FREE ENERGY PREDICTED BY IDOCK:   -4.55 KCAL/MOL
REMARK 923 INTER-LIGAND FREE ENERGY PREDICTED BY IDOCK:   -4.37 KCAL/MOL
REMARK 924 INTRA-LIGAND FREE ENERGY PREDICTED BY IDOCK:   -0.18 KCAL/MOL
REMARK 927      BINDING AFFINITY PREDICTED BY RF-SCORE:    0.00 PKD
ROOT
HETATM    1  C   UNL     1     -11.703  11.129  69.470  1.00  0.00    -0.405 C  
HETATM    2  C   UNL     1     -11.661   9.910  70.349  1.00  0.00    -0.282 C  
HETATM    3  N   UNL     1     -11.324   8.731  69.675  1.00  0.00    -0.434 N  
HETATM    4  O   UNL     1     -11.934   9.955  71.540  1.00  0.00    -0.379 OA 
HETATM    5  H   UNL     1     -11.196   8.790  68.665  1.00  0.00     0.000 HD 
ENDROOT
BRANCH   3   6
HETATM    6  S   UNL     1     -11.117   7.243  70.384  1.00  0.00    -0.268 S  
HETATM    7  O   UNL     1      -9.935   7.385  71.209  1.00  0.00    -0.187 OA 
HETATM    8  O   UNL     1     -12.367   6.794  70.955  1.00  0.00    -0.381 OA 
BRANCH   6   9
HETATM    9  C   UNL     1     -10.690   6.203  69.011  1.00  0.00    -0.312 A  
HETATM   10  C   UNL     1     -10.021   4.998  69.241  1.00  0.00    -0.277 A  
HETATM   11  C   UNL     1      -9.702   4.170  68.162  1.00  0.00    -0.152 A  
HETATM   12  C   UNL     1     -10.012   4.549  66.852  1.00  0.00    -0.198 A  
HETATM   13  N   UNL     1      -9.786   3.662  65.794  1.00  0.00    -0.388 NA 
HETATM   14  C   UNL     1     -10.758   5.714  66.648  1.00  0.00    -0.339 A  
HETATM   15  H2  UNL     1     -10.268   2.787  65.999  1.00  0.00     0.000 HD 
HETATM   16  H1  UNL     1     -10.013   3.938  64.838  1.00  0.00     0.000 HD 
HETATM   17  C   UNL     1     -11.087   6.551  67.720  1.00  0.00    -0.366 A  
ENDBRANCH   6   9
ENDBRANCH   3   6
TORSDOF 2
ENDMDL
MODEL       95
REMARK 921   NORMALIZED FREE ENERGY PREDICTED BY IDOCK:   -3.91 KCAL/MOL
REMARK 922        TOTAL FREE ENERGY PREDICTED BY IDOCK:   -4.54 KCAL/MOL
REMARK 923 INTER-LIGAND FREE ENERGY PREDICTED BY IDOCK:   -4.44 KCAL/MOL
REMARK 924 INTRA-LIGAND FREE ENERGY PREDICTED BY IDOCK:   -0.09 KCAL/MOL
REMARK 927      BINDING AFFINITY PREDICTED BY RF-SCORE:    0.00 PKD
ROOT
HETATM    1  C   UNL     1      -7.942  16.853  66.326  1.00  0.00    -0.350 C  
HETATM    2  C   UNL     1      -9.384  16.458  66.160  1.00  0.00    -0.325 C  
HETATM    3  N   UNL     1      -9.649  15.120  66.470  1.00  0.00    -0.254 N  
HETATM    4  O   UNL     1     -10.231  17.242  65.756  1.00  0.00    -0.533 OA 
HETATM    5  H   UNL     1      -8.855  14.532  66.719  1.00  0.00     0.000 HD 
ENDROOT
BRANCH   3   6
HETATM    6  S   UNL     1     -11.152  14.411  66.463  1.00  0.00    -0.338 S  
HETATM    7  O   UNL     1     -11.747  14.791  67.728  1.00  0.00    -0.346 OA 
HETATM    8  O   UNL     1     -11.823  14.695  65.216  1.00  0.00    -0.355 OA 
BRANCH   6   9
HETATM    9  C   UNL     1     -10.776  12.679  66.548  1.00  0.00    -0.250 A  
HETATM   10  C   UNL     1      -9.813  12.140  65.690  1.00  0.00    -0.256 A  
HETATM   11  C   UNL     1      -9.503  10.779  65.770  1.00  0.00    -0.244 A  
HETATM   12  C   UNL     1     -10.169   9.945  66.673  1.00  0.00    -0.226 A  
HETATM   13  N   UNL     1      -9.771   8.611  66.818  1.00  0.00    -0.210 NA 
HETATM   14  C   UNL     1     -11.065  10.517  67.582  1.00  0.00    -0.375 A  
HETATM   15  H2  UNL     1      -8.776   8.594  67.038  1.00  0.00     0.000 HD 
HETATM   16  H1  UNL     1     -10.258   8.002  67.477  1.00  0.00     0.000 HD 
HETATM   17  C   UNL     1     -11.383  11.877  67.516  1.00  0.00    -0.381 A  
ENDBRANCH   6   9
ENDBRANCH   3   6
TORSDOF 2
ENDMDL
MODEL       96
REMARK 921   NORMALIZED FREE ENERGY PREDICTED BY IDOCK:   -3.91 KCAL/MOL
REMARK 922        TOTAL FREE ENERGY PREDICTED BY IDOCK:   -4.54 KCAL/MOL
REMARK 923 INTER-LIGAND FREE ENERGY PREDICTED BY IDOCK:   -4.52 KCAL/MOL
REMARK 924 INTRA-LIGAND FREE ENERGY PREDICTED BY IDOCK:   -0.02 KCAL/MOL
REMARK 927      BINDING AFFINITY PREDICTED BY RF-SCORE:    0.00 PKD
ROOT
HETATM    1  C   UNL     1     -10.495  20.081  66.016  1.00  0.00    -0.523 C  
HETATM    2  C   UNL     1      -9.836  18.771  66.352  1.00  0.00    -0.373 C  
HETATM    3  N   UNL     1     -10.504  17.650  65.847  1.00  0.00    -0.324 N  
HETATM    4  O   UNL     1      -8.825  18.707  67.036  1.00  0.00    -0.269 OA 
HETATM    5  H   UNL     1     -11.384  17.811  65.358  1.00  0.00     0.000 HD 
ENDROOT
BRANCH   3   6
HETATM    6  S   UNL     1      -9.981  16.078  65.980  1.00  0.00    -0.363 S  
HETATM    7  O   UNL     1     -10.759  15.344  65.003  1.00  0.00    -0.405 OA 
HETATM    8  O   UNL     1      -8.537  16.038  65.955  1.00  0.00    -0.270 OA 
BRANCH   6   9
HETATM    9  C   UNL     1     -10.555  15.602  67.589  1.00  0.00    -0.294 A  
HETATM   10  C   UNL     1     -11.793  14.966  67.720  1.00  0.00    -0.277 A  
HETATM   11  C   UNL     1     -12.237  14.574  68.986  1.00  0.00    -0.215 A  
HETATM   12  C   UNL     1     -11.473  14.841  70.127  1.00  0.00    -0.266 A  
HETATM   13  N   UNL     1     -11.877  14.345  71.371  1.00  0.00    -0.460 NA 
HETATM   14  C   UNL     1     -10.200  15.398  69.968  1.00  0.00    -0.265 A  
HETATM   15  H2  UNL     1     -11.996  13.336  71.292  1.00  0.00     0.000 HD 
HETATM   16  H1  UNL     1     -11.320  14.540  72.204  1.00  0.00     0.000 HD 
HETATM   17  C   UNL     1      -9.742  15.793  68.707  1.00  0.00    -0.213 A  
ENDBRANCH   6   9
ENDBRANCH   3   6
TORSDOF 2
ENDMDL
MODEL       97
REMARK 921   NORMALIZED FREE ENERGY PREDICTED BY IDOCK:   -3.91 KCAL/MOL
REMARK 922        TOTAL FREE ENERGY PREDICTED BY IDOCK:   -4.53 KCAL/MOL
REMARK 923 INTER-LIGAND FREE ENERGY PREDICTED BY IDOCK:   -4.52 KCAL/MOL
REMARK 924 INTRA-LIGAND FREE ENERGY PREDICTED BY IDOCK:   -0.02 KCAL/MOL
REMARK 927      BINDING AFFINITY PREDICTED BY RF-SCORE:    0.00 PKD
ROOT
HETATM    1  C   UNL     1     -14.349   8.718  72.310  1.00  0.00    -0.468 C  
HETATM    2  C   UNL     1     -12.859   8.698  72.108  1.00  0.00    -0.391 C  
HETATM    3  N   UNL     1     -12.251   7.488  72.456  1.00  0.00    -0.539 N  
HETATM    4  O   UNL     1     -12.243   9.675  71.705  1.00  0.00    -0.374 OA 
HETATM    5  H   UNL     1     -12.847   6.764  72.859  1.00  0.00     0.000 HD 
ENDROOT
BRANCH   3   6
HETATM    6  S   UNL     1     -10.639   7.131  72.269  1.00  0.00    -0.224 S  
HETATM    7  O   UNL     1      -9.940   8.290  72.786  1.00  0.00    -0.283 OA 
HETATM    8  O   UNL     1     -10.365   5.811  72.787  1.00  0.00    -0.180 OA 
BRANCH   6   9
HETATM    9  C   UNL     1     -10.434   7.126  70.506  1.00  0.00    -0.212 A  
HETATM   10  C   UNL     1     -11.162   6.220  69.731  1.00  0.00    -0.499 A  
HETATM   11  C   UNL     1     -11.016   6.228  68.341  1.00  0.00    -0.409 A  
HETATM   12  C   UNL     1     -10.123   7.108  67.720  1.00  0.00    -0.172 A  
HETATM   13  N   UNL     1     -10.069   7.180  66.324  1.00  0.00    -0.451 NA 
HETATM   14  C   UNL     1      -9.470   8.065  68.503  1.00  0.00    -0.143 A  
HETATM   15  H2  UNL     1     -11.007   7.374  65.975  1.00  0.00     0.000 HD 
HETATM   16  H1  UNL     1      -9.418   7.823  65.871  1.00  0.00     0.000 HD 
HETATM   17  C   UNL     1      -9.609   8.070  69.894  1.00  0.00    -0.171 A  
ENDBRANCH   6   9
ENDBRANCH   3   6
TORSDOF 2
ENDMDL
MODEL       98
REMARK 921   NORMALIZED FREE ENERGY PREDICTED BY IDOCK:   -3.90 KCAL/MOL
REMARK 922        TOTAL FREE ENERGY PREDICTED BY IDOCK:   -4.52 KCAL/MOL
REMARK 923 INTER-LIGAND FREE ENERGY PREDICTED BY IDOCK:   -4.90 KCAL/MOL
REMARK 924 INTRA-LIGAND FREE ENERGY PREDICTED BY IDOCK:    0.38 KCAL/MOL
REMARK 927      BINDING AFFINITY PREDICTED BY RF-SCORE:    0.00 PKD
ROOT
HETATM    1  C   UNL     1     -12.445  12.085  63.354  1.00  0.00    -0.625 C  
HETATM    2  C   UNL     1     -11.570  12.704  64.410  1.00  0.00    -0.357 C  
HETATM    3  N   UNL     1     -12.164  12.771  65.675  1.00  0.00    -0.462 N  
HETATM    4  O   UNL     1     -10.455  13.136  64.160  1.00  0.00    -0.421 OA 
HETATM    5  H   UNL     1     -13.130  12.456  65.756  1.00  0.00     0.000 HD 
ENDROOT
BRANCH   3   6
HETATM    6  S   UNL     1     -11.423  13.324  67.056  1.00  0.00    -0.359 S  
HETATM    7  O   UNL     1     -10.091  13.706  66.636  1.00  0.00    -0.265 OA 
HETATM    8  O   UNL     1     -12.285  14.268  67.730  1.00  0.00    -0.325 OA 
BRANCH   6   9
HETATM    9  C   UNL     1     -11.273  11.857  68.042  1.00  0.00    -0.257 A  
HETATM   10  C   UNL     1     -10.673  10.719  67.498  1.00  0.00    -0.312 A  
HETATM   11  C   UNL     1     -10.537   9.569  68.281  1.00  0.00    -0.260 A  
HETATM   12  C   UNL     1     -11.028   9.532  69.590  1.00  0.00    -0.212 A  
HETATM   13  N   UNL     1     -10.787   8.415  70.397  1.00  0.00    -0.233 NA 
HETATM   14  C   UNL     1     -11.546  10.706  70.147  1.00  0.00    -0.414 A  
HETATM   15  H2  UNL     1      -9.782   8.248  70.425  1.00  0.00     0.000 HD 
HETATM   16  H1  UNL     1     -11.145   8.388  71.352  1.00  0.00     0.000 HD 
HETATM   17  C   UNL     1     -11.685  11.864  69.376  1.00  0.00    -0.401 A  
ENDBRANCH   6   9
ENDBRANCH   3   6
TORSDOF 2
ENDMDL
MODEL       99
REMARK 921   NORMALIZED FREE ENERGY PREDICTED BY IDOCK:   -3.89 KCAL/MOL
REMARK 922        TOTAL FREE ENERGY PREDICTED BY IDOCK:   -4.51 KCAL/MOL
REMARK 923 INTER-LIGAND FREE ENERGY PREDICTED BY IDOCK:   -4.70 KCAL/MOL
REMARK 924 INTRA-LIGAND FREE ENERGY PREDICTED BY IDOCK:    0.19 KCAL/MOL
REMARK 927      BINDING AFFINITY PREDICTED BY RF-SCORE:    0.00 PKD
ROOT
HETATM    1  C   UNL     1      -9.845   9.060  66.080  1.00  0.00    -0.349 C  
HETATM    2  C   UNL     1      -9.679   8.917  67.568  1.00  0.00    -0.170 C  
HETATM    3  N   UNL     1     -10.717   8.218  68.193  1.00  0.00    -0.439 N  
HETATM    4  O   UNL     1      -8.732   9.405  68.168  1.00  0.00    -0.124 OA 
HETATM    5  H   UNL     1     -11.501   7.924  67.611  1.00  0.00     0.000 HD 
ENDROOT
BRANCH   3   6
HETATM    6  S   UNL     1     -10.778   7.828  69.808  1.00  0.00    -0.208 S  
HETATM    7  O   UNL     1     -11.646   6.671  69.878  1.00  0.00    -0.371 OA 
HETATM    8  O   UNL     1      -9.440   7.782  70.352  1.00  0.00    -0.163 OA 
BRANCH   6   9
HETATM    9  C   UNL     1     -11.655   9.198  70.516  1.00  0.00    -0.197 A  
HETATM   10  C   UNL     1     -12.481   8.990  71.623  1.00  0.00    -0.418 A  
HETATM   11  C   UNL     1     -13.157  10.072  72.193  1.00  0.00    -0.482 A  
HETATM   12  C   UNL     1     -13.043  11.355  71.647  1.00  0.00    -0.393 A  
HETATM   13  N   UNL     1     -13.636  12.446  72.293  1.00  0.00    -0.546 NA 
HETATM   14  C   UNL     1     -12.144  11.561  70.595  1.00  0.00    -0.450 A  
HETATM   15  H2  UNL     1     -13.297  12.473  73.254  1.00  0.00     0.000 HD 
HETATM   16  H1  UNL     1     -13.552  13.382  71.895  1.00  0.00     0.000 HD 
HETATM   17  C   UNL     1     -11.460  10.487  70.017  1.00  0.00    -0.393 A  
ENDBRANCH   6   9
ENDBRANCH   3   6
TORSDOF 2
ENDMDL
MODEL      100
REMARK 921   NORMALIZED FREE ENERGY PREDICTED BY IDOCK:   -3.88 KCAL/MOL
REMARK 922        TOTAL FREE ENERGY PREDICTED BY IDOCK:   -4.50 KCAL/MOL
REMARK 923 INTER-LIGAND FREE ENERGY PREDICTED BY IDOCK:   -4.57 KCAL/MOL
REMARK 924 INTRA-LIGAND FREE ENERGY PREDICTED BY IDOCK:    0.07 KCAL/MOL
REMARK 927      BINDING AFFINITY PREDICTED BY RF-SCORE:    0.00 PKD
ROOT
HETATM    1  C   UNL     1      -8.048  16.621  66.362  1.00  0.00    -0.359 C  
HETATM    2  C   UNL     1      -9.348  15.866  66.393  1.00  0.00    -0.297 C  
HETATM    3  N   UNL     1      -9.503  14.953  65.344  1.00  0.00    -0.412 N  
HETATM    4  O   UNL     1     -10.199  16.068  67.247  1.00  0.00    -0.265 OA 
HETATM    5  H   UNL     1      -8.768  14.922  64.638  1.00  0.00     0.000 HD 
ENDROOT
BRANCH   3   6
HETATM    6  S   UNL     1     -10.789  13.917  65.153  1.00  0.00    -0.382 S  
HETATM    7  O   UNL     1     -11.959  14.771  65.158  1.00  0.00    -0.346 OA 
HETATM    8  O   UNL     1     -10.534  13.019  64.050  1.00  0.00    -0.418 OA 
BRANCH   6   9
HETATM    9  C   UNL     1     -10.790  12.999  66.671  1.00  0.00    -0.275 A  
HETATM   10  C   UNL     1     -11.803  13.218  67.608  1.00  0.00    -0.400 A  
HETATM   11  C   UNL     1     -11.814  12.481  68.796  1.00  0.00    -0.347 A  
HETATM   12  C   UNL     1     -10.805  11.553  69.073  1.00  0.00    -0.212 A  
HETATM   13  N   UNL     1     -10.890  10.746  70.212  1.00  0.00    -0.454 NA 
HETATM   14  C   UNL     1      -9.850  11.285  68.087  1.00  0.00    -0.190 A  
HETATM   15  H2  UNL     1     -11.783  10.254  70.193  1.00  0.00     0.000 HD 
HETATM   16  H1  UNL     1     -10.154  10.069  70.415  1.00  0.00     0.000 HD 
HETATM   17  C   UNL     1      -9.828  12.012  66.893  1.00  0.00    -0.217 A  
ENDBRANCH   6   9
ENDBRANCH   3   6
TORSDOF 2
ENDMDL
MODEL      101
REMARK 921   NORMALIZED FREE ENERGY PREDICTED BY IDOCK:   -3.86 KCAL/MOL
REMARK 922        TOTAL FREE ENERGY PREDICTED BY IDOCK:   -4.49 KCAL/MOL
REMARK 923 INTER-LIGAND FREE ENERGY PREDICTED BY IDOCK:   -4.34 KCAL/MOL
REMARK 924 INTRA-LIGAND FREE ENERGY PREDICTED BY IDOCK:   -0.15 KCAL/MOL
REMARK 927      BINDING AFFINITY PREDICTED BY RF-SCORE:    0.00 PKD
ROOT
HETATM    1  C   UNL     1      -8.807   7.933  73.685  1.00  0.00    -0.336 C  
HETATM    2  C   UNL     1     -10.204   7.798  73.145  1.00  0.00    -0.335 C  
HETATM    3  N   UNL     1     -10.541   8.759  72.186  1.00  0.00    -0.343 N  
HETATM    4  O   UNL     1     -10.977   6.940  73.546  1.00  0.00    -0.274 OA 
HETATM    5  H   UNL     1      -9.849   9.480  71.983  1.00  0.00     0.000 HD 
ENDROOT
BRANCH   3   6
HETATM    6  S   UNL     1     -11.975   8.821  71.349  1.00  0.00    -0.324 S  
HETATM    7  O   UNL     1     -11.996   7.610  70.556  1.00  0.00    -0.170 OA 
HETATM    8  O   UNL     1     -13.058   9.129  72.255  1.00  0.00    -0.398 OA 
BRANCH   6   9
HETATM    9  C   UNL     1     -11.731  10.184  70.240  1.00  0.00    -0.282 A  
HETATM   10  C   UNL     1     -12.133  11.466  70.623  1.00  0.00    -0.469 A  
HETATM   11  C   UNL     1     -11.923  12.542  69.757  1.00  0.00    -0.359 A  
HETATM   12  C   UNL     1     -11.348  12.346  68.497  1.00  0.00    -0.293 A  
HETATM   13  N   UNL     1     -11.043  13.446  67.688  1.00  0.00    -0.258 NA 
HETATM   14  C   UNL     1     -10.872  11.073  68.166  1.00  0.00    -0.274 A  
HETATM   15  H2  UNL     1     -10.448  14.081  68.218  1.00  0.00     0.000 HD 
HETATM   16  H1  UNL     1     -10.623  13.303  66.769  1.00  0.00     0.000 HD 
HETATM   17  C   UNL     1     -11.073   9.988  69.025  1.00  0.00    -0.221 A  
ENDBRANCH   6   9
ENDBRANCH   3   6
TORSDOF 2
ENDMDL
MODEL      102
REMARK 921   NORMALIZED FREE ENERGY PREDICTED BY IDOCK:   -3.85 KCAL/MOL
REMARK 922        TOTAL FREE ENERGY PREDICTED BY IDOCK:   -4.47 KCAL/MOL
REMARK 923 INTER-LIGAND FREE ENERGY PREDICTED BY IDOCK:   -4.52 KCAL/MOL
REMARK 924 INTRA-LIGAND FREE ENERGY PREDICTED BY IDOCK:    0.05 KCAL/MOL
REMARK 927      BINDING AFFINITY PREDICTED BY RF-SCORE:    0.00 PKD
ROOT
HETATM    1  C   UNL     1      -6.453  16.119  67.106  1.00  0.00    -0.184 C  
HETATM    2  C   UNL     1      -7.931  16.339  66.937  1.00  0.00    -0.243 C  
HETATM    3  N   UNL     1      -8.545  15.440  66.059  1.00  0.00    -0.327 N  
HETATM    4  O   UNL     1      -8.523  17.249  67.499  1.00  0.00    -0.201 OA 
HETATM    5  H   UNL     1      -7.944  14.769  65.579  1.00  0.00     0.000 HD 
ENDROOT
BRANCH   3   6
HETATM    6  S   UNL     1     -10.173  15.375  65.731  1.00  0.00    -0.385 S  
HETATM    7  O   UNL     1     -10.560  16.750  65.493  1.00  0.00    -0.496 OA 
HETATM    8  O   UNL     1     -10.434  14.352  64.743  1.00  0.00    -0.430 OA 
BRANCH   6   9
HETATM    9  C   UNL     1     -10.873  14.883  67.286  1.00  0.00    -0.306 A  
HETATM   10  C   UNL     1     -10.735  13.561  67.717  1.00  0.00    -0.262 A  
HETATM   11  C   UNL     1     -11.270  13.178  68.950  1.00  0.00    -0.324 A  
HETATM   12  C   UNL     1     -11.972  14.093  69.741  1.00  0.00    -0.339 A  
HETATM   13  N   UNL     1     -12.404  13.726  71.020  1.00  0.00    -0.370 NA 
HETATM   14  C   UNL     1     -12.024  15.431  69.336  1.00  0.00    -0.351 A  
HETATM   15  H2  UNL     1     -11.599  13.393  71.549  1.00  0.00     0.000 HD 
HETATM   16  H1  UNL     1     -12.916  14.394  71.597  1.00  0.00     0.000 HD 
HETATM   17  C   UNL     1     -11.491  15.828  68.105  1.00  0.00    -0.302 A  
ENDBRANCH   6   9
ENDBRANCH   3   6
TORSDOF 2
ENDMDL
MODEL      103
REMARK 921   NORMALIZED FREE ENERGY PREDICTED BY IDOCK:   -3.80 KCAL/MOL
REMARK 922        TOTAL FREE ENERGY PREDICTED BY IDOCK:   -4.42 KCAL/MOL
REMARK 923 INTER-LIGAND FREE ENERGY PREDICTED BY IDOCK:   -4.27 KCAL/MOL
REMARK 924 INTRA-LIGAND FREE ENERGY PREDICTED BY IDOCK:   -0.15 KCAL/MOL
REMARK 927      BINDING AFFINITY PREDICTED BY RF-SCORE:    0.00 PKD
ROOT
HETATM    1  C   UNL     1     -14.154  15.286  71.728  1.00  0.00    -0.654 C  
HETATM    2  C   UNL     1     -12.833  14.651  71.388  1.00  0.00    -0.330 C  
HETATM    3  N   UNL     1     -12.433  14.841  70.062  1.00  0.00    -0.495 N  
HETATM    4  O   UNL     1     -12.195  14.000  72.203  1.00  0.00    -0.116 OA 
HETATM    5  H   UNL     1     -13.079  15.330  69.443  1.00  0.00     0.000 HD 
ENDROOT
BRANCH   3   6
HETATM    6  S   UNL     1     -10.990  14.333  69.410  1.00  0.00    -0.164 S  
HETATM    7  O   UNL     1      -9.974  15.038  70.164  1.00  0.00    -0.057 OA 
HETATM    8  O   UNL     1     -10.975  12.891  69.317  1.00  0.00    -0.179 OA 
BRANCH   6   9
HETATM    9  C   UNL     1     -11.024  15.028  67.778  1.00  0.00    -0.298 A  
HETATM   10  C   UNL     1     -10.277  16.176  67.502  1.00  0.00    -0.267 A  
HETATM   11  C   UNL     1     -10.288  16.713  66.211  1.00  0.00    -0.323 A  
HETATM   12  C   UNL     1     -11.066  16.135  65.202  1.00  0.00    -0.249 A  
HETATM   13  N   UNL     1     -10.981  16.615  63.891  1.00  0.00    -0.516 NA 
HETATM   14  C   UNL     1     -11.737  14.937  65.473  1.00  0.00    -0.211 A  
HETATM   15  H2  UNL     1     -10.004  16.588  63.601  1.00  0.00     0.000 HD 
HETATM   16  H1  UNL     1     -11.548  16.193  63.155  1.00  0.00     0.000 HD 
HETATM   17  C   UNL     1     -11.732  14.388  66.760  1.00  0.00    -0.415 A  
ENDBRANCH   6   9
ENDBRANCH   3   6
TORSDOF 2
ENDMDL
MODEL      104
REMARK 921   NORMALIZED FREE ENERGY PREDICTED BY IDOCK:   -3.80 KCAL/MOL
REMARK 922        TOTAL FREE ENERGY PREDICTED BY IDOCK:   -4.41 KCAL/MOL
REMARK 923 INTER-LIGAND FREE ENERGY PREDICTED BY IDOCK:   -4.52 KCAL/MOL
REMARK 924 INTRA-LIGAND FREE ENERGY PREDICTED BY IDOCK:    0.11 KCAL/MOL
REMARK 927      BINDING AFFINITY PREDICTED BY RF-SCORE:    0.00 PKD
ROOT
HETATM    1  C   UNL     1      -9.908  11.537  63.323  1.00  0.00    -0.431 C  
HETATM    2  C   UNL     1     -10.240  12.389  64.516  1.00  0.00    -0.299 C  
HETATM    3  N   UNL     1     -10.285  13.760  64.244  1.00  0.00    -0.595 N  
HETATM    4  O   UNL     1     -10.419  11.912  65.628  1.00  0.00    -0.244 OA 
HETATM    5  H   UNL     1     -10.040  14.058  63.300  1.00  0.00     0.000 HD 
ENDROOT
BRANCH   3   6
HETATM    6  S   UNL     1     -10.704  14.944  65.332  1.00  0.00    -0.408 S  
HETATM    7  O   UNL     1     -11.038  16.095  64.519  1.00  0.00    -0.634 OA 
HETATM    8  O   UNL     1     -11.649  14.417  66.290  1.00  0.00    -0.354 OA 
BRANCH   6   9
HETATM    9  C   UNL     1      -9.170  15.295  66.151  1.00  0.00    -0.310 A  
HETATM   10  C   UNL     1      -8.591  16.560  66.019  1.00  0.00    -0.241 A  
HETATM   11  C   UNL     1      -7.392  16.842  66.680  1.00  0.00    -0.298 A  
HETATM   12  C   UNL     1      -6.746  15.863  67.442  1.00  0.00    -0.194 A  
HETATM   13  N   UNL     1      -5.608  16.192  68.185  1.00  0.00    -0.100 NA 
HETATM   14  C   UNL     1      -7.383  14.632  67.633  1.00  0.00    -0.204 A  
HETATM   15  H2  UNL     1      -5.837  16.976  68.795  1.00  0.00     0.000 HD 
HETATM   16  H1  UNL     1      -5.137  15.478  68.741  1.00  0.00     0.000 HD 
HETATM   17  C   UNL     1      -8.585  14.337  66.981  1.00  0.00    -0.213 A  
ENDBRANCH   6   9
ENDBRANCH   3   6
TORSDOF 2
ENDMDL
MODEL      105
REMARK 921   NORMALIZED FREE ENERGY PREDICTED BY IDOCK:   -3.79 KCAL/MOL
REMARK 922        TOTAL FREE ENERGY PREDICTED BY IDOCK:   -4.41 KCAL/MOL
REMARK 923 INTER-LIGAND FREE ENERGY PREDICTED BY IDOCK:   -4.43 KCAL/MOL
REMARK 924 INTRA-LIGAND FREE ENERGY PREDICTED BY IDOCK:    0.02 KCAL/MOL
REMARK 927      BINDING AFFINITY PREDICTED BY RF-SCORE:    0.00 PKD
ROOT
HETATM    1  C   UNL     1     -12.600  12.147  63.364  1.00  0.00    -0.584 C  
HETATM    2  C   UNL     1     -11.270  12.269  64.056  1.00  0.00    -0.392 C  
HETATM    3  N   UNL     1     -11.361  12.506  65.431  1.00  0.00    -0.313 N  
HETATM    4  O   UNL     1     -10.211  12.199  63.449  1.00  0.00    -0.433 OA 
HETATM    5  H   UNL     1     -12.294  12.628  65.824  1.00  0.00     0.000 HD 
ENDROOT
BRANCH   3   6
HETATM    6  S   UNL     1     -10.074  12.605  66.478  1.00  0.00    -0.253 S  
HETATM    7  O   UNL     1     -10.644  12.382  67.791  1.00  0.00    -0.210 OA 
HETATM    8  O   UNL     1      -8.986  11.785  65.996  1.00  0.00    -0.191 OA 
BRANCH   6   9
HETATM    9  C   UNL     1      -9.611  14.314  66.379  1.00  0.00    -0.298 A  
HETATM   10  C   UNL     1     -10.562  15.266  66.005  1.00  0.00    -0.327 A  
HETATM   11  C   UNL     1     -10.203  16.616  65.946  1.00  0.00    -0.358 A  
HETATM   12  C   UNL     1      -8.893  17.020  66.222  1.00  0.00    -0.254 A  
HETATM   13  N   UNL     1      -8.575  18.382  66.266  1.00  0.00    -0.445 NA 
HETATM   14  C   UNL     1      -7.977  16.066  66.679  1.00  0.00    -0.291 A  
HETATM   15  H2  UNL     1      -9.200  18.836  66.931  1.00  0.00     0.000 HD 
HETATM   16  H1  UNL     1      -7.619  18.677  66.468  1.00  0.00     0.000 HD 
HETATM   17  C   UNL     1      -8.325  14.713  66.746  1.00  0.00    -0.078 A  
ENDBRANCH   6   9
ENDBRANCH   3   6
TORSDOF 2
ENDMDL
MODEL      106
REMARK 921   NORMALIZED FREE ENERGY PREDICTED BY IDOCK:   -3.73 KCAL/MOL
REMARK 922        TOTAL FREE ENERGY PREDICTED BY IDOCK:   -4.34 KCAL/MOL
REMARK 923 INTER-LIGAND FREE ENERGY PREDICTED BY IDOCK:   -4.63 KCAL/MOL
REMARK 924 INTRA-LIGAND FREE ENERGY PREDICTED BY IDOCK:    0.29 KCAL/MOL
REMARK 927      BINDING AFFINITY PREDICTED BY RF-SCORE:    0.00 PKD
ROOT
HETATM    1  C   UNL     1     -11.914  15.793  69.857  1.00  0.00    -0.346 C  
HETATM    2  C   UNL     1     -10.663  15.653  69.033  1.00  0.00    -0.236 C  
HETATM    3  N   UNL     1     -10.844  15.921  67.672  1.00  0.00    -0.316 N  
HETATM    4  O   UNL     1      -9.599  15.302  69.520  1.00  0.00    -0.243 OA 
HETATM    5  H   UNL     1     -11.792  16.126  67.357  1.00  0.00     0.000 HD 
ENDROOT
BRANCH   3   6
HETATM    6  S   UNL     1      -9.641  15.932  66.526  1.00  0.00    -0.291 S  
HETATM    7  O   UNL     1      -8.656  14.987  67.012  1.00  0.00    -0.209 OA 
HETATM    8  O   UNL     1     -10.217  15.786  65.209  1.00  0.00    -0.375 OA 
BRANCH   6   9
HETATM    9  C   UNL     1      -8.949  17.557  66.690  1.00  0.00    -0.263 A  
HETATM   10  C   UNL     1      -9.563  18.486  67.533  1.00  0.00    -0.303 A  
HETATM   11  C   UNL     1      -9.007  19.761  67.677  1.00  0.00    -0.402 A  
HETATM   12  C   UNL     1      -7.865  20.129  66.959  1.00  0.00    -0.319 A  
HETATM   13  N   UNL     1      -7.257  21.367  67.197  1.00  0.00    -0.826 NA 
HETATM   14  C   UNL     1      -7.214  19.160  66.188  1.00  0.00    -0.283 A  
HETATM   15  H2  UNL     1      -7.050  21.438  68.192  1.00  0.00     0.000 HD 
HETATM   16  H1  UNL     1      -6.423  21.635  66.673  1.00  0.00     0.000 HD 
HETATM   17  C   UNL     1      -7.758  17.880  66.038  1.00  0.00    -0.216 A  
ENDBRANCH   6   9
ENDBRANCH   3   6
TORSDOF 2
ENDMDL
MODEL      107
REMARK 921   NORMALIZED FREE ENERGY PREDICTED BY IDOCK:   -3.72 KCAL/MOL
REMARK 922        TOTAL FREE ENERGY PREDICTED BY IDOCK:   -4.33 KCAL/MOL
REMARK 923 INTER-LIGAND FREE ENERGY PREDICTED BY IDOCK:   -4.22 KCAL/MOL
REMARK 924 INTRA-LIGAND FREE ENERGY PREDICTED BY IDOCK:   -0.10 KCAL/MOL
REMARK 927      BINDING AFFINITY PREDICTED BY RF-SCORE:    0.00 PKD
ROOT
HETATM    1  C   UNL     1     -10.548  17.023  68.846  1.00  0.00    -0.328 C  
HETATM    2  C   UNL     1     -10.243  15.666  68.273  1.00  0.00    -0.223 C  
HETATM    3  N   UNL     1     -11.291  15.111  67.531  1.00  0.00    -0.333 N  
HETATM    4  O   UNL     1      -9.181  15.097  68.477  1.00  0.00    -0.179 OA 
HETATM    5  H   UNL     1     -12.165  15.635  67.491  1.00  0.00     0.000 HD 
ENDROOT
BRANCH   3   6
HETATM    6  S   UNL     1     -11.228  13.668  66.709  1.00  0.00    -0.324 S  
HETATM    7  O   UNL     1     -12.517  13.556  66.056  1.00  0.00    -0.432 OA 
HETATM    8  O   UNL     1     -10.004  13.592  65.945  1.00  0.00    -0.299 OA 
BRANCH   6   9
HETATM    9  C   UNL     1     -11.183  12.467  68.014  1.00  0.00    -0.270 A  
HETATM   10  C   UNL     1     -10.276  11.407  67.944  1.00  0.00    -0.201 A  
HETATM   11  C   UNL     1     -10.227  10.472  68.982  1.00  0.00    -0.233 A  
HETATM   12  C   UNL     1     -11.099  10.564  70.071  1.00  0.00    -0.308 A  
HETATM   13  N   UNL     1     -10.964   9.687  71.152  1.00  0.00    -0.360 NA 
HETATM   14  C   UNL     1     -11.939  11.679  70.167  1.00  0.00    -0.441 A  
HETATM   15  H2  UNL     1     -10.008   9.748  71.499  1.00  0.00     0.000 HD 
HETATM   16  H1  UNL     1     -11.601   9.754  71.947  1.00  0.00     0.000 HD 
HETATM   17  C   UNL     1     -11.996  12.624  69.137  1.00  0.00    -0.293 A  
ENDBRANCH   6   9
ENDBRANCH   3   6
TORSDOF 2
ENDMDL
MODEL      108
REMARK 921   NORMALIZED FREE ENERGY PREDICTED BY IDOCK:   -3.71 KCAL/MOL
REMARK 922        TOTAL FREE ENERGY PREDICTED BY IDOCK:   -4.32 KCAL/MOL
REMARK 923 INTER-LIGAND FREE ENERGY PREDICTED BY IDOCK:   -4.31 KCAL/MOL
REMARK 924 INTRA-LIGAND FREE ENERGY PREDICTED BY IDOCK:   -0.01 KCAL/MOL
REMARK 927      BINDING AFFINITY PREDICTED BY RF-SCORE:    0.00 PKD
ROOT
HETATM    1  C   UNL     1     -10.877   6.366  66.775  1.00  0.00    -0.361 C  
HETATM    2  C   UNL     1     -10.251   7.377  67.695  1.00  0.00    -0.201 C  
HETATM    3  N   UNL     1     -11.033   8.517  67.908  1.00  0.00    -0.483 N  
HETATM    4  O   UNL     1      -9.139   7.217  68.179  1.00  0.00    -0.134 OA 
HETATM    5  H   UNL     1     -11.909   8.586  67.391  1.00  0.00     0.000 HD 
ENDROOT
BRANCH   3   6
HETATM    6  S   UNL     1     -10.652   9.767  68.934  1.00  0.00    -0.218 S  
HETATM    7  O   UNL     1      -9.286  10.118  68.602  1.00  0.00    -0.149 OA 
HETATM    8  O   UNL     1     -11.698  10.763  68.903  1.00  0.00    -0.294 OA 
BRANCH   6   9
HETATM    9  C   UNL     1     -10.631   8.984  70.526  1.00  0.00    -0.227 A  
HETATM   10  C   UNL     1     -11.811   8.445  71.045  1.00  0.00    -0.278 A  
HETATM   11  C   UNL     1     -11.790   7.812  72.291  1.00  0.00    -0.378 A  
HETATM   12  C   UNL     1     -10.611   7.742  73.040  1.00  0.00    -0.379 A  
HETATM   13  N   UNL     1     -10.581   7.010  74.231  1.00  0.00    -0.531 NA 
HETATM   14  C   UNL     1      -9.423   8.208  72.467  1.00  0.00    -0.339 A  
HETATM   15  H2  UNL     1     -10.893   6.060  74.033  1.00  0.00     0.000 HD 
HETATM   16  H1  UNL     1      -9.720   6.959  74.777  1.00  0.00     0.000 HD 
HETATM   17  C   UNL     1      -9.428   8.842  71.220  1.00  0.00    -0.343 A  
ENDBRANCH   6   9
ENDBRANCH   3   6
TORSDOF 2
ENDMDL
MODEL      109
REMARK 921   NORMALIZED FREE ENERGY PREDICTED BY IDOCK:   -3.70 KCAL/MOL
REMARK 922        TOTAL FREE ENERGY PREDICTED BY IDOCK:   -4.31 KCAL/MOL
REMARK 923 INTER-LIGAND FREE ENERGY PREDICTED BY IDOCK:   -4.45 KCAL/MOL
REMARK 924 INTRA-LIGAND FREE ENERGY PREDICTED BY IDOCK:    0.14 KCAL/MOL
REMARK 927      BINDING AFFINITY PREDICTED BY RF-SCORE:    0.00 PKD
ROOT
HETATM    1  C   UNL     1      -9.288  10.596  63.398  1.00  0.00    -0.324 C  
HETATM    2  C   UNL     1     -10.331  11.392  64.134  1.00  0.00    -0.344 C  
HETATM    3  N   UNL     1     -10.158  11.414  65.522  1.00  0.00    -0.236 N  
HETATM    4  O   UNL     1     -11.261  11.937  63.558  1.00  0.00    -0.401 OA 
HETATM    5  H   UNL     1      -9.395  10.858  65.907  1.00  0.00     0.000 HD 
ENDROOT
BRANCH   3   6
HETATM    6  S   UNL     1     -11.094  12.271  66.594  1.00  0.00    -0.315 S  
HETATM    7  O   UNL     1     -10.254  13.370  67.026  1.00  0.00    -0.244 OA 
HETATM    8  O   UNL     1     -12.396  12.519  66.019  1.00  0.00    -0.615 OA 
BRANCH   6   9
HETATM    9  C   UNL     1     -11.258  11.154  67.962  1.00  0.00    -0.296 A  
HETATM   10  C   UNL     1     -10.626   9.909  67.915  1.00  0.00    -0.303 A  
HETATM   11  C   UNL     1     -10.739   9.035  69.000  1.00  0.00    -0.163 A  
HETATM   12  C   UNL     1     -11.507   9.378  70.118  1.00  0.00    -0.138 A  
HETATM   13  N   UNL     1     -11.521   8.544  71.241  1.00  0.00    -0.266 NA 
HETATM   14  C   UNL     1     -12.060  10.662  70.186  1.00  0.00    -0.414 A  
HETATM   15  H2  UNL     1     -10.559   8.396  71.544  1.00  0.00     0.000 HD 
HETATM   16  H1  UNL     1     -12.081   8.794  72.057  1.00  0.00     0.000 HD 
HETATM   17  C   UNL     1     -11.952  11.547  69.108  1.00  0.00    -0.386 A  
ENDBRANCH   6   9
ENDBRANCH   3   6
TORSDOF 2
ENDMDL
MODEL      110
REMARK 921   NORMALIZED FREE ENERGY PREDICTED BY IDOCK:   -3.68 KCAL/MOL
REMARK 922        TOTAL FREE ENERGY PREDICTED BY IDOCK:   -4.28 KCAL/MOL
REMARK 923 INTER-LIGAND FREE ENERGY PREDICTED BY IDOCK:   -4.27 KCAL/MOL
REMARK 924 INTRA-LIGAND FREE ENERGY PREDICTED BY IDOCK:   -0.01 KCAL/MOL
REMARK 927      BINDING AFFINITY PREDICTED BY RF-SCORE:    0.00 PKD
ROOT
HETATM    1  C   UNL     1      -8.466  15.538  69.337  1.00  0.00    -0.256 C  
HETATM    2  C   UNL     1      -9.860  15.164  68.915  1.00  0.00    -0.229 C  
HETATM    3  N   UNL     1     -10.033  13.799  68.664  1.00  0.00    -0.330 N  
HETATM    4  O   UNL     1     -10.744  15.997  68.773  1.00  0.00    -0.251 OA 
HETATM    5  H   UNL     1      -9.210  13.202  68.734  1.00  0.00     0.000 HD 
ENDROOT
BRANCH   3   6
HETATM    6  S   UNL     1     -11.472  13.069  68.263  1.00  0.00    -0.336 S  
HETATM    7  O   UNL     1     -12.088  12.739  69.532  1.00  0.00    -0.280 OA 
HETATM    8  O   UNL     1     -12.173  13.872  67.288  1.00  0.00    -0.394 OA 
BRANCH   6   9
HETATM    9  C   UNL     1     -10.952  11.550  67.509  1.00  0.00    -0.255 A  
HETATM   10  C   UNL     1     -10.461  11.561  66.201  1.00  0.00    -0.296 A  
HETATM   11  C   UNL     1     -10.033  10.367  65.614  1.00  0.00    -0.337 A  
HETATM   12  C   UNL     1     -10.124   9.156  66.307  1.00  0.00    -0.249 A  
HETATM   13  N   UNL     1      -9.590   7.989  65.750  1.00  0.00    -0.413 NA 
HETATM   14  C   UNL     1     -10.534   9.176  67.644  1.00  0.00    -0.323 A  
HETATM   15  H2  UNL     1      -8.611   8.158  65.524  1.00  0.00     0.000 HD 
HETATM   16  H1  UNL     1      -9.656   7.105  66.256  1.00  0.00     0.000 HD 
HETATM   17  C   UNL     1     -10.963  10.364  68.245  1.00  0.00    -0.321 A  
ENDBRANCH   6   9
ENDBRANCH   3   6
TORSDOF 2
ENDMDL
MODEL      111
REMARK 921   NORMALIZED FREE ENERGY PREDICTED BY IDOCK:   -3.67 KCAL/MOL
REMARK 922        TOTAL FREE ENERGY PREDICTED BY IDOCK:   -4.28 KCAL/MOL
REMARK 923 INTER-LIGAND FREE ENERGY PREDICTED BY IDOCK:   -4.40 KCAL/MOL
REMARK 924 INTRA-LIGAND FREE ENERGY PREDICTED BY IDOCK:    0.12 KCAL/MOL
REMARK 927      BINDING AFFINITY PREDICTED BY RF-SCORE:    0.00 PKD
ROOT
HETATM    1  C   UNL     1      -9.306   9.464  66.531  1.00  0.00    -0.222 C  
HETATM    2  C   UNL     1      -9.096   8.869  67.896  1.00  0.00    -0.139 C  
HETATM    3  N   UNL     1      -9.898   7.755  68.163  1.00  0.00    -0.161 N  
HETATM    4  O   UNL     1      -8.313   9.349  68.703  1.00  0.00    -0.114 OA 
HETATM    5  H   UNL     1     -10.577   7.486  67.451  1.00  0.00     0.000 HD 
ENDROOT
BRANCH   3   6
HETATM    6  S   UNL     1      -9.837   6.834  69.545  1.00  0.00    -0.158 S  
HETATM    7  O   UNL     1     -10.296   5.522  69.139  1.00  0.00    -0.216 OA 
HETATM    8  O   UNL     1      -8.554   7.001  70.189  1.00  0.00    -0.138 OA 
BRANCH   6   9
HETATM    9  C   UNL     1     -11.103   7.553  70.560  1.00  0.00    -0.259 A  
HETATM   10  C   UNL     1     -11.044   8.913  70.875  1.00  0.00    -0.328 A  
HETATM   11  C   UNL     1     -12.051   9.484  71.659  1.00  0.00    -0.474 A  
HETATM   12  C   UNL     1     -13.098   8.703  72.160  1.00  0.00    -0.383 A  
HETATM   13  N   UNL     1     -14.155   9.308  72.847  1.00  0.00    -1.031 NA 
HETATM   14  C   UNL     1     -13.188   7.365  71.762  1.00  0.00    -0.371 A  
HETATM   15  H2  UNL     1     -14.551  10.035  72.254  1.00  0.00     0.000 HD 
HETATM   16  H1  UNL     1     -14.919   8.738  73.213  1.00  0.00     0.000 HD 
HETATM   17  C   UNL     1     -12.189   6.782  70.976  1.00  0.00    -0.405 A  
ENDBRANCH   6   9
ENDBRANCH   3   6
TORSDOF 2
ENDMDL
MODEL      112
REMARK 921   NORMALIZED FREE ENERGY PREDICTED BY IDOCK:   -3.67 KCAL/MOL
REMARK 922        TOTAL FREE ENERGY PREDICTED BY IDOCK:   -4.28 KCAL/MOL
REMARK 923 INTER-LIGAND FREE ENERGY PREDICTED BY IDOCK:   -4.21 KCAL/MOL
REMARK 924 INTRA-LIGAND FREE ENERGY PREDICTED BY IDOCK:   -0.06 KCAL/MOL
REMARK 927      BINDING AFFINITY PREDICTED BY RF-SCORE:    0.00 PKD
ROOT
HETATM    1  C   UNL     1     -11.818  14.180  66.611  1.00  0.00    -0.447 C  
HETATM    2  C   UNL     1     -10.406  14.082  67.119  1.00  0.00    -0.265 C  
HETATM    3  N   UNL     1      -9.806  15.318  67.379  1.00  0.00    -0.216 N  
HETATM    4  O   UNL     1      -9.836  13.009  67.254  1.00  0.00    -0.219 OA 
HETATM    5  H   UNL     1     -10.342  16.155  67.154  1.00  0.00     0.000 HD 
ENDROOT
BRANCH   3   6
HETATM    6  S   UNL     1      -8.289  15.534  68.024  1.00  0.00    -0.144 S  
HETATM    7  O   UNL     1      -8.470  15.393  69.454  1.00  0.00    -0.244 OA 
HETATM    8  O   UNL     1      -7.334  14.713  67.315  1.00  0.00    -0.193 OA 
BRANCH   6   9
HETATM    9  C   UNL     1      -7.956  17.245  67.693  1.00  0.00    -0.187 A  
HETATM   10  C   UNL     1      -8.016  18.173  68.735  1.00  0.00    -0.259 A  
HETATM   11  C   UNL     1      -7.734  19.518  68.478  1.00  0.00    -0.389 A  
HETATM   12  C   UNL     1      -7.428  19.951  67.184  1.00  0.00    -0.257 A  
HETATM   13  N   UNL     1      -7.041  21.277  66.962  1.00  0.00    -0.776 NA 
HETATM   14  C   UNL     1      -7.286  18.996  66.171  1.00  0.00    -0.294 A  
HETATM   15  H2  UNL     1      -6.248  21.486  67.568  1.00  0.00     0.000 HD 
HETATM   16  H1  UNL     1      -6.817  21.593  66.018  1.00  0.00     0.000 HD 
HETATM   17  C   UNL     1      -7.562  17.647  66.415  1.00  0.00    -0.322 A  
ENDBRANCH   6   9
ENDBRANCH   3   6
TORSDOF 2
ENDMDL
MODEL      113
REMARK 921   NORMALIZED FREE ENERGY PREDICTED BY IDOCK:   -3.64 KCAL/MOL
REMARK 922        TOTAL FREE ENERGY PREDICTED BY IDOCK:   -4.23 KCAL/MOL
REMARK 923 INTER-LIGAND FREE ENERGY PREDICTED BY IDOCK:   -4.65 KCAL/MOL
REMARK 924 INTRA-LIGAND FREE ENERGY PREDICTED BY IDOCK:    0.42 KCAL/MOL
REMARK 927      BINDING AFFINITY PREDICTED BY RF-SCORE:    0.00 PKD
ROOT
HETATM    1  C   UNL     1     -11.970  11.659  69.542  1.00  0.00    -0.383 C  
HETATM    2  C   UNL     1     -12.573  10.951  70.724  1.00  0.00    -0.377 C  
HETATM    3  N   UNL     1     -12.696   9.568  70.559  1.00  0.00    -0.497 N  
HETATM    4  O   UNL     1     -12.949  11.551  71.720  1.00  0.00    -0.446 OA 
HETATM    5  H   UNL     1     -12.426   9.178  69.656  1.00  0.00     0.000 HD 
ENDROOT
BRANCH   3   6
HETATM    6  S   UNL     1     -13.246   8.506  71.713  1.00  0.00    -0.371 S  
HETATM    7  O   UNL     1     -13.461   9.319  72.893  1.00  0.00    -0.295 OA 
HETATM    8  O   UNL     1     -14.313   7.698  71.168  1.00  0.00    -0.352 OA 
BRANCH   6   9
HETATM    9  C   UNL     1     -11.830   7.482  72.020  1.00  0.00    -0.294 A  
HETATM   10  C   UNL     1     -11.595   6.370  71.207  1.00  0.00    -0.370 A  
HETATM   11  C   UNL     1     -10.469   5.574  71.436  1.00  0.00    -0.305 A  
HETATM   12  C   UNL     1      -9.595   5.856  72.491  1.00  0.00    -0.154 A  
HETATM   13  N   UNL     1      -8.416   5.118  72.640  1.00  0.00    -0.117 NA 
HETATM   14  C   UNL     1      -9.798   7.021  73.238  1.00  0.00    -0.248 A  
HETATM   15  H2  UNL     1      -7.893   5.167  71.766  1.00  0.00     0.000 HD 
HETATM   16  H1  UNL     1      -7.778   5.324  73.410  1.00  0.00     0.000 HD 
HETATM   17  C   UNL     1     -10.919   7.828  73.018  1.00  0.00    -0.442 A  
ENDBRANCH   6   9
ENDBRANCH   3   6
TORSDOF 2
ENDMDL
MODEL      114
REMARK 921   NORMALIZED FREE ENERGY PREDICTED BY IDOCK:   -3.63 KCAL/MOL
REMARK 922        TOTAL FREE ENERGY PREDICTED BY IDOCK:   -4.23 KCAL/MOL
REMARK 923 INTER-LIGAND FREE ENERGY PREDICTED BY IDOCK:   -4.12 KCAL/MOL
REMARK 924 INTRA-LIGAND FREE ENERGY PREDICTED BY IDOCK:   -0.11 KCAL/MOL
REMARK 927      BINDING AFFINITY PREDICTED BY RF-SCORE:    0.00 PKD
ROOT
HETATM    1  C   UNL     1      -8.089   8.378  64.590  1.00  0.00    -0.156 C  
HETATM    2  C   UNL     1      -8.359   9.614  65.402  1.00  0.00    -0.141 C  
HETATM    3  N   UNL     1      -9.480   9.518  66.234  1.00  0.00    -0.192 N  
HETATM    4  O   UNL     1      -7.671  10.620  65.306  1.00  0.00    -0.119 OA 
HETATM    5  H   UNL     1     -10.033   8.663  66.176  1.00  0.00     0.000 HD 
ENDROOT
BRANCH   3   6
HETATM    6  S   UNL     1      -9.985  10.682  67.307  1.00  0.00    -0.195 S  
HETATM    7  O   UNL     1     -11.110  10.087  67.998  1.00  0.00    -0.266 OA 
HETATM    8  O   UNL     1      -8.852  11.194  68.043  1.00  0.00    -0.132 OA 
BRANCH   6   9
HETATM    9  C   UNL     1     -10.620  11.954  66.246  1.00  0.00    -0.253 A  
HETATM   10  C   UNL     1     -11.461  11.610  65.184  1.00  0.00    -0.180 A  
HETATM   11  C   UNL     1     -11.977  12.613  64.359  1.00  0.00    -0.469 A  
HETATM   12  C   UNL     1     -11.633  13.954  64.562  1.00  0.00    -0.393 A  
HETATM   13  N   UNL     1     -12.243  14.956  63.800  1.00  0.00    -1.026 NA 
HETATM   14  C   UNL     1     -10.863  14.288  65.681  1.00  0.00    -0.311 A  
HETATM   15  H2  UNL     1     -13.254  14.864  63.897  1.00  0.00     0.000 HD 
HETATM   16  H1  UNL     1     -11.993  15.934  63.949  1.00  0.00     0.000 HD 
HETATM   17  C   UNL     1     -10.342  13.294  66.516  1.00  0.00    -0.285 A  
ENDBRANCH   6   9
ENDBRANCH   3   6
TORSDOF 2
ENDMDL
MODEL      115
REMARK 921   NORMALIZED FREE ENERGY PREDICTED BY IDOCK:   -3.62 KCAL/MOL
REMARK 922        TOTAL FREE ENERGY PREDICTED BY IDOCK:   -4.22 KCAL/MOL
REMARK 923 INTER-LIGAND FREE ENERGY PREDICTED BY IDOCK:   -4.20 KCAL/MOL
REMARK 924 INTRA-LIGAND FREE ENERGY PREDICTED BY IDOCK:   -0.02 KCAL/MOL
REMARK 927      BINDING AFFINITY PREDICTED BY RF-SCORE:    0.00 PKD
ROOT
HETATM    1  C   UNL     1      -7.176  16.193  66.837  1.00  0.00    -0.240 C  
HETATM    2  C   UNL     1      -8.090  15.053  67.193  1.00  0.00    -0.214 C  
HETATM    3  N   UNL     1      -9.101  14.818  66.255  1.00  0.00    -0.468 N  
HETATM    4  O   UNL     1      -7.969  14.420  68.232  1.00  0.00    -0.124 OA 
HETATM    5  H   UNL     1      -9.162  15.457  65.462  1.00  0.00     0.000 HD 
ENDROOT
BRANCH   3   6
HETATM    6  S   UNL     1     -10.210  13.582  66.325  1.00  0.00    -0.305 S  
HETATM    7  O   UNL     1     -11.134  13.850  65.242  1.00  0.00    -0.301 OA 
HETATM    8  O   UNL     1      -9.525  12.313  66.416  1.00  0.00    -0.231 OA 
BRANCH   6   9
HETATM    9  C   UNL     1     -11.065  13.900  67.847  1.00  0.00    -0.258 A  
HETATM   10  C   UNL     1     -11.449  15.206  68.162  1.00  0.00    -0.356 A  
HETATM   11  C   UNL     1     -12.139  15.454  69.353  1.00  0.00    -0.308 A  
HETATM   12  C   UNL     1     -12.417  14.416  70.248  1.00  0.00    -0.354 A  
HETATM   13  N   UNL     1     -13.203  14.660  71.379  1.00  0.00    -0.339 NA 
HETATM   14  C   UNL     1     -12.103  13.105  69.876  1.00  0.00    -0.357 A  
HETATM   15  H2  UNL     1     -14.086  15.070  71.076  1.00  0.00     0.000 HD 
HETATM   16  H1  UNL     1     -13.407  13.903  72.033  1.00  0.00     0.000 HD 
HETATM   17  C   UNL     1     -11.415  12.842  68.687  1.00  0.00    -0.346 A  
ENDBRANCH   6   9
ENDBRANCH   3   6
TORSDOF 2
ENDMDL
MODEL      116
REMARK 921   NORMALIZED FREE ENERGY PREDICTED BY IDOCK:   -3.61 KCAL/MOL
REMARK 922        TOTAL FREE ENERGY PREDICTED BY IDOCK:   -4.20 KCAL/MOL
REMARK 923 INTER-LIGAND FREE ENERGY PREDICTED BY IDOCK:   -4.13 KCAL/MOL
REMARK 924 INTRA-LIGAND FREE ENERGY PREDICTED BY IDOCK:   -0.07 KCAL/MOL
REMARK 927      BINDING AFFINITY PREDICTED BY RF-SCORE:    0.00 PKD
ROOT
HETATM    1  C   UNL     1     -14.410   7.366  71.461  1.00  0.00    -0.594 C  
HETATM    2  C   UNL     1     -12.927   7.580  71.335  1.00  0.00    -0.335 C  
HETATM    3  N   UNL     1     -12.573   8.819  70.791  1.00  0.00    -0.483 N  
HETATM    4  O   UNL     1     -12.116   6.722  71.652  1.00  0.00    -0.326 OA 
HETATM    5  H   UNL     1     -13.330   9.429  70.485  1.00  0.00     0.000 HD 
ENDROOT
BRANCH   3   6
HETATM    6  S   UNL     1     -11.019   9.379  70.604  1.00  0.00    -0.317 S  
HETATM    7  O   UNL     1     -11.168  10.775  70.248  1.00  0.00    -0.298 OA 
HETATM    8  O   UNL     1     -10.217   8.987  71.740  1.00  0.00    -0.328 OA 
BRANCH   6   9
HETATM    9  C   UNL     1     -10.456   8.515  69.160  1.00  0.00    -0.205 A  
HETATM   10  C   UNL     1     -10.818   8.981  67.893  1.00  0.00    -0.118 A  
HETATM   11  C   UNL     1     -10.358   8.312  66.755  1.00  0.00    -0.361 A  
HETATM   12  C   UNL     1      -9.571   7.162  66.870  1.00  0.00    -0.168 A  
HETATM   13  N   UNL     1      -9.028   6.569  65.725  1.00  0.00    -0.324 NA 
HETATM   14  C   UNL     1      -9.146   6.762  68.141  1.00  0.00    -0.123 A  
HETATM   15  H2  UNL     1      -8.495   7.275  65.218  1.00  0.00     0.000 HD 
HETATM   16  H1  UNL     1      -8.453   5.730  65.809  1.00  0.00     0.000 HD 
HETATM   17  C   UNL     1      -9.596   7.424  69.288  1.00  0.00    -0.154 A  
ENDBRANCH   6   9
ENDBRANCH   3   6
TORSDOF 2
ENDMDL
MODEL      117
REMARK 921   NORMALIZED FREE ENERGY PREDICTED BY IDOCK:   -3.60 KCAL/MOL
REMARK 922        TOTAL FREE ENERGY PREDICTED BY IDOCK:   -4.19 KCAL/MOL
REMARK 923 INTER-LIGAND FREE ENERGY PREDICTED BY IDOCK:   -4.06 KCAL/MOL
REMARK 924 INTRA-LIGAND FREE ENERGY PREDICTED BY IDOCK:   -0.13 KCAL/MOL
REMARK 927      BINDING AFFINITY PREDICTED BY RF-SCORE:    0.00 PKD
ROOT
HETATM    1  C   UNL     1      -9.416   3.369  70.075  1.00  0.00    -0.243 C  
HETATM    2  C   UNL     1      -9.391   4.620  70.909  1.00  0.00    -0.150 C  
HETATM    3  N   UNL     1     -10.020   4.490  72.152  1.00  0.00    -0.177 N  
HETATM    4  O   UNL     1      -8.892   5.661  70.507  1.00  0.00    -0.134 OA 
HETATM    5  H   UNL     1     -10.476   3.601  72.354  1.00  0.00     0.000 HD 
ENDROOT
BRANCH   3   6
HETATM    6  S   UNL     1     -10.085   5.665  73.325  1.00  0.00    -0.198 S  
HETATM    7  O   UNL     1     -10.869   5.081  74.393  1.00  0.00    -0.340 OA 
HETATM    8  O   UNL     1      -8.758   6.178  73.578  1.00  0.00    -0.125 OA 
BRANCH   6   9
HETATM    9  C   UNL     1     -11.070   6.931  72.567  1.00  0.00    -0.266 A  
HETATM   10  C   UNL     1     -10.549   8.220  72.428  1.00  0.00    -0.408 A  
HETATM   11  C   UNL     1     -11.318   9.213  71.814  1.00  0.00    -0.451 A  
HETATM   12  C   UNL     1     -12.616   8.940  71.369  1.00  0.00    -0.300 A  
HETATM   13  N   UNL     1     -13.330   9.911  70.659  1.00  0.00    -0.612 NA 
HETATM   14  C   UNL     1     -13.087   7.625  71.437  1.00  0.00    -0.339 A  
HETATM   15  H2  UNL     1     -12.770  10.202  69.859  1.00  0.00     0.000 HD 
HETATM   16  H1  UNL     1     -14.277   9.712  70.334  1.00  0.00     0.000 HD 
HETATM   17  C   UNL     1     -12.327   6.621  72.046  1.00  0.00    -0.316 A  
ENDBRANCH   6   9
ENDBRANCH   3   6
TORSDOF 2
ENDMDL
MODEL      118
REMARK 921   NORMALIZED FREE ENERGY PREDICTED BY IDOCK:   -3.56 KCAL/MOL
REMARK 922        TOTAL FREE ENERGY PREDICTED BY IDOCK:   -4.15 KCAL/MOL
REMARK 923 INTER-LIGAND FREE ENERGY PREDICTED BY IDOCK:   -4.03 KCAL/MOL
REMARK 924 INTRA-LIGAND FREE ENERGY PREDICTED BY IDOCK:   -0.12 KCAL/MOL
REMARK 927      BINDING AFFINITY PREDICTED BY RF-SCORE:    0.00 PKD
ROOT
HETATM    1  C   UNL     1     -11.372   4.696  73.217  1.00  0.00    -0.393 C  
HETATM    2  C   UNL     1     -10.550   5.591  72.330  1.00  0.00    -0.224 C  
HETATM    3  N   UNL     1      -9.895   6.623  73.010  1.00  0.00    -0.163 N  
HETATM    4  O   UNL     1     -10.499   5.438  71.118  1.00  0.00    -0.227 OA 
HETATM    5  H   UNL     1     -10.071   6.709  74.011  1.00  0.00     0.000 HD 
ENDROOT
BRANCH   3   6
HETATM    6  S   UNL     1      -8.853   7.719  72.322  1.00  0.00    -0.147 S  
HETATM    7  O   UNL     1      -8.469   8.599  73.407  1.00  0.00    -0.385 OA 
HETATM    8  O   UNL     1      -7.852   7.023  71.546  1.00  0.00    -0.097 OA 
BRANCH   6   9
HETATM    9  C   UNL     1      -9.907   8.641  71.232  1.00  0.00    -0.238 A  
HETATM   10  C   UNL     1     -11.037   9.282  71.746  1.00  0.00    -0.398 A  
HETATM   11  C   UNL     1     -11.857  10.024  70.891  1.00  0.00    -0.459 A  
HETATM   12  C   UNL     1     -11.580  10.103  69.522  1.00  0.00    -0.118 A  
HETATM   13  N   UNL     1     -12.344  10.938  68.700  1.00  0.00    -0.777 NA 
HETATM   14  C   UNL     1     -10.398   9.529  69.042  1.00  0.00    -0.219 A  
HETATM   15  H2  UNL     1     -12.321  11.880  69.088  1.00  0.00     0.000 HD 
HETATM   16  H1  UNL     1     -12.141  10.996  67.701  1.00  0.00     0.000 HD 
HETATM   17  C   UNL     1      -9.567   8.786  69.887  1.00  0.00    -0.182 A  
ENDBRANCH   6   9
ENDBRANCH   3   6
TORSDOF 2
ENDMDL
MODEL      119
REMARK 921   NORMALIZED FREE ENERGY PREDICTED BY IDOCK:   -3.55 KCAL/MOL
REMARK 922        TOTAL FREE ENERGY PREDICTED BY IDOCK:   -4.13 KCAL/MOL
REMARK 923 INTER-LIGAND FREE ENERGY PREDICTED BY IDOCK:   -4.10 KCAL/MOL
REMARK 924 INTRA-LIGAND FREE ENERGY PREDICTED BY IDOCK:   -0.04 KCAL/MOL
REMARK 927      BINDING AFFINITY PREDICTED BY RF-SCORE:    0.00 PKD
ROOT
HETATM    1  C   UNL     1     -12.238  15.833  69.576  1.00  0.00    -0.178 C  
HETATM    2  C   UNL     1     -11.437  14.927  68.681  1.00  0.00    -0.306 C  
HETATM    3  N   UNL     1     -12.186  14.318  67.669  1.00  0.00    -0.597 N  
HETATM    4  O   UNL     1     -10.245  14.725  68.857  1.00  0.00    -0.227 OA 
HETATM    5  H   UNL     1     -13.191  14.491  67.661  1.00  0.00     0.000 HD 
ENDROOT
BRANCH   3   6
HETATM    6  S   UNL     1     -11.573  13.333  66.478  1.00  0.00    -0.369 S  
HETATM    7  O   UNL     1     -12.731  12.891  65.729  1.00  0.00    -0.492 OA 
HETATM    8  O   UNL     1     -10.472  13.994  65.816  1.00  0.00    -0.289 OA 
BRANCH   6   9
HETATM    9  C   UNL     1     -10.961  11.939  67.390  1.00  0.00    -0.263 A  
HETATM   10  C   UNL     1     -11.697  11.443  68.468  1.00  0.00    -0.386 A  
HETATM   11  C   UNL     1     -11.225  10.334  69.174  1.00  0.00    -0.268 A  
HETATM   12  C   UNL     1     -10.006   9.736  68.837  1.00  0.00    -0.176 A  
HETATM   13  N   UNL     1      -9.601   8.561  69.480  1.00  0.00    -0.169 NA 
HETATM   14  C   UNL     1      -9.327  10.190  67.702  1.00  0.00    -0.162 A  
HETATM   15  H2  UNL     1     -10.340   7.867  69.377  1.00  0.00     0.000 HD 
HETATM   16  H1  UNL     1      -8.712   8.125  69.233  1.00  0.00     0.000 HD 
HETATM   17  C   UNL     1      -9.790  11.298  66.984  1.00  0.00    -0.217 A  
ENDBRANCH   6   9
ENDBRANCH   3   6
TORSDOF 2
ENDMDL
MODEL      120
REMARK 921   NORMALIZED FREE ENERGY PREDICTED BY IDOCK:   -3.53 KCAL/MOL
REMARK 922        TOTAL FREE ENERGY PREDICTED BY IDOCK:   -4.11 KCAL/MOL
REMARK 923 INTER-LIGAND FREE ENERGY PREDICTED BY IDOCK:   -4.06 KCAL/MOL
REMARK 924 INTRA-LIGAND FREE ENERGY PREDICTED BY IDOCK:   -0.05 KCAL/MOL
REMARK 927      BINDING AFFINITY PREDICTED BY RF-SCORE:    0.00 PKD
ROOT
HETATM    1  C   UNL     1     -12.814  13.779  65.430  1.00  0.00    -0.455 C  
HETATM    2  C   UNL     1     -11.875  13.897  66.598  1.00  0.00    -0.420 C  
HETATM    3  N   UNL     1     -12.395  14.616  67.679  1.00  0.00    -0.554 N  
HETATM    4  O   UNL     1     -10.745  13.430  66.576  1.00  0.00    -0.283 OA 
HETATM    5  H   UNL     1     -13.318  15.034  67.562  1.00  0.00     0.000 HD 
ENDROOT
BRANCH   3   6
HETATM    6  S   UNL     1     -11.633  14.846  69.138  1.00  0.00    -0.325 S  
HETATM    7  O   UNL     1     -12.467  15.795  69.847  1.00  0.00    -0.300 OA 
HETATM    8  O   UNL     1     -11.305  13.568  69.726  1.00  0.00    -0.200 OA 
BRANCH   6   9
HETATM    9  C   UNL     1     -10.138  15.684  68.679  1.00  0.00    -0.210 A  
HETATM   10  C   UNL     1     -10.203  16.801  67.843  1.00  0.00    -0.300 A  
HETATM   11  C   UNL     1      -9.027  17.473  67.497  1.00  0.00    -0.230 A  
HETATM   12  C   UNL     1      -7.784  17.020  67.949  1.00  0.00    -0.175 A  
HETATM   13  N   UNL     1      -6.629  17.765  67.686  1.00  0.00    -0.179 NA 
HETATM   14  C   UNL     1      -7.746  15.955  68.855  1.00  0.00    -0.194 A  
HETATM   15  H2  UNL     1      -6.772  18.713  68.033  1.00  0.00     0.000 HD 
HETATM   16  H1  UNL     1      -5.722  17.434  68.016  1.00  0.00     0.000 HD 
HETATM   17  C   UNL     1      -8.915  15.275  69.212  1.00  0.00    -0.241 A  
ENDBRANCH   6   9
ENDBRANCH   3   6
TORSDOF 2
ENDMDL
MODEL      121
REMARK 921   NORMALIZED FREE ENERGY PREDICTED BY IDOCK:   -3.51 KCAL/MOL
REMARK 922        TOTAL FREE ENERGY PREDICTED BY IDOCK:   -4.09 KCAL/MOL
REMARK 923 INTER-LIGAND FREE ENERGY PREDICTED BY IDOCK:   -4.28 KCAL/MOL
REMARK 924 INTRA-LIGAND FREE ENERGY PREDICTED BY IDOCK:    0.19 KCAL/MOL
REMARK 927      BINDING AFFINITY PREDICTED BY RF-SCORE:    0.00 PKD
ROOT
HETATM    1  C   UNL     1     -12.955  12.113  71.627  1.00  0.00    -0.427 C  
HETATM    2  C   UNL     1     -12.687  10.690  71.220  1.00  0.00    -0.433 C  
HETATM    3  N   UNL     1     -11.355  10.435  70.878  1.00  0.00    -0.348 N  
HETATM    4  O   UNL     1     -13.573   9.850  71.166  1.00  0.00    -0.330 OA 
HETATM    5  H   UNL     1     -10.712  11.227  70.879  1.00  0.00     0.000 HD 
ENDROOT
BRANCH   3   6
HETATM    6  S   UNL     1     -10.734   8.949  70.468  1.00  0.00    -0.243 S  
HETATM    7  O   UNL     1      -9.442   8.894  71.120  1.00  0.00    -0.216 OA 
HETATM    8  O   UNL     1     -11.724   7.923  70.701  1.00  0.00    -0.256 OA 
BRANCH   6   9
HETATM    9  C   UNL     1     -10.447   9.104  68.724  1.00  0.00    -0.212 A  
HETATM   10  C   UNL     1     -10.686  10.327  68.092  1.00  0.00    -0.287 A  
HETATM   11  C   UNL     1     -10.442  10.455  66.722  1.00  0.00    -0.287 A  
HETATM   12  C   UNL     1      -9.995   9.364  65.969  1.00  0.00    -0.281 A  
HETATM   13  N   UNL     1      -9.650   9.536  64.624  1.00  0.00    -0.424 NA 
HETATM   14  C   UNL     1      -9.677   8.175  66.633  1.00  0.00    -0.318 A  
HETATM   15  H2  UNL     1      -8.953  10.277  64.563  1.00  0.00     0.000 HD 
HETATM   16  H1  UNL     1      -9.323   8.740  64.075  1.00  0.00     0.000 HD 
HETATM   17  C   UNL     1      -9.914   8.034  68.005  1.00  0.00    -0.216 A  
ENDBRANCH   6   9
ENDBRANCH   3   6
TORSDOF 2
ENDMDL
MODEL      122
REMARK 921   NORMALIZED FREE ENERGY PREDICTED BY IDOCK:   -3.50 KCAL/MOL
REMARK 922        TOTAL FREE ENERGY PREDICTED BY IDOCK:   -4.08 KCAL/MOL
REMARK 923 INTER-LIGAND FREE ENERGY PREDICTED BY IDOCK:   -4.14 KCAL/MOL
REMARK 924 INTRA-LIGAND FREE ENERGY PREDICTED BY IDOCK:    0.06 KCAL/MOL
REMARK 927      BINDING AFFINITY PREDICTED BY RF-SCORE:    0.00 PKD
ROOT
HETATM    1  C   UNL     1      -6.563  13.776  68.331  1.00  0.00    -0.096 C  
HETATM    2  C   UNL     1      -7.976  14.182  68.016  1.00  0.00    -0.149 C  
HETATM    3  N   UNL     1      -8.661  14.752  69.095  1.00  0.00    -0.333 N  
HETATM    4  O   UNL     1      -8.479  13.992  66.918  1.00  0.00    -0.179 OA 
HETATM    5  H   UNL     1      -8.175  14.789  69.990  1.00  0.00     0.000 HD 
ENDROOT
BRANCH   3   6
HETATM    6  S   UNL     1     -10.202  15.372  69.037  1.00  0.00    -0.246 S  
HETATM    7  O   UNL     1     -10.932  14.473  68.167  1.00  0.00    -0.241 OA 
HETATM    8  O   UNL     1     -10.670  15.647  70.376  1.00  0.00    -0.317 OA 
BRANCH   6   9
HETATM    9  C   UNL     1      -9.983  16.901  68.164  1.00  0.00    -0.285 A  
HETATM   10  C   UNL     1     -10.522  17.047  66.883  1.00  0.00    -0.268 A  
HETATM   11  C   UNL     1     -10.366  18.257  66.202  1.00  0.00    -0.414 A  
HETATM   12  C   UNL     1      -9.648  19.313  66.774  1.00  0.00    -0.334 A  
HETATM   13  N   UNL     1      -9.595  20.554  66.130  1.00  0.00    -0.648 NA 
HETATM   14  C   UNL     1      -9.192  19.181  68.090  1.00  0.00    -0.377 A  
HETATM   15  H2  UNL     1     -10.549  20.869  65.959  1.00  0.00     0.000 HD 
HETATM   16  H1  UNL     1      -9.071  21.324  66.547  1.00  0.00     0.000 HD 
HETATM   17  C   UNL     1      -9.343  17.975  68.783  1.00  0.00    -0.251 A  
ENDBRANCH   6   9
ENDBRANCH   3   6
TORSDOF 2
ENDMDL
MODEL      123
REMARK 921   NORMALIZED FREE ENERGY PREDICTED BY IDOCK:   -3.49 KCAL/MOL
REMARK 922        TOTAL FREE ENERGY PREDICTED BY IDOCK:   -4.08 KCAL/MOL
REMARK 923 INTER-LIGAND FREE ENERGY PREDICTED BY IDOCK:   -3.90 KCAL/MOL
REMARK 924 INTRA-LIGAND FREE ENERGY PREDICTED BY IDOCK:   -0.17 KCAL/MOL
REMARK 927      BINDING AFFINITY PREDICTED BY RF-SCORE:    0.00 PKD
ROOT
HETATM    1  C   UNL     1      -7.210   7.074  71.426  1.00  0.00    -0.078 C  
HETATM    2  C   UNL     1      -8.676   6.902  71.715  1.00  0.00    -0.120 C  
HETATM    3  N   UNL     1      -9.454   8.020  71.401  1.00  0.00    -0.150 N  
HETATM    4  O   UNL     1      -9.126   5.880  72.214  1.00  0.00    -0.142 OA 
HETATM    5  H   UNL     1      -8.967   8.851  71.066  1.00  0.00     0.000 HD 
ENDROOT
BRANCH   3   6
HETATM    6  S   UNL     1     -11.109   8.107  71.529  1.00  0.00    -0.265 S  
HETATM    7  O   UNL     1     -11.608   7.179  70.535  1.00  0.00    -0.301 OA 
HETATM    8  O   UNL     1     -11.500   7.987  72.915  1.00  0.00    -0.411 OA 
BRANCH   6   9
HETATM    9  C   UNL     1     -11.468   9.748  70.957  1.00  0.00    -0.383 A  
HETATM   10  C   UNL     1     -10.781  10.259  69.853  1.00  0.00    -0.344 A  
HETATM   11  C   UNL     1     -11.077  11.544  69.390  1.00  0.00    -0.287 A  
HETATM   12  C   UNL     1     -12.027  12.338  70.041  1.00  0.00    -0.304 A  
HETATM   13  N   UNL     1     -12.392  13.576  69.501  1.00  0.00    -0.220 NA 
HETATM   14  C   UNL     1     -12.766  11.779  71.088  1.00  0.00    -0.405 A  
HETATM   15  H2  UNL     1     -12.697  13.432  68.540  1.00  0.00     0.000 HD 
HETATM   16  H1  UNL     1     -13.085  14.156  69.976  1.00  0.00     0.000 HD 
HETATM   17  C   UNL     1     -12.482  10.493  71.560  1.00  0.00    -0.493 A  
ENDBRANCH   6   9
ENDBRANCH   3   6
TORSDOF 2
ENDMDL
MODEL      124
REMARK 921   NORMALIZED FREE ENERGY PREDICTED BY IDOCK:   -3.49 KCAL/MOL
REMARK 922        TOTAL FREE ENERGY PREDICTED BY IDOCK:   -4.07 KCAL/MOL
REMARK 923 INTER-LIGAND FREE ENERGY PREDICTED BY IDOCK:   -3.88 KCAL/MOL
REMARK 924 INTRA-LIGAND FREE ENERGY PREDICTED BY IDOCK:   -0.19 KCAL/MOL
REMARK 927      BINDING AFFINITY PREDICTED BY RF-SCORE:    0.00 PKD
ROOT
HETATM    1  C   UNL     1     -10.135   7.455  68.239  1.00  0.00    -0.201 C  
HETATM    2  C   UNL     1      -9.848   8.414  67.116  1.00  0.00    -0.215 C  
HETATM    3  N   UNL     1     -10.292   9.719  67.352  1.00  0.00    -0.223 N  
HETATM    4  O   UNL     1      -9.305   8.059  66.080  1.00  0.00    -0.171 OA 
HETATM    5  H   UNL     1     -10.806   9.889  68.216  1.00  0.00     0.000 HD 
ENDROOT
BRANCH   3   6
HETATM    6  S   UNL     1     -10.049  11.015  66.340  1.00  0.00    -0.236 S  
HETATM    7  O   UNL     1      -8.616  11.223  66.339  1.00  0.00    -0.168 OA 
HETATM    8  O   UNL     1     -10.768  10.812  65.103  1.00  0.00    -0.215 OA 
BRANCH   6   9
HETATM    9  C   UNL     1     -10.785  12.361  67.233  1.00  0.00    -0.230 A  
HETATM   10  C   UNL     1     -11.140  13.527  66.552  1.00  0.00    -0.310 A  
HETATM   11  C   UNL     1     -11.737  14.580  67.252  1.00  0.00    -0.429 A  
HETATM   12  C   UNL     1     -11.950  14.493  68.631  1.00  0.00    -0.285 A  
HETATM   13  N   UNL     1     -12.647  15.507  69.297  1.00  0.00    -0.526 NA 
HETATM   14  C   UNL     1     -11.668  13.286  69.280  1.00  0.00    -0.380 A  
HETATM   15  H2  UNL     1     -13.549  15.632  68.839  1.00  0.00     0.000 HD 
HETATM   16  H1  UNL     1     -12.802  15.444  70.304  1.00  0.00     0.000 HD 
HETATM   17  C   UNL     1     -11.074  12.224  68.592  1.00  0.00    -0.291 A  
ENDBRANCH   6   9
ENDBRANCH   3   6
TORSDOF 2
ENDMDL
MODEL      125
REMARK 921   NORMALIZED FREE ENERGY PREDICTED BY IDOCK:   -3.47 KCAL/MOL
REMARK 922        TOTAL FREE ENERGY PREDICTED BY IDOCK:   -4.05 KCAL/MOL
REMARK 923 INTER-LIGAND FREE ENERGY PREDICTED BY IDOCK:   -4.65 KCAL/MOL
REMARK 924 INTRA-LIGAND FREE ENERGY PREDICTED BY IDOCK:    0.60 KCAL/MOL
REMARK 927      BINDING AFFINITY PREDICTED BY RF-SCORE:    0.00 PKD
ROOT
HETATM    1  C   UNL     1      -9.117  10.177  63.723  1.00  0.00    -0.293 C  
HETATM    2  C   UNL     1      -9.631  11.292  64.593  1.00  0.00    -0.231 C  
HETATM    3  N   UNL     1     -10.953  11.663  64.323  1.00  0.00    -0.343 N  
HETATM    4  O   UNL     1      -8.932  11.838  65.433  1.00  0.00    -0.027 OA 
HETATM    5  H   UNL     1     -11.420  11.197  63.545  1.00  0.00     0.000 HD 
ENDROOT
BRANCH   3   6
HETATM    6  S   UNL     1     -11.824  12.800  65.166  1.00  0.00    -0.416 S  
HETATM    7  O   UNL     1     -11.057  14.022  65.041  1.00  0.00    -0.330 OA 
HETATM    8  O   UNL     1     -13.210  12.753  64.762  1.00  0.00    -0.812 OA 
BRANCH   6   9
HETATM    9  C   UNL     1     -11.681  12.247  66.845  1.00  0.00    -0.334 A  
HETATM   10  C   UNL     1     -11.396  10.905  67.108  1.00  0.00    -0.168 A  
HETATM   11  C   UNL     1     -11.265  10.473  68.430  1.00  0.00    -0.339 A  
HETATM   12  C   UNL     1     -11.451  11.360  69.495  1.00  0.00    -0.312 A  
HETATM   13  N   UNL     1     -11.208  10.940  70.807  1.00  0.00    -0.275 NA 
HETATM   14  C   UNL     1     -11.648  12.716  69.213  1.00  0.00    -0.376 A  
HETATM   15  H2  UNL     1     -10.259  10.572  70.857  1.00  0.00     0.000 HD 
HETATM   16  H1  UNL     1     -11.343  11.588  71.584  1.00  0.00     0.000 HD 
HETATM   17  C   UNL     1     -11.779  13.162  67.894  1.00  0.00    -0.398 A  
ENDBRANCH   6   9
ENDBRANCH   3   6
TORSDOF 2
ENDMDL
MODEL      126
REMARK 921   NORMALIZED FREE ENERGY PREDICTED BY IDOCK:   -3.46 KCAL/MOL
REMARK 922        TOTAL FREE ENERGY PREDICTED BY IDOCK:   -4.04 KCAL/MOL
REMARK 923 INTER-LIGAND FREE ENERGY PREDICTED BY IDOCK:   -3.86 KCAL/MOL
REMARK 924 INTRA-LIGAND FREE ENERGY PREDICTED BY IDOCK:   -0.17 KCAL/MOL
REMARK 927      BINDING AFFINITY PREDICTED BY RF-SCORE:    0.00 PKD
ROOT
HETATM    1  C   UNL     1      -9.647  15.250  69.694  1.00  0.00    -0.188 C  
HETATM    2  C   UNL     1     -10.146  14.482  68.501  1.00  0.00    -0.242 C  
HETATM    3  N   UNL     1     -10.232  13.101  68.706  1.00  0.00    -0.410 N  
HETATM    4  O   UNL     1     -10.414  15.028  67.441  1.00  0.00    -0.251 OA 
HETATM    5  H   UNL     1      -9.905  12.740  69.602  1.00  0.00     0.000 HD 
ENDROOT
BRANCH   3   6
HETATM    6  S   UNL     1     -10.823  12.001  67.609  1.00  0.00    -0.244 S  
HETATM    7  O   UNL     1     -12.208  12.376  67.416  1.00  0.00    -0.459 OA 
HETATM    8  O   UNL     1      -9.921  11.897  66.485  1.00  0.00    -0.197 OA 
BRANCH   6   9
HETATM    9  C   UNL     1     -10.803  10.479  68.521  1.00  0.00    -0.234 A  
HETATM   10  C   UNL     1     -10.509   9.283  67.861  1.00  0.00    -0.290 A  
HETATM   11  C   UNL     1     -10.475   8.087  68.583  1.00  0.00    -0.196 A  
HETATM   12  C   UNL     1     -10.766   8.067  69.951  1.00  0.00    -0.242 A  
HETATM   13  N   UNL     1     -10.619   6.883  70.681  1.00  0.00    -0.218 NA 
HETATM   14  C   UNL     1     -10.971   9.283  70.612  1.00  0.00    -0.336 A  
HETATM   15  H2  UNL     1      -9.669   6.539  70.548  1.00  0.00     0.000 HD 
HETATM   16  H1  UNL     1     -10.831   6.869  71.679  1.00  0.00     0.000 HD 
HETATM   17  C   UNL     1     -11.005  10.488  69.902  1.00  0.00    -0.359 A  
ENDBRANCH   6   9
ENDBRANCH   3   6
TORSDOF 2
ENDMDL
MODEL      127
REMARK 921   NORMALIZED FREE ENERGY PREDICTED BY IDOCK:   -3.45 KCAL/MOL
REMARK 922        TOTAL FREE ENERGY PREDICTED BY IDOCK:   -4.02 KCAL/MOL
REMARK 923 INTER-LIGAND FREE ENERGY PREDICTED BY IDOCK:   -3.94 KCAL/MOL
REMARK 924 INTRA-LIGAND FREE ENERGY PREDICTED BY IDOCK:   -0.08 KCAL/MOL
REMARK 927      BINDING AFFINITY PREDICTED BY RF-SCORE:    0.00 PKD
ROOT
HETATM    1  C   UNL     1      -9.275  10.001  63.493  1.00  0.00    -0.315 C  
HETATM    2  C   UNL     1      -9.072   9.100  64.681  1.00  0.00    -0.051 C  
HETATM    3  N   UNL     1      -9.866   9.426  65.786  1.00  0.00    -0.358 N  
HETATM    4  O   UNL     1      -8.256   8.190  64.676  1.00  0.00    -0.154 OA 
HETATM    5  H   UNL     1     -10.454  10.255  65.711  1.00  0.00     0.000 HD 
ENDROOT
BRANCH   3   6
HETATM    6  S   UNL     1      -9.929   8.572  67.210  1.00  0.00    -0.251 S  
HETATM    7  O   UNL     1     -10.877   7.505  66.962  1.00  0.00    -0.348 OA 
HETATM    8  O   UNL     1      -8.589   8.279  67.665  1.00  0.00    -0.129 OA 
BRANCH   6   9
HETATM    9  C   UNL     1     -10.693   9.718  68.328  1.00  0.00    -0.233 A  
HETATM   10  C   UNL     1     -11.219  10.915  67.836  1.00  0.00    -0.387 A  
HETATM   11  C   UNL     1     -11.838  11.809  68.714  1.00  0.00    -0.380 A  
HETATM   12  C   UNL     1     -11.906  11.536  70.084  1.00  0.00    -0.356 A  
HETATM   13  N   UNL     1     -12.625  12.385  70.932  1.00  0.00    -0.310 NA 
HETATM   14  C   UNL     1     -11.454  10.295  70.545  1.00  0.00    -0.427 A  
HETATM   15  H2  UNL     1     -13.575  12.471  70.573  1.00  0.00     0.000 HD 
HETATM   16  H1  UNL     1     -12.675  12.186  71.932  1.00  0.00     0.000 HD 
HETATM   17  C   UNL     1     -10.835   9.390  69.677  1.00  0.00    -0.245 A  
ENDBRANCH   6   9
ENDBRANCH   3   6
TORSDOF 2
ENDMDL
MODEL      128
REMARK 921   NORMALIZED FREE ENERGY PREDICTED BY IDOCK:   -3.43 KCAL/MOL
REMARK 922        TOTAL FREE ENERGY PREDICTED BY IDOCK:   -4.01 KCAL/MOL
REMARK 923 INTER-LIGAND FREE ENERGY PREDICTED BY IDOCK:   -3.83 KCAL/MOL
REMARK 924 INTRA-LIGAND FREE ENERGY PREDICTED BY IDOCK:   -0.18 KCAL/MOL
REMARK 927      BINDING AFFINITY PREDICTED BY RF-SCORE:    0.00 PKD
ROOT
HETATM    1  C   UNL     1      -9.097  19.451  68.751  1.00  0.00    -0.411 C  
HETATM    2  C   UNL     1      -9.930  18.561  67.869  1.00  0.00    -0.346 C  
HETATM    3  N   UNL     1      -9.441  17.256  67.750  1.00  0.00    -0.252 N  
HETATM    4  O   UNL     1     -10.925  18.968  67.287  1.00  0.00    -0.459 OA 
HETATM    5  H   UNL     1      -8.557  17.043  68.213  1.00  0.00     0.000 HD 
ENDROOT
BRANCH   3   6
HETATM    6  S   UNL     1     -10.181  16.023  66.917  1.00  0.00    -0.285 S  
HETATM    7  O   UNL     1     -11.346  15.686  67.710  1.00  0.00    -0.326 OA 
HETATM    8  O   UNL     1     -10.315  16.384  65.524  1.00  0.00    -0.472 OA 
BRANCH   6   9
HETATM    9  C   UNL     1      -9.024  14.687  67.070  1.00  0.00    -0.240 A  
HETATM   10  C   UNL     1      -7.705  14.956  67.444  1.00  0.00    -0.231 A  
HETATM   11  C   UNL     1      -6.799  13.902  67.583  1.00  0.00    -0.193 A  
HETATM   12  C   UNL     1      -7.186  12.584  67.319  1.00  0.00    -0.114 A  
HETATM   13  N   UNL     1      -6.301  11.531  67.569  1.00  0.00    -0.067 NA 
HETATM   14  C   UNL     1      -8.531  12.324  67.032  1.00  0.00    -0.181 A  
HETATM   15  H2  UNL     1      -5.998  11.588  68.541  1.00  0.00     0.000 HD 
HETATM   16  H1  UNL     1      -6.584  10.569  67.377  1.00  0.00     0.000 HD 
HETATM   17  C   UNL     1      -9.449  13.370  66.892  1.00  0.00    -0.253 A  
ENDBRANCH   6   9
ENDBRANCH   3   6
TORSDOF 2
ENDMDL
MODEL      129
REMARK 921   NORMALIZED FREE ENERGY PREDICTED BY IDOCK:   -3.41 KCAL/MOL
REMARK 922        TOTAL FREE ENERGY PREDICTED BY IDOCK:   -3.98 KCAL/MOL
REMARK 923 INTER-LIGAND FREE ENERGY PREDICTED BY IDOCK:   -3.97 KCAL/MOL
REMARK 924 INTRA-LIGAND FREE ENERGY PREDICTED BY IDOCK:   -0.00 KCAL/MOL
REMARK 927      BINDING AFFINITY PREDICTED BY RF-SCORE:    0.00 PKD
ROOT
HETATM    1  C   UNL     1      -7.174   5.797  72.471  1.00  0.00    -0.086 C  
HETATM    2  C   UNL     1      -8.644   5.552  72.270  1.00  0.00    -0.126 C  
HETATM    3  N   UNL     1      -9.310   6.586  71.605  1.00  0.00    -0.147 N  
HETATM    4  O   UNL     1      -9.199   4.546  72.689  1.00  0.00    -0.124 OA 
HETATM    5  H   UNL     1      -8.768   7.417  71.371  1.00  0.00     0.000 HD 
ENDROOT
BRANCH   3   6
HETATM    6  S   UNL     1     -10.913   6.572  71.165  1.00  0.00    -0.279 S  
HETATM    7  O   UNL     1     -10.932   5.963  69.851  1.00  0.00    -0.344 OA 
HETATM    8  O   UNL     1     -11.711   6.031  72.241  1.00  0.00    -0.310 OA 
BRANCH   6   9
HETATM    9  C   UNL     1     -11.286   8.294  70.963  1.00  0.00    -0.269 A  
HETATM   10  C   UNL     1     -12.160   8.920  71.856  1.00  0.00    -0.443 A  
HETATM   11  C   UNL     1     -12.440  10.281  71.708  1.00  0.00    -0.431 A  
HETATM   12  C   UNL     1     -11.883  11.017  70.657  1.00  0.00    -0.333 A  
HETATM   13  N   UNL     1     -12.083  12.399  70.587  1.00  0.00    -0.490 NA 
HETATM   14  C   UNL     1     -10.943  10.396  69.827  1.00  0.00    -0.345 A  
HETATM   15  H2  UNL     1     -11.778  12.814  71.467  1.00  0.00     0.000 HD 
HETATM   16  H1  UNL     1     -11.677  12.936  69.820  1.00  0.00     0.000 HD 
HETATM   17  C   UNL     1     -10.652   9.035  69.965  1.00  0.00    -0.246 A  
ENDBRANCH   6   9
ENDBRANCH   3   6
TORSDOF 2
ENDMDL
MODEL      130
REMARK 921   NORMALIZED FREE ENERGY PREDICTED BY IDOCK:   -3.40 KCAL/MOL
REMARK 922        TOTAL FREE ENERGY PREDICTED BY IDOCK:   -3.97 KCAL/MOL
REMARK 923 INTER-LIGAND FREE ENERGY PREDICTED BY IDOCK:   -3.81 KCAL/MOL
REMARK 924 INTRA-LIGAND FREE ENERGY PREDICTED BY IDOCK:   -0.16 KCAL/MOL
REMARK 927      BINDING AFFINITY PREDICTED BY RF-SCORE:    0.00 PKD
ROOT
HETATM    1  C   UNL     1      -6.771   9.150  69.050  1.00  0.00    -0.055 C  
HETATM    2  C   UNL     1      -7.799   8.615  68.092  1.00  0.00    -0.103 C  
HETATM    3  N   UNL     1      -8.384   9.591  67.278  1.00  0.00    -0.124 N  
HETATM    4  O   UNL     1      -8.110   7.433  68.063  1.00  0.00    -0.120 OA 
HETATM    5  H   UNL     1      -8.111  10.560  67.441  1.00  0.00     0.000 HD 
ENDROOT
BRANCH   3   6
HETATM    6  S   UNL     1      -9.487   9.301  66.069  1.00  0.00    -0.264 S  
HETATM    7  O   UNL     1      -8.715   8.708  64.996  1.00  0.00    -0.179 OA 
HETATM    8  O   UNL     1     -10.641   8.622  66.612  1.00  0.00    -0.240 OA 
BRANCH   6   9
HETATM    9  C   UNL     1      -9.952  10.934  65.555  1.00  0.00    -0.260 A  
HETATM   10  C   UNL     1     -10.473  11.131  64.273  1.00  0.00    -0.427 A  
HETATM   11  C   UNL     1     -10.857  12.414  63.874  1.00  0.00    -0.465 A  
HETATM   12  C   UNL     1     -10.694  13.509  64.729  1.00  0.00    -0.401 A  
HETATM   13  N   UNL     1     -11.185  14.766  64.359  1.00  0.00    -0.640 NA 
HETATM   14  C   UNL     1     -10.255  13.280  66.038  1.00  0.00    -0.291 A  
HETATM   15  H2  UNL     1     -12.176  14.673  64.140  1.00  0.00     0.000 HD 
HETATM   16  H1  UNL     1     -11.066  15.564  64.983  1.00  0.00     0.000 HD 
HETATM   17  C   UNL     1      -9.869  12.001  66.451  1.00  0.00    -0.238 A  
ENDBRANCH   6   9
ENDBRANCH   3   6
TORSDOF 2
ENDMDL
MODEL      131
REMARK 921   NORMALIZED FREE ENERGY PREDICTED BY IDOCK:   -3.39 KCAL/MOL
REMARK 922        TOTAL FREE ENERGY PREDICTED BY IDOCK:   -3.96 KCAL/MOL
REMARK 923 INTER-LIGAND FREE ENERGY PREDICTED BY IDOCK:   -3.86 KCAL/MOL
REMARK 924 INTRA-LIGAND FREE ENERGY PREDICTED BY IDOCK:   -0.10 KCAL/MOL
REMARK 927      BINDING AFFINITY PREDICTED BY RF-SCORE:    0.00 PKD
ROOT
HETATM    1  C   UNL     1     -11.484  13.109  69.742  1.00  0.00    -0.216 C  
HETATM    2  C   UNL     1     -11.586  11.644  69.419  1.00  0.00    -0.327 C  
HETATM    3  N   UNL     1     -10.916  10.812  70.322  1.00  0.00    -0.463 N  
HETATM    4  O   UNL     1     -12.178  11.235  68.430  1.00  0.00    -0.604 OA 
HETATM    5  H   UNL     1     -10.385  11.262  71.067  1.00  0.00     0.000 HD 
ENDROOT
BRANCH   3   6
HETATM    6  S   UNL     1     -10.914   9.151  70.280  1.00  0.00    -0.244 S  
HETATM    7  O   UNL     1     -12.193   8.763  70.837  1.00  0.00    -0.240 OA 
HETATM    8  O   UNL     1     -10.510   8.694  68.969  1.00  0.00    -0.216 OA 
BRANCH   6   9
HETATM    9  C   UNL     1      -9.662   8.724  71.463  1.00  0.00    -0.291 A  
HETATM   10  C   UNL     1     -10.038   8.267  72.729  1.00  0.00    -0.333 A  
HETATM   11  C   UNL     1      -9.053   7.912  73.655  1.00  0.00    -0.337 A  
HETATM   12  C   UNL     1      -7.696   8.043  73.342  1.00  0.00    -0.161 A  
HETATM   13  N   UNL     1      -6.724   7.581  74.235  1.00  0.00    -0.087 NA 
HETATM   14  C   UNL     1      -7.339   8.419  72.042  1.00  0.00    -0.122 A  
HETATM   15  H2  UNL     1      -6.914   6.601  74.440  1.00  0.00     0.000 HD 
HETATM   16  H1  UNL     1      -5.734   7.677  74.007  1.00  0.00     0.000 HD 
HETATM   17  C   UNL     1      -8.315   8.773  71.105  1.00  0.00    -0.219 A  
ENDBRANCH   6   9
ENDBRANCH   3   6
TORSDOF 2
ENDMDL
MODEL      132
REMARK 921   NORMALIZED FREE ENERGY PREDICTED BY IDOCK:   -3.39 KCAL/MOL
REMARK 922        TOTAL FREE ENERGY PREDICTED BY IDOCK:   -3.96 KCAL/MOL
REMARK 923 INTER-LIGAND FREE ENERGY PREDICTED BY IDOCK:   -3.90 KCAL/MOL
REMARK 924 INTRA-LIGAND FREE ENERGY PREDICTED BY IDOCK:   -0.06 KCAL/MOL
REMARK 927      BINDING AFFINITY PREDICTED BY RF-SCORE:    0.00 PKD
ROOT
HETATM    1  C   UNL     1      -6.374  11.764  66.922  1.00  0.00    -0.131 C  
HETATM    2  C   UNL     1      -7.822  11.379  66.792  1.00  0.00    -0.157 C  
HETATM    3  N   UNL     1      -8.613  12.342  66.157  1.00  0.00    -0.391 N  
HETATM    4  O   UNL     1      -8.259  10.329  67.240  1.00  0.00    -0.120 OA 
HETATM    5  H   UNL     1      -8.164  13.219  65.895  1.00  0.00     0.000 HD 
ENDROOT
BRANCH   3   6
HETATM    6  S   UNL     1     -10.227  12.173  65.794  1.00  0.00    -0.260 S  
HETATM    7  O   UNL     1     -10.526  13.281  64.910  1.00  0.00    -0.333 OA 
HETATM    8  O   UNL     1     -10.499  10.812  65.393  1.00  0.00    -0.260 OA 
BRANCH   6   9
HETATM    9  C   UNL     1     -11.020  12.499  67.347  1.00  0.00    -0.259 A  
HETATM   10  C   UNL     1     -11.418  11.431  68.156  1.00  0.00    -0.375 A  
HETATM   11  C   UNL     1     -12.026  11.688  69.388  1.00  0.00    -0.381 A  
HETATM   12  C   UNL     1     -12.273  13.000  69.805  1.00  0.00    -0.177 A  
HETATM   13  N   UNL     1     -12.780  13.243  71.086  1.00  0.00    -0.352 NA 
HETATM   14  C   UNL     1     -11.791  14.055  69.024  1.00  0.00    -0.391 A  
HETATM   15  H2  UNL     1     -12.164  12.800  71.766  1.00  0.00     0.000 HD 
HETATM   16  H1  UNL     1     -12.961  14.201  71.390  1.00  0.00     0.000 HD 
HETATM   17  C   UNL     1     -11.178  13.813  67.790  1.00  0.00    -0.312 A  
ENDBRANCH   6   9
ENDBRANCH   3   6
TORSDOF 2
ENDMDL
MODEL      133
REMARK 921   NORMALIZED FREE ENERGY PREDICTED BY IDOCK:   -3.39 KCAL/MOL
REMARK 922        TOTAL FREE ENERGY PREDICTED BY IDOCK:   -3.95 KCAL/MOL
REMARK 923 INTER-LIGAND FREE ENERGY PREDICTED BY IDOCK:   -4.02 KCAL/MOL
REMARK 924 INTRA-LIGAND FREE ENERGY PREDICTED BY IDOCK:    0.06 KCAL/MOL
REMARK 927      BINDING AFFINITY PREDICTED BY RF-SCORE:    0.00 PKD
ROOT
HETATM    1  C   UNL     1     -12.961  10.711  71.622  1.00  0.00    -0.582 C  
HETATM    2  C   UNL     1     -12.075   9.498  71.686  1.00  0.00    -0.398 C  
HETATM    3  N   UNL     1     -10.809   9.685  71.120  1.00  0.00    -0.353 N  
HETATM    4  O   UNL     1     -12.455   8.438  72.163  1.00  0.00    -0.335 OA 
HETATM    5  H   UNL     1     -10.623  10.583  70.676  1.00  0.00     0.000 HD 
ENDROOT
BRANCH   3   6
HETATM    6  S   UNL     1      -9.583   8.562  71.113  1.00  0.00    -0.213 S  
HETATM    7  O   UNL     1      -8.367   9.342  71.013  1.00  0.00    -0.255 OA 
HETATM    8  O   UNL     1      -9.773   7.623  72.194  1.00  0.00    -0.162 OA 
BRANCH   6   9
HETATM    9  C   UNL     1      -9.815   7.730  69.563  1.00  0.00    -0.179 A  
HETATM   10  C   UNL     1      -8.962   8.015  68.493  1.00  0.00    -0.133 A  
HETATM   11  C   UNL     1      -9.132   7.346  67.278  1.00  0.00    -0.135 A  
HETATM   12  C   UNL     1     -10.167   6.421  67.108  1.00  0.00    -0.199 A  
HETATM   13  N   UNL     1     -10.257   5.680  65.926  1.00  0.00    -0.413 NA 
HETATM   14  C   UNL     1     -10.955   6.085  68.214  1.00  0.00    -0.347 A  
HETATM   15  H2  UNL     1      -9.370   5.201  65.778  1.00  0.00     0.000 HD 
HETATM   16  H1  UNL     1     -11.012   5.005  65.802  1.00  0.00     0.000 HD 
HETATM   17  C   UNL     1     -10.794   6.744  69.437  1.00  0.00    -0.312 A  
ENDBRANCH   6   9
ENDBRANCH   3   6
TORSDOF 2
ENDMDL
MODEL      134
REMARK 921   NORMALIZED FREE ENERGY PREDICTED BY IDOCK:   -3.37 KCAL/MOL
REMARK 922        TOTAL FREE ENERGY PREDICTED BY IDOCK:   -3.94 KCAL/MOL
REMARK 923 INTER-LIGAND FREE ENERGY PREDICTED BY IDOCK:   -3.77 KCAL/MOL
REMARK 924 INTRA-LIGAND FREE ENERGY PREDICTED BY IDOCK:   -0.17 KCAL/MOL
REMARK 927      BINDING AFFINITY PREDICTED BY RF-SCORE:    0.00 PKD
ROOT
HETATM    1  C   UNL     1      -8.368  17.982  68.295  1.00  0.00    -0.295 C  
HETATM    2  C   UNL     1      -9.698  17.376  67.938  1.00  0.00    -0.272 C  
HETATM    3  N   UNL     1      -9.745  15.985  68.072  1.00  0.00    -0.216 N  
HETATM    4  O   UNL     1     -10.634  18.051  67.535  1.00  0.00    -0.395 OA 
HETATM    5  H   UNL     1      -8.883  15.510  68.338  1.00  0.00     0.000 HD 
ENDROOT
BRANCH   3   6
HETATM    6  S   UNL     1     -11.092  15.041  67.833  1.00  0.00    -0.318 S  
HETATM    7  O   UNL     1     -12.024  15.456  68.862  1.00  0.00    -0.336 OA 
HETATM    8  O   UNL     1     -11.469  15.070  66.439  1.00  0.00    -0.321 OA 
BRANCH   6   9
HETATM    9  C   UNL     1     -10.520  13.415  68.255  1.00  0.00    -0.250 A  
HETATM   10  C   UNL     1     -11.417  12.483  68.782  1.00  0.00    -0.353 A  
HETATM   11  C   UNL     1     -10.971  11.197  69.096  1.00  0.00    -0.295 A  
HETATM   12  C   UNL     1      -9.629  10.842  68.922  1.00  0.00    -0.181 A  
HETATM   13  N   UNL     1      -9.221   9.521  69.136  1.00  0.00    -0.156 NA 
HETATM   14  C   UNL     1      -8.765  11.758  68.312  1.00  0.00    -0.167 A  
HETATM   15  H2  UNL     1      -9.793   8.909  68.556  1.00  0.00     0.000 HD 
HETATM   16  H1  UNL     1      -8.242   9.262  69.009  1.00  0.00     0.000 HD 
HETATM   17  C   UNL     1      -9.200  13.048  67.990  1.00  0.00    -0.212 A  
ENDBRANCH   6   9
ENDBRANCH   3   6
TORSDOF 2
ENDMDL
MODEL      135
REMARK 921   NORMALIZED FREE ENERGY PREDICTED BY IDOCK:   -3.37 KCAL/MOL
REMARK 922        TOTAL FREE ENERGY PREDICTED BY IDOCK:   -3.94 KCAL/MOL
REMARK 923 INTER-LIGAND FREE ENERGY PREDICTED BY IDOCK:   -4.11 KCAL/MOL
REMARK 924 INTRA-LIGAND FREE ENERGY PREDICTED BY IDOCK:    0.17 KCAL/MOL
REMARK 927      BINDING AFFINITY PREDICTED BY RF-SCORE:    0.00 PKD
ROOT
HETATM    1  C   UNL     1     -14.146   8.693  72.045  1.00  0.00    -0.523 C  
HETATM    2  C   UNL     1     -12.729   8.240  71.823  1.00  0.00    -0.336 C  
HETATM    3  N   UNL     1     -12.583   7.309  70.789  1.00  0.00    -0.598 N  
HETATM    4  O   UNL     1     -11.803   8.635  72.516  1.00  0.00    -0.361 OA 
HETATM    5  H   UNL     1     -13.433   6.985  70.327  1.00  0.00     0.000 HD 
ENDROOT
BRANCH   3   6
HETATM    6  S   UNL     1     -11.139   6.687  70.252  1.00  0.00    -0.354 S  
HETATM    7  O   UNL     1     -10.599   5.967  71.387  1.00  0.00    -0.228 OA 
HETATM    8  O   UNL     1     -11.333   6.025  68.982  1.00  0.00    -0.340 OA 
BRANCH   6   9
HETATM    9  C   UNL     1     -10.144   8.136  70.014  1.00  0.00    -0.196 A  
HETATM   10  C   UNL     1      -8.822   8.147  70.466  1.00  0.00    -0.144 A  
HETATM   11  C   UNL     1      -8.032   9.282  70.262  1.00  0.00    -0.155 A  
HETATM   12  C   UNL     1      -8.560  10.420  69.643  1.00  0.00    -0.040 A  
HETATM   13  N   UNL     1      -7.728  11.505  69.347  1.00  0.00    -0.362 NA 
HETATM   14  C   UNL     1      -9.856  10.360  69.120  1.00  0.00    -0.237 A  
HETATM   15  H2  UNL     1      -6.945  11.167  68.787  1.00  0.00     0.000 HD 
HETATM   16  H1  UNL     1      -8.113  12.335  68.895  1.00  0.00     0.000 HD 
HETATM   17  C   UNL     1     -10.656   9.230  69.314  1.00  0.00    -0.234 A  
ENDBRANCH   6   9
ENDBRANCH   3   6
TORSDOF 2
ENDMDL
MODEL      136
REMARK 921   NORMALIZED FREE ENERGY PREDICTED BY IDOCK:   -3.35 KCAL/MOL
REMARK 922        TOTAL FREE ENERGY PREDICTED BY IDOCK:   -3.91 KCAL/MOL
REMARK 923 INTER-LIGAND FREE ENERGY PREDICTED BY IDOCK:   -3.74 KCAL/MOL
REMARK 924 INTRA-LIGAND FREE ENERGY PREDICTED BY IDOCK:   -0.17 KCAL/MOL
REMARK 927      BINDING AFFINITY PREDICTED BY RF-SCORE:    0.00 PKD
ROOT
HETATM    1  C   UNL     1     -10.136   7.137  74.066  1.00  0.00    -0.303 C  
HETATM    2  C   UNL     1      -9.293   7.917  73.095  1.00  0.00    -0.272 C  
HETATM    3  N   UNL     1      -9.547   7.620  71.752  1.00  0.00    -0.148 N  
HETATM    4  O   UNL     1      -8.441   8.711  73.465  1.00  0.00    -0.370 OA 
HETATM    5  H   UNL     1     -10.222   6.881  71.556  1.00  0.00     0.000 HD 
ENDROOT
BRANCH   3   6
HETATM    6  S   UNL     1      -8.839   8.372  70.450  1.00  0.00    -0.153 S  
HETATM    7  O   UNL     1      -9.395   9.709  70.445  1.00  0.00    -0.251 OA 
HETATM    8  O   UNL     1      -7.409   8.166  70.484  1.00  0.00    -0.054 OA 
BRANCH   6   9
HETATM    9  C   UNL     1      -9.526   7.501  69.065  1.00  0.00    -0.145 A  
HETATM   10  C   UNL     1      -9.614   6.107  69.101  1.00  0.00    -0.154 A  
HETATM   11  C   UNL     1     -10.173   5.423  68.018  1.00  0.00    -0.221 A  
HETATM   12  C   UNL     1     -10.612   6.114  66.884  1.00  0.00    -0.312 A  
HETATM   13  N   UNL     1     -11.269   5.428  65.857  1.00  0.00    -0.753 NA 
HETATM   14  C   UNL     1     -10.597   7.512  66.901  1.00  0.00    -0.367 A  
HETATM   15  H2  UNL     1     -12.063   4.930  66.259  1.00  0.00     0.000 HD 
HETATM   16  H1  UNL     1     -11.590   5.932  65.030  1.00  0.00     0.000 HD 
HETATM   17  C   UNL     1     -10.043   8.210  67.980  1.00  0.00    -0.241 A  
ENDBRANCH   6   9
ENDBRANCH   3   6
TORSDOF 2
ENDMDL
MODEL      137
REMARK 921   NORMALIZED FREE ENERGY PREDICTED BY IDOCK:   -3.33 KCAL/MOL
REMARK 922        TOTAL FREE ENERGY PREDICTED BY IDOCK:   -3.89 KCAL/MOL
REMARK 923 INTER-LIGAND FREE ENERGY PREDICTED BY IDOCK:   -3.72 KCAL/MOL
REMARK 924 INTRA-LIGAND FREE ENERGY PREDICTED BY IDOCK:   -0.17 KCAL/MOL
REMARK 927      BINDING AFFINITY PREDICTED BY RF-SCORE:    0.00 PKD
ROOT
HETATM    1  C   UNL     1     -10.231   3.949  64.677  1.00  0.00    -0.216 C  
HETATM    2  C   UNL     1     -10.036   4.580  66.028  1.00  0.00    -0.248 C  
HETATM    3  N   UNL     1     -10.002   5.979  66.005  1.00  0.00    -0.394 N  
HETATM    4  O   UNL     1      -9.885   3.915  67.042  1.00  0.00    -0.201 OA 
HETATM    5  H   UNL     1     -10.055   6.433  65.094  1.00  0.00     0.000 HD 
ENDROOT
BRANCH   3   6
HETATM    6  S   UNL     1      -9.883   6.960  67.341  1.00  0.00    -0.156 S  
HETATM    7  O   UNL     1     -11.127   6.765  68.057  1.00  0.00    -0.227 OA 
HETATM    8  O   UNL     1      -8.612   6.745  67.994  1.00  0.00    -0.122 OA 
BRANCH   6   9
HETATM    9  C   UNL     1      -9.917   8.590  66.642  1.00  0.00    -0.293 A  
HETATM   10  C   UNL     1     -10.613   9.608  67.300  1.00  0.00    -0.315 A  
HETATM   11  C   UNL     1     -10.625  10.897  66.759  1.00  0.00    -0.313 A  
HETATM   12  C   UNL     1      -9.978  11.172  65.551  1.00  0.00    -0.249 A  
HETATM   13  N   UNL     1      -9.904  12.487  65.080  1.00  0.00    -0.461 NA 
HETATM   14  C   UNL     1      -9.214  10.164  64.953  1.00  0.00    -0.281 A  
HETATM   15  H2  UNL     1      -9.488  13.067  65.808  1.00  0.00     0.000 HD 
HETATM   16  H1  UNL     1      -9.431  12.688  64.198  1.00  0.00     0.000 HD 
HETATM   17  C   UNL     1      -9.191   8.871  65.484  1.00  0.00    -0.242 A  
ENDBRANCH   6   9
ENDBRANCH   3   6
TORSDOF 2
ENDMDL
MODEL      138
REMARK 921   NORMALIZED FREE ENERGY PREDICTED BY IDOCK:   -3.32 KCAL/MOL
REMARK 922        TOTAL FREE ENERGY PREDICTED BY IDOCK:   -3.88 KCAL/MOL
REMARK 923 INTER-LIGAND FREE ENERGY PREDICTED BY IDOCK:   -3.93 KCAL/MOL
REMARK 924 INTRA-LIGAND FREE ENERGY PREDICTED BY IDOCK:    0.05 KCAL/MOL
REMARK 927      BINDING AFFINITY PREDICTED BY RF-SCORE:    0.00 PKD
ROOT
HETATM    1  C   UNL     1      -9.486  15.678  65.715  1.00  0.00    -0.338 C  
HETATM    2  C   UNL     1     -10.138  14.423  66.228  1.00  0.00    -0.297 C  
HETATM    3  N   UNL     1     -10.229  13.398  65.281  1.00  0.00    -0.397 N  
HETATM    4  O   UNL     1     -10.576  14.336  67.366  1.00  0.00    -0.272 OA 
HETATM    5  H   UNL     1      -9.906  13.604  64.336  1.00  0.00     0.000 HD 
ENDROOT
BRANCH   3   6
HETATM    6  S   UNL     1     -10.821  11.872  65.569  1.00  0.00    -0.301 S  
HETATM    7  O   UNL     1     -12.199  12.077  65.966  1.00  0.00    -0.546 OA 
HETATM    8  O   UNL     1     -10.491  11.002  64.463  1.00  0.00    -0.330 OA 
BRANCH   6   9
HETATM    9  C   UNL     1      -9.920  11.360  67.009  1.00  0.00    -0.201 A  
HETATM   10  C   UNL     1     -10.616  10.961  68.153  1.00  0.00    -0.233 A  
HETATM   11  C   UNL     1      -9.907  10.540  69.281  1.00  0.00    -0.225 A  
HETATM   12  C   UNL     1      -8.508  10.547  69.291  1.00  0.00    -0.129 A  
HETATM   13  N   UNL     1      -7.814  10.019  70.385  1.00  0.00    -0.399 NA 
HETATM   14  C   UNL     1      -7.829  10.865  68.110  1.00  0.00    -0.114 A  
HETATM   15  H2  UNL     1      -8.133   9.063  70.538  1.00  0.00     0.000 HD 
HETATM   16  H1  UNL     1      -6.793  10.024  70.392  1.00  0.00     0.000 HD 
HETATM   17  C   UNL     1      -8.527  11.286  66.973  1.00  0.00    -0.150 A  
ENDBRANCH   6   9
ENDBRANCH   3   6
TORSDOF 2
ENDMDL
MODEL      139
REMARK 921   NORMALIZED FREE ENERGY PREDICTED BY IDOCK:   -3.32 KCAL/MOL
REMARK 922        TOTAL FREE ENERGY PREDICTED BY IDOCK:   -3.88 KCAL/MOL
REMARK 923 INTER-LIGAND FREE ENERGY PREDICTED BY IDOCK:   -3.98 KCAL/MOL
REMARK 924 INTRA-LIGAND FREE ENERGY PREDICTED BY IDOCK:    0.10 KCAL/MOL
REMARK 927      BINDING AFFINITY PREDICTED BY RF-SCORE:    0.00 PKD
ROOT
HETATM    1  C   UNL     1     -11.065   5.972  68.809  1.00  0.00    -0.329 C  
HETATM    2  C   UNL     1     -10.485   7.119  69.591  1.00  0.00    -0.229 C  
HETATM    3  N   UNL     1     -11.400   8.140  69.867  1.00  0.00    -0.455 N  
HETATM    4  O   UNL     1      -9.308   7.156  69.917  1.00  0.00    -0.151 OA 
HETATM    5  H   UNL     1     -12.338   8.047  69.478  1.00  0.00     0.000 HD 
ENDROOT
BRANCH   3   6
HETATM    6  S   UNL     1     -11.084   9.494  70.778  1.00  0.00    -0.352 S  
HETATM    7  O   UNL     1     -12.354   9.842  71.380  1.00  0.00    -0.346 OA 
HETATM    8  O   UNL     1      -9.914   9.271  71.597  1.00  0.00    -0.294 OA 
BRANCH   6   9
HETATM    9  C   UNL     1     -10.718  10.723  69.552  1.00  0.00    -0.226 A  
HETATM   10  C   UNL     1      -9.512  10.658  68.848  1.00  0.00    -0.199 A  
HETATM   11  C   UNL     1      -9.232  11.615  67.869  1.00  0.00    -0.171 A  
HETATM   12  C   UNL     1     -10.128  12.658  67.610  1.00  0.00    -0.218 A  
HETATM   13  N   UNL     1      -9.886  13.542  66.553  1.00  0.00    -0.284 NA 
HETATM   14  C   UNL     1     -11.366  12.657  68.261  1.00  0.00    -0.337 A  
HETATM   15  H2  UNL     1      -9.768  12.998  65.699  1.00  0.00     0.000 HD 
HETATM   16  H1  UNL     1     -10.539  14.302  66.364  1.00  0.00     0.000 HD 
HETATM   17  C   UNL     1     -11.661  11.704  69.241  1.00  0.00    -0.385 A  
ENDBRANCH   6   9
ENDBRANCH   3   6
TORSDOF 2
ENDMDL
MODEL      140
REMARK 921   NORMALIZED FREE ENERGY PREDICTED BY IDOCK:   -3.30 KCAL/MOL
REMARK 922        TOTAL FREE ENERGY PREDICTED BY IDOCK:   -3.85 KCAL/MOL
REMARK 923 INTER-LIGAND FREE ENERGY PREDICTED BY IDOCK:   -3.92 KCAL/MOL
REMARK 924 INTRA-LIGAND FREE ENERGY PREDICTED BY IDOCK:    0.06 KCAL/MOL
REMARK 927      BINDING AFFINITY PREDICTED BY RF-SCORE:    0.00 PKD
ROOT
HETATM    1  C   UNL     1     -12.717  10.566  71.068  1.00  0.00    -0.504 C  
HETATM    2  C   UNL     1     -12.200   9.306  71.706  1.00  0.00    -0.385 C  
HETATM    3  N   UNL     1     -10.807   9.252  71.816  1.00  0.00    -0.354 N  
HETATM    4  O   UNL     1     -12.944   8.402  72.060  1.00  0.00    -0.335 OA 
HETATM    5  H   UNL     1     -10.275  10.024  71.415  1.00  0.00     0.000 HD 
ENDROOT
BRANCH   3   6
HETATM    6  S   UNL     1      -9.946   8.032  72.547  1.00  0.00    -0.297 S  
HETATM    7  O   UNL     1      -8.693   8.644  72.938  1.00  0.00    -0.384 OA 
HETATM    8  O   UNL     1     -10.777   7.363  73.522  1.00  0.00    -0.385 OA 
BRANCH   6   9
HETATM    9  C   UNL     1      -9.606   6.924  71.204  1.00  0.00    -0.166 A  
HETATM   10  C   UNL     1     -10.295   5.712  71.119  1.00  0.00    -0.295 A  
HETATM   11  C   UNL     1     -10.041   4.847  70.050  1.00  0.00    -0.337 A  
HETATM   12  C   UNL     1      -9.079   5.165  69.086  1.00  0.00    -0.102 A  
HETATM   13  N   UNL     1      -8.915   4.344  67.965  1.00  0.00    -0.113 NA 
HETATM   14  C   UNL     1      -8.462   6.419  69.139  1.00  0.00    -0.122 A  
HETATM   15  H2  UNL     1      -9.817   4.248  67.500  1.00  0.00     0.000 HD 
HETATM   16  H1  UNL     1      -8.213   4.576  67.261  1.00  0.00     0.000 HD 
HETATM   17  C   UNL     1      -8.710   7.295  70.201  1.00  0.00    -0.140 A  
ENDBRANCH   6   9
ENDBRANCH   3   6
TORSDOF 2
ENDMDL
MODEL      141
REMARK 921   NORMALIZED FREE ENERGY PREDICTED BY IDOCK:   -3.29 KCAL/MOL
REMARK 922        TOTAL FREE ENERGY PREDICTED BY IDOCK:   -3.85 KCAL/MOL
REMARK 923 INTER-LIGAND FREE ENERGY PREDICTED BY IDOCK:   -4.13 KCAL/MOL
REMARK 924 INTRA-LIGAND FREE ENERGY PREDICTED BY IDOCK:    0.29 KCAL/MOL
REMARK 927      BINDING AFFINITY PREDICTED BY RF-SCORE:    0.00 PKD
ROOT
HETATM    1  C   UNL     1     -10.895  10.498  67.550  1.00  0.00    -0.357 C  
HETATM    2  C   UNL     1     -11.563  10.783  68.868  1.00  0.00    -0.291 C  
HETATM    3  N   UNL     1     -11.698   9.662  69.693  1.00  0.00    -0.445 N  
HETATM    4  O   UNL     1     -11.976  11.896  69.161  1.00  0.00    -0.306 OA 
HETATM    5  H   UNL     1     -11.392   8.765  69.318  1.00  0.00     0.000 HD 
ENDROOT
BRANCH   3   6
HETATM    6  S   UNL     1     -12.316   9.673  71.236  1.00  0.00    -0.382 S  
HETATM    7  O   UNL     1     -12.226  11.055  71.663  1.00  0.00    -0.186 OA 
HETATM    8  O   UNL     1     -13.579   8.972  71.263  1.00  0.00    -0.309 OA 
BRANCH   6   9
HETATM    9  C   UNL     1     -11.110   8.751  72.155  1.00  0.00    -0.336 A  
HETATM   10  C   UNL     1     -11.517   7.655  72.920  1.00  0.00    -0.342 A  
HETATM   11  C   UNL     1     -10.566   6.916  73.629  1.00  0.00    -0.371 A  
HETATM   12  C   UNL     1      -9.216   7.282  73.610  1.00  0.00    -0.219 A  
HETATM   13  N   UNL     1      -8.261   6.471  74.232  1.00  0.00    -0.123 NA 
HETATM   14  C   UNL     1      -8.815   8.327  72.770  1.00  0.00    -0.310 A  
HETATM   15  H2  UNL     1      -8.345   5.528  73.854  1.00  0.00     0.000 HD 
HETATM   16  H1  UNL     1      -7.277   6.738  74.218  1.00  0.00     0.000 HD 
HETATM   17  C   UNL     1      -9.756   9.072  72.053  1.00  0.00    -0.157 A  
ENDBRANCH   6   9
ENDBRANCH   3   6
TORSDOF 2
ENDMDL
MODEL      142
REMARK 921   NORMALIZED FREE ENERGY PREDICTED BY IDOCK:   -3.29 KCAL/MOL
REMARK 922        TOTAL FREE ENERGY PREDICTED BY IDOCK:   -3.84 KCAL/MOL
REMARK 923 INTER-LIGAND FREE ENERGY PREDICTED BY IDOCK:   -4.08 KCAL/MOL
REMARK 924 INTRA-LIGAND FREE ENERGY PREDICTED BY IDOCK:    0.24 KCAL/MOL
REMARK 927      BINDING AFFINITY PREDICTED BY RF-SCORE:    0.00 PKD
ROOT
HETATM    1  C   UNL     1      -6.947  12.247  68.709  1.00  0.00    -0.098 C  
HETATM    2  C   UNL     1      -8.232  11.829  68.050  1.00  0.00    -0.152 C  
HETATM    3  N   UNL     1      -9.274  11.565  68.945  1.00  0.00    -0.395 N  
HETATM    4  O   UNL     1      -8.331  11.701  66.838  1.00  0.00    -0.159 OA 
HETATM    5  H   UNL     1      -9.061  11.623  69.941  1.00  0.00     0.000 HD 
ENDROOT
BRANCH   3   6
HETATM    6  S   UNL     1     -10.830  11.165  68.520  1.00  0.00    -0.223 S  
HETATM    7  O   UNL     1     -11.020  11.754  67.211  1.00  0.00    -0.237 OA 
HETATM    8  O   UNL     1     -11.048   9.753  68.734  1.00  0.00    -0.189 OA 
BRANCH   6   9
HETATM    9  C   UNL     1     -11.809  12.093  69.672  1.00  0.00    -0.322 A  
HETATM   10  C   UNL     1     -12.234  11.490  70.859  1.00  0.00    -0.425 A  
HETATM   11  C   UNL     1     -12.990  12.227  71.775  1.00  0.00    -0.431 A  
HETATM   12  C   UNL     1     -13.355  13.549  71.503  1.00  0.00    -0.285 A  
HETATM   13  N   UNL     1     -14.015  14.307  72.475  1.00  0.00    -0.591 NA 
HETATM   14  C   UNL     1     -12.848  14.163  70.353  1.00  0.00    -0.256 A  
HETATM   15  H2  UNL     1     -13.455  14.297  73.327  1.00  0.00     0.000 HD 
HETATM   16  H1  UNL     1     -14.282  15.272  72.277  1.00  0.00     0.000 HD 
HETATM   17  C   UNL     1     -12.089  13.438  69.428  1.00  0.00    -0.321 A  
ENDBRANCH   6   9
ENDBRANCH   3   6
TORSDOF 2
ENDMDL
MODEL      143
REMARK 921   NORMALIZED FREE ENERGY PREDICTED BY IDOCK:   -3.28 KCAL/MOL
REMARK 922        TOTAL FREE ENERGY PREDICTED BY IDOCK:   -3.84 KCAL/MOL
REMARK 923 INTER-LIGAND FREE ENERGY PREDICTED BY IDOCK:   -4.29 KCAL/MOL
REMARK 924 INTRA-LIGAND FREE ENERGY PREDICTED BY IDOCK:    0.46 KCAL/MOL
REMARK 927      BINDING AFFINITY PREDICTED BY RF-SCORE:    0.00 PKD
ROOT
HETATM    1  C   UNL     1      -7.561  10.070  66.646  1.00  0.00    -0.104 C  
HETATM    2  C   UNL     1      -8.344  10.939  67.591  1.00  0.00    -0.116 C  
HETATM    3  N   UNL     1      -9.731  10.857  67.426  1.00  0.00    -0.167 N  
HETATM    4  O   UNL     1      -7.800  11.674  68.402  1.00  0.00    -0.124 OA 
HETATM    5  H   UNL     1     -10.078  10.274  66.665  1.00  0.00     0.000 HD 
ENDROOT
BRANCH   3   6
HETATM    6  S   UNL     1     -10.859  11.630  68.370  1.00  0.00    -0.235 S  
HETATM    7  O   UNL     1     -10.198  12.835  68.827  1.00  0.00    -0.187 OA 
HETATM    8  O   UNL     1     -12.120  11.699  67.669  1.00  0.00    -0.615 OA 
BRANCH   6   9
HETATM    9  C   UNL     1     -11.021  10.547  69.766  1.00  0.00    -0.294 A  
HETATM   10  C   UNL     1     -12.266  10.397  70.382  1.00  0.00    -0.389 A  
HETATM   11  C   UNL     1     -12.398   9.530  71.470  1.00  0.00    -0.465 A  
HETATM   12  C   UNL     1     -11.291   8.837  71.971  1.00  0.00    -0.371 A  
HETATM   13  N   UNL     1     -11.460   7.890  72.987  1.00  0.00    -0.548 NA 
HETATM   14  C   UNL     1     -10.074   8.931  71.289  1.00  0.00    -0.365 A  
HETATM   15  H2  UNL     1     -12.154   7.209  72.681  1.00  0.00     0.000 HD 
HETATM   16  H1  UNL     1     -10.653   7.384  73.353  1.00  0.00     0.000 HD 
HETATM   17  C   UNL     1      -9.928   9.794  70.198  1.00  0.00    -0.315 A  
ENDBRANCH   6   9
ENDBRANCH   3   6
TORSDOF 2
ENDMDL
MODEL      144
REMARK 921   NORMALIZED FREE ENERGY PREDICTED BY IDOCK:   -3.24 KCAL/MOL
REMARK 922        TOTAL FREE ENERGY PREDICTED BY IDOCK:   -3.79 KCAL/MOL
REMARK 923 INTER-LIGAND FREE ENERGY PREDICTED BY IDOCK:   -4.16 KCAL/MOL
REMARK 924 INTRA-LIGAND FREE ENERGY PREDICTED BY IDOCK:    0.37 KCAL/MOL
REMARK 927      BINDING AFFINITY PREDICTED BY RF-SCORE:    0.00 PKD
ROOT
HETATM    1  C   UNL     1     -11.595   8.564  72.105  1.00  0.00    -0.447 C  
HETATM    2  C   UNL     1     -10.597   8.874  71.024  1.00  0.00    -0.247 C  
HETATM    3  N   UNL     1     -11.108   8.765  69.726  1.00  0.00    -0.414 N  
HETATM    4  O   UNL     1      -9.435   9.161  71.273  1.00  0.00    -0.268 OA 
HETATM    5  H   UNL     1     -12.069   8.439  69.628  1.00  0.00     0.000 HD 
ENDROOT
BRANCH   3   6
HETATM    6  S   UNL     1     -10.277   9.122  68.332  1.00  0.00    -0.206 S  
HETATM    7  O   UNL     1      -8.879   9.067  68.708  1.00  0.00    -0.135 OA 
HETATM    8  O   UNL     1     -10.781   8.319  67.242  1.00  0.00    -0.289 OA 
BRANCH   6   9
HETATM    9  C   UNL     1     -10.688  10.824  68.048  1.00  0.00    -0.228 A  
HETATM   10  C   UNL     1     -10.468  11.386  66.787  1.00  0.00    -0.284 A  
HETATM   11  C   UNL     1     -10.809  12.722  66.558  1.00  0.00    -0.280 A  
HETATM   12  C   UNL     1     -11.336  13.513  67.584  1.00  0.00    -0.296 A  
HETATM   13  N   UNL     1     -11.775  14.812  67.311  1.00  0.00    -0.375 NA 
HETATM   14  C   UNL     1     -11.631  12.911  68.812  1.00  0.00    -0.351 A  
HETATM   15  H2  UNL     1     -12.457  14.769  66.555  1.00  0.00     0.000 HD 
HETATM   16  H1  UNL     1     -12.159  15.389  68.060  1.00  0.00     0.000 HD 
HETATM   17  C   UNL     1     -11.297  11.575  69.055  1.00  0.00    -0.339 A  
ENDBRANCH   6   9
ENDBRANCH   3   6
TORSDOF 2
ENDMDL
MODEL      145
REMARK 921   NORMALIZED FREE ENERGY PREDICTED BY IDOCK:   -3.22 KCAL/MOL
REMARK 922        TOTAL FREE ENERGY PREDICTED BY IDOCK:   -3.77 KCAL/MOL
REMARK 923 INTER-LIGAND FREE ENERGY PREDICTED BY IDOCK:   -3.62 KCAL/MOL
REMARK 924 INTRA-LIGAND FREE ENERGY PREDICTED BY IDOCK:   -0.15 KCAL/MOL
REMARK 927      BINDING AFFINITY PREDICTED BY RF-SCORE:    0.00 PKD
ROOT
HETATM    1  C   UNL     1      -9.637  20.454  68.224  1.00  0.00    -0.147 C  
HETATM    2  C   UNL     1      -8.581  19.401  68.414  1.00  0.00    -0.360 C  
HETATM    3  N   UNL     1      -8.951  18.132  67.955  1.00  0.00    -0.276 N  
HETATM    4  O   UNL     1      -7.511  19.641  68.954  1.00  0.00    -0.351 OA 
HETATM    5  H   UNL     1      -9.899  18.023  67.595  1.00  0.00     0.000 HD 
ENDROOT
BRANCH   3   6
HETATM    6  S   UNL     1      -7.973  16.788  67.950  1.00  0.00    -0.181 S  
HETATM    7  O   UNL     1      -7.054  17.001  66.851  1.00  0.00    -0.172 OA 
HETATM    8  O   UNL     1      -7.483  16.534  69.285  1.00  0.00    -0.240 OA 
BRANCH   6   9
HETATM    9  C   UNL     1      -9.084  15.489  67.474  1.00  0.00    -0.193 A  
HETATM   10  C   UNL     1     -10.447  15.607  67.761  1.00  0.00    -0.273 A  
HETATM   11  C   UNL     1     -11.325  14.593  67.369  1.00  0.00    -0.368 A  
HETATM   12  C   UNL     1     -10.851  13.445  66.725  1.00  0.00    -0.282 A  
HETATM   13  N   UNL     1     -11.753  12.491  66.241  1.00  0.00    -0.411 NA 
HETATM   14  C   UNL     1      -9.500  13.383  66.369  1.00  0.00    -0.230 A  
HETATM   15  H2  UNL     1     -12.414  12.958  65.622  1.00  0.00     0.000 HD 
HETATM   16  H1  UNL     1     -11.407  11.654  65.772  1.00  0.00     0.000 HD 
HETATM   17  C   UNL     1      -8.611  14.392  66.752  1.00  0.00    -0.139 A  
ENDBRANCH   6   9
ENDBRANCH   3   6
TORSDOF 2
ENDMDL
MODEL      146
REMARK 921   NORMALIZED FREE ENERGY PREDICTED BY IDOCK:   -3.22 KCAL/MOL
REMARK 922        TOTAL FREE ENERGY PREDICTED BY IDOCK:   -3.77 KCAL/MOL
REMARK 923 INTER-LIGAND FREE ENERGY PREDICTED BY IDOCK:   -3.76 KCAL/MOL
REMARK 924 INTRA-LIGAND FREE ENERGY PREDICTED BY IDOCK:   -0.00 KCAL/MOL
REMARK 927      BINDING AFFINITY PREDICTED BY RF-SCORE:    0.00 PKD
ROOT
HETATM    1  C   UNL     1     -10.321  17.601  67.037  1.00  0.00    -0.330 C  
HETATM    2  C   UNL     1     -10.548  16.503  66.034  1.00  0.00    -0.253 C  
HETATM    3  N   UNL     1     -10.393  15.214  66.555  1.00  0.00    -0.275 N  
HETATM    4  O   UNL     1     -10.809  16.734  64.863  1.00  0.00    -0.707 OA 
HETATM    5  H   UNL     1     -10.093  15.134  67.526  1.00  0.00     0.000 HD 
ENDROOT
BRANCH   3   6
HETATM    6  S   UNL     1     -10.657  13.801  65.720  1.00  0.00    -0.301 S  
HETATM    7  O   UNL     1     -12.041  13.465  65.987  1.00  0.00    -0.396 OA 
HETATM    8  O   UNL     1     -10.178  13.936  64.364  1.00  0.00    -0.337 OA 
BRANCH   6   9
HETATM    9  C   UNL     1      -9.645  12.630  66.588  1.00  0.00    -0.249 A  
HETATM   10  C   UNL     1      -8.861  13.059  67.661  1.00  0.00    -0.191 A  
HETATM   11  C   UNL     1      -8.078  12.133  68.357  1.00  0.00    -0.149 A  
HETATM   12  C   UNL     1      -8.043  10.790  67.969  1.00  0.00    -0.114 A  
HETATM   13  N   UNL     1      -7.344   9.856  68.741  1.00  0.00    -0.076 NA 
HETATM   14  C   UNL     1      -8.901  10.362  66.950  1.00  0.00    -0.141 A  
HETATM   15  H2  UNL     1      -7.689   9.906  69.699  1.00  0.00     0.000 HD 
HETATM   16  H1  UNL     1      -7.319   8.876  68.458  1.00  0.00     0.000 HD 
HETATM   17  C   UNL     1      -9.691  11.277  66.247  1.00  0.00    -0.246 A  
ENDBRANCH   6   9
ENDBRANCH   3   6
TORSDOF 2
ENDMDL
MODEL      147
REMARK 921   NORMALIZED FREE ENERGY PREDICTED BY IDOCK:   -3.21 KCAL/MOL
REMARK 922        TOTAL FREE ENERGY PREDICTED BY IDOCK:   -3.76 KCAL/MOL
REMARK 923 INTER-LIGAND FREE ENERGY PREDICTED BY IDOCK:   -3.88 KCAL/MOL
REMARK 924 INTRA-LIGAND FREE ENERGY PREDICTED BY IDOCK:    0.12 KCAL/MOL
REMARK 927      BINDING AFFINITY PREDICTED BY RF-SCORE:    0.00 PKD
ROOT
HETATM    1  C   UNL     1     -10.929  12.040  63.898  1.00  0.00    -0.465 C  
HETATM    2  C   UNL     1     -10.289  11.595  65.185  1.00  0.00    -0.279 C  
HETATM    3  N   UNL     1      -9.287  12.454  65.650  1.00  0.00    -0.441 N  
HETATM    4  O   UNL     1     -10.604  10.555  65.743  1.00  0.00    -0.176 OA 
HETATM    5  H   UNL     1      -9.046  13.253  65.064  1.00  0.00     0.000 HD 
ENDROOT
BRANCH   3   6
HETATM    6  S   UNL     1      -8.457  12.278  67.079  1.00  0.00    -0.159 S  
HETATM    7  O   UNL     1      -7.699  11.055  66.920  1.00  0.00    -0.126 OA 
HETATM    8  O   UNL     1      -7.797  13.518  67.418  1.00  0.00    -0.163 OA 
BRANCH   6   9
HETATM    9  C   UNL     1      -9.749  11.959  68.253  1.00  0.00    -0.200 A  
HETATM   10  C   UNL     1      -9.697  10.804  69.038  1.00  0.00    -0.201 A  
HETATM   11  C   UNL     1     -10.704  10.562  69.976  1.00  0.00    -0.282 A  
HETATM   12  C   UNL     1     -11.781  11.443  70.115  1.00  0.00    -0.328 A  
HETATM   13  N   UNL     1     -12.721  11.246  71.132  1.00  0.00    -0.401 NA 
HETATM   14  C   UNL     1     -11.771  12.636  69.384  1.00  0.00    -0.387 A  
HETATM   15  H2  UNL     1     -12.227  11.199  72.022  1.00  0.00     0.000 HD 
HETATM   16  H1  UNL     1     -13.507  11.889  71.233  1.00  0.00     0.000 HD 
HETATM   17  C   UNL     1     -10.768  12.893  68.444  1.00  0.00    -0.273 A  
ENDBRANCH   6   9
ENDBRANCH   3   6
TORSDOF 2
ENDMDL
MODEL      148
REMARK 921   NORMALIZED FREE ENERGY PREDICTED BY IDOCK:   -3.21 KCAL/MOL
REMARK 922        TOTAL FREE ENERGY PREDICTED BY IDOCK:   -3.76 KCAL/MOL
REMARK 923 INTER-LIGAND FREE ENERGY PREDICTED BY IDOCK:   -3.81 KCAL/MOL
REMARK 924 INTRA-LIGAND FREE ENERGY PREDICTED BY IDOCK:    0.04 KCAL/MOL
REMARK 927      BINDING AFFINITY PREDICTED BY RF-SCORE:    0.00 PKD
ROOT
HETATM    1  C   UNL     1      -6.761  13.317  69.664  1.00  0.00     0.071 C  
HETATM    2  C   UNL     1      -7.207  14.427  68.751  1.00  0.00    -0.128 C  
HETATM    3  N   UNL     1      -8.404  15.038  69.139  1.00  0.00    -0.229 N  
HETATM    4  O   UNL     1      -6.585  14.732  67.744  1.00  0.00    -0.146 OA 
HETATM    5  H   UNL     1      -8.885  14.652  69.951  1.00  0.00     0.000 HD 
ENDROOT
BRANCH   3   6
HETATM    6  S   UNL     1      -9.106  16.342  68.385  1.00  0.00    -0.222 S  
HETATM    7  O   UNL     1     -10.158  16.769  69.284  1.00  0.00    -0.271 OA 
HETATM    8  O   UNL     1      -8.084  17.266  67.951  1.00  0.00    -0.201 OA 
BRANCH   6   9
HETATM    9  C   UNL     1      -9.880  15.612  66.965  1.00  0.00    -0.233 A  
HETATM   10  C   UNL     1     -10.062  14.227  66.915  1.00  0.00    -0.264 A  
HETATM   11  C   UNL     1     -10.689  13.654  65.805  1.00  0.00    -0.280 A  
HETATM   12  C   UNL     1     -11.104  14.445  64.728  1.00  0.00    -0.394 A  
HETATM   13  N   UNL     1     -11.827  13.872  63.677  1.00  0.00    -0.688 NA 
HETATM   14  C   UNL     1     -10.993  15.835  64.834  1.00  0.00    -0.443 A  
HETATM   15  H2  UNL     1     -12.644  13.403  64.066  1.00  0.00     0.000 HD 
HETATM   16  H1  UNL     1     -12.130  14.449  62.892  1.00  0.00     0.000 HD 
HETATM   17  C   UNL     1     -10.370  16.423  65.940  1.00  0.00    -0.378 A  
ENDBRANCH   6   9
ENDBRANCH   3   6
TORSDOF 2
ENDMDL
MODEL      149
REMARK 921   NORMALIZED FREE ENERGY PREDICTED BY IDOCK:   -3.20 KCAL/MOL
REMARK 922        TOTAL FREE ENERGY PREDICTED BY IDOCK:   -3.74 KCAL/MOL
REMARK 923 INTER-LIGAND FREE ENERGY PREDICTED BY IDOCK:   -3.62 KCAL/MOL
REMARK 924 INTRA-LIGAND FREE ENERGY PREDICTED BY IDOCK:   -0.12 KCAL/MOL
REMARK 927      BINDING AFFINITY PREDICTED BY RF-SCORE:    0.00 PKD
ROOT
HETATM    1  C   UNL     1     -13.492   9.334  72.073  1.00  0.00    -0.519 C  
HETATM    2  C   UNL     1     -12.139   8.891  71.588  1.00  0.00    -0.346 C  
HETATM    3  N   UNL     1     -12.173   7.779  70.739  1.00  0.00    -0.504 N  
HETATM    4  O   UNL     1     -11.107   9.443  71.941  1.00  0.00    -0.344 OA 
HETATM    5  H   UNL     1     -13.081   7.345  70.573  1.00  0.00     0.000 HD 
ENDROOT
BRANCH   3   6
HETATM    6  S   UNL     1     -10.856   7.109  69.978  1.00  0.00    -0.259 S  
HETATM    7  O   UNL     1     -11.409   6.096  69.103  1.00  0.00    -0.399 OA 
HETATM    8  O   UNL     1     -10.008   8.155  69.455  1.00  0.00    -0.180 OA 
BRANCH   6   9
HETATM    9  C   UNL     1     -10.016   6.274  71.299  1.00  0.00    -0.180 A  
HETATM   10  C   UNL     1      -8.685   6.596  71.582  1.00  0.00    -0.130 A  
HETATM   11  C   UNL     1      -8.029   5.952  72.634  1.00  0.00    -0.105 A  
HETATM   12  C   UNL     1      -8.675   4.965  73.385  1.00  0.00    -0.104 A  
HETATM   13  N   UNL     1      -8.044   4.410  74.503  1.00  0.00    -0.087 NA 
HETATM   14  C   UNL     1     -10.032   4.719  73.145  1.00  0.00    -0.179 A  
HETATM   15  H2  UNL     1      -7.775   5.167  75.130  1.00  0.00     0.000 HD 
HETATM   16  H1  UNL     1      -8.516   3.690  75.051  1.00  0.00     0.000 HD 
HETATM   17  C   UNL     1     -10.702   5.358  72.097  1.00  0.00    -0.286 A  
ENDBRANCH   6   9
ENDBRANCH   3   6
TORSDOF 2
ENDMDL
MODEL      150
REMARK 921   NORMALIZED FREE ENERGY PREDICTED BY IDOCK:   -3.19 KCAL/MOL
REMARK 922        TOTAL FREE ENERGY PREDICTED BY IDOCK:   -3.74 KCAL/MOL
REMARK 923 INTER-LIGAND FREE ENERGY PREDICTED BY IDOCK:   -3.82 KCAL/MOL
REMARK 924 INTRA-LIGAND FREE ENERGY PREDICTED BY IDOCK:    0.08 KCAL/MOL
REMARK 927      BINDING AFFINITY PREDICTED BY RF-SCORE:    0.00 PKD
ROOT
HETATM    1  C   UNL     1      -8.196  11.387  67.461  1.00  0.00    -0.130 C  
HETATM    2  C   UNL     1      -9.316  12.384  67.341  1.00  0.00    -0.181 C  
HETATM    3  N   UNL     1      -9.940  12.690  68.555  1.00  0.00    -0.338 N  
HETATM    4  O   UNL     1      -9.660  12.850  66.265  1.00  0.00    -0.265 OA 
HETATM    5  H   UNL     1      -9.628  12.183  69.383  1.00  0.00     0.000 HD 
ENDROOT
BRANCH   3   6
HETATM    6  S   UNL     1     -11.149  13.812  68.759  1.00  0.00    -0.276 S  
HETATM    7  O   UNL     1     -12.003  13.652  67.600  1.00  0.00    -0.360 OA 
HETATM    8  O   UNL     1     -11.689  13.713  70.095  1.00  0.00    -0.276 OA 
BRANCH   6   9
HETATM    9  C   UNL     1     -10.293  15.356  68.583  1.00  0.00    -0.234 A  
HETATM   10  C   UNL     1     -10.951  16.449  68.012  1.00  0.00    -0.327 A  
HETATM   11  C   UNL     1     -10.283  17.670  67.891  1.00  0.00    -0.357 A  
HETATM   12  C   UNL     1      -8.953  17.803  68.301  1.00  0.00    -0.277 A  
HETATM   13  N   UNL     1      -8.334  19.058  68.276  1.00  0.00    -0.321 NA 
HETATM   14  C   UNL     1      -8.339  16.726  68.950  1.00  0.00    -0.222 A  
HETATM   15  H2  UNL     1      -8.904  19.708  68.815  1.00  0.00     0.000 HD 
HETATM   16  H1  UNL     1      -7.363  19.154  68.576  1.00  0.00     0.000 HD 
HETATM   17  C   UNL     1      -8.997  15.499  69.080  1.00  0.00    -0.256 A  
ENDBRANCH   6   9
ENDBRANCH   3   6
TORSDOF 2
ENDMDL
MODEL      151
REMARK 921   NORMALIZED FREE ENERGY PREDICTED BY IDOCK:   -3.15 KCAL/MOL
REMARK 922        TOTAL FREE ENERGY PREDICTED BY IDOCK:   -3.69 KCAL/MOL
REMARK 923 INTER-LIGAND FREE ENERGY PREDICTED BY IDOCK:   -3.51 KCAL/MOL
REMARK 924 INTRA-LIGAND FREE ENERGY PREDICTED BY IDOCK:   -0.18 KCAL/MOL
REMARK 927      BINDING AFFINITY PREDICTED BY RF-SCORE:    0.00 PKD
ROOT
HETATM    1  C   UNL     1      -6.028   7.517  74.202  1.00  0.00    -0.072 C  
HETATM    2  C   UNL     1      -6.988   6.386  73.953  1.00  0.00    -0.082 C  
HETATM    3  N   UNL     1      -8.244   6.793  73.492  1.00  0.00    -0.112 N  
HETATM    4  O   UNL     1      -6.691   5.221  74.174  1.00  0.00    -0.073 OA 
HETATM    5  H   UNL     1      -8.413   7.796  73.420  1.00  0.00     0.000 HD 
ENDROOT
BRANCH   3   6
HETATM    6  S   UNL     1      -9.483   5.777  73.051  1.00  0.00    -0.150 S  
HETATM    7  O   UNL     1      -8.954   5.003  71.947  1.00  0.00    -0.131 OA 
HETATM    8  O   UNL     1     -10.019   5.122  74.222  1.00  0.00    -0.173 OA 
BRANCH   6   9
HETATM    9  C   UNL     1     -10.696   6.891  72.392  1.00  0.00    -0.226 A  
HETATM   10  C   UNL     1     -11.921   6.389  71.943  1.00  0.00    -0.381 A  
HETATM   11  C   UNL     1     -12.884   7.268  71.441  1.00  0.00    -0.425 A  
HETATM   12  C   UNL     1     -12.624   8.639  71.350  1.00  0.00    -0.291 A  
HETATM   13  N   UNL     1     -13.636   9.519  70.950  1.00  0.00    -0.573 NA 
HETATM   14  C   UNL     1     -11.429   9.134  71.883  1.00  0.00    -0.423 A  
HETATM   15  H2  UNL     1     -14.440   9.384  71.561  1.00  0.00     0.000 HD 
HETATM   16  H1  UNL     1     -13.446  10.519  70.883  1.00  0.00     0.000 HD 
HETATM   17  C   UNL     1     -10.457   8.266  72.391  1.00  0.00    -0.404 A  
ENDBRANCH   6   9
ENDBRANCH   3   6
TORSDOF 2
ENDMDL
MODEL      152
REMARK 921   NORMALIZED FREE ENERGY PREDICTED BY IDOCK:   -3.14 KCAL/MOL
REMARK 922        TOTAL FREE ENERGY PREDICTED BY IDOCK:   -3.68 KCAL/MOL
REMARK 923 INTER-LIGAND FREE ENERGY PREDICTED BY IDOCK:   -3.80 KCAL/MOL
REMARK 924 INTRA-LIGAND FREE ENERGY PREDICTED BY IDOCK:    0.11 KCAL/MOL
REMARK 927      BINDING AFFINITY PREDICTED BY RF-SCORE:    0.00 PKD
ROOT
HETATM    1  C   UNL     1     -11.975  13.493  67.782  1.00  0.00    -0.369 C  
HETATM    2  C   UNL     1     -10.796  12.564  67.683  1.00  0.00    -0.225 C  
HETATM    3  N   UNL     1     -10.971  11.514  66.775  1.00  0.00    -0.283 N  
HETATM    4  O   UNL     1      -9.795  12.707  68.369  1.00  0.00    -0.226 OA 
HETATM    5  H   UNL     1     -11.878  11.440  66.314  1.00  0.00     0.000 HD 
ENDROOT
BRANCH   3   6
HETATM    6  S   UNL     1      -9.823  10.378  66.386  1.00  0.00    -0.223 S  
HETATM    7  O   UNL     1     -10.138   9.981  65.029  1.00  0.00    -0.323 OA 
HETATM    8  O   UNL     1      -8.509  10.873  66.725  1.00  0.00    -0.131 OA 
BRANCH   6   9
HETATM    9  C   UNL     1     -10.232   9.017  67.449  1.00  0.00    -0.245 A  
HETATM   10  C   UNL     1     -10.501   7.764  66.893  1.00  0.00    -0.388 A  
HETATM   11  C   UNL     1     -10.804   6.688  67.732  1.00  0.00    -0.372 A  
HETATM   12  C   UNL     1     -10.876   6.859  69.118  1.00  0.00    -0.228 A  
HETATM   13  N   UNL     1     -11.071   5.752  69.951  1.00  0.00    -0.339 NA 
HETATM   14  C   UNL     1     -10.518   8.097  69.662  1.00  0.00    -0.224 A  
HETATM   15  H2  UNL     1     -10.346   5.065  69.748  1.00  0.00     0.000 HD 
HETATM   16  H1  UNL     1     -11.123   5.876  70.962  1.00  0.00     0.000 HD 
HETATM   17  C   UNL     1     -10.209   9.181  68.835  1.00  0.00    -0.221 A  
ENDBRANCH   6   9
ENDBRANCH   3   6
TORSDOF 2
ENDMDL
MODEL      153
REMARK 921   NORMALIZED FREE ENERGY PREDICTED BY IDOCK:   -3.14 KCAL/MOL
REMARK 922        TOTAL FREE ENERGY PREDICTED BY IDOCK:   -3.68 KCAL/MOL
REMARK 923 INTER-LIGAND FREE ENERGY PREDICTED BY IDOCK:   -3.89 KCAL/MOL
REMARK 924 INTRA-LIGAND FREE ENERGY PREDICTED BY IDOCK:    0.20 KCAL/MOL
REMARK 927      BINDING AFFINITY PREDICTED BY RF-SCORE:    0.00 PKD
ROOT
HETATM    1  C   UNL     1     -10.549   7.628  73.112  1.00  0.00    -0.438 C  
HETATM    2  C   UNL     1     -11.067   8.169  71.808  1.00  0.00    -0.270 C  
HETATM    3  N   UNL     1     -10.259   9.159  71.240  1.00  0.00    -0.312 N  
HETATM    4  O   UNL     1     -12.122   7.791  71.319  1.00  0.00    -0.301 OA 
HETATM    5  H   UNL     1      -9.442   9.459  71.772  1.00  0.00     0.000 HD 
ENDROOT
BRANCH   3   6
HETATM    6  S   UNL     1     -10.520   9.887  69.769  1.00  0.00    -0.279 S  
HETATM    7  O   UNL     1      -9.219  10.371  69.357  1.00  0.00    -0.201 OA 
HETATM    8  O   UNL     1     -11.285   9.007  68.915  1.00  0.00     0.076 OA 
BRANCH   6   9
HETATM    9  C   UNL     1     -11.507  11.299  70.193  1.00  0.00    -0.247 A  
HETATM   10  C   UNL     1     -12.374  11.231  71.286  1.00  0.00    -0.375 A  
HETATM   11  C   UNL     1     -13.138  12.350  71.632  1.00  0.00    -0.408 A  
HETATM   12  C   UNL     1     -13.070  13.524  70.875  1.00  0.00    -0.075 A  
HETATM   13  N   UNL     1     -13.754  14.669  71.297  1.00  0.00    -0.409 NA 
HETATM   14  C   UNL     1     -12.133  13.604  69.839  1.00  0.00    -0.406 A  
HETATM   15  H2  UNL     1     -13.466  14.883  72.251  1.00  0.00     0.000 HD 
HETATM   16  H1  UNL     1     -13.705  15.526  70.745  1.00  0.00     0.000 HD 
HETATM   17  C   UNL     1     -11.361  12.493  69.484  1.00  0.00    -0.240 A  
ENDBRANCH   6   9
ENDBRANCH   3   6
TORSDOF 2
ENDMDL
MODEL      154
REMARK 921   NORMALIZED FREE ENERGY PREDICTED BY IDOCK:   -3.14 KCAL/MOL
REMARK 922        TOTAL FREE ENERGY PREDICTED BY IDOCK:   -3.68 KCAL/MOL
REMARK 923 INTER-LIGAND FREE ENERGY PREDICTED BY IDOCK:   -3.68 KCAL/MOL
REMARK 924 INTRA-LIGAND FREE ENERGY PREDICTED BY IDOCK:   -0.00 KCAL/MOL
REMARK 927      BINDING AFFINITY PREDICTED BY RF-SCORE:    0.00 PKD
ROOT
HETATM    1  C   UNL     1     -14.325   7.307  71.463  1.00  0.00    -0.558 C  
HETATM    2  C   UNL     1     -12.825   7.274  71.574  1.00  0.00    -0.388 C  
HETATM    3  N   UNL     1     -12.182   8.346  70.946  1.00  0.00    -0.486 N  
HETATM    4  O   UNL     1     -12.234   6.364  72.136  1.00  0.00    -0.318 OA 
HETATM    5  H   UNL     1     -12.766   9.008  70.435  1.00  0.00     0.000 HD 
ENDROOT
BRANCH   3   6
HETATM    6  S   UNL     1     -10.545   8.631  70.965  1.00  0.00    -0.238 S  
HETATM    7  O   UNL     1     -10.374   9.864  70.225  1.00  0.00    -0.265 OA 
HETATM    8  O   UNL     1     -10.041   8.502  72.314  1.00  0.00    -0.293 OA 
BRANCH   6   9
HETATM    9  C   UNL     1      -9.900   7.313  69.968  1.00  0.00    -0.175 A  
HETATM   10  C   UNL     1      -8.636   6.789  70.251  1.00  0.00    -0.140 A  
HETATM   11  C   UNL     1      -8.136   5.738  69.477  1.00  0.00    -0.108 A  
HETATM   12  C   UNL     1      -8.869   5.230  68.400  1.00  0.00    -0.101 A  
HETATM   13  N   UNL     1      -8.406   4.107  67.706  1.00  0.00    -0.094 NA 
HETATM   14  C   UNL     1     -10.167   5.707  68.186  1.00  0.00    -0.236 A  
HETATM   15  H2  UNL     1      -8.252   3.355  68.375  1.00  0.00     0.000 HD 
HETATM   16  H1  UNL     1      -8.941   3.736  66.920  1.00  0.00     0.000 HD 
HETATM   17  C   UNL     1     -10.681   6.756  68.955  1.00  0.00    -0.276 A  
ENDBRANCH   6   9
ENDBRANCH   3   6
TORSDOF 2
ENDMDL
MODEL      155
REMARK 921   NORMALIZED FREE ENERGY PREDICTED BY IDOCK:   -3.12 KCAL/MOL
REMARK 922        TOTAL FREE ENERGY PREDICTED BY IDOCK:   -3.65 KCAL/MOL
REMARK 923 INTER-LIGAND FREE ENERGY PREDICTED BY IDOCK:   -3.46 KCAL/MOL
REMARK 924 INTRA-LIGAND FREE ENERGY PREDICTED BY IDOCK:   -0.19 KCAL/MOL
REMARK 927      BINDING AFFINITY PREDICTED BY RF-SCORE:    0.00 PKD
ROOT
HETATM    1  C   UNL     1      -7.276   6.974  66.522  1.00  0.00    -0.082 C  
HETATM    2  C   UNL     1      -7.930   8.325  66.608  1.00  0.00    -0.098 C  
HETATM    3  N   UNL     1      -8.847   8.450  67.658  1.00  0.00    -0.136 N  
HETATM    4  O   UNL     1      -7.697   9.215  65.803  1.00  0.00    -0.093 OA 
HETATM    5  H   UNL     1      -9.028   7.620  68.222  1.00  0.00     0.000 HD 
ENDROOT
BRANCH   3   6
HETATM    6  S   UNL     1      -9.665   9.839  68.061  1.00  0.00    -0.147 S  
HETATM    7  O   UNL     1      -8.642  10.748  68.537  1.00  0.00    -0.133 OA 
HETATM    8  O   UNL     1     -10.546  10.220  66.980  1.00  0.00    -0.248 OA 
BRANCH   6   9
HETATM    9  C   UNL     1     -10.632   9.340  69.462  1.00  0.00    -0.224 A  
HETATM   10  C   UNL     1     -11.376  10.295  70.161  1.00  0.00    -0.388 A  
HETATM   11  C   UNL     1     -12.153   9.899  71.253  1.00  0.00    -0.485 A  
HETATM   12  C   UNL     1     -12.168   8.565  71.676  1.00  0.00    -0.322 A  
HETATM   13  N   UNL     1     -13.035   8.165  72.698  1.00  0.00    -0.580 NA 
HETATM   14  C   UNL     1     -11.489   7.611  70.911  1.00  0.00    -0.299 A  
HETATM   15  H2  UNL     1     -13.984   8.431  72.439  1.00  0.00     0.000 HD 
HETATM   16  H1  UNL     1     -13.046   7.192  73.006  1.00  0.00     0.000 HD 
HETATM   17  C   UNL     1     -10.709   7.993  69.815  1.00  0.00    -0.231 A  
ENDBRANCH   6   9
ENDBRANCH   3   6
TORSDOF 2
ENDMDL
MODEL      156
REMARK 921   NORMALIZED FREE ENERGY PREDICTED BY IDOCK:   -3.09 KCAL/MOL
REMARK 922        TOTAL FREE ENERGY PREDICTED BY IDOCK:   -3.62 KCAL/MOL
REMARK 923 INTER-LIGAND FREE ENERGY PREDICTED BY IDOCK:   -3.54 KCAL/MOL
REMARK 924 INTRA-LIGAND FREE ENERGY PREDICTED BY IDOCK:   -0.08 KCAL/MOL
REMARK 927      BINDING AFFINITY PREDICTED BY RF-SCORE:    0.00 PKD
ROOT
HETATM    1  C   UNL     1     -11.892  13.237  69.242  1.00  0.00    -0.383 C  
HETATM    2  C   UNL     1     -11.521  11.818  68.907  1.00  0.00    -0.297 C  
HETATM    3  N   UNL     1     -10.270  11.426  69.394  1.00  0.00    -0.433 N  
HETATM    4  O   UNL     1     -12.245  11.097  68.238  1.00  0.00    -0.613 OA 
HETATM    5  H   UNL     1      -9.710  12.132  69.871  1.00  0.00     0.000 HD 
ENDROOT
BRANCH   3   6
HETATM    6  S   UNL     1      -9.620   9.902  69.259  1.00  0.00    -0.217 S  
HETATM    7  O   UNL     1      -8.465   9.911  70.133  1.00  0.00    -0.191 OA 
HETATM    8  O   UNL     1     -10.660   8.910  69.418  1.00  0.00    -0.227 OA 
BRANCH   6   9
HETATM    9  C   UNL     1      -9.026   9.868  67.587  1.00  0.00    -0.128 A  
HETATM   10  C   UNL     1      -9.715   9.124  66.626  1.00  0.00    -0.287 A  
HETATM   11  C   UNL     1      -9.258   9.113  65.305  1.00  0.00    -0.243 A  
HETATM   12  C   UNL     1      -8.101   9.809  64.942  1.00  0.00    -0.140 A  
HETATM   13  N   UNL     1      -7.719   9.879  63.598  1.00  0.00    -0.137 NA 
HETATM   14  C   UNL     1      -7.475  10.618  65.896  1.00  0.00    -0.131 A  
HETATM   15  H2  UNL     1      -8.501  10.251  63.060  1.00  0.00     0.000 HD 
HETATM   16  H1  UNL     1      -6.874  10.387  63.333  1.00  0.00     0.000 HD 
HETATM   17  C   UNL     1      -7.923  10.640  67.221  1.00  0.00    -0.116 A  
ENDBRANCH   6   9
ENDBRANCH   3   6
TORSDOF 2
ENDMDL
MODEL      157
REMARK 921   NORMALIZED FREE ENERGY PREDICTED BY IDOCK:   -3.09 KCAL/MOL
REMARK 922        TOTAL FREE ENERGY PREDICTED BY IDOCK:   -3.62 KCAL/MOL
REMARK 923 INTER-LIGAND FREE ENERGY PREDICTED BY IDOCK:   -3.84 KCAL/MOL
REMARK 924 INTRA-LIGAND FREE ENERGY PREDICTED BY IDOCK:    0.22 KCAL/MOL
REMARK 927      BINDING AFFINITY PREDICTED BY RF-SCORE:    0.00 PKD
ROOT
HETATM    1  C   UNL     1      -8.395   5.341  74.141  1.00  0.00    -0.109 C  
HETATM    2  C   UNL     1      -9.826   5.641  73.789  1.00  0.00    -0.175 C  
HETATM    3  N   UNL     1      -9.976   6.557  72.743  1.00  0.00    -0.170 N  
HETATM    4  O   UNL     1     -10.763   5.145  74.396  1.00  0.00    -0.320 OA 
HETATM    5  H   UNL     1      -9.128   6.973  72.359  1.00  0.00     0.000 HD 
ENDROOT
BRANCH   3   6
HETATM    6  S   UNL     1     -11.424   7.024  72.074  1.00  0.00    -0.282 S  
HETATM    7  O   UNL     1     -12.304   5.889  72.263  1.00  0.00    -0.206 OA 
HETATM    8  O   UNL     1     -11.791   8.333  72.565  1.00  0.00    -0.387 OA 
BRANCH   6   9
HETATM    9  C   UNL     1     -11.049   7.129  70.343  1.00  0.00    -0.280 A  
HETATM   10  C   UNL     1     -11.230   6.007  69.529  1.00  0.00    -0.416 A  
HETATM   11  C   UNL     1     -10.952   6.095  68.162  1.00  0.00    -0.398 A  
HETATM   12  C   UNL     1     -10.462   7.280  67.606  1.00  0.00    -0.242 A  
HETATM   13  N   UNL     1     -10.294   7.386  66.221  1.00  0.00    -0.396 NA 
HETATM   14  C   UNL     1     -10.370   8.416  68.417  1.00  0.00    -0.239 A  
HETATM   15  H2  UNL     1     -11.181   7.162  65.771  1.00  0.00     0.000 HD 
HETATM   16  H1  UNL     1      -9.937   8.252  65.815  1.00  0.00     0.000 HD 
HETATM   17  C   UNL     1     -10.647   8.343  69.786  1.00  0.00    -0.221 A  
ENDBRANCH   6   9
ENDBRANCH   3   6
TORSDOF 2
ENDMDL
MODEL      158
REMARK 921   NORMALIZED FREE ENERGY PREDICTED BY IDOCK:   -3.09 KCAL/MOL
REMARK 922        TOTAL FREE ENERGY PREDICTED BY IDOCK:   -3.62 KCAL/MOL
REMARK 923 INTER-LIGAND FREE ENERGY PREDICTED BY IDOCK:   -3.75 KCAL/MOL
REMARK 924 INTRA-LIGAND FREE ENERGY PREDICTED BY IDOCK:    0.14 KCAL/MOL
REMARK 927      BINDING AFFINITY PREDICTED BY RF-SCORE:    0.00 PKD
ROOT
HETATM    1  C   UNL     1     -10.170  15.277  68.936  1.00  0.00    -0.232 C  
HETATM    2  C   UNL     1     -11.078  14.429  68.089  1.00  0.00    -0.264 C  
HETATM    3  N   UNL     1     -10.737  13.073  68.067  1.00  0.00    -0.226 N  
HETATM    4  O   UNL     1     -12.008  14.904  67.454  1.00  0.00    -0.309 OA 
HETATM    5  H   UNL     1      -9.893  12.795  68.567  1.00  0.00     0.000 HD 
ENDROOT
BRANCH   3   6
HETATM    6  S   UNL     1     -11.593  11.877  67.292  1.00  0.00    -0.248 S  
HETATM    7  O   UNL     1     -12.333  11.209  68.343  1.00  0.00    -0.556 OA 
HETATM    8  O   UNL     1     -12.275  12.429  66.144  1.00  0.00    -0.635 OA 
BRANCH   6   9
HETATM    9  C   UNL     1     -10.321  10.768  66.745  1.00  0.00    -0.243 A  
HETATM   10  C   UNL     1      -9.971   9.674  67.541  1.00  0.00    -0.231 A  
HETATM   11  C   UNL     1      -8.982   8.789  67.101  1.00  0.00    -0.146 A  
HETATM   12  C   UNL     1      -8.316   9.004  65.890  1.00  0.00    -0.125 A  
HETATM   13  N   UNL     1      -7.410   8.052  65.411  1.00  0.00    -0.067 NA 
HETATM   14  C   UNL     1      -8.740  10.053  65.066  1.00  0.00    -0.192 A  
HETATM   15  H2  UNL     1      -7.885   7.152  65.361  1.00  0.00     0.000 HD 
HETATM   16  H1  UNL     1      -6.924   8.209  64.527  1.00  0.00     0.000 HD 
HETATM   17  C   UNL     1      -9.730  10.944  65.493  1.00  0.00    -0.282 A  
ENDBRANCH   6   9
ENDBRANCH   3   6
TORSDOF 2
ENDMDL
MODEL      159
REMARK 921   NORMALIZED FREE ENERGY PREDICTED BY IDOCK:   -3.08 KCAL/MOL
REMARK 922        TOTAL FREE ENERGY PREDICTED BY IDOCK:   -3.61 KCAL/MOL
REMARK 923 INTER-LIGAND FREE ENERGY PREDICTED BY IDOCK:   -3.43 KCAL/MOL
REMARK 924 INTRA-LIGAND FREE ENERGY PREDICTED BY IDOCK:   -0.18 KCAL/MOL
REMARK 927      BINDING AFFINITY PREDICTED BY RF-SCORE:    0.00 PKD
ROOT
HETATM    1  C   UNL     1      -8.569  16.178  67.762  1.00  0.00    -0.172 C  
HETATM    2  C   UNL     1      -9.609  15.525  66.894  1.00  0.00    -0.228 C  
HETATM    3  N   UNL     1      -9.393  14.160  66.674  1.00  0.00    -0.289 N  
HETATM    4  O   UNL     1     -10.535  16.153  66.403  1.00  0.00    -0.301 OA 
HETATM    5  H   UNL     1      -8.544  13.752  67.063  1.00  0.00     0.000 HD 
ENDROOT
BRANCH   3   6
HETATM    6  S   UNL     1     -10.407  13.150  65.829  1.00  0.00    -0.291 S  
HETATM    7  O   UNL     1     -11.646  13.155  66.580  1.00  0.00    -0.323 OA 
HETATM    8  O   UNL     1     -10.391  13.500  64.427  1.00  0.00    -0.433 OA 
BRANCH   6   9
HETATM    9  C   UNL     1      -9.656  11.558  66.047  1.00  0.00    -0.228 A  
HETATM   10  C   UNL     1     -10.012  10.506  65.199  1.00  0.00    -0.375 A  
HETATM   11  C   UNL     1      -9.406   9.256  65.358  1.00  0.00    -0.292 A  
HETATM   12  C   UNL     1      -8.474   9.037  66.378  1.00  0.00    -0.120 A  
HETATM   13  N   UNL     1      -7.796   7.816  66.455  1.00  0.00    -0.099 NA 
HETATM   14  C   UNL     1      -8.065  10.123  67.160  1.00  0.00    -0.120 A  
HETATM   15  H2  UNL     1      -7.340   7.643  65.560  1.00  0.00     0.000 HD 
HETATM   16  H1  UNL     1      -7.115   7.656  67.199  1.00  0.00     0.000 HD 
HETATM   17  C   UNL     1      -8.661  11.379  67.009  1.00  0.00    -0.160 A  
ENDBRANCH   6   9
ENDBRANCH   3   6
TORSDOF 2
ENDMDL
MODEL      160
REMARK 921   NORMALIZED FREE ENERGY PREDICTED BY IDOCK:   -3.04 KCAL/MOL
REMARK 922        TOTAL FREE ENERGY PREDICTED BY IDOCK:   -3.57 KCAL/MOL
REMARK 923 INTER-LIGAND FREE ENERGY PREDICTED BY IDOCK:   -3.89 KCAL/MOL
REMARK 924 INTRA-LIGAND FREE ENERGY PREDICTED BY IDOCK:    0.33 KCAL/MOL
REMARK 927      BINDING AFFINITY PREDICTED BY RF-SCORE:    0.00 PKD
ROOT
HETATM    1  C   UNL     1      -9.887   4.957  70.119  1.00  0.00    -0.309 C  
HETATM    2  C   UNL     1     -10.896   6.072  70.118  1.00  0.00    -0.339 C  
HETATM    3  N   UNL     1     -11.120   6.640  71.377  1.00  0.00    -0.252 N  
HETATM    4  O   UNL     1     -11.485   6.417  69.104  1.00  0.00    -0.364 OA 
HETATM    5  H   UNL     1     -10.635   6.223  72.171  1.00  0.00     0.000 HD 
ENDROOT
BRANCH   3   6
HETATM    6  S   UNL     1     -12.110   7.939  71.683  1.00  0.00    -0.311 S  
HETATM    7  O   UNL     1     -13.389   7.574  71.110  1.00  0.00    -0.273 OA 
HETATM    8  O   UNL     1     -12.005   8.318  73.074  1.00  0.00    -0.265 OA 
BRANCH   6   9
HETATM    9  C   UNL     1     -11.415   9.219  70.671  1.00  0.00    -0.274 A  
HETATM   10  C   UNL     1     -10.061   9.169  70.329  1.00  0.00    -0.244 A  
HETATM   11  C   UNL     1      -9.517  10.167  69.515  1.00  0.00    -0.235 A  
HETATM   12  C   UNL     1     -10.304  11.234  69.069  1.00  0.00    -0.166 A  
HETATM   13  N   UNL     1      -9.775  12.163  68.166  1.00  0.00    -0.203 NA 
HETATM   14  C   UNL     1     -11.674  11.221  69.347  1.00  0.00    -0.409 A  
HETATM   15  H2  UNL     1      -9.424  11.659  67.353  1.00  0.00     0.000 HD 
HETATM   16  H1  UNL     1     -10.349  12.942  67.841  1.00  0.00     0.000 HD 
HETATM   17  C   UNL     1     -12.232  10.227  70.158  1.00  0.00    -0.251 A  
ENDBRANCH   6   9
ENDBRANCH   3   6
TORSDOF 2
ENDMDL
MODEL      161
REMARK 921   NORMALIZED FREE ENERGY PREDICTED BY IDOCK:   -3.02 KCAL/MOL
REMARK 922        TOTAL FREE ENERGY PREDICTED BY IDOCK:   -3.54 KCAL/MOL
REMARK 923 INTER-LIGAND FREE ENERGY PREDICTED BY IDOCK:   -3.41 KCAL/MOL
REMARK 924 INTRA-LIGAND FREE ENERGY PREDICTED BY IDOCK:   -0.14 KCAL/MOL
REMARK 927      BINDING AFFINITY PREDICTED BY RF-SCORE:    0.00 PKD
ROOT
HETATM    1  C   UNL     1     -12.566   9.940  71.198  1.00  0.00    -0.464 C  
HETATM    2  C   UNL     1     -11.302   9.822  70.391  1.00  0.00    -0.297 C  
HETATM    3  N   UNL     1     -11.433  10.238  69.061  1.00  0.00    -0.449 N  
HETATM    4  O   UNL     1     -10.269   9.368  70.861  1.00  0.00    -0.273 OA 
HETATM    5  H   UNL     1     -12.361  10.523  68.749  1.00  0.00     0.000 HD 
ENDROOT
BRANCH   3   6
HETATM    6  S   UNL     1     -10.200  10.304  67.949  1.00  0.00    -0.195 S  
HETATM    7  O   UNL     1     -10.822  10.787  66.733  1.00  0.00    -0.249 OA 
HETATM    8  O   UNL     1      -9.062  10.989  68.519  1.00  0.00    -0.160 OA 
BRANCH   6   9
HETATM    9  C   UNL     1      -9.794   8.595  67.700  1.00  0.00    -0.180 A  
HETATM   10  C   UNL     1      -8.497   8.149  67.964  1.00  0.00    -0.133 A  
HETATM   11  C   UNL     1      -8.182   6.799  67.786  1.00  0.00    -0.120 A  
HETATM   12  C   UNL     1      -9.140   5.896  67.315  1.00  0.00    -0.111 A  
HETATM   13  N   UNL     1      -8.843   4.531  67.248  1.00  0.00    -0.104 NA 
HETATM   14  C   UNL     1     -10.455   6.342  67.141  1.00  0.00    -0.327 A  
HETATM   15  H2  UNL     1      -8.536   4.223  68.170  1.00  0.00     0.000 HD 
HETATM   16  H1  UNL     1      -9.542   3.872  66.904  1.00  0.00     0.000 HD 
HETATM   17  C   UNL     1     -10.784   7.689  67.317  1.00  0.00    -0.344 A  
ENDBRANCH   6   9
ENDBRANCH   3   6
TORSDOF 2
ENDMDL
MODEL      162
REMARK 921   NORMALIZED FREE ENERGY PREDICTED BY IDOCK:   -2.95 KCAL/MOL
REMARK 922        TOTAL FREE ENERGY PREDICTED BY IDOCK:   -3.47 KCAL/MOL
REMARK 923 INTER-LIGAND FREE ENERGY PREDICTED BY IDOCK:   -3.44 KCAL/MOL
REMARK 924 INTRA-LIGAND FREE ENERGY PREDICTED BY IDOCK:   -0.03 KCAL/MOL
REMARK 927      BINDING AFFINITY PREDICTED BY RF-SCORE:    0.00 PKD
ROOT
HETATM    1  C   UNL     1     -11.158   6.476  67.717  1.00  0.00    -0.366 C  
HETATM    2  C   UNL     1     -11.018   6.508  69.214  1.00  0.00    -0.331 C  
HETATM    3  N   UNL     1     -11.483   7.687  69.806  1.00  0.00    -0.459 N  
HETATM    4  O   UNL     1     -10.508   5.590  69.841  1.00  0.00    -0.269 OA 
HETATM    5  H   UNL     1     -11.814   8.424  69.183  1.00  0.00     0.000 HD 
ENDROOT
BRANCH   3   6
HETATM    6  S   UNL     1     -11.538   7.987  71.440  1.00  0.00    -0.274 S  
HETATM    7  O   UNL     1     -12.268   9.232  71.564  1.00  0.00    -0.318 OA 
HETATM    8  O   UNL     1     -11.975   6.801  72.140  1.00  0.00    -0.299 OA 
BRANCH   6   9
HETATM    9  C   UNL     1      -9.842   8.317  71.842  1.00  0.00    -0.232 A  
HETATM   10  C   UNL     1      -8.990   8.835  70.864  1.00  0.00    -0.247 A  
HETATM   11  C   UNL     1      -7.658   9.113  71.186  1.00  0.00    -0.093 A  
HETATM   12  C   UNL     1      -7.161   8.846  72.466  1.00  0.00     0.223 A  
HETATM   13  N   UNL     1      -5.860   9.232  72.806  1.00  0.00    -0.278 NA 
HETATM   14  C   UNL     1      -8.049   8.411  73.455  1.00  0.00    -0.174 A  
HETATM   15  H2  UNL     1      -5.762  10.230  72.623  1.00  0.00     0.000 HD 
HETATM   16  H1  UNL     1      -5.496   9.038  73.739  1.00  0.00     0.000 HD 
HETATM   17  C   UNL     1      -9.384   8.132  73.147  1.00  0.00    -0.328 A  
ENDBRANCH   6   9
ENDBRANCH   3   6
TORSDOF 2
ENDMDL
MODEL      163
REMARK 921   NORMALIZED FREE ENERGY PREDICTED BY IDOCK:   -2.92 KCAL/MOL
REMARK 922        TOTAL FREE ENERGY PREDICTED BY IDOCK:   -3.43 KCAL/MOL
REMARK 923 INTER-LIGAND FREE ENERGY PREDICTED BY IDOCK:   -3.54 KCAL/MOL
REMARK 924 INTRA-LIGAND FREE ENERGY PREDICTED BY IDOCK:    0.10 KCAL/MOL
REMARK 927      BINDING AFFINITY PREDICTED BY RF-SCORE:    0.00 PKD
ROOT
HETATM    1  C   UNL     1     -10.975   3.962  73.796  1.00  0.00    -0.321 C  
HETATM    2  C   UNL     1     -10.951   4.854  72.586  1.00  0.00    -0.186 C  
HETATM    3  N   UNL     1     -11.787   5.971  72.684  1.00  0.00    -0.520 N  
HETATM    4  O   UNL     1     -10.281   4.594  71.598  1.00  0.00    -0.195 OA 
HETATM    5  H   UNL     1     -12.366   6.051  73.520  1.00  0.00     0.000 HD 
ENDROOT
BRANCH   3   6
HETATM    6  S   UNL     1     -11.915   7.180  71.550  1.00  0.00    -0.347 S  
HETATM    7  O   UNL     1     -12.135   6.490  70.295  1.00  0.00    -0.348 OA 
HETATM    8  O   UNL     1     -12.842   8.188  72.011  1.00  0.00    -0.324 OA 
BRANCH   6   9
HETATM    9  C   UNL     1     -10.278   7.861  71.506  1.00  0.00    -0.190 A  
HETATM   10  C   UNL     1      -9.534   7.944  72.686  1.00  0.00    -0.284 A  
HETATM   11  C   UNL     1      -8.237   8.463  72.649  1.00  0.00    -0.190 A  
HETATM   12  C   UNL     1      -7.687   8.932  71.452  1.00  0.00    -0.087 A  
HETATM   13  N   UNL     1      -6.352   9.345  71.409  1.00  0.00    -0.211 NA 
HETATM   14  C   UNL     1      -8.412   8.760  70.267  1.00  0.00    -0.154 A  
HETATM   15  H2  UNL     1      -5.768   8.584  71.755  1.00  0.00     0.000 HD 
HETATM   16  H1  UNL     1      -5.951   9.688  70.535  1.00  0.00     0.000 HD 
HETATM   17  C   UNL     1      -9.710   8.240  70.290  1.00  0.00    -0.177 A  
ENDBRANCH   6   9
ENDBRANCH   3   6
TORSDOF 2
ENDMDL
MODEL      164
REMARK 921   NORMALIZED FREE ENERGY PREDICTED BY IDOCK:   -2.90 KCAL/MOL
REMARK 922        TOTAL FREE ENERGY PREDICTED BY IDOCK:   -3.41 KCAL/MOL
REMARK 923 INTER-LIGAND FREE ENERGY PREDICTED BY IDOCK:   -3.40 KCAL/MOL
REMARK 924 INTRA-LIGAND FREE ENERGY PREDICTED BY IDOCK:   -0.01 KCAL/MOL
REMARK 927      BINDING AFFINITY PREDICTED BY RF-SCORE:    0.00 PKD
ROOT
HETATM    1  C   UNL     1     -10.907   5.497  66.534  1.00  0.00    -0.237 C  
HETATM    2  C   UNL     1     -10.167   6.710  67.026  1.00  0.00    -0.223 C  
HETATM    3  N   UNL     1     -10.958   7.859  67.129  1.00  0.00    -0.475 N  
HETATM    4  O   UNL     1      -8.970   6.686  67.275  1.00  0.00    -0.115 OA 
HETATM    5  H   UNL     1     -11.927   7.790  66.818  1.00  0.00     0.000 HD 
ENDROOT
BRANCH   3   6
HETATM    6  S   UNL     1     -10.450   9.328  67.718  1.00  0.00    -0.245 S  
HETATM    7  O   UNL     1      -9.191   9.581  67.048  1.00  0.00    -0.135 OA 
HETATM    8  O   UNL     1     -11.530  10.285  67.647  1.00  0.00    -0.345 OA 
BRANCH   6   9
HETATM    9  C   UNL     1     -10.089   8.973  69.418  1.00  0.00    -0.198 A  
HETATM   10  C   UNL     1      -8.775   9.079  69.881  1.00  0.00    -0.160 A  
HETATM   11  C   UNL     1      -8.494   8.817  71.225  1.00  0.00    -0.238 A  
HETATM   12  C   UNL     1      -9.506   8.417  72.104  1.00  0.00    -0.290 A  
HETATM   13  N   UNL     1      -9.231   8.267  73.467  1.00  0.00    -0.178 NA 
HETATM   14  C   UNL     1     -10.827   8.401  71.645  1.00  0.00    -0.335 A  
HETATM   15  H2  UNL     1      -8.830   9.138  73.813  1.00  0.00     0.000 HD 
HETATM   16  H1  UNL     1      -9.969   7.975  74.108  1.00  0.00     0.000 HD 
HETATM   17  C   UNL     1     -11.123   8.663  70.303  1.00  0.00    -0.230 A  
ENDBRANCH   6   9
ENDBRANCH   3   6
TORSDOF 2
ENDMDL
MODEL      165
REMARK 921   NORMALIZED FREE ENERGY PREDICTED BY IDOCK:   -2.89 KCAL/MOL
REMARK 922        TOTAL FREE ENERGY PREDICTED BY IDOCK:   -3.40 KCAL/MOL
REMARK 923 INTER-LIGAND FREE ENERGY PREDICTED BY IDOCK:   -3.79 KCAL/MOL
REMARK 924 INTRA-LIGAND FREE ENERGY PREDICTED BY IDOCK:    0.38 KCAL/MOL
REMARK 927      BINDING AFFINITY PREDICTED BY RF-SCORE:    0.00 PKD
ROOT
HETATM    1  C   UNL     1      -9.395   9.994  63.835  1.00  0.00    -0.315 C  
HETATM    2  C   UNL     1      -9.054  10.875  65.005  1.00  0.00    -0.190 C  
HETATM    3  N   UNL     1      -9.993  11.881  65.255  1.00  0.00    -0.250 N  
HETATM    4  O   UNL     1      -8.024  10.733  65.649  1.00  0.00    -0.156 OA 
HETATM    5  H   UNL     1     -10.776  11.962  64.607  1.00  0.00     0.000 HD 
ENDROOT
BRANCH   3   6
HETATM    6  S   UNL     1      -9.938  12.955  66.523  1.00  0.00    -0.264 S  
HETATM    7  O   UNL     1      -8.538  13.026  66.889  1.00  0.00    -0.194 OA 
HETATM    8  O   UNL     1     -10.676  14.150  66.184  1.00  0.00    -0.290 OA 
BRANCH   6   9
HETATM    9  C   UNL     1     -10.786  12.087  67.818  1.00  0.00    -0.210 A  
HETATM   10  C   UNL     1     -11.338  12.805  68.882  1.00  0.00    -0.344 A  
HETATM   11  C   UNL     1     -12.022  12.123  69.892  1.00  0.00    -0.380 A  
HETATM   12  C   UNL     1     -12.131  10.729  69.869  1.00  0.00    -0.337 A  
HETATM   13  N   UNL     1     -12.912  10.071  70.825  1.00  0.00    -0.544 NA 
HETATM   14  C   UNL     1     -11.649  10.036  68.753  1.00  0.00     0.051 A  
HETATM   15  H2  UNL     1     -13.850  10.468  70.803  1.00  0.00     0.000 HD 
HETATM   16  H1  UNL     1     -12.991   9.054  70.808  1.00  0.00     0.000 HD 
HETATM   17  C   UNL     1     -10.965  10.705  67.734  1.00  0.00    -0.364 A  
ENDBRANCH   6   9
ENDBRANCH   3   6
TORSDOF 2
ENDMDL
MODEL      166
REMARK 921   NORMALIZED FREE ENERGY PREDICTED BY IDOCK:   -2.87 KCAL/MOL
REMARK 922        TOTAL FREE ENERGY PREDICTED BY IDOCK:   -3.38 KCAL/MOL
REMARK 923 INTER-LIGAND FREE ENERGY PREDICTED BY IDOCK:   -3.26 KCAL/MOL
REMARK 924 INTRA-LIGAND FREE ENERGY PREDICTED BY IDOCK:   -0.12 KCAL/MOL
REMARK 927      BINDING AFFINITY PREDICTED BY RF-SCORE:    0.00 PKD
ROOT
HETATM    1  C   UNL     1      -8.817   8.694  71.581  1.00  0.00    -0.292 C  
HETATM    2  C   UNL     1      -9.205   8.197  70.216  1.00  0.00    -0.151 C  
HETATM    3  N   UNL     1      -9.187   9.183  69.224  1.00  0.00    -0.144 N  
HETATM    4  O   UNL     1      -9.539   7.039  70.014  1.00  0.00    -0.164 OA 
HETATM    5  H   UNL     1      -8.973  10.136  69.515  1.00  0.00     0.000 HD 
ENDROOT
BRANCH   3   6
HETATM    6  S   UNL     1      -9.485   8.928  67.609  1.00  0.00    -0.140 S  
HETATM    7  O   UNL     1      -8.252   8.377  67.085  1.00  0.00    -0.107 OA 
HETATM    8  O   UNL     1     -10.737   8.224  67.447  1.00  0.00    -0.270 OA 
BRANCH   6   9
HETATM    9  C   UNL     1      -9.650  10.575  66.969  1.00  0.00    -0.173 A  
HETATM   10  C   UNL     1      -9.175  11.656  67.716  1.00  0.00    -0.178 A  
HETATM   11  C   UNL     1      -9.287  12.951  67.204  1.00  0.00    -0.229 A  
HETATM   12  C   UNL     1      -9.902  13.182  65.969  1.00  0.00    -0.260 A  
HETATM   13  N   UNL     1      -9.908  14.469  65.420  1.00  0.00    -0.520 NA 
HETATM   14  C   UNL     1     -10.292  12.083  65.196  1.00  0.00    -0.313 A  
HETATM   15  H2  UNL     1      -8.946  14.801  65.368  1.00  0.00     0.000 HD 
HETATM   16  H1  UNL     1     -10.356  14.637  64.518  1.00  0.00     0.000 HD 
HETATM   17  C   UNL     1     -10.183  10.781  65.696  1.00  0.00    -0.320 A  
ENDBRANCH   6   9
ENDBRANCH   3   6
TORSDOF 2
ENDMDL
MODEL      167
REMARK 921   NORMALIZED FREE ENERGY PREDICTED BY IDOCK:   -2.82 KCAL/MOL
REMARK 922        TOTAL FREE ENERGY PREDICTED BY IDOCK:   -3.33 KCAL/MOL
REMARK 923 INTER-LIGAND FREE ENERGY PREDICTED BY IDOCK:   -3.30 KCAL/MOL
REMARK 924 INTRA-LIGAND FREE ENERGY PREDICTED BY IDOCK:   -0.02 KCAL/MOL
REMARK 927      BINDING AFFINITY PREDICTED BY RF-SCORE:    0.00 PKD
ROOT
HETATM    1  C   UNL     1      -6.949  11.289  68.533  1.00  0.00    -0.078 C  
HETATM    2  C   UNL     1      -8.149  10.612  69.135  1.00  0.00    -0.141 C  
HETATM    3  N   UNL     1      -9.359  10.934  68.511  1.00  0.00    -0.174 N  
HETATM    4  O   UNL     1      -8.062   9.874  70.106  1.00  0.00    -0.179 OA 
HETATM    5  H   UNL     1      -9.330  11.624  67.761  1.00  0.00     0.000 HD 
ENDROOT
BRANCH   3   6
HETATM    6  S   UNL     1     -10.841  10.285  68.893  1.00  0.00    -0.239 S  
HETATM    7  O   UNL     1     -10.914  10.351  70.338  1.00  0.00    -0.298 OA 
HETATM    8  O   UNL     1     -11.866  10.888  68.073  1.00  0.00    -0.585 OA 
BRANCH   6   9
HETATM    9  C   UNL     1     -10.656   8.578  68.445  1.00  0.00    -0.111 A  
HETATM   10  C   UNL     1     -10.313   8.244  67.132  1.00  0.00    -0.387 A  
HETATM   11  C   UNL     1     -10.149   6.901  66.783  1.00  0.00    -0.264 A  
HETATM   12  C   UNL     1     -10.359   5.886  67.722  1.00  0.00    -0.210 A  
HETATM   13  N   UNL     1     -10.083   4.555  67.389  1.00  0.00    -0.114 NA 
HETATM   14  C   UNL     1     -10.616   6.242  69.051  1.00  0.00    -0.322 A  
HETATM   15  H2  UNL     1      -9.119   4.498  67.063  1.00  0.00     0.000 HD 
HETATM   16  H1  UNL     1     -10.236   3.815  68.075  1.00  0.00     0.000 HD 
HETATM   17  C   UNL     1     -10.780   7.583  69.414  1.00  0.00    -0.200 A  
ENDBRANCH   6   9
ENDBRANCH   3   6
TORSDOF 2
ENDMDL
MODEL      168
REMARK 921   NORMALIZED FREE ENERGY PREDICTED BY IDOCK:   -2.81 KCAL/MOL
REMARK 922        TOTAL FREE ENERGY PREDICTED BY IDOCK:   -3.31 KCAL/MOL
REMARK 923 INTER-LIGAND FREE ENERGY PREDICTED BY IDOCK:   -3.49 KCAL/MOL
REMARK 924 INTRA-LIGAND FREE ENERGY PREDICTED BY IDOCK:    0.19 KCAL/MOL
REMARK 927      BINDING AFFINITY PREDICTED BY RF-SCORE:    0.00 PKD
ROOT
HETATM    1  C   UNL     1      -9.886   6.076  72.351  1.00  0.00    -0.179 C  
HETATM    2  C   UNL     1     -10.521   6.537  71.068  1.00  0.00    -0.222 C  
HETATM    3  N   UNL     1      -9.684   7.321  70.266  1.00  0.00    -0.176 N  
HETATM    4  O   UNL     1     -11.680   6.272  70.783  1.00  0.00    -0.340 OA 
HETATM    5  H   UNL     1      -8.763   7.551  70.636  1.00  0.00     0.000 HD 
ENDROOT
BRANCH   3   6
HETATM    6  S   UNL     1     -10.069   7.907  68.759  1.00  0.00    -0.196 S  
HETATM    7  O   UNL     1      -8.795   8.087  68.094  1.00  0.00    -0.132 OA 
HETATM    8  O   UNL     1     -11.105   7.093  68.166  1.00  0.00    -0.087 OA 
BRANCH   6   9
HETATM    9  C   UNL     1     -10.720   9.520  69.114  1.00  0.00    -0.210 A  
HETATM   10  C   UNL     1     -11.449   9.726  70.288  1.00  0.00    -0.317 A  
HETATM   11  C   UNL     1     -11.945  11.001  70.576  1.00  0.00    -0.474 A  
HETATM   12  C   UNL     1     -11.751  12.063  69.687  1.00  0.00    -0.335 A  
HETATM   13  N   UNL     1     -12.156  13.355  70.041  1.00  0.00    -0.339 NA 
HETATM   14  C   UNL     1     -10.945  11.859  68.562  1.00  0.00    -0.277 A  
HETATM   15  H2  UNL     1     -11.722  13.596  70.931  1.00  0.00     0.000 HD 
HETATM   16  H1  UNL     1     -12.014  14.130  69.392  1.00  0.00     0.000 HD 
HETATM   17  C   UNL     1     -10.440  10.590  68.263  1.00  0.00    -0.211 A  
ENDBRANCH   6   9
ENDBRANCH   3   6
TORSDOF 2
ENDMDL
MODEL      169
REMARK 921   NORMALIZED FREE ENERGY PREDICTED BY IDOCK:   -2.80 KCAL/MOL
REMARK 922        TOTAL FREE ENERGY PREDICTED BY IDOCK:   -3.30 KCAL/MOL
REMARK 923 INTER-LIGAND FREE ENERGY PREDICTED BY IDOCK:   -3.14 KCAL/MOL
REMARK 924 INTRA-LIGAND FREE ENERGY PREDICTED BY IDOCK:   -0.16 KCAL/MOL
REMARK 927      BINDING AFFINITY PREDICTED BY RF-SCORE:    0.00 PKD
ROOT
HETATM    1  C   UNL     1      -7.463   5.463  71.631  1.00  0.00    -0.091 C  
HETATM    2  C   UNL     1      -8.838   6.016  71.884  1.00  0.00    -0.138 C  
HETATM    3  N   UNL     1      -9.252   6.967  70.946  1.00  0.00    -0.157 N  
HETATM    4  O   UNL     1      -9.508   5.679  72.850  1.00  0.00    -0.148 OA 
HETATM    5  H   UNL     1      -8.583   7.236  70.225  1.00  0.00     0.000 HD 
ENDROOT
BRANCH   3   6
HETATM    6  S   UNL     1     -10.746   7.695  70.910  1.00  0.00    -0.239 S  
HETATM    7  O   UNL     1     -11.670   6.631  70.576  1.00  0.00    -0.369 OA 
HETATM    8  O   UNL     1     -10.933   8.489  72.102  1.00  0.00    -0.312 OA 
BRANCH   6   9
HETATM    9  C   UNL     1     -10.633   8.767  69.500  1.00  0.00    -0.219 A  
HETATM   10  C   UNL     1     -10.497  10.144  69.691  1.00  0.00    -0.282 A  
HETATM   11  C   UNL     1     -10.389  10.987  68.581  1.00  0.00    -0.209 A  
HETATM   12  C   UNL     1     -10.451  10.472  67.282  1.00  0.00    -0.250 A  
HETATM   13  N   UNL     1     -10.230  11.311  66.185  1.00  0.00    -0.237 NA 
HETATM   14  C   UNL     1     -10.499   9.084  67.111  1.00  0.00    -0.333 A  
HETATM   15  H2  UNL     1      -9.328  11.770  66.306  1.00  0.00     0.000 HD 
HETATM   16  H1  UNL     1     -10.275  10.935  65.237  1.00  0.00     0.000 HD 
HETATM   17  C   UNL     1     -10.605   8.229  68.213  1.00  0.00    -0.157 A  
ENDBRANCH   6   9
ENDBRANCH   3   6
TORSDOF 2
ENDMDL
MODEL      170
REMARK 921   NORMALIZED FREE ENERGY PREDICTED BY IDOCK:   -2.79 KCAL/MOL
REMARK 922        TOTAL FREE ENERGY PREDICTED BY IDOCK:   -3.29 KCAL/MOL
REMARK 923 INTER-LIGAND FREE ENERGY PREDICTED BY IDOCK:   -3.21 KCAL/MOL
REMARK 924 INTRA-LIGAND FREE ENERGY PREDICTED BY IDOCK:   -0.08 KCAL/MOL
REMARK 927      BINDING AFFINITY PREDICTED BY RF-SCORE:    0.00 PKD
ROOT
HETATM    1  C   UNL     1      -5.248  15.075  71.436  1.00  0.00    -0.114 C  
HETATM    2  C   UNL     1      -5.995  14.880  70.146  1.00  0.00    -0.149 C  
HETATM    3  N   UNL     1      -6.410  16.071  69.541  1.00  0.00    -0.172 N  
HETATM    4  O   UNL     1      -6.241  13.770  69.697  1.00  0.00    -0.111 OA 
HETATM    5  H   UNL     1      -6.224  16.940  70.041  1.00  0.00     0.000 HD 
ENDROOT
BRANCH   3   6
HETATM    6  S   UNL     1      -7.181  16.187  68.073  1.00  0.00    -0.136 S  
HETATM    7  O   UNL     1      -7.198  17.604  67.773  1.00  0.00    -0.184 OA 
HETATM    8  O   UNL     1      -6.607  15.241  67.143  1.00  0.00    -0.292 OA 
BRANCH   6   9
HETATM    9  C   UNL     1      -8.843  15.701  68.457  1.00  0.00    -0.187 A  
HETATM   10  C   UNL     1      -9.286  14.422  68.107  1.00  0.00    -0.199 A  
HETATM   11  C   UNL     1     -10.590  14.032  68.426  1.00  0.00    -0.259 A  
HETATM   12  C   UNL     1     -11.467  14.919  69.059  1.00  0.00    -0.301 A  
HETATM   13  N   UNL     1     -12.730  14.479  69.471  1.00  0.00    -0.527 NA 
HETATM   14  C   UNL     1     -10.981  16.161  69.479  1.00  0.00    -0.341 A  
HETATM   15  H2  UNL     1     -12.607  13.664  70.070  1.00  0.00     0.000 HD 
HETATM   16  H1  UNL     1     -13.370  15.125  69.933  1.00  0.00     0.000 HD 
HETATM   17  C   UNL     1      -9.678  16.563  69.169  1.00  0.00    -0.241 A  
ENDBRANCH   6   9
ENDBRANCH   3   6
TORSDOF 2
ENDMDL
MODEL      171
REMARK 921   NORMALIZED FREE ENERGY PREDICTED BY IDOCK:   -2.79 KCAL/MOL
REMARK 922        TOTAL FREE ENERGY PREDICTED BY IDOCK:   -3.29 KCAL/MOL
REMARK 923 INTER-LIGAND FREE ENERGY PREDICTED BY IDOCK:   -3.63 KCAL/MOL
REMARK 924 INTRA-LIGAND FREE ENERGY PREDICTED BY IDOCK:    0.34 KCAL/MOL
REMARK 927      BINDING AFFINITY PREDICTED BY RF-SCORE:    0.00 PKD
ROOT
HETATM    1  C   UNL     1     -10.571   7.103  73.466  1.00  0.00    -0.416 C  
HETATM    2  C   UNL     1      -9.551   7.714  72.545  1.00  0.00    -0.176 C  
HETATM    3  N   UNL     1      -9.530   7.154  71.264  1.00  0.00    -0.163 N  
HETATM    4  O   UNL     1      -8.791   8.599  72.911  1.00  0.00    -0.367 OA 
HETATM    5  H   UNL     1     -10.151   6.364  71.088  1.00  0.00     0.000 HD 
ENDROOT
BRANCH   3   6
HETATM    6  S   UNL     1      -8.575   7.669  70.004  1.00  0.00    -0.138 S  
HETATM    7  O   UNL     1      -7.483   8.382  70.633  1.00  0.00    -0.058 OA 
HETATM    8  O   UNL     1      -8.318   6.569  69.103  1.00  0.00    -0.117 OA 
BRANCH   6   9
HETATM    9  C   UNL     1      -9.600   8.868  69.192  1.00  0.00    -0.162 A  
HETATM   10  C   UNL     1     -10.139   9.926  69.928  1.00  0.00    -0.297 A  
HETATM   11  C   UNL     1     -10.930  10.882  69.285  1.00  0.00    -0.295 A  
HETATM   12  C   UNL     1     -11.219  10.771  67.921  1.00  0.00    -0.318 A  
HETATM   13  N   UNL     1     -11.919  11.792  67.269  1.00  0.00    -0.607 NA 
HETATM   14  C   UNL     1     -10.601   9.756  67.183  1.00  0.00    -0.298 A  
HETATM   15  H2  UNL     1     -11.426  12.671  67.423  1.00  0.00     0.000 HD 
HETATM   16  H1  UNL     1     -12.130  11.712  66.273  1.00  0.00     0.000 HD 
HETATM   17  C   UNL     1      -9.804   8.795  67.813  1.00  0.00    -0.217 A  
ENDBRANCH   6   9
ENDBRANCH   3   6
TORSDOF 2
ENDMDL
MODEL      172
REMARK 921   NORMALIZED FREE ENERGY PREDICTED BY IDOCK:   -2.78 KCAL/MOL
REMARK 922        TOTAL FREE ENERGY PREDICTED BY IDOCK:   -3.28 KCAL/MOL
REMARK 923 INTER-LIGAND FREE ENERGY PREDICTED BY IDOCK:   -3.16 KCAL/MOL
REMARK 924 INTRA-LIGAND FREE ENERGY PREDICTED BY IDOCK:   -0.12 KCAL/MOL
REMARK 927      BINDING AFFINITY PREDICTED BY RF-SCORE:    0.00 PKD
ROOT
HETATM    1  C   UNL     1     -11.926  11.602  70.351  1.00  0.00    -0.448 C  
HETATM    2  C   UNL     1     -11.483  10.168  70.256  1.00  0.00    -0.306 C  
HETATM    3  N   UNL     1     -11.535   9.472  71.469  1.00  0.00    -0.391 N  
HETATM    4  O   UNL     1     -11.082   9.678  69.210  1.00  0.00    -0.208 OA 
HETATM    5  H   UNL     1     -11.807   9.999  72.299  1.00  0.00     0.000 HD 
ENDROOT
BRANCH   3   6
HETATM    6  S   UNL     1     -11.189   7.859  71.668  1.00  0.00    -0.261 S  
HETATM    7  O   UNL     1     -11.298   7.629  73.094  1.00  0.00    -0.360 OA 
HETATM    8  O   UNL     1     -11.961   7.074  70.732  1.00  0.00    -0.349 OA 
BRANCH   6   9
HETATM    9  C   UNL     1      -9.470   7.764  71.240  1.00  0.00    -0.153 A  
HETATM   10  C   UNL     1      -9.064   6.922  70.202  1.00  0.00    -0.152 A  
HETATM   11  C   UNL     1      -7.712   6.861  69.852  1.00  0.00    -0.109 A  
HETATM   12  C   UNL     1      -6.757   7.605  70.553  1.00  0.00    -0.042 A  
HETATM   13  N   UNL     1      -5.426   7.619  70.121  1.00  0.00    -0.023 NA 
HETATM   14  C   UNL     1      -7.192   8.507  71.529  1.00  0.00    -0.104 A  
HETATM   15  H2  UNL     1      -5.407   7.909  69.144  1.00  0.00     0.000 HD 
HETATM   16  H1  UNL     1      -4.729   8.162  70.632  1.00  0.00     0.000 HD 
HETATM   17  C   UNL     1      -8.542   8.580  71.887  1.00  0.00    -0.254 A  
ENDBRANCH   6   9
ENDBRANCH   3   6
TORSDOF 2
ENDMDL
MODEL      173
REMARK 921   NORMALIZED FREE ENERGY PREDICTED BY IDOCK:   -2.78 KCAL/MOL
REMARK 922        TOTAL FREE ENERGY PREDICTED BY IDOCK:   -3.28 KCAL/MOL
REMARK 923 INTER-LIGAND FREE ENERGY PREDICTED BY IDOCK:   -3.37 KCAL/MOL
REMARK 924 INTRA-LIGAND FREE ENERGY PREDICTED BY IDOCK:    0.09 KCAL/MOL
REMARK 927      BINDING AFFINITY PREDICTED BY RF-SCORE:    0.00 PKD
ROOT
HETATM    1  C   UNL     1      -5.810  12.813  67.573  1.00  0.00    -0.132 C  
HETATM    2  C   UNL     1      -7.247  12.380  67.669  1.00  0.00    -0.130 C  
HETATM    3  N   UNL     1      -8.086  12.968  66.715  1.00  0.00    -0.398 N  
HETATM    4  O   UNL     1      -7.639  11.609  68.532  1.00  0.00    -0.114 OA 
HETATM    5  H   UNL     1      -7.672  13.661  66.092  1.00  0.00     0.000 HD 
ENDROOT
BRANCH   3   6
HETATM    6  S   UNL     1      -9.700  12.629  66.515  1.00  0.00    -0.259 S  
HETATM    7  O   UNL     1     -10.326  13.057  67.749  1.00  0.00    -0.219 OA 
HETATM    8  O   UNL     1     -10.153  13.138  65.241  1.00  0.00    -0.287 OA 
BRANCH   6   9
HETATM    9  C   UNL     1      -9.734  10.855  66.484  1.00  0.00    -0.198 A  
HETATM   10  C   UNL     1     -10.491  10.164  67.434  1.00  0.00    -0.310 A  
HETATM   11  C   UNL     1     -10.534   8.767  67.399  1.00  0.00    -0.349 A  
HETATM   12  C   UNL     1      -9.799   8.052  66.447  1.00  0.00    -0.167 A  
HETATM   13  N   UNL     1      -9.939   6.663  66.354  1.00  0.00    -0.395 NA 
HETATM   14  C   UNL     1      -9.119   8.762  65.452  1.00  0.00    -0.194 A  
HETATM   15  H2  UNL     1     -10.927   6.446  66.228  1.00  0.00     0.000 HD 
HETATM   16  H1  UNL     1      -9.403   6.142  65.659  1.00  0.00     0.000 HD 
HETATM   17  C   UNL     1      -9.070  10.159  65.473  1.00  0.00    -0.216 A  
ENDBRANCH   6   9
ENDBRANCH   3   6
TORSDOF 2
ENDMDL
MODEL      174
REMARK 921   NORMALIZED FREE ENERGY PREDICTED BY IDOCK:   -2.78 KCAL/MOL
REMARK 922        TOTAL FREE ENERGY PREDICTED BY IDOCK:   -3.27 KCAL/MOL
REMARK 923 INTER-LIGAND FREE ENERGY PREDICTED BY IDOCK:   -3.37 KCAL/MOL
REMARK 924 INTRA-LIGAND FREE ENERGY PREDICTED BY IDOCK:    0.10 KCAL/MOL
REMARK 927      BINDING AFFINITY PREDICTED BY RF-SCORE:    0.00 PKD
ROOT
HETATM    1  C   UNL     1     -10.406  14.477  65.979  1.00  0.00    -0.320 C  
HETATM    2  C   UNL     1      -9.043  14.623  66.597  1.00  0.00    -0.258 C  
HETATM    3  N   UNL     1      -8.571  15.939  66.634  1.00  0.00    -0.257 N  
HETATM    4  O   UNL     1      -8.402  13.661  66.994  1.00  0.00    -0.172 OA 
HETATM    5  H   UNL     1      -9.151  16.657  66.201  1.00  0.00     0.000 HD 
ENDROOT
BRANCH   3   6
HETATM    6  S   UNL     1      -7.141  16.429  67.327  1.00  0.00    -0.201 S  
HETATM    7  O   UNL     1      -7.514  16.931  68.633  1.00  0.00    -0.202 OA 
HETATM    8  O   UNL     1      -6.149  15.387  67.191  1.00  0.00    -0.306 OA 
BRANCH   6   9
HETATM    9  C   UNL     1      -6.673  17.821  66.332  1.00  0.00    -0.246 A  
HETATM   10  C   UNL     1      -5.530  17.744  65.531  1.00  0.00    -0.074 A  
HETATM   11  C   UNL     1      -5.172  18.833  64.733  1.00  0.00    -0.229 A  
HETATM   12  C   UNL     1      -5.923  20.013  64.752  1.00  0.00    -0.247 A  
HETATM   13  N   UNL     1      -5.617  21.052  63.867  1.00  0.00    -0.239 NA 
HETATM   14  C   UNL     1      -7.111  20.041  65.491  1.00  0.00    -0.336 A  
HETATM   15  H2  UNL     1      -5.626  20.680  62.918  1.00  0.00     0.000 HD 
HETATM   16  H1  UNL     1      -6.165  21.913  63.881  1.00  0.00     0.000 HD 
HETATM   17  C   UNL     1      -7.483  18.957  66.292  1.00  0.00    -0.288 A  
ENDBRANCH   6   9
ENDBRANCH   3   6
TORSDOF 2
ENDMDL
MODEL      175
REMARK 921   NORMALIZED FREE ENERGY PREDICTED BY IDOCK:   -2.76 KCAL/MOL
REMARK 922        TOTAL FREE ENERGY PREDICTED BY IDOCK:   -3.26 KCAL/MOL
REMARK 923 INTER-LIGAND FREE ENERGY PREDICTED BY IDOCK:   -3.07 KCAL/MOL
REMARK 924 INTRA-LIGAND FREE ENERGY PREDICTED BY IDOCK:   -0.18 KCAL/MOL
REMARK 927      BINDING AFFINITY PREDICTED BY RF-SCORE:    0.00 PKD
ROOT
HETATM    1  C   UNL     1      -7.567   8.847  68.687  1.00  0.00    -0.096 C  
HETATM    2  C   UNL     1      -8.794   9.038  69.536  1.00  0.00    -0.146 C  
HETATM    3  N   UNL     1      -9.194   7.889  70.227  1.00  0.00    -0.152 N  
HETATM    4  O   UNL     1      -9.397  10.100  69.580  1.00  0.00    -0.218 OA 
HETATM    5  H   UNL     1      -8.667   7.033  70.056  1.00  0.00     0.000 HD 
ENDROOT
BRANCH   3   6
HETATM    6  S   UNL     1     -10.456   7.806  71.305  1.00  0.00    -0.206 S  
HETATM    7  O   UNL     1     -10.039   8.617  72.430  1.00  0.00    -0.307 OA 
HETATM    8  O   UNL     1     -11.702   8.073  70.622  1.00  0.00    -0.254 OA 
BRANCH   6   9
HETATM    9  C   UNL     1     -10.424   6.110  71.826  1.00  0.00    -0.216 A  
HETATM   10  C   UNL     1     -11.171   5.717  72.939  1.00  0.00    -0.338 A  
HETATM   11  C   UNL     1     -11.160   4.378  73.339  1.00  0.00    -0.394 A  
HETATM   12  C   UNL     1     -10.383   3.434  72.660  1.00  0.00    -0.140 A  
HETATM   13  N   UNL     1     -10.469   2.080  73.002  1.00  0.00    -0.130 NA 
HETATM   14  C   UNL     1      -9.712   3.827  71.497  1.00  0.00    -0.241 A  
HETATM   15  H2  UNL     1     -11.445   1.794  72.944  1.00  0.00     0.000 HD 
HETATM   16  H1  UNL     1      -9.902   1.391  72.506  1.00  0.00     0.000 HD 
HETATM   17  C   UNL     1      -9.716   5.163  71.084  1.00  0.00    -0.235 A  
ENDBRANCH   6   9
ENDBRANCH   3   6
TORSDOF 2
ENDMDL
MODEL      176
REMARK 921   NORMALIZED FREE ENERGY PREDICTED BY IDOCK:   -2.75 KCAL/MOL
REMARK 922        TOTAL FREE ENERGY PREDICTED BY IDOCK:   -3.25 KCAL/MOL
REMARK 923 INTER-LIGAND FREE ENERGY PREDICTED BY IDOCK:   -3.17 KCAL/MOL
REMARK 924 INTRA-LIGAND FREE ENERGY PREDICTED BY IDOCK:   -0.08 KCAL/MOL
REMARK 927      BINDING AFFINITY PREDICTED BY RF-SCORE:    0.00 PKD
ROOT
HETATM    1  C   UNL     1     -10.512   4.658  66.049  1.00  0.00    -0.303 C  
HETATM    2  C   UNL     1      -9.765   5.448  67.088  1.00  0.00    -0.146 C  
HETATM    3  N   UNL     1      -9.667   4.810  68.329  1.00  0.00    -0.148 N  
HETATM    4  O   UNL     1      -9.319   6.564  66.862  1.00  0.00    -0.136 OA 
HETATM    5  H   UNL     1     -10.145   3.916  68.435  1.00  0.00     0.000 HD 
ENDROOT
BRANCH   3   6
HETATM    6  S   UNL     1      -8.835   5.390  69.646  1.00  0.00    -0.110 S  
HETATM    7  O   UNL     1      -8.813   4.289  70.586  1.00  0.00    -0.083 OA 
HETATM    8  O   UNL     1      -7.606   6.016  69.212  1.00  0.00    -0.089 OA 
BRANCH   6   9
HETATM    9  C   UNL     1      -9.928   6.628  70.294  1.00  0.00    -0.174 A  
HETATM   10  C   UNL     1     -11.290   6.343  70.428  1.00  0.00    -0.453 A  
HETATM   11  C   UNL     1     -12.148   7.311  70.957  1.00  0.00    -0.361 A  
HETATM   12  C   UNL     1     -11.667   8.573  71.320  1.00  0.00    -0.284 A  
HETATM   13  N   UNL     1     -12.515   9.490  71.950  1.00  0.00    -0.384 NA 
HETATM   14  C   UNL     1     -10.290   8.810  71.262  1.00  0.00    -0.331 A  
HETATM   15  H2  UNL     1     -12.913   9.047  72.777  1.00  0.00     0.000 HD 
HETATM   16  H1  UNL     1     -12.164  10.411  72.216  1.00  0.00     0.000 HD 
HETATM   17  C   UNL     1      -9.419   7.849  70.738  1.00  0.00    -0.163 A  
ENDBRANCH   6   9
ENDBRANCH   3   6
TORSDOF 2
ENDMDL
MODEL      177
REMARK 921   NORMALIZED FREE ENERGY PREDICTED BY IDOCK:   -2.73 KCAL/MOL
REMARK 922        TOTAL FREE ENERGY PREDICTED BY IDOCK:   -3.22 KCAL/MOL
REMARK 923 INTER-LIGAND FREE ENERGY PREDICTED BY IDOCK:   -3.17 KCAL/MOL
REMARK 924 INTRA-LIGAND FREE ENERGY PREDICTED BY IDOCK:   -0.05 KCAL/MOL
REMARK 927      BINDING AFFINITY PREDICTED BY RF-SCORE:    0.00 PKD
ROOT
HETATM    1  C   UNL     1      -6.733  10.107  65.651  1.00  0.00    -0.116 C  
HETATM    2  C   UNL     1      -8.054  10.725  66.021  1.00  0.00    -0.158 C  
HETATM    3  N   UNL     1      -7.973  11.671  67.049  1.00  0.00    -0.159 N  
HETATM    4  O   UNL     1      -9.101  10.393  65.485  1.00  0.00    -0.160 OA 
HETATM    5  H   UNL     1      -7.062  11.813  67.483  1.00  0.00     0.000 HD 
ENDROOT
BRANCH   3   6
HETATM    6  S   UNL     1      -9.241  12.581  67.620  1.00  0.00    -0.199 S  
HETATM    7  O   UNL     1      -8.625  13.600  68.444  1.00  0.00    -0.170 OA 
HETATM    8  O   UNL     1     -10.115  12.942  66.528  1.00  0.00    -0.249 OA 
BRANCH   6   9
HETATM    9  C   UNL     1     -10.084  11.455  68.701  1.00  0.00    -0.210 A  
HETATM   10  C   UNL     1      -9.347  10.531  69.446  1.00  0.00    -0.139 A  
HETATM   11  C   UNL     1     -10.010   9.657  70.312  1.00  0.00    -0.326 A  
HETATM   12  C   UNL     1     -11.404   9.673  70.416  1.00  0.00    -0.277 A  
HETATM   13  N   UNL     1     -12.044   8.871  71.367  1.00  0.00    -0.309 NA 
HETATM   14  C   UNL     1     -12.118  10.662  69.731  1.00  0.00    -0.343 A  
HETATM   15  H2  UNL     1     -11.650   9.081  72.283  1.00  0.00     0.000 HD 
HETATM   16  H1  UNL     1     -13.062   8.882  71.443  1.00  0.00     0.000 HD 
HETATM   17  C   UNL     1     -11.468  11.544  68.863  1.00  0.00    -0.352 A  
ENDBRANCH   6   9
ENDBRANCH   3   6
TORSDOF 2
ENDMDL
MODEL      178
REMARK 921   NORMALIZED FREE ENERGY PREDICTED BY IDOCK:   -2.71 KCAL/MOL
REMARK 922        TOTAL FREE ENERGY PREDICTED BY IDOCK:   -3.20 KCAL/MOL
REMARK 923 INTER-LIGAND FREE ENERGY PREDICTED BY IDOCK:   -3.26 KCAL/MOL
REMARK 924 INTRA-LIGAND FREE ENERGY PREDICTED BY IDOCK:    0.05 KCAL/MOL
REMARK 927      BINDING AFFINITY PREDICTED BY RF-SCORE:    0.00 PKD
ROOT
HETATM    1  C   UNL     1      -9.155   5.495  66.070  1.00  0.00    -0.162 C  
HETATM    2  C   UNL     1      -9.895   6.488  66.923  1.00  0.00    -0.164 C  
HETATM    3  N   UNL     1      -9.084   7.174  67.834  1.00  0.00    -0.129 N  
HETATM    4  O   UNL     1     -11.104   6.645  66.839  1.00  0.00    -0.400 OA 
HETATM    5  H   UNL     1      -8.101   6.907  67.878  1.00  0.00     0.000 HD 
ENDROOT
BRANCH   3   6
HETATM    6  S   UNL     1      -9.593   8.386  68.851  1.00  0.00    -0.155 S  
HETATM    7  O   UNL     1      -8.388   9.116  69.190  1.00  0.00    -0.117 OA 
HETATM    8  O   UNL     1     -10.730   9.065  68.273  1.00  0.00    -0.191 OA 
BRANCH   6   9
HETATM    9  C   UNL     1     -10.109   7.502  70.299  1.00  0.00    -0.194 A  
HETATM   10  C   UNL     1      -9.690   6.182  70.487  1.00  0.00    -0.203 A  
HETATM   11  C   UNL     1     -10.081   5.491  71.638  1.00  0.00    -0.249 A  
HETATM   12  C   UNL     1     -10.915   6.093  72.586  1.00  0.00    -0.256 A  
HETATM   13  N   UNL     1     -11.206   5.431  73.783  1.00  0.00    -0.422 NA 
HETATM   14  C   UNL     1     -11.252   7.441  72.425  1.00  0.00    -0.337 A  
HETATM   15  H2  UNL     1     -10.328   5.184  74.237  1.00  0.00     0.000 HD 
HETATM   16  H1  UNL     1     -11.815   5.870  74.474  1.00  0.00     0.000 HD 
HETATM   17  C   UNL     1     -10.865   8.145  71.280  1.00  0.00    -0.278 A  
ENDBRANCH   6   9
ENDBRANCH   3   6
TORSDOF 2
ENDMDL
MODEL      179
REMARK 921   NORMALIZED FREE ENERGY PREDICTED BY IDOCK:   -2.69 KCAL/MOL
REMARK 922        TOTAL FREE ENERGY PREDICTED BY IDOCK:   -3.18 KCAL/MOL
REMARK 923 INTER-LIGAND FREE ENERGY PREDICTED BY IDOCK:   -3.09 KCAL/MOL
REMARK 924 INTRA-LIGAND FREE ENERGY PREDICTED BY IDOCK:   -0.09 KCAL/MOL
REMARK 927      BINDING AFFINITY PREDICTED BY RF-SCORE:    0.00 PKD
ROOT
HETATM    1  C   UNL     1     -10.735   7.081  73.359  1.00  0.00    -0.379 C  
HETATM    2  C   UNL     1     -10.064   7.797  72.220  1.00  0.00    -0.220 C  
HETATM    3  N   UNL     1     -10.167   7.137  70.991  1.00  0.00    -0.196 N  
HETATM    4  O   UNL     1      -9.455   8.846  72.377  1.00  0.00    -0.315 OA 
HETATM    5  H   UNL     1     -10.626   6.227  70.985  1.00  0.00     0.000 HD 
ENDROOT
BRANCH   3   6
HETATM    6  S   UNL     1      -9.602   7.715  69.538  1.00  0.00    -0.163 S  
HETATM    7  O   UNL     1     -10.630   8.623  69.074  1.00  0.00    -0.217 OA 
HETATM    8  O   UNL     1      -8.235   8.159  69.686  1.00  0.00    -0.116 OA 
BRANCH   6   9
HETATM    9  C   UNL     1      -9.645   6.280  68.495  1.00  0.00    -0.126 A  
HETATM   10  C   UNL     1      -9.988   6.417  67.148  1.00  0.00    -0.197 A  
HETATM   11  C   UNL     1     -10.004   5.290  66.321  1.00  0.00    -0.216 A  
HETATM   12  C   UNL     1      -9.714   4.022  66.835  1.00  0.00    -0.185 A  
HETATM   13  N   UNL     1      -9.625   2.922  65.975  1.00  0.00    -0.384 NA 
HETATM   14  C   UNL     1      -9.288   3.916  68.163  1.00  0.00    -0.223 A  
HETATM   15  H2  UNL     1      -8.946   3.137  65.246  1.00  0.00     0.000 HD 
HETATM   16  H1  UNL     1      -9.414   1.997  66.349  1.00  0.00     0.000 HD 
HETATM   17  C   UNL     1      -9.265   5.036  69.000  1.00  0.00    -0.157 A  
ENDBRANCH   6   9
ENDBRANCH   3   6
TORSDOF 2
ENDMDL
MODEL      180
REMARK 921   NORMALIZED FREE ENERGY PREDICTED BY IDOCK:   -2.65 KCAL/MOL
REMARK 922        TOTAL FREE ENERGY PREDICTED BY IDOCK:   -3.13 KCAL/MOL
REMARK 923 INTER-LIGAND FREE ENERGY PREDICTED BY IDOCK:   -3.16 KCAL/MOL
REMARK 924 INTRA-LIGAND FREE ENERGY PREDICTED BY IDOCK:    0.03 KCAL/MOL
REMARK 927      BINDING AFFINITY PREDICTED BY RF-SCORE:    0.00 PKD
ROOT
HETATM    1  C   UNL     1      -6.185  12.588  67.384  1.00  0.00    -0.158 C  
HETATM    2  C   UNL     1      -7.176  13.560  67.962  1.00  0.00    -0.125 C  
HETATM    3  N   UNL     1      -7.879  14.297  67.002  1.00  0.00    -0.353 N  
HETATM    4  O   UNL     1      -7.318  13.707  69.167  1.00  0.00    -0.066 OA 
HETATM    5  H   UNL     1      -7.625  14.155  66.025  1.00  0.00     0.000 HD 
ENDROOT
BRANCH   3   6
HETATM    6  S   UNL     1      -9.093  15.385  67.324  1.00  0.00    -0.215 S  
HETATM    7  O   UNL     1      -9.845  15.479  66.090  1.00  0.00    -0.270 OA 
HETATM    8  O   UNL     1      -9.747  15.036  68.564  1.00  0.00    -0.204 OA 
BRANCH   6   9
HETATM    9  C   UNL     1      -8.214  16.913  67.532  1.00  0.00    -0.178 A  
HETATM   10  C   UNL     1      -8.205  17.850  66.496  1.00  0.00    -0.298 A  
HETATM   11  C   UNL     1      -7.529  19.061  66.667  1.00  0.00    -0.240 A  
HETATM   12  C   UNL     1      -6.832  19.332  67.849  1.00  0.00    -0.235 A  
HETATM   13  N   UNL     1      -6.255  20.590  68.049  1.00  0.00    -0.263 NA 
HETATM   14  C   UNL     1      -6.926  18.422  68.907  1.00  0.00    -0.297 A  
HETATM   15  H2  UNL     1      -6.978  21.299  67.931  1.00  0.00     0.000 HD 
HETATM   16  H1  UNL     1      -5.747  20.788  68.912  1.00  0.00     0.000 HD 
HETATM   17  C   UNL     1      -7.601  17.207  68.751  1.00  0.00    -0.259 A  
ENDBRANCH   6   9
ENDBRANCH   3   6
TORSDOF 2
ENDMDL
MODEL      181
REMARK 921   NORMALIZED FREE ENERGY PREDICTED BY IDOCK:   -2.62 KCAL/MOL
REMARK 922        TOTAL FREE ENERGY PREDICTED BY IDOCK:   -3.10 KCAL/MOL
REMARK 923 INTER-LIGAND FREE ENERGY PREDICTED BY IDOCK:   -3.02 KCAL/MOL
REMARK 924 INTRA-LIGAND FREE ENERGY PREDICTED BY IDOCK:   -0.08 KCAL/MOL
REMARK 927      BINDING AFFINITY PREDICTED BY RF-SCORE:    0.00 PKD
ROOT
HETATM    1  C   UNL     1     -10.268  20.227  69.692  1.00  0.00     0.157 C  
HETATM    2  C   UNL     1      -9.792  19.269  68.635  1.00  0.00    -0.431 C  
HETATM    3  N   UNL     1     -10.550  18.096  68.545  1.00  0.00    -0.343 N  
HETATM    4  O   UNL     1      -8.807  19.494  67.948  1.00  0.00    -0.308 OA 
HETATM    5  H   UNL     1     -11.302  17.972  69.222  1.00  0.00     0.000 HD 
ENDROOT
BRANCH   3   6
HETATM    6  S   UNL     1     -10.324  16.889  67.426  1.00  0.00    -0.305 S  
HETATM    7  O   UNL     1     -11.362  15.919  67.711  1.00  0.00    -0.299 OA 
HETATM    8  O   UNL     1     -10.191  17.463  66.106  1.00  0.00    -0.337 OA 
BRANCH   6   9
HETATM    9  C   UNL     1      -8.775  16.175  67.916  1.00  0.00    -0.174 A  
HETATM   10  C   UNL     1      -8.722  15.350  69.042  1.00  0.00    -0.231 A  
HETATM   11  C   UNL     1      -7.506  14.773  69.418  1.00  0.00    -0.147 A  
HETATM   12  C   UNL     1      -6.335  15.039  68.701  1.00  0.00    -0.088 A  
HETATM   13  N   UNL     1      -5.150  14.368  69.021  1.00  0.00    -0.082 NA 
HETATM   14  C   UNL     1      -6.423  15.795  67.527  1.00  0.00    -0.203 A  
HETATM   15  H2  UNL     1      -5.329  13.365  68.986  1.00  0.00     0.000 HD 
HETATM   16  H1  UNL     1      -4.296  14.562  68.498  1.00  0.00     0.000 HD 
HETATM   17  C   UNL     1      -7.634  16.377  67.138  1.00  0.00    -0.224 A  
ENDBRANCH   6   9
ENDBRANCH   3   6
TORSDOF 2
ENDMDL
MODEL      182
REMARK 921   NORMALIZED FREE ENERGY PREDICTED BY IDOCK:   -2.58 KCAL/MOL
REMARK 922        TOTAL FREE ENERGY PREDICTED BY IDOCK:   -3.06 KCAL/MOL
REMARK 923 INTER-LIGAND FREE ENERGY PREDICTED BY IDOCK:   -2.90 KCAL/MOL
REMARK 924 INTRA-LIGAND FREE ENERGY PREDICTED BY IDOCK:   -0.15 KCAL/MOL
REMARK 927      BINDING AFFINITY PREDICTED BY RF-SCORE:    0.00 PKD
ROOT
HETATM    1  C   UNL     1     -10.239  10.889  65.054  1.00  0.00    -0.367 C  
HETATM    2  C   UNL     1      -9.343   9.706  65.302  1.00  0.00    -0.260 C  
HETATM    3  N   UNL     1      -9.612   9.027  66.495  1.00  0.00    -0.202 N  
HETATM    4  O   UNL     1      -8.441   9.400  64.536  1.00  0.00    -0.155 OA 
HETATM    5  H   UNL     1     -10.333   9.415  67.103  1.00  0.00     0.000 HD 
ENDROOT
BRANCH   3   6
HETATM    6  S   UNL     1      -8.851   7.639  67.004  1.00  0.00    -0.132 S  
HETATM    7  O   UNL     1      -9.190   6.643  66.009  1.00  0.00    -0.130 OA 
HETATM    8  O   UNL     1      -7.472   7.926  67.324  1.00  0.00    -0.089 OA 
BRANCH   6   9
HETATM    9  C   UNL     1      -9.727   7.228  68.492  1.00  0.00    -0.149 A  
HETATM   10  C   UNL     1     -10.396   6.005  68.582  1.00  0.00    -0.264 A  
HETATM   11  C   UNL     1     -11.070   5.672  69.760  1.00  0.00    -0.170 A  
HETATM   12  C   UNL     1     -11.112   6.564  70.837  1.00  0.00    -0.292 A  
HETATM   13  N   UNL     1     -11.694   6.173  72.047  1.00  0.00    -0.316 NA 
HETATM   14  C   UNL     1     -10.365   7.744  70.762  1.00  0.00    -0.206 A  
HETATM   15  H2  UNL     1     -11.244   5.313  72.359  1.00  0.00     0.000 HD 
HETATM   16  H1  UNL     1     -11.725   6.823  72.833  1.00  0.00     0.000 HD 
HETATM   17  C   UNL     1      -9.684   8.088  69.590  1.00  0.00    -0.169 A  
ENDBRANCH   6   9
ENDBRANCH   3   6
TORSDOF 2
ENDMDL
MODEL      183
REMARK 921   NORMALIZED FREE ENERGY PREDICTED BY IDOCK:   -2.57 KCAL/MOL
REMARK 922        TOTAL FREE ENERGY PREDICTED BY IDOCK:   -3.04 KCAL/MOL
REMARK 923 INTER-LIGAND FREE ENERGY PREDICTED BY IDOCK:   -2.91 KCAL/MOL
REMARK 924 INTRA-LIGAND FREE ENERGY PREDICTED BY IDOCK:   -0.13 KCAL/MOL
REMARK 927      BINDING AFFINITY PREDICTED BY RF-SCORE:    0.00 PKD
ROOT
HETATM    1  C   UNL     1     -10.994  11.300  69.894  1.00  0.00    -0.096 C  
HETATM    2  C   UNL     1     -11.737  10.142  70.501  1.00  0.00    -0.322 C  
HETATM    3  N   UNL     1     -10.909   9.148  71.033  1.00  0.00    -0.264 N  
HETATM    4  O   UNL     1     -12.958  10.073  70.489  1.00  0.00    -0.235 OA 
HETATM    5  H   UNL     1      -9.903   9.265  70.917  1.00  0.00     0.000 HD 
ENDROOT
BRANCH   3   6
HETATM    6  S   UNL     1     -11.431   7.791  71.840  1.00  0.00    -0.292 S  
HETATM    7  O   UNL     1     -12.225   8.296  72.941  1.00  0.00    -0.256 OA 
HETATM    8  O   UNL     1     -11.988   6.846  70.899  1.00  0.00    -0.352 OA 
BRANCH   6   9
HETATM    9  C   UNL     1      -9.931   7.130  72.519  1.00  0.00    -0.168 A  
HETATM   10  C   UNL     1      -9.598   5.794  72.283  1.00  0.00    -0.164 A  
HETATM   11  C   UNL     1      -8.407   5.278  72.803  1.00  0.00    -0.113 A  
HETATM   12  C   UNL     1      -7.563   6.074  73.585  1.00  0.00    -0.096 A  
HETATM   13  N   UNL     1      -6.324   5.578  74.004  1.00  0.00    -0.067 NA 
HETATM   14  C   UNL     1      -7.869   7.430  73.737  1.00  0.00    -0.142 A  
HETATM   15  H2  UNL     1      -5.806   5.269  73.182  1.00  0.00     0.000 HD 
HETATM   16  H1  UNL     1      -5.708   6.158  74.575  1.00  0.00     0.000 HD 
HETATM   17  C   UNL     1      -9.055   7.960  73.220  1.00  0.00    -0.341 A  
ENDBRANCH   6   9
ENDBRANCH   3   6
TORSDOF 2
ENDMDL
MODEL      184
REMARK 921   NORMALIZED FREE ENERGY PREDICTED BY IDOCK:   -2.53 KCAL/MOL
REMARK 922        TOTAL FREE ENERGY PREDICTED BY IDOCK:   -3.00 KCAL/MOL
REMARK 923 INTER-LIGAND FREE ENERGY PREDICTED BY IDOCK:   -2.83 KCAL/MOL
REMARK 924 INTRA-LIGAND FREE ENERGY PREDICTED BY IDOCK:   -0.17 KCAL/MOL
REMARK 927      BINDING AFFINITY PREDICTED BY RF-SCORE:    0.00 PKD
ROOT
HETATM    1  C   UNL     1      -7.798   4.217  71.650  1.00  0.00    -0.078 C  
HETATM    2  C   UNL     1      -9.090   4.500  70.934  1.00  0.00    -0.131 C  
HETATM    3  N   UNL     1      -9.155   5.772  70.355  1.00  0.00    -0.144 N  
HETATM    4  O   UNL     1     -10.007   3.692  70.900  1.00  0.00    -0.149 OA 
HETATM    5  H   UNL     1      -8.366   6.399  70.513  1.00  0.00     0.000 HD 
ENDROOT
BRANCH   3   6
HETATM    6  S   UNL     1     -10.412   6.346  69.432  1.00  0.00    -0.256 S  
HETATM    7  O   UNL     1     -10.316   5.621  68.182  1.00  0.00    -0.181 OA 
HETATM    8  O   UNL     1     -11.634   6.329  70.204  1.00  0.00    -0.413 OA 
BRANCH   6   9
HETATM    9  C   UNL     1      -9.939   8.026  69.114  1.00  0.00    -0.188 A  
HETATM   10  C   UNL     1     -10.524   8.718  68.050  1.00  0.00    -0.260 A  
HETATM   11  C   UNL     1     -10.166  10.047  67.812  1.00  0.00    -0.235 A  
HETATM   12  C   UNL     1      -9.203  10.683  68.603  1.00  0.00    -0.181 A  
HETATM   13  N   UNL     1      -8.936  12.044  68.422  1.00  0.00    -0.259 NA 
HETATM   14  C   UNL     1      -8.694  10.005  69.715  1.00  0.00    -0.198 A  
HETATM   15  H2  UNL     1      -9.812  12.558  68.506  1.00  0.00     0.000 HD 
HETATM   16  H1  UNL     1      -8.234  12.507  69.000  1.00  0.00     0.000 HD 
HETATM   17  C   UNL     1      -9.046   8.675  69.968  1.00  0.00    -0.157 A  
ENDBRANCH   6   9
ENDBRANCH   3   6
TORSDOF 2
ENDMDL
MODEL      185
REMARK 921   NORMALIZED FREE ENERGY PREDICTED BY IDOCK:   -2.51 KCAL/MOL
REMARK 922        TOTAL FREE ENERGY PREDICTED BY IDOCK:   -2.98 KCAL/MOL
REMARK 923 INTER-LIGAND FREE ENERGY PREDICTED BY IDOCK:   -3.15 KCAL/MOL
REMARK 924 INTRA-LIGAND FREE ENERGY PREDICTED BY IDOCK:    0.17 KCAL/MOL
REMARK 927      BINDING AFFINITY PREDICTED BY RF-SCORE:    0.00 PKD
ROOT
HETATM    1  C   UNL     1     -10.571   4.608  65.384  1.00  0.00    -0.167 C  
HETATM    2  C   UNL     1      -9.658   4.653  66.578  1.00  0.00    -0.182 C  
HETATM    3  N   UNL     1      -9.932   3.679  67.543  1.00  0.00    -0.140 N  
HETATM    4  O   UNL     1      -8.780   5.496  66.695  1.00  0.00    -0.115 OA 
HETATM    5  H   UNL     1     -10.740   3.076  67.384  1.00  0.00     0.000 HD 
ENDROOT
BRANCH   3   6
HETATM    6  S   UNL     1      -9.051   3.422  68.929  1.00  0.00    -0.157 S  
HETATM    7  O   UNL     1      -9.373   2.068  69.329  1.00  0.00    -0.124 OA 
HETATM    8  O   UNL     1      -7.679   3.824  68.718  1.00  0.00    -0.054 OA 
BRANCH   6   9
HETATM    9  C   UNL     1      -9.813   4.520  70.095  1.00  0.00    -0.226 A  
HETATM   10  C   UNL     1      -9.477   4.430  71.448  1.00  0.00    -0.220 A  
HETATM   11  C   UNL     1     -10.063   5.307  72.365  1.00  0.00    -0.227 A  
HETATM   12  C   UNL     1     -11.008   6.251  71.949  1.00  0.00    -0.256 A  
HETATM   13  N   UNL     1     -11.502   7.194  72.857  1.00  0.00    -0.533 NA 
HETATM   14  C   UNL     1     -11.266   6.386  70.581  1.00  0.00    -0.400 A  
HETATM   15  H2  UNL     1     -10.712   7.688  73.269  1.00  0.00     0.000 HD 
HETATM   16  H1  UNL     1     -12.191   7.882  72.554  1.00  0.00     0.000 HD 
HETATM   17  C   UNL     1     -10.685   5.516  69.653  1.00  0.00    -0.349 A  
ENDBRANCH   6   9
ENDBRANCH   3   6
TORSDOF 2
ENDMDL
MODEL      186
REMARK 921   NORMALIZED FREE ENERGY PREDICTED BY IDOCK:   -2.50 KCAL/MOL
REMARK 922        TOTAL FREE ENERGY PREDICTED BY IDOCK:   -2.96 KCAL/MOL
REMARK 923 INTER-LIGAND FREE ENERGY PREDICTED BY IDOCK:   -2.99 KCAL/MOL
REMARK 924 INTRA-LIGAND FREE ENERGY PREDICTED BY IDOCK:    0.03 KCAL/MOL
REMARK 927      BINDING AFFINITY PREDICTED BY RF-SCORE:    0.00 PKD
ROOT
HETATM    1  C   UNL     1     -10.459   6.278  71.802  1.00  0.00    -0.249 C  
HETATM    2  C   UNL     1     -10.691   6.280  70.316  1.00  0.00    -0.280 C  
HETATM    3  N   UNL     1      -9.547   6.008  69.559  1.00  0.00    -0.141 N  
HETATM    4  O   UNL     1     -11.783   6.534  69.828  1.00  0.00    -0.382 OA 
HETATM    5  H   UNL     1      -8.669   5.891  70.063  1.00  0.00     0.000 HD 
ENDROOT
BRANCH   3   6
HETATM    6  S   UNL     1      -9.502   5.860  67.904  1.00  0.00    -0.112 S  
HETATM    7  O   UNL     1      -8.293   5.110  67.631  1.00  0.00    -0.106 OA 
HETATM    8  O   UNL     1     -10.783   5.400  67.418  1.00  0.00    -0.201 OA 
BRANCH   6   9
HETATM    9  C   UNL     1      -9.231   7.527  67.362  1.00  0.00    -0.132 A  
HETATM   10  C   UNL     1      -7.937   8.053  67.370  1.00  0.00    -0.122 A  
HETATM   11  C   UNL     1      -7.720   9.361  66.925  1.00  0.00    -0.091 A  
HETATM   12  C   UNL     1      -8.789  10.160  66.506  1.00  0.00    -0.140 A  
HETATM   13  N   UNL     1      -8.544  11.425  65.960  1.00  0.00    -0.316 NA 
HETATM   14  C   UNL     1     -10.063   9.589  66.421  1.00  0.00    -0.328 A  
HETATM   15  H2  UNL     1      -7.895  11.319  65.181  1.00  0.00     0.000 HD 
HETATM   16  H1  UNL     1      -9.323  12.008  65.653  1.00  0.00     0.000 HD 
HETATM   17  C   UNL     1     -10.293   8.281  66.861  1.00  0.00    -0.391 A  
ENDBRANCH   6   9
ENDBRANCH   3   6
TORSDOF 2
ENDMDL
MODEL      187
REMARK 921   NORMALIZED FREE ENERGY PREDICTED BY IDOCK:   -2.46 KCAL/MOL
REMARK 922        TOTAL FREE ENERGY PREDICTED BY IDOCK:   -2.92 KCAL/MOL
REMARK 923 INTER-LIGAND FREE ENERGY PREDICTED BY IDOCK:   -2.86 KCAL/MOL
REMARK 924 INTRA-LIGAND FREE ENERGY PREDICTED BY IDOCK:   -0.06 KCAL/MOL
REMARK 927      BINDING AFFINITY PREDICTED BY RF-SCORE:    0.00 PKD
ROOT
HETATM    1  C   UNL     1     -10.666  12.005  67.519  1.00  0.00    -0.262 C  
HETATM    2  C   UNL     1     -10.005  10.664  67.359  1.00  0.00    -0.181 C  
HETATM    3  N   UNL     1      -9.986   9.893  68.526  1.00  0.00    -0.155 N  
HETATM    4  O   UNL     1      -9.503  10.307  66.303  1.00  0.00    -0.165 OA 
HETATM    5  H   UNL     1     -10.361  10.319  69.374  1.00  0.00     0.000 HD 
ENDROOT
BRANCH   3   6
HETATM    6  S   UNL     1      -9.404   8.342  68.646  1.00  0.00    -0.143 S  
HETATM    7  O   UNL     1     -10.499   7.499  68.211  1.00  0.00    -0.197 OA 
HETATM    8  O   UNL     1      -8.108   8.255  68.012  1.00  0.00    -0.124 OA 
BRANCH   6   9
HETATM    9  C   UNL     1      -9.219   8.119  70.396  1.00  0.00    -0.151 A  
HETATM   10  C   UNL     1     -10.288   8.415  71.246  1.00  0.00    -0.272 A  
HETATM   11  C   UNL     1     -10.149   8.221  72.623  1.00  0.00    -0.365 A  
HETATM   12  C   UNL     1      -8.941   7.769  73.164  1.00  0.00    -0.213 A  
HETATM   13  N   UNL     1      -8.852   7.474  74.529  1.00  0.00    -0.422 NA 
HETATM   14  C   UNL     1      -7.912   7.395  72.293  1.00  0.00    -0.110 A  
HETATM   15  H2  UNL     1      -9.581   6.802  74.761  1.00  0.00     0.000 HD 
HETATM   16  H1  UNL     1      -7.971   7.144  74.924  1.00  0.00     0.000 HD 
HETATM   17  C   UNL     1      -8.039   7.580  70.912  1.00  0.00    -0.104 A  
ENDBRANCH   6   9
ENDBRANCH   3   6
TORSDOF 2
ENDMDL
MODEL      188
REMARK 921   NORMALIZED FREE ENERGY PREDICTED BY IDOCK:   -2.46 KCAL/MOL
REMARK 922        TOTAL FREE ENERGY PREDICTED BY IDOCK:   -2.92 KCAL/MOL
REMARK 923 INTER-LIGAND FREE ENERGY PREDICTED BY IDOCK:   -2.81 KCAL/MOL
REMARK 924 INTRA-LIGAND FREE ENERGY PREDICTED BY IDOCK:   -0.11 KCAL/MOL
REMARK 927      BINDING AFFINITY PREDICTED BY RF-SCORE:    0.00 PKD
ROOT
HETATM    1  C   UNL     1     -11.032  14.796  69.257  1.00  0.00    -0.275 C  
HETATM    2  C   UNL     1     -11.210  13.361  68.846  1.00  0.00    -0.276 C  
HETATM    3  N   UNL     1     -10.921  12.437  69.856  1.00  0.00    -0.297 N  
HETATM    4  O   UNL     1     -11.544  13.045  67.713  1.00  0.00    -0.298 OA 
HETATM    5  H   UNL     1     -10.571  12.805  70.740  1.00  0.00     0.000 HD 
ENDROOT
BRANCH   3   6
HETATM    6  S   UNL     1     -11.101  10.789  69.733  1.00  0.00    -0.270 S  
HETATM    7  O   UNL     1     -10.569  10.264  70.973  1.00  0.00     0.043 OA 
HETATM    8  O   UNL     1     -12.447  10.474  69.313  1.00  0.00    -0.232 OA 
BRANCH   6   9
HETATM    9  C   UNL     1      -9.965  10.360  68.439  1.00  0.00    -0.162 A  
HETATM   10  C   UNL     1      -8.604  10.637  68.596  1.00  0.00    -0.144 A  
HETATM   11  C   UNL     1      -7.707  10.282  67.586  1.00  0.00    -0.090 A  
HETATM   12  C   UNL     1      -8.158   9.684  66.404  1.00  0.00    -0.112 A  
HETATM   13  N   UNL     1      -7.238   9.234  65.452  1.00  0.00    -0.088 NA 
HETATM   14  C   UNL     1      -9.509   9.335  66.302  1.00  0.00    -0.284 A  
HETATM   15  H2  UNL     1      -6.589   8.595  65.908  1.00  0.00     0.000 HD 
HETATM   16  H1  UNL     1      -7.568   8.798  64.590  1.00  0.00     0.000 HD 
HETATM   17  C   UNL     1     -10.418   9.682  67.306  1.00  0.00    -0.323 A  
ENDBRANCH   6   9
ENDBRANCH   3   6
TORSDOF 2
ENDMDL
MODEL      189
REMARK 921   NORMALIZED FREE ENERGY PREDICTED BY IDOCK:   -2.41 KCAL/MOL
REMARK 922        TOTAL FREE ENERGY PREDICTED BY IDOCK:   -2.86 KCAL/MOL
REMARK 923 INTER-LIGAND FREE ENERGY PREDICTED BY IDOCK:   -2.69 KCAL/MOL
REMARK 924 INTRA-LIGAND FREE ENERGY PREDICTED BY IDOCK:   -0.17 KCAL/MOL
REMARK 927      BINDING AFFINITY PREDICTED BY RF-SCORE:    0.00 PKD
ROOT
HETATM    1  C   UNL     1      -6.164   6.309  65.639  1.00  0.00    -0.037 C  
HETATM    2  C   UNL     1      -6.991   7.564  65.683  1.00  0.00    -0.060 C  
HETATM    3  N   UNL     1      -7.993   7.553  66.659  1.00  0.00    -0.108 N  
HETATM    4  O   UNL     1      -6.814   8.489  64.904  1.00  0.00    -0.070 OA 
HETATM    5  H   UNL     1      -8.108   6.698  67.202  1.00  0.00     0.000 HD 
ENDROOT
BRANCH   3   6
HETATM    6  S   UNL     1      -9.012   8.820  67.007  1.00  0.00    -0.134 S  
HETATM    7  O   UNL     1      -8.158   9.833  67.593  1.00  0.00    -0.112 OA 
HETATM    8  O   UNL     1      -9.831   9.120  65.855  1.00  0.00    -0.286 OA 
BRANCH   6   9
HETATM    9  C   UNL     1     -10.033   8.166  68.301  1.00  0.00    -0.186 A  
HETATM   10  C   UNL     1     -10.444   6.831  68.248  1.00  0.00    -0.243 A  
HETATM   11  C   UNL     1     -11.233   6.311  69.277  1.00  0.00    -0.458 A  
HETATM   12  C   UNL     1     -11.646   7.119  70.342  1.00  0.00    -0.258 A  
HETATM   13  N   UNL     1     -12.341   6.557  71.418  1.00  0.00    -0.277 NA 
HETATM   14  C   UNL     1     -11.154   8.425  70.424  1.00  0.00    -0.240 A  
HETATM   15  H2  UNL     1     -11.787   5.788  71.794  1.00  0.00     0.000 HD 
HETATM   16  H1  UNL     1     -12.642   7.147  72.195  1.00  0.00     0.000 HD 
HETATM   17  C   UNL     1     -10.361   8.958  69.402  1.00  0.00    -0.217 A  
ENDBRANCH   6   9
ENDBRANCH   3   6
TORSDOF 2
ENDMDL
MODEL      190
REMARK 921   NORMALIZED FREE ENERGY PREDICTED BY IDOCK:   -2.40 KCAL/MOL
REMARK 922        TOTAL FREE ENERGY PREDICTED BY IDOCK:   -2.85 KCAL/MOL
REMARK 923 INTER-LIGAND FREE ENERGY PREDICTED BY IDOCK:   -3.06 KCAL/MOL
REMARK 924 INTRA-LIGAND FREE ENERGY PREDICTED BY IDOCK:    0.22 KCAL/MOL
REMARK 927      BINDING AFFINITY PREDICTED BY RF-SCORE:    0.00 PKD
ROOT
HETATM    1  C   UNL     1     -11.591   9.246  71.717  1.00  0.00    -0.458 C  
HETATM    2  C   UNL     1     -10.394   8.685  70.998  1.00  0.00    -0.217 C  
HETATM    3  N   UNL     1     -10.714   7.801  69.962  1.00  0.00    -0.243 N  
HETATM    4  O   UNL     1      -9.250   8.961  71.326  1.00  0.00    -0.219 OA 
HETATM    5  H   UNL     1     -11.699   7.577  69.825  1.00  0.00     0.000 HD 
ENDROOT
BRANCH   3   6
HETATM    6  S   UNL     1      -9.619   7.085  68.937  1.00  0.00    -0.140 S  
HETATM    7  O   UNL     1      -8.394   6.997  69.704  1.00  0.00    -0.129 OA 
HETATM    8  O   UNL     1     -10.204   5.907  68.340  1.00  0.00    -0.159 OA 
BRANCH   6   9
HETATM    9  C   UNL     1      -9.378   8.321  67.686  1.00  0.00    -0.137 A  
HETATM   10  C   UNL     1     -10.374   9.274  67.457  1.00  0.00    -0.323 A  
HETATM   11  C   UNL     1     -10.177  10.258  66.485  1.00  0.00    -0.289 A  
HETATM   12  C   UNL     1      -9.010  10.280  65.714  1.00  0.00    -0.161 A  
HETATM   13  N   UNL     1      -8.778  11.334  64.825  1.00  0.00    -0.371 NA 
HETATM   14  C   UNL     1      -7.988   9.374  66.017  1.00  0.00    -0.110 A  
HETATM   15  H2  UNL     1      -8.840  12.211  65.341  1.00  0.00     0.000 HD 
HETATM   16  H1  UNL     1      -7.927  11.350  64.262  1.00  0.00     0.000 HD 
HETATM   17  C   UNL     1      -8.171   8.385  66.989  1.00  0.00    -0.107 A  
ENDBRANCH   6   9
ENDBRANCH   3   6
TORSDOF 2
ENDMDL
MODEL      191
REMARK 921   NORMALIZED FREE ENERGY PREDICTED BY IDOCK:   -2.37 KCAL/MOL
REMARK 922        TOTAL FREE ENERGY PREDICTED BY IDOCK:   -2.82 KCAL/MOL
REMARK 923 INTER-LIGAND FREE ENERGY PREDICTED BY IDOCK:   -2.64 KCAL/MOL
REMARK 924 INTRA-LIGAND FREE ENERGY PREDICTED BY IDOCK:   -0.18 KCAL/MOL
REMARK 927      BINDING AFFINITY PREDICTED BY RF-SCORE:    0.00 PKD
ROOT
HETATM    1  C   UNL     1      -5.626   4.264  70.976  1.00  0.00    -0.012 C  
HETATM    2  C   UNL     1      -6.977   3.960  71.563  1.00  0.00    -0.031 C  
HETATM    3  N   UNL     1      -7.852   5.051  71.577  1.00  0.00    -0.107 N  
HETATM    4  O   UNL     1      -7.257   2.859  72.016  1.00  0.00    -0.037 OA 
HETATM    5  H   UNL     1      -7.489   5.946  71.250  1.00  0.00     0.000 HD 
ENDROOT
BRANCH   3   6
HETATM    6  S   UNL     1      -9.434   5.008  72.084  1.00  0.00    -0.143 S  
HETATM    7  O   UNL     1     -10.094   4.103  71.166  1.00  0.00    -0.169 OA 
HETATM    8  O   UNL     1      -9.486   4.781  73.510  1.00  0.00    -0.128 OA 
BRANCH   6   9
HETATM    9  C   UNL     1     -10.011   6.648  71.727  1.00  0.00    -0.175 A  
HETATM   10  C   UNL     1      -9.087   7.662  71.466  1.00  0.00    -0.150 A  
HETATM   11  C   UNL     1      -9.542   8.949  71.167  1.00  0.00    -0.342 A  
HETATM   12  C   UNL     1     -10.909   9.242  71.160  1.00  0.00    -0.337 A  
HETATM   13  N   UNL     1     -11.353  10.504  70.751  1.00  0.00    -0.382 NA 
HETATM   14  C   UNL     1     -11.821   8.196  71.337  1.00  0.00    -0.329 A  
HETATM   15  H2  UNL     1     -10.979  10.691  69.821  1.00  0.00     0.000 HD 
HETATM   16  H1  UNL     1     -12.351  10.718  70.746  1.00  0.00     0.000 HD 
HETATM   17  C   UNL     1     -11.380   6.903  71.635  1.00  0.00    -0.296 A  
ENDBRANCH   6   9
ENDBRANCH   3   6
TORSDOF 2
ENDMDL
MODEL      192
REMARK 921   NORMALIZED FREE ENERGY PREDICTED BY IDOCK:   -2.36 KCAL/MOL
REMARK 922        TOTAL FREE ENERGY PREDICTED BY IDOCK:   -2.81 KCAL/MOL
REMARK 923 INTER-LIGAND FREE ENERGY PREDICTED BY IDOCK:   -2.97 KCAL/MOL
REMARK 924 INTRA-LIGAND FREE ENERGY PREDICTED BY IDOCK:    0.16 KCAL/MOL
REMARK 927      BINDING AFFINITY PREDICTED BY RF-SCORE:    0.00 PKD
ROOT
HETATM    1  C   UNL     1     -12.104  10.861  69.904  1.00  0.00    -0.428 C  
HETATM    2  C   UNL     1     -10.698  10.477  69.533  1.00  0.00    -0.255 C  
HETATM    3  N   UNL     1      -9.990   9.843  70.559  1.00  0.00    -0.375 N  
HETATM    4  O   UNL     1     -10.221  10.734  68.438  1.00  0.00    -0.163 OA 
HETATM    5  H   UNL     1     -10.456   9.750  71.462  1.00  0.00     0.000 HD 
ENDROOT
BRANCH   3   6
HETATM    6  S   UNL     1      -8.451   9.229  70.429  1.00  0.00    -0.218 S  
HETATM    7  O   UNL     1      -7.779  10.107  69.494  1.00  0.00    -0.122 OA 
HETATM    8  O   UNL     1      -7.904   8.994  71.746  1.00  0.00    -0.333 OA 
BRANCH   6   9
HETATM    9  C   UNL     1      -8.709   7.675  69.613  1.00  0.00    -0.136 A  
HETATM   10  C   UNL     1      -9.913   6.991  69.799  1.00  0.00    -0.179 A  
HETATM   11  C   UNL     1     -10.125   5.776  69.142  1.00  0.00    -0.257 A  
HETATM   12  C   UNL     1      -9.132   5.219  68.328  1.00  0.00    -0.110 A  
HETATM   13  N   UNL     1      -9.399   4.061  67.590  1.00  0.00    -0.167 NA 
HETATM   14  C   UNL     1      -7.970   5.960  68.084  1.00  0.00    -0.109 A  
HETATM   15  H2  UNL     1     -10.228   4.227  67.020  1.00  0.00     0.000 HD 
HETATM   16  H1  UNL     1      -8.675   3.656  66.996  1.00  0.00     0.000 HD 
HETATM   17  C   UNL     1      -7.747   7.178  68.733  1.00  0.00    -0.116 A  
ENDBRANCH   6   9
ENDBRANCH   3   6
TORSDOF 2
ENDMDL
MODEL      193
REMARK 921   NORMALIZED FREE ENERGY PREDICTED BY IDOCK:   -2.32 KCAL/MOL
REMARK 922        TOTAL FREE ENERGY PREDICTED BY IDOCK:   -2.77 KCAL/MOL
REMARK 923 INTER-LIGAND FREE ENERGY PREDICTED BY IDOCK:   -3.01 KCAL/MOL
REMARK 924 INTRA-LIGAND FREE ENERGY PREDICTED BY IDOCK:    0.24 KCAL/MOL
REMARK 927      BINDING AFFINITY PREDICTED BY RF-SCORE:    0.00 PKD
ROOT
HETATM    1  C   UNL     1     -10.240   6.915  69.829  1.00  0.00    -0.210 C  
HETATM    2  C   UNL     1      -9.133   7.833  69.387  1.00  0.00    -0.146 C  
HETATM    3  N   UNL     1      -9.578   9.011  68.779  1.00  0.00    -0.151 N  
HETATM    4  O   UNL     1      -7.953   7.543  69.523  1.00  0.00    -0.120 OA 
HETATM    5  H   UNL     1     -10.583   9.117  68.642  1.00  0.00     0.000 HD 
ENDROOT
BRANCH   3   6
HETATM    6  S   UNL     1      -8.603  10.254  68.262  1.00  0.00    -0.125 S  
HETATM    7  O   UNL     1      -8.973  11.385  69.086  1.00  0.00     0.024 OA 
HETATM    8  O   UNL     1      -7.231   9.805  68.196  1.00  0.00    -0.078 OA 
BRANCH   6   9
HETATM    9  C   UNL     1      -9.198  10.570  66.620  1.00  0.00    -0.156 A  
HETATM   10  C   UNL     1     -10.172  11.551  66.417  1.00  0.00    -0.261 A  
HETATM   11  C   UNL     1     -10.627  11.814  65.122  1.00  0.00    -0.332 A  
HETATM   12  C   UNL     1     -10.144  11.082  64.032  1.00  0.00    -0.350 A  
HETATM   13  N   UNL     1     -10.526  11.431  62.732  1.00  0.00    -0.660 NA 
HETATM   14  C   UNL     1      -9.108  10.167  64.242  1.00  0.00    -0.288 A  
HETATM   15  H2  UNL     1     -10.303  12.414  62.583  1.00  0.00     0.000 HD 
HETATM   16  H1  UNL     1     -10.174  10.897  61.936  1.00  0.00     0.000 HD 
HETATM   17  C   UNL     1      -8.641   9.896  65.532  1.00  0.00    -0.157 A  
ENDBRANCH   6   9
ENDBRANCH   3   6
TORSDOF 2
ENDMDL
MODEL      194
REMARK 921   NORMALIZED FREE ENERGY PREDICTED BY IDOCK:   -2.31 KCAL/MOL
REMARK 922        TOTAL FREE ENERGY PREDICTED BY IDOCK:   -2.76 KCAL/MOL
REMARK 923 INTER-LIGAND FREE ENERGY PREDICTED BY IDOCK:   -2.57 KCAL/MOL
REMARK 924 INTRA-LIGAND FREE ENERGY PREDICTED BY IDOCK:   -0.18 KCAL/MOL
REMARK 927      BINDING AFFINITY PREDICTED BY RF-SCORE:    0.00 PKD
ROOT
HETATM    1  C   UNL     1     -10.507   4.753  66.213  1.00  0.00    -0.311 C  
HETATM    2  C   UNL     1      -9.518   5.312  67.198  1.00  0.00    -0.127 C  
HETATM    3  N   UNL     1      -9.273   6.681  67.046  1.00  0.00    -0.131 N  
HETATM    4  O   UNL     1      -8.960   4.611  68.030  1.00  0.00    -0.107 OA 
HETATM    5  H   UNL     1      -9.730   7.154  66.268  1.00  0.00     0.000 HD 
ENDROOT
BRANCH   3   6
HETATM    6  S   UNL     1      -8.298   7.598  68.031  1.00  0.00    -0.124 S  
HETATM    7  O   UNL     1      -8.922   7.535  69.336  1.00  0.00    -0.140 OA 
HETATM    8  O   UNL     1      -6.917   7.209  67.853  1.00  0.00    -0.074 OA 
BRANCH   6   9
HETATM    9  C   UNL     1      -8.532   9.241  67.404  1.00  0.00    -0.122 A  
HETATM   10  C   UNL     1      -9.502   9.475  66.426  1.00  0.00    -0.251 A  
HETATM   11  C   UNL     1      -9.700  10.772  65.946  1.00  0.00    -0.272 A  
HETATM   12  C   UNL     1      -8.914  11.834  66.407  1.00  0.00    -0.201 A  
HETATM   13  N   UNL     1      -9.197  13.142  66.000  1.00  0.00    -0.467 NA 
HETATM   14  C   UNL     1      -8.009  11.598  67.448  1.00  0.00    -0.147 A  
HETATM   15  H2  UNL     1     -10.172  13.344  66.219  1.00  0.00     0.000 HD 
HETATM   16  H1  UNL     1      -8.624  13.917  66.337  1.00  0.00     0.000 HD 
HETATM   17  C   UNL     1      -7.804  10.305  67.939  1.00  0.00    -0.101 A  
ENDBRANCH   6   9
ENDBRANCH   3   6
TORSDOF 2
ENDMDL
MODEL      195
REMARK 921   NORMALIZED FREE ENERGY PREDICTED BY IDOCK:   -2.31 KCAL/MOL
REMARK 922        TOTAL FREE ENERGY PREDICTED BY IDOCK:   -2.75 KCAL/MOL
REMARK 923 INTER-LIGAND FREE ENERGY PREDICTED BY IDOCK:   -2.58 KCAL/MOL
REMARK 924 INTRA-LIGAND FREE ENERGY PREDICTED BY IDOCK:   -0.18 KCAL/MOL
REMARK 927      BINDING AFFINITY PREDICTED BY RF-SCORE:    0.00 PKD
ROOT
HETATM    1  C   UNL     1     -11.021   7.644  71.808  1.00  0.00    -0.276 C  
HETATM    2  C   UNL     1      -9.610   7.736  71.294  1.00  0.00    -0.157 C  
HETATM    3  N   UNL     1      -9.516   8.113  69.950  1.00  0.00    -0.160 N  
HETATM    4  O   UNL     1      -8.644   7.469  71.993  1.00  0.00    -0.105 OA 
HETATM    5  H   UNL     1     -10.389   8.233  69.436  1.00  0.00     0.000 HD 
ENDROOT
BRANCH   3   6
HETATM    6  S   UNL     1      -8.100   8.380  69.123  1.00  0.00    -0.120 S  
HETATM    7  O   UNL     1      -7.462   9.477  69.822  1.00  0.00    -0.074 OA 
HETATM    8  O   UNL     1      -7.406   7.128  68.923  1.00  0.00    -0.088 OA 
BRANCH   6   9
HETATM    9  C   UNL     1      -8.663   8.998  67.558  1.00  0.00    -0.119 A  
HETATM   10  C   UNL     1      -7.810   8.954  66.452  1.00  0.00    -0.103 A  
HETATM   11  C   UNL     1      -8.259   9.423  65.215  1.00  0.00    -0.133 A  
HETATM   12  C   UNL     1      -9.540   9.968  65.078  1.00  0.00    -0.297 A  
HETATM   13  N   UNL     1     -10.015  10.330  63.813  1.00  0.00    -0.471 NA 
HETATM   14  C   UNL     1     -10.410   9.923  66.173  1.00  0.00    -0.223 A  
HETATM   15  H2  UNL     1      -9.942   9.521  63.198  1.00  0.00     0.000 HD 
HETATM   16  H1  UNL     1     -10.950  10.728  63.713  1.00  0.00     0.000 HD 
HETATM   17  C   UNL     1      -9.974   9.454  67.416  1.00  0.00    -0.252 A  
ENDBRANCH   6   9
ENDBRANCH   3   6
TORSDOF 2
ENDMDL
MODEL      196
REMARK 921   NORMALIZED FREE ENERGY PREDICTED BY IDOCK:   -2.30 KCAL/MOL
REMARK 922        TOTAL FREE ENERGY PREDICTED BY IDOCK:   -2.75 KCAL/MOL
REMARK 923 INTER-LIGAND FREE ENERGY PREDICTED BY IDOCK:   -3.13 KCAL/MOL
REMARK 924 INTRA-LIGAND FREE ENERGY PREDICTED BY IDOCK:    0.38 KCAL/MOL
REMARK 927      BINDING AFFINITY PREDICTED BY RF-SCORE:    0.00 PKD
ROOT
HETATM    1  C   UNL     1     -11.139   5.602  69.687  1.00  0.00    -0.154 C  
HETATM    2  C   UNL     1     -10.194   6.745  69.935  1.00  0.00    -0.190 C  
HETATM    3  N   UNL     1     -10.346   7.814  69.045  1.00  0.00    -0.209 N  
HETATM    4  O   UNL     1      -9.349   6.713  70.818  1.00  0.00    -0.158 OA 
HETATM    5  H   UNL     1     -11.026   7.704  68.293  1.00  0.00     0.000 HD 
ENDROOT
BRANCH   3   6
HETATM    6  S   UNL     1      -9.509   9.249  69.113  1.00  0.00    -0.161 S  
HETATM    7  O   UNL     1      -8.432   9.006  70.051  1.00  0.00    -0.121 OA 
HETATM    8  O   UNL     1      -9.232   9.718  67.775  1.00  0.00    -0.131 OA 
BRANCH   6   9
HETATM    9  C   UNL     1     -10.663  10.347  69.895  1.00  0.00    -0.279 A  
HETATM   10  C   UNL     1     -10.758  11.671  69.459  1.00  0.00    -0.002 A  
HETATM   11  C   UNL     1     -11.680  12.531  70.062  1.00  0.00    -0.297 A  
HETATM   12  C   UNL     1     -12.483  12.092  71.120  1.00  0.00    -0.249 A  
HETATM   13  N   UNL     1     -13.477  12.929  71.638  1.00  0.00    -0.270 NA 
HETATM   14  C   UNL     1     -12.437  10.742  71.483  1.00  0.00    -0.447 A  
HETATM   15  H2  UNL     1     -14.083  13.222  70.873  1.00  0.00     0.000 HD 
HETATM   16  H1  UNL     1     -14.063  12.609  72.410  1.00  0.00     0.000 HD 
HETATM   17  C   UNL     1     -11.521   9.870  70.887  1.00  0.00    -0.456 A  
ENDBRANCH   6   9
ENDBRANCH   3   6
TORSDOF 2
ENDMDL
MODEL      197
REMARK 921   NORMALIZED FREE ENERGY PREDICTED BY IDOCK:   -2.27 KCAL/MOL
REMARK 922        TOTAL FREE ENERGY PREDICTED BY IDOCK:   -2.71 KCAL/MOL
REMARK 923 INTER-LIGAND FREE ENERGY PREDICTED BY IDOCK:   -2.76 KCAL/MOL
REMARK 924 INTRA-LIGAND FREE ENERGY PREDICTED BY IDOCK:    0.05 KCAL/MOL
REMARK 927      BINDING AFFINITY PREDICTED BY RF-SCORE:    0.00 PKD
ROOT
HETATM    1  C   UNL     1      -6.204  14.340  70.617  1.00  0.00    -0.141 C  
HETATM    2  C   UNL     1      -7.035  14.682  69.411  1.00  0.00    -0.163 C  
HETATM    3  N   UNL     1      -6.475  15.669  68.593  1.00  0.00    -0.105 N  
HETATM    4  O   UNL     1      -8.119  14.159  69.197  1.00  0.00    -0.020 OA 
HETATM    5  H   UNL     1      -5.605  16.099  68.907  1.00  0.00     0.000 HD 
ENDROOT
BRANCH   3   6
HETATM    6  S   UNL     1      -7.112  16.200  67.152  1.00  0.00    -0.215 S  
HETATM    7  O   UNL     1      -5.988  16.768  66.436  1.00  0.00    -0.306 OA 
HETATM    8  O   UNL     1      -7.915  15.156  66.558  1.00  0.00    -0.016 OA 
BRANCH   6   9
HETATM    9  C   UNL     1      -8.163  17.540  67.650  1.00  0.00    -0.215 A  
HETATM   10  C   UNL     1      -9.509  17.534  67.278  1.00  0.00    -0.253 A  
HETATM   11  C   UNL     1     -10.342  18.580  67.686  1.00  0.00    -0.442 A  
HETATM   12  C   UNL     1      -9.835  19.650  68.432  1.00  0.00    -0.432 A  
HETATM   13  N   UNL     1     -10.701  20.631  68.926  1.00  0.00     0.108 NA 
HETATM   14  C   UNL     1      -8.507  19.595  68.869  1.00  0.00    -0.230 A  
HETATM   15  H2  UNL     1     -11.428  20.172  69.474  1.00  0.00     0.000 HD 
HETATM   16  H1  UNL     1     -10.331  21.411  69.471  1.00  0.00     0.000 HD 
HETATM   17  C   UNL     1      -7.664  18.553  68.470  1.00  0.00    -0.330 A  
ENDBRANCH   6   9
ENDBRANCH   3   6
TORSDOF 2
ENDMDL
MODEL      198
REMARK 921   NORMALIZED FREE ENERGY PREDICTED BY IDOCK:   -2.27 KCAL/MOL
REMARK 922        TOTAL FREE ENERGY PREDICTED BY IDOCK:   -2.70 KCAL/MOL
REMARK 923 INTER-LIGAND FREE ENERGY PREDICTED BY IDOCK:   -2.62 KCAL/MOL
REMARK 924 INTRA-LIGAND FREE ENERGY PREDICTED BY IDOCK:   -0.08 KCAL/MOL
REMARK 927      BINDING AFFINITY PREDICTED BY RF-SCORE:    0.00 PKD
ROOT
HETATM    1  C   UNL     1     -10.240   6.915  69.829  1.00  0.00    -0.210 C  
HETATM    2  C   UNL     1      -9.133   7.833  69.387  1.00  0.00    -0.146 C  
HETATM    3  N   UNL     1      -9.578   9.011  68.779  1.00  0.00    -0.151 N  
HETATM    4  O   UNL     1      -7.953   7.543  69.523  1.00  0.00    -0.120 OA 
HETATM    5  H   UNL     1     -10.583   9.117  68.642  1.00  0.00     0.000 HD 
ENDROOT
BRANCH   3   6
HETATM    6  S   UNL     1      -8.603  10.254  68.262  1.00  0.00    -0.125 S  
HETATM    7  O   UNL     1      -7.785  10.588  69.410  1.00  0.00    -0.141 OA 
HETATM    8  O   UNL     1      -7.995   9.905  66.998  1.00  0.00    -0.108 OA 
BRANCH   6   9
HETATM    9  C   UNL     1      -9.750  11.585  68.016  1.00  0.00    -0.186 A  
HETATM   10  C   UNL     1      -9.980  12.497  69.049  1.00  0.00     0.209 A  
HETATM   11  C   UNL     1     -10.869  13.556  68.850  1.00  0.00    -0.255 A  
HETATM   12  C   UNL     1     -11.558  13.694  67.640  1.00  0.00    -0.346 A  
HETATM   13  N   UNL     1     -12.358  14.820  67.415  1.00  0.00    -0.450 NA 
HETATM   14  C   UNL     1     -11.250  12.825  66.588  1.00  0.00    -0.344 A  
HETATM   15  H2  UNL     1     -11.790  15.653  67.559  1.00  0.00     0.000 HD 
HETATM   16  H1  UNL     1     -12.861  14.920  66.533  1.00  0.00     0.000 HD 
HETATM   17  C   UNL     1     -10.360  11.762  66.774  1.00  0.00    -0.251 A  
ENDBRANCH   6   9
ENDBRANCH   3   6
TORSDOF 2
ENDMDL
MODEL      199
REMARK 921   NORMALIZED FREE ENERGY PREDICTED BY IDOCK:   -2.24 KCAL/MOL
REMARK 922        TOTAL FREE ENERGY PREDICTED BY IDOCK:   -2.68 KCAL/MOL
REMARK 923 INTER-LIGAND FREE ENERGY PREDICTED BY IDOCK:   -2.65 KCAL/MOL
REMARK 924 INTRA-LIGAND FREE ENERGY PREDICTED BY IDOCK:   -0.02 KCAL/MOL
REMARK 927      BINDING AFFINITY PREDICTED BY RF-SCORE:    0.00 PKD
ROOT
HETATM    1  C   UNL     1     -10.177   6.500  74.269  1.00  0.00    -0.373 C  
HETATM    2  C   UNL     1      -9.196   6.289  73.148  1.00  0.00    -0.128 C  
HETATM    3  N   UNL     1      -9.170   4.982  72.651  1.00  0.00    -0.131 N  
HETATM    4  O   UNL     1      -8.469   7.184  72.743  1.00  0.00    -0.106 OA 
HETATM    5  H   UNL     1      -9.760   4.293  73.116  1.00  0.00     0.000 HD 
ENDROOT
BRANCH   3   6
HETATM    6  S   UNL     1      -8.256   4.460  71.365  1.00  0.00    -0.093 S  
HETATM    7  O   UNL     1      -6.931   4.993  71.610  1.00  0.00    -0.050 OA 
HETATM    8  O   UNL     1      -8.457   3.043  71.164  1.00  0.00    -0.061 OA 
BRANCH   6   9
HETATM    9  C   UNL     1      -8.947   5.353  69.996  1.00  0.00    -0.129 A  
HETATM   10  C   UNL     1     -10.320   5.278  69.746  1.00  0.00    -0.369 A  
HETATM   11  C   UNL     1     -10.867   5.996  68.680  1.00  0.00    -0.379 A  
HETATM   12  C   UNL     1     -10.053   6.760  67.838  1.00  0.00    -0.159 A  
HETATM   13  N   UNL     1     -10.628   7.560  66.845  1.00  0.00    -0.442 NA 
HETATM   14  C   UNL     1      -8.697   6.894  68.155  1.00  0.00    -0.126 A  
HETATM   15  H2  UNL     1     -11.309   8.179  67.284  1.00  0.00     0.000 HD 
HETATM   16  H1  UNL     1     -10.034   8.118  66.231  1.00  0.00     0.000 HD 
HETATM   17  C   UNL     1      -8.136   6.183  69.221  1.00  0.00    -0.109 A  
ENDBRANCH   6   9
ENDBRANCH   3   6
TORSDOF 2
ENDMDL
MODEL      200
REMARK 921   NORMALIZED FREE ENERGY PREDICTED BY IDOCK:   -2.24 KCAL/MOL
REMARK 922        TOTAL FREE ENERGY PREDICTED BY IDOCK:   -2.67 KCAL/MOL
REMARK 923 INTER-LIGAND FREE ENERGY PREDICTED BY IDOCK:   -2.53 KCAL/MOL
REMARK 924 INTRA-LIGAND FREE ENERGY PREDICTED BY IDOCK:   -0.14 KCAL/MOL
REMARK 927      BINDING AFFINITY PREDICTED BY RF-SCORE:    0.00 PKD
ROOT
HETATM    1  C   UNL     1     -11.982  11.357  70.238  1.00  0.00    -0.460 C  
HETATM    2  C   UNL     1     -10.802  10.689  69.586  1.00  0.00    -0.268 C  
HETATM    3  N   UNL     1     -10.347   9.551  70.260  1.00  0.00    -0.248 N  
HETATM    4  O   UNL     1     -10.278  11.134  68.576  1.00  0.00    -0.183 OA 
HETATM    5  H   UNL     1     -10.806   9.313  71.140  1.00  0.00     0.000 HD 
ENDROOT
BRANCH   3   6
HETATM    6  S   UNL     1      -9.121   8.554  69.746  1.00  0.00    -0.155 S  
HETATM    7  O   UNL     1      -9.709   7.754  68.692  1.00  0.00    -0.152 OA 
HETATM    8  O   UNL     1      -7.927   9.332  69.505  1.00  0.00    -0.087 OA 
BRANCH   6   9
HETATM    9  C   UNL     1      -8.858   7.491  71.142  1.00  0.00    -0.141 A  
HETATM   10  C   UNL     1      -7.945   6.438  71.045  1.00  0.00    -0.115 A  
HETATM   11  C   UNL     1      -7.724   5.613  72.151  1.00  0.00    -0.102 A  
HETATM   12  C   UNL     1      -8.432   5.805  73.341  1.00  0.00    -0.115 A  
HETATM   13  N   UNL     1      -8.122   5.043  74.472  1.00  0.00    -0.098 NA 
HETATM   14  C   UNL     1      -9.277   6.916  73.449  1.00  0.00    -0.170 A  
HETATM   15  H2  UNL     1      -7.127   5.149  74.668  1.00  0.00     0.000 HD 
HETATM   16  H1  UNL     1      -8.638   5.184  75.341  1.00  0.00     0.000 HD 
HETATM   17  C   UNL     1      -9.505   7.752  72.351  1.00  0.00    -0.234 A  
ENDBRANCH   6   9
ENDBRANCH   3   6
TORSDOF 2
ENDMDL
MODEL      201
REMARK 921   NORMALIZED FREE ENERGY PREDICTED BY IDOCK:   -2.22 KCAL/MOL
REMARK 922        TOTAL FREE ENERGY PREDICTED BY IDOCK:   -2.65 KCAL/MOL
REMARK 923 INTER-LIGAND FREE ENERGY PREDICTED BY IDOCK:   -3.02 KCAL/MOL
REMARK 924 INTRA-LIGAND FREE ENERGY PREDICTED BY IDOCK:    0.37 KCAL/MOL
REMARK 927      BINDING AFFINITY PREDICTED BY RF-SCORE:    0.00 PKD
ROOT
HETATM    1  C   UNL     1     -11.308   8.719  72.421  1.00  0.00    -0.272 C  
HETATM    2  C   UNL     1     -11.878   9.400  71.208  1.00  0.00    -0.360 C  
HETATM    3  N   UNL     1     -11.092  10.450  70.720  1.00  0.00    -0.391 N  
HETATM    4  O   UNL     1     -12.953   9.076  70.724  1.00  0.00     0.004 OA 
HETATM    5  H   UNL     1     -10.254  10.691  71.248  1.00  0.00     0.000 HD 
ENDROOT
BRANCH   3   6
HETATM    6  S   UNL     1     -11.413  11.336  69.351  1.00  0.00    -0.332 S  
HETATM    7  O   UNL     1     -12.753  10.946  68.962  1.00  0.00    -0.239 OA 
HETATM    8  O   UNL     1     -11.085  12.725  69.578  1.00  0.00    -0.123 OA 
BRANCH   6   9
HETATM    9  C   UNL     1     -10.290  10.652  68.161  1.00  0.00    -0.176 A  
HETATM   10  C   UNL     1      -9.024  11.221  68.001  1.00  0.00    -0.156 A  
HETATM   11  C   UNL     1      -8.131  10.671  67.077  1.00  0.00    -0.120 A  
HETATM   12  C   UNL     1      -8.503   9.579  66.285  1.00  0.00    -0.115 A  
HETATM   13  N   UNL     1      -7.563   8.971  65.446  1.00  0.00    -0.089 NA 
HETATM   14  C   UNL     1      -9.739   8.968  66.520  1.00  0.00    -0.311 A  
HETATM   15  H2  UNL     1      -6.756   8.702  66.008  1.00  0.00     0.000 HD 
HETATM   16  H1  UNL     1      -7.834   8.174  64.869  1.00  0.00     0.000 HD 
HETATM   17  C   UNL     1     -10.641   9.507  67.444  1.00  0.00    -0.337 A  
ENDBRANCH   6   9
ENDBRANCH   3   6
TORSDOF 2
ENDMDL
MODEL      202
REMARK 921   NORMALIZED FREE ENERGY PREDICTED BY IDOCK:   -2.18 KCAL/MOL
REMARK 922        TOTAL FREE ENERGY PREDICTED BY IDOCK:   -2.61 KCAL/MOL
REMARK 923 INTER-LIGAND FREE ENERGY PREDICTED BY IDOCK:   -2.55 KCAL/MOL
REMARK 924 INTRA-LIGAND FREE ENERGY PREDICTED BY IDOCK:   -0.06 KCAL/MOL
REMARK 927      BINDING AFFINITY PREDICTED BY RF-SCORE:    0.00 PKD
ROOT
HETATM    1  C   UNL     1     -11.005   6.523  67.316  1.00  0.00    -0.475 C  
HETATM    2  C   UNL     1      -9.856   6.109  68.195  1.00  0.00    -0.131 C  
HETATM    3  N   UNL     1     -10.193   5.161  69.167  1.00  0.00    -0.209 N  
HETATM    4  O   UNL     1      -8.740   6.594  68.079  1.00  0.00    -0.118 OA 
HETATM    5  H   UNL     1     -11.172   4.883  69.230  1.00  0.00     0.000 HD 
ENDROOT
BRANCH   3   6
HETATM    6  S   UNL     1      -9.129   4.450  70.227  1.00  0.00    -0.112 S  
HETATM    7  O   UNL     1      -9.864   3.343  70.804  1.00  0.00    -0.160 OA 
HETATM    8  O   UNL     1      -7.858   4.235  69.575  1.00  0.00    -0.057 OA 
BRANCH   6   9
HETATM    9  C   UNL     1      -8.942   5.683  71.490  1.00  0.00    -0.140 A  
HETATM   10  C   UNL     1      -7.797   6.483  71.507  1.00  0.00    -0.100 A  
HETATM   11  C   UNL     1      -7.657   7.467  72.490  1.00  0.00    -0.092 A  
HETATM   12  C   UNL     1      -8.634   7.636  73.477  1.00  0.00    -0.204 A  
HETATM   13  N   UNL     1      -8.535   8.696  74.386  1.00  0.00    -0.307 NA 
HETATM   14  C   UNL     1      -9.813   6.887  73.392  1.00  0.00    -0.247 A  
HETATM   15  H2  UNL     1      -8.454   9.565  73.859  1.00  0.00     0.000 HD 
HETATM   16  H1  UNL     1      -9.248   8.819  75.105  1.00  0.00     0.000 HD 
HETATM   17  C   UNL     1      -9.966   5.901  72.412  1.00  0.00    -0.194 A  
ENDBRANCH   6   9
ENDBRANCH   3   6
TORSDOF 2
ENDMDL
MODEL      203
REMARK 921   NORMALIZED FREE ENERGY PREDICTED BY IDOCK:   -2.10 KCAL/MOL
REMARK 922        TOTAL FREE ENERGY PREDICTED BY IDOCK:   -2.52 KCAL/MOL
REMARK 923 INTER-LIGAND FREE ENERGY PREDICTED BY IDOCK:   -2.45 KCAL/MOL
REMARK 924 INTRA-LIGAND FREE ENERGY PREDICTED BY IDOCK:   -0.06 KCAL/MOL
REMARK 927      BINDING AFFINITY PREDICTED BY RF-SCORE:    0.00 PKD
ROOT
HETATM    1  C   UNL     1     -11.450   5.901  72.162  1.00  0.00    -0.333 C  
HETATM    2  C   UNL     1     -11.162   6.347  70.755  1.00  0.00    -0.327 C  
HETATM    3  N   UNL     1     -10.495   5.393  69.979  1.00  0.00    -0.301 N  
HETATM    4  O   UNL     1     -11.461   7.461  70.350  1.00  0.00    -0.279 OA 
HETATM    5  H   UNL     1     -10.219   4.526  70.439  1.00  0.00     0.000 HD 
ENDROOT
BRANCH   3   6
HETATM    6  S   UNL     1     -10.114   5.557  68.370  1.00  0.00    -0.178 S  
HETATM    7  O   UNL     1      -9.700   4.235  67.949  1.00  0.00    -0.161 OA 
HETATM    8  O   UNL     1     -11.178   6.252  67.683  1.00  0.00    -0.327 OA 
BRANCH   6   9
HETATM    9  C   UNL     1      -8.668   6.585  68.405  1.00  0.00    -0.121 A  
HETATM   10  C   UNL     1      -7.424   6.016  68.693  1.00  0.00    -0.087 A  
HETATM   11  C   UNL     1      -6.282   6.821  68.702  1.00  0.00    -0.027 A  
HETATM   12  C   UNL     1      -6.374   8.196  68.463  1.00  0.00    -0.053 A  
HETATM   13  N   UNL     1      -5.212   8.969  68.366  1.00  0.00    -0.037 NA 
HETATM   14  C   UNL     1      -7.612   8.733  68.091  1.00  0.00    -0.097 A  
HETATM   15  H2  UNL     1      -4.610   8.557  67.654  1.00  0.00     0.000 HD 
HETATM   16  H1  UNL     1      -5.279   9.972  68.191  1.00  0.00     0.000 HD 
HETATM   17  C   UNL     1      -8.762   7.937  68.075  1.00  0.00    -0.125 A  
ENDBRANCH   6   9
ENDBRANCH   3   6
TORSDOF 2
ENDMDL
MODEL      204
REMARK 921   NORMALIZED FREE ENERGY PREDICTED BY IDOCK:   -2.08 KCAL/MOL
REMARK 922        TOTAL FREE ENERGY PREDICTED BY IDOCK:   -2.50 KCAL/MOL
REMARK 923 INTER-LIGAND FREE ENERGY PREDICTED BY IDOCK:   -2.66 KCAL/MOL
REMARK 924 INTRA-LIGAND FREE ENERGY PREDICTED BY IDOCK:    0.16 KCAL/MOL
REMARK 927      BINDING AFFINITY PREDICTED BY RF-SCORE:    0.00 PKD
ROOT
HETATM    1  C   UNL     1      -7.722   8.024  68.493  1.00  0.00    -0.106 C  
HETATM    2  C   UNL     1      -8.713   8.643  67.548  1.00  0.00    -0.135 C  
HETATM    3  N   UNL     1      -8.165   9.607  66.696  1.00  0.00    -0.119 N  
HETATM    4  O   UNL     1      -9.899   8.344  67.559  1.00  0.00    -0.159 OA 
HETATM    5  H   UNL     1      -7.180   9.840  66.825  1.00  0.00     0.000 HD 
ENDROOT
BRANCH   3   6
HETATM    6  S   UNL     1      -8.985  10.406  65.491  1.00  0.00    -0.186 S  
HETATM    7  O   UNL     1      -8.011  10.587  64.435  1.00  0.00    -0.121 OA 
HETATM    8  O   UNL     1     -10.242   9.741  65.231  1.00  0.00    -0.216 OA 
BRANCH   6   9
HETATM    9  C   UNL     1      -9.298  11.998  66.209  1.00  0.00    -0.223 A  
HETATM   10  C   UNL     1      -8.440  12.490  67.196  1.00  0.00    -0.186 A  
HETATM   11  C   UNL     1      -8.676  13.752  67.748  1.00  0.00    -0.182 A  
HETATM   12  C   UNL     1      -9.780  14.513  67.350  1.00  0.00    -0.222 A  
HETATM   13  N   UNL     1      -9.940  15.818  67.829  1.00  0.00    -0.226 NA 
HETATM   14  C   UNL     1     -10.576  14.044  66.300  1.00  0.00    -0.281 A  
HETATM   15  H2  UNL     1      -9.093  16.344  67.619  1.00  0.00     0.000 HD 
HETATM   16  H1  UNL     1     -10.745  16.373  67.538  1.00  0.00     0.000 HD 
HETATM   17  C   UNL     1     -10.350  12.783  65.737  1.00  0.00    -0.297 A  
ENDBRANCH   6   9
ENDBRANCH   3   6
TORSDOF 2
ENDMDL
MODEL      205
REMARK 921   NORMALIZED FREE ENERGY PREDICTED BY IDOCK:   -2.08 KCAL/MOL
REMARK 922        TOTAL FREE ENERGY PREDICTED BY IDOCK:   -2.49 KCAL/MOL
REMARK 923 INTER-LIGAND FREE ENERGY PREDICTED BY IDOCK:   -2.47 KCAL/MOL
REMARK 924 INTRA-LIGAND FREE ENERGY PREDICTED BY IDOCK:   -0.02 KCAL/MOL
REMARK 927      BINDING AFFINITY PREDICTED BY RF-SCORE:    0.00 PKD
ROOT
HETATM    1  C   UNL     1      -9.263   2.913  64.827  1.00  0.00    -0.146 C  
HETATM    2  C   UNL     1      -9.155   3.119  66.313  1.00  0.00    -0.151 C  
HETATM    3  N   UNL     1      -9.051   4.460  66.697  1.00  0.00    -0.121 N  
HETATM    4  O   UNL     1      -9.127   2.184  67.100  1.00  0.00    -0.138 OA 
HETATM    5  H   UNL     1      -9.002   5.157  65.955  1.00  0.00     0.000 HD 
ENDROOT
BRANCH   3   6
HETATM    6  S   UNL     1      -9.000   5.011  68.265  1.00  0.00    -0.111 S  
HETATM    7  O   UNL     1     -10.029   4.261  68.955  1.00  0.00    -0.129 OA 
HETATM    8  O   UNL     1      -7.636   5.005  68.742  1.00  0.00    -0.075 OA 
BRANCH   6   9
HETATM    9  C   UNL     1      -9.565   6.686  68.118  1.00  0.00    -0.120 A  
HETATM   10  C   UNL     1      -9.645   7.489  69.258  1.00  0.00    -0.158 A  
HETATM   11  C   UNL     1     -10.072   8.815  69.140  1.00  0.00    -0.203 A  
HETATM   12  C   UNL     1     -10.454   9.336  67.899  1.00  0.00    -0.236 A  
HETATM   13  N   UNL     1     -10.773  10.693  67.778  1.00  0.00    -0.235 NA 
HETATM   14  C   UNL     1     -10.285   8.546  66.757  1.00  0.00    -0.370 A  
HETATM   15  H2  UNL     1      -9.988  11.240  68.130  1.00  0.00     0.000 HD 
HETATM   16  H1  UNL     1     -11.051  11.073  66.873  1.00  0.00     0.000 HD 
HETATM   17  C   UNL     1      -9.856   7.219  66.861  1.00  0.00    -0.279 A  
ENDBRANCH   6   9
ENDBRANCH   3   6
TORSDOF 2
ENDMDL
MODEL      206
REMARK 921   NORMALIZED FREE ENERGY PREDICTED BY IDOCK:   -2.05 KCAL/MOL
REMARK 922        TOTAL FREE ENERGY PREDICTED BY IDOCK:   -2.47 KCAL/MOL
REMARK 923 INTER-LIGAND FREE ENERGY PREDICTED BY IDOCK:   -2.35 KCAL/MOL
REMARK 924 INTRA-LIGAND FREE ENERGY PREDICTED BY IDOCK:   -0.12 KCAL/MOL
REMARK 927      BINDING AFFINITY PREDICTED BY RF-SCORE:    0.00 PKD
ROOT
HETATM    1  C   UNL     1      -6.346   7.568  66.514  1.00  0.00    -0.045 C  
HETATM    2  C   UNL     1      -6.845   8.707  67.360  1.00  0.00    -0.071 C  
HETATM    3  N   UNL     1      -7.935   8.379  68.173  1.00  0.00    -0.117 N  
HETATM    4  O   UNL     1      -6.352   9.825  67.304  1.00  0.00    -0.066 OA 
HETATM    5  H   UNL     1      -8.321   7.440  68.082  1.00  0.00     0.000 HD 
ENDROOT
BRANCH   3   6
HETATM    6  S   UNL     1      -8.653   9.396  69.274  1.00  0.00    -0.153 S  
HETATM    7  O   UNL     1      -9.642   8.577  69.946  1.00  0.00    -0.168 OA 
HETATM    8  O   UNL     1      -7.639  10.097  70.028  1.00  0.00    -0.163 OA 
BRANCH   6   9
HETATM    9  C   UNL     1      -9.524  10.549  68.244  1.00  0.00    -0.155 A  
HETATM   10  C   UNL     1      -9.401  11.919  68.487  1.00  0.00    -0.142 A  
HETATM   11  C   UNL     1     -10.072  12.828  67.664  1.00  0.00    -0.220 A  
HETATM   12  C   UNL     1     -10.892  12.382  66.623  1.00  0.00    -0.246 A  
HETATM   13  N   UNL     1     -11.467  13.303  65.741  1.00  0.00    -0.315 NA 
HETATM   14  C   UNL     1     -10.933  11.013  66.340  1.00  0.00    -0.202 A  
HETATM   15  H2  UNL     1     -10.723  13.875  65.342  1.00  0.00     0.000 HD 
HETATM   16  H1  UNL     1     -12.065  12.977  64.981  1.00  0.00     0.000 HD 
HETATM   17  C   UNL     1     -10.265  10.092  67.154  1.00  0.00    -0.284 A  
ENDBRANCH   6   9
ENDBRANCH   3   6
TORSDOF 2
ENDMDL
MODEL      207
REMARK 921   NORMALIZED FREE ENERGY PREDICTED BY IDOCK:   -1.85 KCAL/MOL
REMARK 922        TOTAL FREE ENERGY PREDICTED BY IDOCK:   -2.24 KCAL/MOL
REMARK 923 INTER-LIGAND FREE ENERGY PREDICTED BY IDOCK:   -2.56 KCAL/MOL
REMARK 924 INTRA-LIGAND FREE ENERGY PREDICTED BY IDOCK:    0.32 KCAL/MOL
REMARK 927      BINDING AFFINITY PREDICTED BY RF-SCORE:    0.00 PKD
ROOT
HETATM    1  C   UNL     1      -6.961   4.072  72.582  1.00  0.00    -0.052 C  
HETATM    2  C   UNL     1      -8.169   4.968  72.596  1.00  0.00    -0.112 C  
HETATM    3  N   UNL     1      -7.884   6.314  72.346  1.00  0.00    -0.103 N  
HETATM    4  O   UNL     1      -9.290   4.546  72.842  1.00  0.00    -0.125 OA 
HETATM    5  H   UNL     1      -6.904   6.572  72.234  1.00  0.00     0.000 HD 
ENDROOT
BRANCH   3   6
HETATM    6  S   UNL     1      -9.012   7.528  72.215  1.00  0.00    -0.139 S  
HETATM    7  O   UNL     1     -10.214   6.984  72.813  1.00  0.00    -0.181 OA 
HETATM    8  O   UNL     1      -8.450   8.772  72.688  1.00  0.00    -0.413 OA 
BRANCH   6   9
HETATM    9  C   UNL     1      -9.285   7.632  70.465  1.00  0.00    -0.159 A  
HETATM   10  C   UNL     1     -10.323   8.429  69.975  1.00  0.00    -0.211 A  
HETATM   11  C   UNL     1     -10.526   8.526  68.596  1.00  0.00    -0.200 A  
HETATM   12  C   UNL     1      -9.725   7.808  67.702  1.00  0.00    -0.155 A  
HETATM   13  N   UNL     1      -9.867   8.002  66.324  1.00  0.00    -0.450 NA 
HETATM   14  C   UNL     1      -8.637   7.087  68.204  1.00  0.00    -0.128 A  
HETATM   15  H2  UNL     1      -9.761   8.996  66.125  1.00  0.00     0.000 HD 
HETATM   16  H1  UNL     1      -9.283   7.478  65.671  1.00  0.00     0.000 HD 
HETATM   17  C   UNL     1      -8.421   6.983  69.582  1.00  0.00    -0.134 A  
ENDBRANCH   6   9
ENDBRANCH   3   6
TORSDOF 2
ENDMDL
MODEL      208
REMARK 921   NORMALIZED FREE ENERGY PREDICTED BY IDOCK:    0.42 KCAL/MOL
REMARK 922        TOTAL FREE ENERGY PREDICTED BY IDOCK:    0.29 KCAL/MOL
REMARK 923 INTER-LIGAND FREE ENERGY PREDICTED BY IDOCK:   -0.06 KCAL/MOL
REMARK 924 INTRA-LIGAND FREE ENERGY PREDICTED BY IDOCK:    0.36 KCAL/MOL
REMARK 927      BINDING AFFINITY PREDICTED BY RF-SCORE:    0.00 PKD
ROOT
HETATM    1  C   UNL     1     -14.061  15.695  71.545  1.00  0.00    -0.328 C  
HETATM    2  C   UNL     1     -13.053  14.595  71.352  1.00  0.00    -0.347 C  
HETATM    3  N   UNL     1     -12.877  14.210  70.018  1.00  0.00    -0.395 N  
HETATM    4  O   UNL     1     -12.474  14.070  72.292  1.00  0.00    -0.215 OA 
HETATM    5  H   UNL     1     -13.470  14.657  69.320  1.00  0.00     0.000 HD 
ENDROOT
BRANCH   3   6
HETATM    6  S   UNL     1     -11.779  13.085  69.480  1.00  0.00    -0.295 S  
HETATM    7  O   UNL     1     -12.069  12.928  68.069  1.00  0.00    -0.311 OA 
HETATM    8  O   UNL     1     -10.452  13.442  69.926  1.00  0.00     0.598 OA 
BRANCH   6   9
HETATM    9  C   UNL     1     -12.296  11.599  70.300  1.00  0.00    -0.258 A  
HETATM   10  C   UNL     1     -11.787  11.298  71.566  1.00  0.00     0.668 A  
HETATM   11  C   UNL     1     -12.209  10.138  72.221  1.00  0.00     0.419 A  
HETATM   12  C   UNL     1     -13.106   9.256  71.610  1.00  0.00    -0.382 A  
HETATM   13  N   UNL     1     -13.603   8.158  72.320  1.00  0.00    -0.540 NA 
HETATM   14  C   UNL     1     -13.671   9.617  70.382  1.00  0.00     0.610 A  
HETATM   15  H2  UNL     1     -14.023   8.498  73.184  1.00  0.00     0.000 HD 
HETATM   16  H1  UNL     1     -14.258   7.515  71.874  1.00  0.00     0.000 HD 
HETATM   17  C   UNL     1     -13.260  10.777  69.717  1.00  0.00     0.712 A  
ENDBRANCH   6   9
ENDBRANCH   3   6
TORSDOF 2
ENDMDL
MODEL      209
REMARK 921   NORMALIZED FREE ENERGY PREDICTED BY IDOCK:    3.09 KCAL/MOL
REMARK 922        TOTAL FREE ENERGY PREDICTED BY IDOCK:    3.27 KCAL/MOL
REMARK 923 INTER-LIGAND FREE ENERGY PREDICTED BY IDOCK:    3.07 KCAL/MOL
REMARK 924 INTRA-LIGAND FREE ENERGY PREDICTED BY IDOCK:    0.20 KCAL/MOL
REMARK 927      BINDING AFFINITY PREDICTED BY RF-SCORE:    0.00 PKD
ROOT
HETATM    1  C   UNL     1      -6.257  19.363  62.832  1.00  0.00     1.138 C  
HETATM    2  C   UNL     1      -6.176  18.612  64.133  1.00  0.00     0.872 C  
HETATM    3  N   UNL     1      -7.405  18.119  64.585  1.00  0.00     2.760 N  
HETATM    4  O   UNL     1      -5.126  18.483  64.746  1.00  0.00    -0.156 OA 
HETATM    5  H   UNL     1      -8.233  18.353  64.038  1.00  0.00     0.000 HD 
ENDROOT
BRANCH   3   6
HETATM    6  S   UNL     1      -7.626  17.183  65.940  1.00  0.00     0.293 S  
HETATM    7  O   UNL     1      -8.565  16.158  65.535  1.00  0.00    -0.021 OA 
HETATM    8  O   UNL     1      -6.344  16.828  66.505  1.00  0.00    -0.244 OA 
BRANCH   6   9
HETATM    9  C   UNL     1      -8.474  18.279  67.048  1.00  0.00    -0.250 A  
HETATM   10  C   UNL     1      -8.317  19.660  66.906  1.00  0.00    -0.333 A  
HETATM   11  C   UNL     1      -9.000  20.524  67.766  1.00  0.00    -0.230 A  
HETATM   12  C   UNL     1      -9.811  20.023  68.789  1.00  0.00    -0.231 A  
HETATM   13  N   UNL     1     -10.574  20.898  69.570  1.00  0.00     0.146 NA 
HETATM   14  C   UNL     1     -10.026  18.643  68.861  1.00  0.00    -0.399 A  
HETATM   15  H2  UNL     1     -11.151  21.463  68.949  1.00  0.00     0.000 HD 
HETATM   16  H1  UNL     1     -11.166  20.532  70.317  1.00  0.00     0.000 HD 
HETATM   17  C   UNL     1      -9.351  17.766  68.005  1.00  0.00    -0.276 A  
ENDBRANCH   6   9
ENDBRANCH   3   6
TORSDOF 2
ENDMDL
