MODEL        1
REMARK 921   NORMALIZED FREE ENERGY PREDICTED BY IDOCK:   -6.30 KCAL/MOL
REMARK 922        TOTAL FREE ENERGY PREDICTED BY IDOCK:   -8.13 KCAL/MOL
REMARK 923 INTER-LIGAND FREE ENERGY PREDICTED BY IDOCK:   -7.78 KCAL/MOL
REMARK 924 INTRA-LIGAND FREE ENERGY PREDICTED BY IDOCK:   -0.35 KCAL/MOL
REMARK 927      BINDING AFFINITY PREDICTED BY RF-SCORE:    0.00 PKD
ROOT
HETATM    1  C   UNL     1     -10.008  11.013  63.368  1.00  0.00    -0.380 C  
HETATM    2  O   UNL     1     -10.318  12.398  63.265  1.00  0.00    -0.376 OA 
ENDROOT
BRANCH   2   3
HETATM    3  C   UNL     1     -10.815  12.982  64.387  1.00  0.00    -0.388 A  
HETATM    4  C   UNL     1     -11.539  12.189  65.253  1.00  0.00    -0.322 A  
HETATM    5  N   UNL     1     -12.058  12.619  66.421  1.00  0.00    -0.565 NA 
HETATM    6  C   UNL     1     -11.832  13.900  66.712  1.00  0.00    -0.424 A  
HETATM    7  C   UNL     1     -10.647  14.286  64.810  1.00  0.00    -0.412 A  
HETATM    8  N   UNL     1     -11.164  14.782  65.961  1.00  0.00    -0.341 NA 
BRANCH   6   9
HETATM    9  N   UNL     1     -12.403  14.376  67.882  1.00  0.00    -0.599 N  
HETATM   10  H   UNL     1     -13.352  14.747  67.906  1.00  0.00     0.000 HD 
BRANCH   9  11
HETATM   11  S   UNL     1     -11.450  14.307  69.248  1.00  0.00    -0.306 S  
HETATM   12  O   UNL     1     -11.598  15.523  70.022  1.00  0.00    -0.287 OA 
HETATM   13  O   UNL     1     -10.139  13.875  68.806  1.00  0.00    -0.221 OA 
BRANCH  11  14
HETATM   14  C   UNL     1     -12.124  12.976  70.226  1.00  0.00    -0.314 A  
HETATM   15  C   UNL     1     -11.859  11.651  69.871  1.00  0.00    -0.434 A  
HETATM   16  C   UNL     1     -12.363  10.611  70.658  1.00  0.00    -0.462 A  
HETATM   17  C   UNL     1     -13.160  10.881  71.776  1.00  0.00    -0.459 A  
HETATM   18  N   UNL     1     -13.584   9.838  72.608  1.00  0.00    -0.638 NA 
HETATM   19  C   UNL     1     -13.322  12.211  72.178  1.00  0.00    -0.438 A  
HETATM   20  H1  UNL     1     -14.164  10.035  73.423  1.00  0.00     0.000 HD 
HETATM   21  C   UNL     1     -12.816  13.260  71.405  1.00  0.00    -0.411 A  
HETATM   22  H2  UNL     1     -12.761   9.319  72.916  1.00  0.00     0.000 HD 
ENDBRANCH  11  14
ENDBRANCH   9  11
ENDBRANCH   6   9
ENDBRANCH   2   3
TORSDOF 4
ENDMDL
MODEL        2
REMARK 921   NORMALIZED FREE ENERGY PREDICTED BY IDOCK:   -6.25 KCAL/MOL
REMARK 922        TOTAL FREE ENERGY PREDICTED BY IDOCK:   -8.07 KCAL/MOL
REMARK 923 INTER-LIGAND FREE ENERGY PREDICTED BY IDOCK:   -7.89 KCAL/MOL
REMARK 924 INTRA-LIGAND FREE ENERGY PREDICTED BY IDOCK:   -0.18 KCAL/MOL
REMARK 927      BINDING AFFINITY PREDICTED BY RF-SCORE:    0.00 PKD
ROOT
HETATM    1  C   UNL     1     -14.301   8.322  71.994  1.00  0.00    -0.450 C  
HETATM    2  O   UNL     1     -13.563   9.390  72.579  1.00  0.00    -0.459 OA 
ENDROOT
BRANCH   2   3
HETATM    3  C   UNL     1     -12.843  10.156  71.719  1.00  0.00    -0.452 A  
HETATM    4  C   UNL     1     -11.782   9.562  71.068  1.00  0.00    -0.343 A  
HETATM    5  N   UNL     1     -11.003  10.185  70.160  1.00  0.00    -0.295 NA 
HETATM    6  C   UNL     1     -11.317  11.455  69.911  1.00  0.00    -0.219 A  
HETATM    7  C   UNL     1     -13.066  11.472  71.365  1.00  0.00    -0.258 A  
HETATM    8  N   UNL     1     -12.304  12.158  70.478  1.00  0.00    -0.312 NA 
BRANCH   6   9
HETATM    9  N   UNL     1     -10.496  12.130  69.021  1.00  0.00    -0.418 N  
HETATM   10  H   UNL     1      -9.929  12.927  69.309  1.00  0.00     0.000 HD 
BRANCH   9  11
HETATM   11  S   UNL     1     -10.488  11.565  67.453  1.00  0.00    -0.218 S  
HETATM   12  O   UNL     1     -11.564  10.616  67.257  1.00  0.00    -0.392 OA 
HETATM   13  O   UNL     1      -9.117  11.189  67.165  1.00  0.00    -0.146 OA 
BRANCH  11  14
HETATM   14  C   UNL     1     -10.850  12.988  66.438  1.00  0.00    -0.278 A  
HETATM   15  C   UNL     1      -9.887  13.986  66.274  1.00  0.00    -0.318 A  
HETATM   16  C   UNL     1     -10.164  15.084  65.453  1.00  0.00    -0.411 A  
HETATM   17  C   UNL     1     -11.407  15.211  64.823  1.00  0.00    -0.395 A  
HETATM   18  N   UNL     1     -11.641  16.266  63.933  1.00  0.00    -1.573 NA 
HETATM   19  C   UNL     1     -12.314  14.151  64.911  1.00  0.00    -0.446 A  
HETATM   20  H1  UNL     1     -12.546  16.359  63.474  1.00  0.00     0.000 HD 
HETATM   21  C   UNL     1     -12.047  13.044  65.721  1.00  0.00    -0.510 A  
HETATM   22  H2  UNL     1     -10.917  16.247  63.215  1.00  0.00     0.000 HD 
ENDBRANCH  11  14
ENDBRANCH   9  11
ENDBRANCH   6   9
ENDBRANCH   2   3
TORSDOF 4
ENDMDL
MODEL        3
REMARK 921   NORMALIZED FREE ENERGY PREDICTED BY IDOCK:   -6.25 KCAL/MOL
REMARK 922        TOTAL FREE ENERGY PREDICTED BY IDOCK:   -8.06 KCAL/MOL
REMARK 923 INTER-LIGAND FREE ENERGY PREDICTED BY IDOCK:   -7.76 KCAL/MOL
REMARK 924 INTRA-LIGAND FREE ENERGY PREDICTED BY IDOCK:   -0.30 KCAL/MOL
REMARK 927      BINDING AFFINITY PREDICTED BY RF-SCORE:    0.00 PKD
ROOT
HETATM    1  C   UNL     1     -13.989  15.694  72.640  1.00  0.00    -0.525 C  
HETATM    2  O   UNL     1     -14.199  14.444  71.992  1.00  0.00    -0.475 OA 
ENDROOT
BRANCH   2   3
HETATM    3  C   UNL     1     -13.192  14.013  71.189  1.00  0.00    -0.267 A  
HETATM    4  C   UNL     1     -12.893  12.666  71.206  1.00  0.00    -0.250 A  
HETATM    5  N   UNL     1     -11.949  12.088  70.436  1.00  0.00    -0.337 NA 
HETATM    6  C   UNL     1     -11.287  12.912  69.624  1.00  0.00    -0.096 A  
HETATM    7  C   UNL     1     -12.440  14.754  70.299  1.00  0.00    -0.340 A  
HETATM    8  N   UNL     1     -11.461  14.234  69.517  1.00  0.00    -0.274 NA 
BRANCH   6   9
HETATM    9  N   UNL     1     -10.276  12.348  68.863  1.00  0.00    -0.423 N  
HETATM   10  H   UNL     1      -9.308  12.328  69.184  1.00  0.00     0.000 HD 
BRANCH   9  11
HETATM   11  S   UNL     1     -10.730  11.704  67.395  1.00  0.00    -0.247 S  
HETATM   12  O   UNL     1     -11.984  10.993  67.527  1.00  0.00    -0.529 OA 
HETATM   13  O   UNL     1      -9.558  11.030  66.869  1.00  0.00    -0.178 OA 
BRANCH  11  14
HETATM   14  C   UNL     1     -11.029  13.108  66.336  1.00  0.00    -0.288 A  
HETATM   15  C   UNL     1     -10.049  14.094  66.197  1.00  0.00    -0.324 A  
HETATM   16  C   UNL     1     -10.277  15.177  65.342  1.00  0.00    -0.402 A  
HETATM   17  C   UNL     1     -11.488  15.304  64.654  1.00  0.00    -0.354 A  
HETATM   18  N   UNL     1     -11.670  16.342  63.733  1.00  0.00    -1.498 NA 
HETATM   19  C   UNL     1     -12.410  14.255  64.721  1.00  0.00    -0.440 A  
HETATM   20  H1  UNL     1     -12.553  16.435  63.231  1.00  0.00     0.000 HD 
HETATM   21  C   UNL     1     -12.192  13.162  65.565  1.00  0.00    -0.513 A  
HETATM   22  H2  UNL     1     -10.914  16.301  63.049  1.00  0.00     0.000 HD 
ENDBRANCH  11  14
ENDBRANCH   9  11
ENDBRANCH   6   9
ENDBRANCH   2   3
TORSDOF 4
ENDMDL
MODEL        4
REMARK 921   NORMALIZED FREE ENERGY PREDICTED BY IDOCK:   -6.19 KCAL/MOL
REMARK 922        TOTAL FREE ENERGY PREDICTED BY IDOCK:   -7.99 KCAL/MOL
REMARK 923 INTER-LIGAND FREE ENERGY PREDICTED BY IDOCK:   -7.72 KCAL/MOL
REMARK 924 INTRA-LIGAND FREE ENERGY PREDICTED BY IDOCK:   -0.27 KCAL/MOL
REMARK 927      BINDING AFFINITY PREDICTED BY RF-SCORE:    0.00 PKD
ROOT
HETATM    1  C   UNL     1     -14.309   8.408  72.012  1.00  0.00    -0.464 C  
HETATM    2  O   UNL     1     -13.141   9.056  72.502  1.00  0.00    -0.433 OA 
ENDROOT
BRANCH   2   3
HETATM    3  C   UNL     1     -12.524   9.906  71.639  1.00  0.00    -0.415 A  
HETATM    4  C   UNL     1     -11.357   9.475  71.043  1.00  0.00    -0.352 A  
HETATM    5  N   UNL     1     -10.658  10.190  70.139  1.00  0.00    -0.285 NA 
HETATM    6  C   UNL     1     -11.166  11.384  69.835  1.00  0.00    -0.143 A  
HETATM    7  C   UNL     1     -12.947  11.155  71.232  1.00  0.00    -0.357 A  
HETATM    8  N   UNL     1     -12.275  11.931  70.345  1.00  0.00    -0.338 NA 
BRANCH   6   9
HETATM    9  N   UNL     1     -10.435  12.158  68.947  1.00  0.00    -0.385 N  
HETATM   10  H   UNL     1      -9.968  13.016  69.240  1.00  0.00     0.000 HD 
BRANCH   9  11
HETATM   11  S   UNL     1     -10.360  11.607  67.377  1.00  0.00    -0.211 S  
HETATM   12  O   UNL     1     -11.412  10.642  67.135  1.00  0.00    -0.359 OA 
HETATM   13  O   UNL     1      -8.974  11.255  67.136  1.00  0.00    -0.151 OA 
BRANCH  11  14
HETATM   14  C   UNL     1     -10.708  13.031  66.360  1.00  0.00    -0.282 A  
HETATM   15  C   UNL     1     -11.890  13.082  65.618  1.00  0.00    -0.445 A  
HETATM   16  C   UNL     1     -12.174  14.213  64.847  1.00  0.00    -0.451 A  
HETATM   17  C   UNL     1     -11.270  15.279  64.782  1.00  0.00    -0.396 A  
HETATM   18  N   UNL     1     -11.603  16.444  64.080  1.00  0.00    -1.542 NA 
HETATM   19  C   UNL     1     -10.147  15.258  65.614  1.00  0.00    -0.401 A  
HETATM   20  H1  UNL     1     -10.945  17.221  64.032  1.00  0.00     0.000 HD 
HETATM   21  C   UNL     1      -9.856  14.137  66.397  1.00  0.00    -0.308 A  
HETATM   22  H2  UNL     1     -12.489  16.795  64.443  1.00  0.00     0.000 HD 
ENDBRANCH  11  14
ENDBRANCH   9  11
ENDBRANCH   6   9
ENDBRANCH   2   3
TORSDOF 4
ENDMDL
MODEL        5
REMARK 921   NORMALIZED FREE ENERGY PREDICTED BY IDOCK:   -6.16 KCAL/MOL
REMARK 922        TOTAL FREE ENERGY PREDICTED BY IDOCK:   -7.94 KCAL/MOL
REMARK 923 INTER-LIGAND FREE ENERGY PREDICTED BY IDOCK:   -7.56 KCAL/MOL
REMARK 924 INTRA-LIGAND FREE ENERGY PREDICTED BY IDOCK:   -0.38 KCAL/MOL
REMARK 927      BINDING AFFINITY PREDICTED BY RF-SCORE:    0.00 PKD
ROOT
HETATM    1  C   UNL     1     -12.348  15.778  74.397  1.00  0.00    -0.648 C  
HETATM    2  O   UNL     1     -12.665  14.691  73.534  1.00  0.00    -0.493 OA 
ENDROOT
BRANCH   2   3
HETATM    3  C   UNL     1     -12.435  14.896  72.210  1.00  0.00    -0.341 A  
HETATM    4  C   UNL     1     -11.688  16.000  71.854  1.00  0.00    -0.504 A  
HETATM    5  N   UNL     1     -11.348  16.309  70.587  1.00  0.00    -0.369 NA 
HETATM    6  C   UNL     1     -11.785  15.466  69.653  1.00  0.00    -0.338 A  
HETATM    7  C   UNL     1     -12.819  14.100  71.150  1.00  0.00    -0.360 A  
HETATM    8  N   UNL     1     -12.528  14.371  69.853  1.00  0.00    -0.309 NA 
BRANCH   6   9
HETATM    9  N   UNL     1     -11.491  15.794  68.339  1.00  0.00    -0.374 N  
HETATM   10  H   UNL     1     -12.026  16.496  67.827  1.00  0.00     0.000 HD 
BRANCH   9  11
HETATM   11  S   UNL     1     -10.217  14.978  67.642  1.00  0.00    -0.237 S  
HETATM   12  O   UNL     1      -9.634  14.054  68.593  1.00  0.00    -0.213 OA 
HETATM   13  O   UNL     1      -9.394  15.984  67.000  1.00  0.00    -0.210 OA 
BRANCH  11  14
HETATM   14  C   UNL     1     -10.940  14.001  66.336  1.00  0.00    -0.308 A  
HETATM   15  C   UNL     1     -12.327  13.985  66.168  1.00  0.00    -0.491 A  
HETATM   16  C   UNL     1     -12.887  13.242  65.124  1.00  0.00    -0.376 A  
HETATM   17  C   UNL     1     -12.078  12.486  64.269  1.00  0.00    -0.428 A  
HETATM   18  N   UNL     1     -12.640  11.820  63.173  1.00  0.00    -0.905 NA 
HETATM   19  C   UNL     1     -10.689  12.602  64.384  1.00  0.00    -0.384 A  
HETATM   20  H1  UNL     1     -12.050  11.269  62.550  1.00  0.00     0.000 HD 
HETATM   21  C   UNL     1     -10.115  13.348  65.418  1.00  0.00    -0.270 A  
HETATM   22  H2  UNL     1     -13.154  12.500  62.613  1.00  0.00     0.000 HD 
ENDBRANCH  11  14
ENDBRANCH   9  11
ENDBRANCH   6   9
ENDBRANCH   2   3
TORSDOF 4
ENDMDL
MODEL        6
REMARK 921   NORMALIZED FREE ENERGY PREDICTED BY IDOCK:   -6.14 KCAL/MOL
REMARK 922        TOTAL FREE ENERGY PREDICTED BY IDOCK:   -7.92 KCAL/MOL
REMARK 923 INTER-LIGAND FREE ENERGY PREDICTED BY IDOCK:   -7.69 KCAL/MOL
REMARK 924 INTRA-LIGAND FREE ENERGY PREDICTED BY IDOCK:   -0.23 KCAL/MOL
REMARK 927      BINDING AFFINITY PREDICTED BY RF-SCORE:    0.00 PKD
ROOT
HETATM    1  C   UNL     1     -12.693  12.134  63.771  1.00  0.00    -0.411 C  
HETATM    2  O   UNL     1     -13.153  13.136  64.672  1.00  0.00    -0.699 OA 
ENDROOT
BRANCH   2   3
HETATM    3  C   UNL     1     -12.207  13.985  65.153  1.00  0.00    -0.436 A  
HETATM    4  C   UNL     1     -11.819  15.033  64.344  1.00  0.00    -0.339 A  
HETATM    5  N   UNL     1     -10.922  15.975  64.701  1.00  0.00    -0.621 NA 
HETATM    6  C   UNL     1     -10.403  15.840  65.921  1.00  0.00    -0.354 A  
HETATM    7  C   UNL     1     -11.600  13.964  66.393  1.00  0.00    -0.367 A  
HETATM    8  N   UNL     1     -10.675  14.868  66.799  1.00  0.00    -0.306 NA 
BRANCH   6   9
HETATM    9  N   UNL     1      -9.440  16.767  66.287  1.00  0.00    -0.282 N  
HETATM   10  H   UNL     1      -8.444  16.552  66.246  1.00  0.00     0.000 HD 
BRANCH   9  11
HETATM   11  S   UNL     1     -10.000  18.250  66.798  1.00  0.00    -0.374 S  
HETATM   12  O   UNL     1     -10.909  18.085  67.913  1.00  0.00    -0.367 OA 
HETATM   13  O   UNL     1     -10.425  18.956  65.605  1.00  0.00    -0.569 OA 
BRANCH  11  14
HETATM   14  C   UNL     1      -8.563  19.110  67.414  1.00  0.00    -0.286 A  
HETATM   15  C   UNL     1      -8.097  20.247  66.751  1.00  0.00    -0.321 A  
HETATM   16  C   UNL     1      -6.989  20.935  67.255  1.00  0.00    -0.436 A  
HETATM   17  C   UNL     1      -6.320  20.477  68.395  1.00  0.00    -0.316 A  
HETATM   18  N   UNL     1      -5.269  21.222  68.943  1.00  0.00    -0.476 NA 
HETATM   19  C   UNL     1      -6.865  19.403  69.106  1.00  0.00    -0.374 A  
HETATM   20  H1  UNL     1      -4.781  20.889  69.774  1.00  0.00     0.000 HD 
HETATM   21  C   UNL     1      -7.978  18.712  68.618  1.00  0.00    -0.356 A  
HETATM   22  H2  UNL     1      -5.607  22.167  69.126  1.00  0.00     0.000 HD 
ENDBRANCH  11  14
ENDBRANCH   9  11
ENDBRANCH   6   9
ENDBRANCH   2   3
TORSDOF 4
ENDMDL
MODEL        7
REMARK 921   NORMALIZED FREE ENERGY PREDICTED BY IDOCK:   -6.14 KCAL/MOL
REMARK 922        TOTAL FREE ENERGY PREDICTED BY IDOCK:   -7.92 KCAL/MOL
REMARK 923 INTER-LIGAND FREE ENERGY PREDICTED BY IDOCK:   -7.61 KCAL/MOL
REMARK 924 INTRA-LIGAND FREE ENERGY PREDICTED BY IDOCK:   -0.31 KCAL/MOL
REMARK 927      BINDING AFFINITY PREDICTED BY RF-SCORE:    0.00 PKD
ROOT
HETATM    1  C   UNL     1     -14.051   8.059  72.015  1.00  0.00    -0.337 C  
HETATM    2  O   UNL     1     -13.133   9.016  72.531  1.00  0.00    -0.433 OA 
ENDROOT
BRANCH   2   3
HETATM    3  C   UNL     1     -12.430   9.725  71.609  1.00  0.00    -0.410 A  
HETATM    4  C   UNL     1     -12.913  10.968  71.255  1.00  0.00    -0.372 A  
HETATM    5  N   UNL     1     -12.303  11.799  70.385  1.00  0.00    -0.306 NA 
HETATM    6  C   UNL     1     -11.165  11.345  69.860  1.00  0.00    -0.143 A  
HETATM    7  C   UNL     1     -11.240   9.379  71.000  1.00  0.00    -0.342 A  
HETATM    8  N   UNL     1     -10.593  10.160  70.101  1.00  0.00    -0.285 NA 
BRANCH   6   9
HETATM    9  N   UNL     1     -10.550  12.161  68.923  1.00  0.00    -0.359 N  
HETATM   10  H   UNL     1     -10.119  13.048  69.183  1.00  0.00     0.000 HD 
BRANCH   9  11
HETATM   11  S   UNL     1     -10.556  11.613  67.350  1.00  0.00    -0.231 S  
HETATM   12  O   UNL     1     -11.659  10.697  67.144  1.00  0.00    -0.321 OA 
HETATM   13  O   UNL     1      -9.196  11.199  67.060  1.00  0.00    -0.160 OA 
BRANCH  11  14
HETATM   14  C   UNL     1     -10.875  13.055  66.349  1.00  0.00    -0.278 A  
HETATM   15  C   UNL     1      -9.865  14.000  66.152  1.00  0.00    -0.319 A  
HETATM   16  C   UNL     1     -10.110  15.113  65.342  1.00  0.00    -0.384 A  
HETATM   17  C   UNL     1     -11.365  15.309  64.755  1.00  0.00    -0.391 A  
HETATM   18  N   UNL     1     -11.572  16.377  63.874  1.00  0.00    -1.602 NA 
HETATM   19  C   UNL     1     -12.325  14.300  64.874  1.00  0.00    -0.435 A  
HETATM   20  H1  UNL     1     -12.486  16.520  63.446  1.00  0.00     0.000 HD 
HETATM   21  C   UNL     1     -12.091  13.177  65.674  1.00  0.00    -0.501 A  
HETATM   22  H2  UNL     1     -10.875  16.320  63.132  1.00  0.00     0.000 HD 
ENDBRANCH  11  14
ENDBRANCH   9  11
ENDBRANCH   6   9
ENDBRANCH   2   3
TORSDOF 4
ENDMDL
MODEL        8
REMARK 921   NORMALIZED FREE ENERGY PREDICTED BY IDOCK:   -6.09 KCAL/MOL
REMARK 922        TOTAL FREE ENERGY PREDICTED BY IDOCK:   -7.87 KCAL/MOL
REMARK 923 INTER-LIGAND FREE ENERGY PREDICTED BY IDOCK:   -7.65 KCAL/MOL
REMARK 924 INTRA-LIGAND FREE ENERGY PREDICTED BY IDOCK:   -0.21 KCAL/MOL
REMARK 927      BINDING AFFINITY PREDICTED BY RF-SCORE:    0.00 PKD
ROOT
HETATM    1  C   UNL     1      -9.494  11.337  63.030  1.00  0.00    -0.367 C  
HETATM    2  O   UNL     1     -10.361  12.466  63.048  1.00  0.00    -0.203 OA 
ENDROOT
BRANCH   2   3
HETATM    3  C   UNL     1     -10.876  12.802  64.260  1.00  0.00    -0.390 A  
HETATM    4  C   UNL     1     -10.382  13.935  64.872  1.00  0.00    -0.406 A  
HETATM    5  N   UNL     1     -10.824  14.412  66.054  1.00  0.00    -0.303 NA 
HETATM    6  C   UNL     1     -11.799  13.709  66.628  1.00  0.00    -0.409 A  
HETATM    7  C   UNL     1     -11.888  12.171  64.955  1.00  0.00    -0.302 A  
HETATM    8  N   UNL     1     -12.357  12.588  66.157  1.00  0.00    -0.539 NA 
BRANCH   6   9
HETATM    9  N   UNL     1     -12.230  14.152  67.869  1.00  0.00    -0.563 N  
HETATM   10  H   UNL     1     -12.982  14.834  67.965  1.00  0.00     0.000 HD 
BRANCH   9  11
HETATM   11  S   UNL     1     -11.452  13.507  69.194  1.00  0.00    -0.308 S  
HETATM   12  O   UNL     1     -10.032  13.786  69.124  1.00  0.00    -0.015 OA 
HETATM   13  O   UNL     1     -11.926  12.143  69.318  1.00  0.00    -0.300 OA 
BRANCH  11  14
HETATM   14  C   UNL     1     -12.095  14.400  70.599  1.00  0.00    -0.334 A  
HETATM   15  C   UNL     1     -13.183  13.886  71.309  1.00  0.00    -0.352 A  
HETATM   16  C   UNL     1     -13.663  14.574  72.427  1.00  0.00    -0.583 A  
HETATM   17  C   UNL     1     -13.091  15.788  72.822  1.00  0.00    -0.503 A  
HETATM   18  N   UNL     1     -13.521  16.422  73.994  1.00  0.00    -0.772 NA 
HETATM   19  C   UNL     1     -11.938  16.230  72.167  1.00  0.00    -0.575 A  
HETATM   20  H1  UNL     1     -13.104  17.307  74.282  1.00  0.00     0.000 HD 
HETATM   21  C   UNL     1     -11.440  15.547  71.052  1.00  0.00    -0.426 A  
HETATM   22  H2  UNL     1     -13.436  15.760  74.766  1.00  0.00     0.000 HD 
ENDBRANCH  11  14
ENDBRANCH   9  11
ENDBRANCH   6   9
ENDBRANCH   2   3
TORSDOF 4
ENDMDL
MODEL        9
REMARK 921   NORMALIZED FREE ENERGY PREDICTED BY IDOCK:   -6.08 KCAL/MOL
REMARK 922        TOTAL FREE ENERGY PREDICTED BY IDOCK:   -7.86 KCAL/MOL
REMARK 923 INTER-LIGAND FREE ENERGY PREDICTED BY IDOCK:   -7.61 KCAL/MOL
REMARK 924 INTRA-LIGAND FREE ENERGY PREDICTED BY IDOCK:   -0.25 KCAL/MOL
REMARK 927      BINDING AFFINITY PREDICTED BY RF-SCORE:    0.00 PKD
ROOT
HETATM    1  C   UNL     1      -9.967  19.556  68.707  1.00  0.00    -0.463 C  
HETATM    2  O   UNL     1      -9.253  18.345  68.484  1.00  0.00    -0.317 OA 
ENDROOT
BRANCH   2   3
HETATM    3  C   UNL     1      -9.640  17.617  67.403  1.00  0.00    -0.267 A  
HETATM    4  C   UNL     1      -9.296  16.281  67.378  1.00  0.00    -0.221 A  
HETATM    5  N   UNL     1      -9.642  15.427  66.393  1.00  0.00    -0.271 NA 
HETATM    6  C   UNL     1     -10.362  15.955  65.403  1.00  0.00    -0.372 A  
HETATM    7  C   UNL     1     -10.391  18.034  66.323  1.00  0.00    -0.382 A  
HETATM    8  N   UNL     1     -10.750  17.230  65.293  1.00  0.00    -0.617 NA 
BRANCH   6   9
HETATM    9  N   UNL     1     -10.683  15.106  64.355  1.00  0.00    -0.524 N  
HETATM   10  H   UNL     1     -10.212  15.164  63.453  1.00  0.00     0.000 HD 
BRANCH   9  11
HETATM   11  S   UNL     1     -11.882  13.988  64.653  1.00  0.00    -0.439 S  
HETATM   12  O   UNL     1     -12.770  13.892  63.513  1.00  0.00    -0.797 OA 
HETATM   13  O   UNL     1     -12.408  14.298  65.968  1.00  0.00    -0.432 OA 
BRANCH  11  14
HETATM   14  C   UNL     1     -11.040  12.422  64.797  1.00  0.00    -0.304 A  
HETATM   15  C   UNL     1     -10.989  11.772  66.032  1.00  0.00    -0.355 A  
HETATM   16  C   UNL     1     -10.355  10.530  66.134  1.00  0.00    -0.276 A  
HETATM   17  C   UNL     1      -9.739   9.948  65.021  1.00  0.00    -0.288 A  
HETATM   18  N   UNL     1      -9.186   8.665  65.112  1.00  0.00    -0.431 NA 
HETATM   19  C   UNL     1      -9.895  10.559  63.773  1.00  0.00    -0.363 A  
HETATM   20  H1  UNL     1      -8.737   8.240  64.301  1.00  0.00     0.000 HD 
HETATM   21  C   UNL     1     -10.534  11.796  63.655  1.00  0.00    -0.490 A  
HETATM   22  H2  UNL     1      -9.907   8.028  65.451  1.00  0.00     0.000 HD 
ENDBRANCH  11  14
ENDBRANCH   9  11
ENDBRANCH   6   9
ENDBRANCH   2   3
TORSDOF 4
ENDMDL
MODEL       10
REMARK 921   NORMALIZED FREE ENERGY PREDICTED BY IDOCK:   -6.06 KCAL/MOL
REMARK 922        TOTAL FREE ENERGY PREDICTED BY IDOCK:   -7.83 KCAL/MOL
REMARK 923 INTER-LIGAND FREE ENERGY PREDICTED BY IDOCK:   -7.52 KCAL/MOL
REMARK 924 INTRA-LIGAND FREE ENERGY PREDICTED BY IDOCK:   -0.31 KCAL/MOL
REMARK 927      BINDING AFFINITY PREDICTED BY RF-SCORE:    0.00 PKD
ROOT
HETATM    1  C   UNL     1     -12.682  15.927  73.654  1.00  0.00    -0.604 C  
HETATM    2  O   UNL     1     -11.754  16.402  72.686  1.00  0.00    -0.501 OA 
ENDROOT
BRANCH   2   3
HETATM    3  C   UNL     1     -11.767  15.766  71.485  1.00  0.00    -0.453 A  
HETATM    4  C   UNL     1     -12.461  14.576  71.401  1.00  0.00    -0.353 A  
HETATM    5  N   UNL     1     -12.594  13.854  70.270  1.00  0.00    -0.304 NA 
HETATM    6  C   UNL     1     -12.000  14.363  69.191  1.00  0.00    -0.322 A  
HETATM    7  C   UNL     1     -11.206  16.185  70.296  1.00  0.00    -0.381 A  
HETATM    8  N   UNL     1     -11.286  15.492  69.134  1.00  0.00    -0.276 NA 
BRANCH   6   9
HETATM    9  N   UNL     1     -12.080  13.610  68.031  1.00  0.00    -0.372 N  
HETATM   10  H   UNL     1     -12.536  13.964  67.190  1.00  0.00     0.000 HD 
BRANCH   9  11
HETATM   11  S   UNL     1     -11.389  12.094  68.085  1.00  0.00    -0.319 S  
HETATM   12  O   UNL     1     -12.371  11.112  68.497  1.00  0.00    -0.561 OA 
HETATM   13  O   UNL     1     -10.147  12.241  68.819  1.00  0.00    -0.175 OA 
BRANCH  11  14
HETATM   14  C   UNL     1     -10.944  11.718  66.399  1.00  0.00    -0.294 A  
HETATM   15  C   UNL     1      -9.935  10.788  66.138  1.00  0.00    -0.283 A  
HETATM   16  C   UNL     1      -9.611  10.473  64.815  1.00  0.00    -0.342 A  
HETATM   17  C   UNL     1     -10.261  11.106  63.749  1.00  0.00    -0.377 A  
HETATM   18  N   UNL     1      -9.992  10.718  62.431  1.00  0.00    -0.701 NA 
HETATM   19  C   UNL     1     -11.340  11.949  64.028  1.00  0.00    -0.475 A  
HETATM   20  H1  UNL     1     -10.466  11.179  61.654  1.00  0.00     0.000 HD 
HETATM   21  C   UNL     1     -11.681  12.266  65.346  1.00  0.00    -0.424 A  
HETATM   22  H2  UNL     1     -10.149   9.714  62.353  1.00  0.00     0.000 HD 
ENDBRANCH  11  14
ENDBRANCH   9  11
ENDBRANCH   6   9
ENDBRANCH   2   3
TORSDOF 4
ENDMDL
MODEL       11
REMARK 921   NORMALIZED FREE ENERGY PREDICTED BY IDOCK:   -6.03 KCAL/MOL
REMARK 922        TOTAL FREE ENERGY PREDICTED BY IDOCK:   -7.79 KCAL/MOL
REMARK 923 INTER-LIGAND FREE ENERGY PREDICTED BY IDOCK:   -7.46 KCAL/MOL
REMARK 924 INTRA-LIGAND FREE ENERGY PREDICTED BY IDOCK:   -0.34 KCAL/MOL
REMARK 927      BINDING AFFINITY PREDICTED BY RF-SCORE:    0.00 PKD
ROOT
HETATM    1  C   UNL     1      -9.646  10.643  63.633  1.00  0.00    -0.314 C  
HETATM    2  O   UNL     1     -10.271  11.907  63.436  1.00  0.00    -0.413 OA 
ENDROOT
BRANCH   2   3
HETATM    3  C   UNL     1     -10.800  12.488  64.545  1.00  0.00    -0.328 A  
HETATM    4  C   UNL     1     -10.878  13.866  64.568  1.00  0.00    -0.368 A  
HETATM    5  N   UNL     1     -11.413  14.578  65.581  1.00  0.00    -0.338 NA 
HETATM    6  C   UNL     1     -11.882  13.861  66.601  1.00  0.00    -0.420 A  
HETATM    7  C   UNL     1     -11.328  11.867  65.659  1.00  0.00    -0.284 A  
HETATM    8  N   UNL     1     -11.857  12.529  66.717  1.00  0.00    -0.522 NA 
BRANCH   6   9
HETATM    9  N   UNL     1     -12.388  14.576  67.676  1.00  0.00    -0.585 N  
HETATM   10  H   UNL     1     -13.382  14.570  67.906  1.00  0.00     0.000 HD 
BRANCH   9  11
HETATM   11  S   UNL     1     -11.283  15.445  68.569  1.00  0.00    -0.335 S  
HETATM   12  O   UNL     1     -11.157  16.788  68.041  1.00  0.00    -0.336 OA 
HETATM   13  O   UNL     1     -10.114  14.598  68.703  1.00  0.00    -0.225 OA 
BRANCH  11  14
HETATM   14  C   UNL     1     -11.999  15.586  70.197  1.00  0.00    -0.366 A  
HETATM   15  C   UNL     1     -13.166  14.882  70.505  1.00  0.00    -0.232 A  
HETATM   16  C   UNL     1     -13.707  14.971  71.792  1.00  0.00    -0.551 A  
HETATM   17  C   UNL     1     -13.113  15.785  72.763  1.00  0.00    -0.503 A  
HETATM   18  N   UNL     1     -13.610  15.797  74.072  1.00  0.00    -0.493 NA 
HETATM   19  C   UNL     1     -11.889  16.394  72.470  1.00  0.00    -0.547 A  
HETATM   20  H1  UNL     1     -13.178  16.391  74.780  1.00  0.00     0.000 HD 
HETATM   21  C   UNL     1     -11.333  16.307  71.191  1.00  0.00    -0.297 A  
HETATM   22  H2  UNL     1     -13.622  14.838  74.419  1.00  0.00     0.000 HD 
ENDBRANCH  11  14
ENDBRANCH   9  11
ENDBRANCH   6   9
ENDBRANCH   2   3
TORSDOF 4
ENDMDL
MODEL       12
REMARK 921   NORMALIZED FREE ENERGY PREDICTED BY IDOCK:   -6.03 KCAL/MOL
REMARK 922        TOTAL FREE ENERGY PREDICTED BY IDOCK:   -7.79 KCAL/MOL
REMARK 923 INTER-LIGAND FREE ENERGY PREDICTED BY IDOCK:   -7.73 KCAL/MOL
REMARK 924 INTRA-LIGAND FREE ENERGY PREDICTED BY IDOCK:   -0.07 KCAL/MOL
REMARK 927      BINDING AFFINITY PREDICTED BY RF-SCORE:    0.00 PKD
ROOT
HETATM    1  C   UNL     1     -10.084  19.787  66.242  1.00  0.00    -0.496 C  
HETATM    2  O   UNL     1      -9.380  18.564  66.058  1.00  0.00    -0.496 OA 
ENDROOT
BRANCH   2   3
HETATM    3  C   UNL     1     -10.042  17.435  66.422  1.00  0.00    -0.327 A  
HETATM    4  C   UNL     1     -10.648  17.421  67.662  1.00  0.00    -0.350 A  
HETATM    5  N   UNL     1     -11.370  16.389  68.141  1.00  0.00    -0.281 NA 
HETATM    6  C   UNL     1     -11.477  15.337  67.330  1.00  0.00    -0.241 A  
HETATM    7  C   UNL     1     -10.235  16.287  65.679  1.00  0.00    -0.343 A  
HETATM    8  N   UNL     1     -10.931  15.209  66.116  1.00  0.00    -0.335 NA 
BRANCH   6   9
HETATM    9  N   UNL     1     -12.171  14.244  67.826  1.00  0.00    -0.598 N  
HETATM   10  H   UNL     1     -13.074  13.963  67.445  1.00  0.00     0.000 HD 
BRANCH   9  11
HETATM   11  S   UNL     1     -11.447  13.416  69.077  1.00  0.00    -0.320 S  
HETATM   12  O   UNL     1     -10.013  13.619  69.048  1.00  0.00    -0.068 OA 
HETATM   13  O   UNL     1     -11.998  12.075  69.048  1.00  0.00    -0.307 OA 
BRANCH  11  14
HETATM   14  C   UNL     1     -12.056  14.185  70.567  1.00  0.00    -0.350 A  
HETATM   15  C   UNL     1     -13.113  13.600  71.268  1.00  0.00    -0.357 A  
HETATM   16  C   UNL     1     -13.567  14.190  72.452  1.00  0.00    -0.632 A  
HETATM   17  C   UNL     1     -12.999  15.379  72.922  1.00  0.00    -0.470 A  
HETATM   18  N   UNL     1     -13.399  15.912  74.153  1.00  0.00    -0.736 NA 
HETATM   19  C   UNL     1     -11.874  15.890  72.268  1.00  0.00    -0.617 A  
HETATM   20  H1  UNL     1     -12.986  16.779  74.497  1.00  0.00     0.000 HD 
HETATM   21  C   UNL     1     -11.403  15.305  71.088  1.00  0.00    -0.402 A  
HETATM   22  H2  UNL     1     -13.280  15.194  74.868  1.00  0.00     0.000 HD 
ENDBRANCH  11  14
ENDBRANCH   9  11
ENDBRANCH   6   9
ENDBRANCH   2   3
TORSDOF 4
ENDMDL
MODEL       13
REMARK 921   NORMALIZED FREE ENERGY PREDICTED BY IDOCK:   -5.99 KCAL/MOL
REMARK 922        TOTAL FREE ENERGY PREDICTED BY IDOCK:   -7.74 KCAL/MOL
REMARK 923 INTER-LIGAND FREE ENERGY PREDICTED BY IDOCK:   -7.44 KCAL/MOL
REMARK 924 INTRA-LIGAND FREE ENERGY PREDICTED BY IDOCK:   -0.29 KCAL/MOL
REMARK 927      BINDING AFFINITY PREDICTED BY RF-SCORE:    0.00 PKD
ROOT
HETATM    1  C   UNL     1     -10.385  19.302  66.113  1.00  0.00    -0.494 C  
HETATM    2  O   UNL     1      -9.856  17.994  65.925  1.00  0.00    -0.535 OA 
ENDROOT
BRANCH   2   3
HETATM    3  C   UNL     1     -10.454  17.002  66.635  1.00  0.00    -0.253 A  
HETATM    4  C   UNL     1     -10.753  15.831  65.969  1.00  0.00    -0.306 A  
HETATM    5  N   UNL     1     -11.310  14.749  66.550  1.00  0.00    -0.351 NA 
HETATM    6  C   UNL     1     -11.571  14.867  67.851  1.00  0.00    -0.344 A  
HETATM    7  C   UNL     1     -10.768  16.991  67.979  1.00  0.00    -0.365 A  
HETATM    8  N   UNL     1     -11.350  15.944  68.614  1.00  0.00    -0.359 NA 
BRANCH   6   9
HETATM    9  N   UNL     1     -12.193  13.786  68.456  1.00  0.00    -0.444 N  
HETATM   10  H   UNL     1     -13.124  13.860  68.866  1.00  0.00     0.000 HD 
BRANCH   9  11
HETATM   11  S   UNL     1     -11.333  12.358  68.477  1.00  0.00    -0.320 S  
HETATM   12  O   UNL     1      -9.939  12.619  68.769  1.00  0.00    -0.144 OA 
HETATM   13  O   UNL     1     -11.709  11.642  67.274  1.00  0.00    -0.568 OA 
BRANCH  11  14
HETATM   14  C   UNL     1     -11.994  11.431  69.850  1.00  0.00    -0.359 A  
HETATM   15  C   UNL     1     -11.642  10.089  70.015  1.00  0.00    -0.279 A  
HETATM   16  C   UNL     1     -12.138   9.374  71.110  1.00  0.00    -0.406 A  
HETATM   17  C   UNL     1     -13.011   9.977  72.022  1.00  0.00    -0.416 A  
HETATM   18  N   UNL     1     -13.429   9.281  73.162  1.00  0.00    -0.783 NA 
HETATM   19  C   UNL     1     -13.264  11.347  71.903  1.00  0.00    -0.485 A  
HETATM   20  H1  UNL     1     -14.065   9.720  73.828  1.00  0.00     0.000 HD 
HETATM   21  C   UNL     1     -12.767  12.076  70.818  1.00  0.00    -0.231 A  
HETATM   22  H2  UNL     1     -12.601   8.967  73.668  1.00  0.00     0.000 HD 
ENDBRANCH  11  14
ENDBRANCH   9  11
ENDBRANCH   6   9
ENDBRANCH   2   3
TORSDOF 4
ENDMDL
MODEL       14
REMARK 921   NORMALIZED FREE ENERGY PREDICTED BY IDOCK:   -5.98 KCAL/MOL
REMARK 922        TOTAL FREE ENERGY PREDICTED BY IDOCK:   -7.73 KCAL/MOL
REMARK 923 INTER-LIGAND FREE ENERGY PREDICTED BY IDOCK:   -7.49 KCAL/MOL
REMARK 924 INTRA-LIGAND FREE ENERGY PREDICTED BY IDOCK:   -0.24 KCAL/MOL
REMARK 927      BINDING AFFINITY PREDICTED BY RF-SCORE:    0.00 PKD
ROOT
HETATM    1  C   UNL     1     -10.194  19.902  66.277  1.00  0.00    -0.502 C  
HETATM    2  O   UNL     1      -9.642  18.752  66.909  1.00  0.00    -0.290 OA 
ENDROOT
BRANCH   2   3
HETATM    3  C   UNL     1      -9.927  17.558  66.327  1.00  0.00    -0.308 A  
HETATM    4  C   UNL     1     -10.743  17.568  65.214  1.00  0.00     0.086 A  
HETATM    5  N   UNL     1     -11.080  16.468  64.510  1.00  0.00    -0.866 NA 
HETATM    6  C   UNL     1     -10.569  15.322  64.958  1.00  0.00    -0.418 A  
HETATM    7  C   UNL     1      -9.459  16.308  66.681  1.00  0.00    -0.248 A  
HETATM    8  N   UNL     1      -9.781  15.165  66.027  1.00  0.00    -0.308 NA 
BRANCH   6   9
HETATM    9  N   UNL     1     -10.946  14.173  64.280  1.00  0.00    -0.593 N  
HETATM   10  H   UNL     1     -10.456  13.856  63.444  1.00  0.00     0.000 HD 
BRANCH   9  11
HETATM   11  S   UNL     1     -12.244  13.338  64.909  1.00  0.00    -0.435 S  
HETATM   12  O   UNL     1     -12.686  12.325  63.974  1.00  0.00    -0.635 OA 
HETATM   13  O   UNL     1     -13.171  14.340  65.397  1.00  0.00    -0.688 OA 
BRANCH  11  14
HETATM   14  C   UNL     1     -11.608  12.489  66.343  1.00  0.00    -0.391 A  
HETATM   15  C   UNL     1     -10.688  11.450  66.183  1.00  0.00    -0.320 A  
HETATM   16  C   UNL     1     -10.169  10.808  67.312  1.00  0.00    -0.245 A  
HETATM   17  C   UNL     1     -10.588  11.169  68.597  1.00  0.00    -0.193 A  
HETATM   18  N   UNL     1      -9.997  10.582  69.722  1.00  0.00    -0.429 NA 
HETATM   19  C   UNL     1     -11.424  12.280  68.742  1.00  0.00    -0.360 A  
HETATM   20  H1  UNL     1     -10.302  10.845  70.659  1.00  0.00     0.000 HD 
HETATM   21  C   UNL     1     -11.944  12.937  67.622  1.00  0.00    -0.344 A  
HETATM   22  H2  UNL     1      -8.988  10.719  69.662  1.00  0.00     0.000 HD 
ENDBRANCH  11  14
ENDBRANCH   9  11
ENDBRANCH   6   9
ENDBRANCH   2   3
TORSDOF 4
ENDMDL
MODEL       15
REMARK 921   NORMALIZED FREE ENERGY PREDICTED BY IDOCK:   -5.94 KCAL/MOL
REMARK 922        TOTAL FREE ENERGY PREDICTED BY IDOCK:   -7.68 KCAL/MOL
REMARK 923 INTER-LIGAND FREE ENERGY PREDICTED BY IDOCK:   -7.35 KCAL/MOL
REMARK 924 INTRA-LIGAND FREE ENERGY PREDICTED BY IDOCK:   -0.34 KCAL/MOL
REMARK 927      BINDING AFFINITY PREDICTED BY RF-SCORE:    0.00 PKD
ROOT
HETATM    1  C   UNL     1     -12.258  12.723  63.331  1.00  0.00    -0.504 C  
HETATM    2  O   UNL     1     -11.855  13.756  64.223  1.00  0.00    -0.399 OA 
ENDROOT
BRANCH   2   3
HETATM    3  C   UNL     1     -11.340  13.348  65.413  1.00  0.00    -0.291 A  
HETATM    4  C   UNL     1     -12.230  13.004  66.410  1.00  0.00    -0.280 A  
HETATM    5  N   UNL     1     -11.868  12.545  67.625  1.00  0.00    -0.419 NA 
HETATM    6  C   UNL     1     -10.556  12.437  67.829  1.00  0.00    -0.217 A  
HETATM    7  C   UNL     1     -10.012  13.182  65.750  1.00  0.00    -0.252 A  
HETATM    8  N   UNL     1      -9.586  12.748  66.962  1.00  0.00    -0.222 NA 
BRANCH   6   9
HETATM    9  N   UNL     1     -10.161  12.018  69.090  1.00  0.00    -0.414 N  
HETATM   10  H   UNL     1      -9.955  12.680  69.837  1.00  0.00     0.000 HD 
BRANCH   9  11
HETATM   11  S   UNL     1     -10.042  10.371  69.317  1.00  0.00    -0.228 S  
HETATM   12  O   UNL     1      -8.781  10.043  69.949  1.00  0.00    -0.197 OA 
HETATM   13  O   UNL     1     -10.410   9.761  68.054  1.00  0.00    -0.183 OA 
BRANCH  11  14
HETATM   14  C   UNL     1     -11.334   9.961  70.477  1.00  0.00    -0.327 A  
HETATM   15  C   UNL     1     -11.392   8.678  71.027  1.00  0.00    -0.322 A  
HETATM   16  C   UNL     1     -12.388   8.370  71.959  1.00  0.00    -0.413 A  
HETATM   17  C   UNL     1     -13.348   9.321  72.320  1.00  0.00    -0.477 A  
HETATM   18  N   UNL     1     -14.284   9.032  73.320  1.00  0.00    -1.188 NA 
HETATM   19  C   UNL     1     -13.209  10.629  71.845  1.00  0.00    -0.528 A  
HETATM   20  H1  UNL     1     -14.985   9.725  73.584  1.00  0.00     0.000 HD 
HETATM   21  C   UNL     1     -12.213  10.953  70.919  1.00  0.00    -0.485 A  
HETATM   22  H2  UNL     1     -13.780   8.749  74.160  1.00  0.00     0.000 HD 
ENDBRANCH  11  14
ENDBRANCH   9  11
ENDBRANCH   6   9
ENDBRANCH   2   3
TORSDOF 4
ENDMDL
MODEL       16
REMARK 921   NORMALIZED FREE ENERGY PREDICTED BY IDOCK:   -5.91 KCAL/MOL
REMARK 922        TOTAL FREE ENERGY PREDICTED BY IDOCK:   -7.64 KCAL/MOL
REMARK 923 INTER-LIGAND FREE ENERGY PREDICTED BY IDOCK:   -7.29 KCAL/MOL
REMARK 924 INTRA-LIGAND FREE ENERGY PREDICTED BY IDOCK:   -0.35 KCAL/MOL
REMARK 927      BINDING AFFINITY PREDICTED BY RF-SCORE:    0.00 PKD
ROOT
HETATM    1  C   UNL     1     -12.956   7.298  71.784  1.00  0.00    -0.326 C  
HETATM    2  O   UNL     1     -12.637   8.606  72.248  1.00  0.00    -0.365 OA 
ENDROOT
BRANCH   2   3
HETATM    3  C   UNL     1     -12.040   9.429  71.347  1.00  0.00    -0.363 A  
HETATM    4  C   UNL     1     -12.727  10.563  70.964  1.00  0.00    -0.408 A  
HETATM    5  N   UNL     1     -12.245  11.489  70.110  1.00  0.00    -0.319 NA 
HETATM    6  C   UNL     1     -11.025  11.249  69.631  1.00  0.00    -0.151 A  
HETATM    7  C   UNL     1     -10.785   9.303  70.785  1.00  0.00    -0.284 A  
HETATM    8  N   UNL     1     -10.257  10.188  69.903  1.00  0.00    -0.249 NA 
BRANCH   6   9
HETATM    9  N   UNL     1     -10.533  12.161  68.711  1.00  0.00    -0.338 N  
HETATM   10  H   UNL     1     -10.238  13.097  68.987  1.00  0.00     0.000 HD 
BRANCH   9  11
HETATM   11  S   UNL     1     -10.452  11.643  67.130  1.00  0.00    -0.229 S  
HETATM   12  O   UNL     1     -11.535  10.723  66.849  1.00  0.00    -0.304 OA 
HETATM   13  O   UNL     1      -9.076  11.246  66.904  1.00  0.00    -0.160 OA 
BRANCH  11  14
HETATM   14  C   UNL     1     -10.731  13.101  66.141  1.00  0.00    -0.278 A  
HETATM   15  C   UNL     1     -11.770  13.118  65.207  1.00  0.00    -0.375 A  
HETATM   16  C   UNL     1     -12.005  14.275  64.456  1.00  0.00    -0.478 A  
HETATM   17  C   UNL     1     -11.188  15.401  64.603  1.00  0.00    -0.364 A  
HETATM   18  N   UNL     1     -11.486  16.582  63.913  1.00  0.00    -1.599 NA 
HETATM   19  C   UNL     1     -10.225  15.403  65.616  1.00  0.00    -0.403 A  
HETATM   20  H1  UNL     1     -10.891  17.403  64.019  1.00  0.00     0.000 HD 
HETATM   21  C   UNL     1      -9.986  14.257  66.381  1.00  0.00    -0.302 A  
HETATM   22  H2  UNL     1     -12.446  16.849  64.133  1.00  0.00     0.000 HD 
ENDBRANCH  11  14
ENDBRANCH   9  11
ENDBRANCH   6   9
ENDBRANCH   2   3
TORSDOF 4
ENDMDL
MODEL       17
REMARK 921   NORMALIZED FREE ENERGY PREDICTED BY IDOCK:   -5.83 KCAL/MOL
REMARK 922        TOTAL FREE ENERGY PREDICTED BY IDOCK:   -7.54 KCAL/MOL
REMARK 923 INTER-LIGAND FREE ENERGY PREDICTED BY IDOCK:   -7.36 KCAL/MOL
REMARK 924 INTRA-LIGAND FREE ENERGY PREDICTED BY IDOCK:   -0.18 KCAL/MOL
REMARK 927      BINDING AFFINITY PREDICTED BY RF-SCORE:    0.00 PKD
ROOT
HETATM    1  C   UNL     1      -8.996  19.144  68.608  1.00  0.00    -0.369 C  
HETATM    2  O   UNL     1     -10.295  19.011  68.040  1.00  0.00    -0.379 OA 
ENDROOT
BRANCH   2   3
HETATM    3  C   UNL     1     -10.424  18.079  67.060  1.00  0.00    -0.351 A  
HETATM    4  C   UNL     1     -10.091  16.776  67.370  1.00  0.00    -0.276 A  
HETATM    5  N   UNL     1     -10.205  15.741  66.514  1.00  0.00    -0.276 NA 
HETATM    6  C   UNL     1     -10.672  16.045  65.304  1.00  0.00    -0.399 A  
HETATM    7  C   UNL     1     -10.902  18.258  65.778  1.00  0.00     0.030 A  
HETATM    8  N   UNL     1     -11.016  17.261  64.865  1.00  0.00    -0.850 NA 
BRANCH   6   9
HETATM    9  N   UNL     1     -10.747  15.004  64.392  1.00  0.00    -0.530 N  
HETATM   10  H   UNL     1     -10.059  14.889  63.648  1.00  0.00     0.000 HD 
BRANCH   9  11
HETATM   11  S   UNL     1     -12.023  13.949  64.579  1.00  0.00    -0.452 S  
HETATM   12  O   UNL     1     -12.763  13.835  63.340  1.00  0.00    -0.795 OA 
HETATM   13  O   UNL     1     -12.697  14.342  65.802  1.00  0.00    -0.464 OA 
BRANCH  11  14
HETATM   14  C   UNL     1     -11.278  12.359  64.895  1.00  0.00    -0.311 A  
HETATM   15  C   UNL     1     -10.727  11.629  63.840  1.00  0.00    -0.459 A  
HETATM   16  C   UNL     1     -10.116  10.397  64.097  1.00  0.00    -0.262 A  
HETATM   17  C   UNL     1     -10.085   9.871  65.393  1.00  0.00    -0.200 A  
HETATM   18  N   UNL     1      -9.394   8.682  65.653  1.00  0.00    -0.417 NA 
HETATM   19  C   UNL     1     -10.543  10.663  66.450  1.00  0.00    -0.240 A  
HETATM   20  H1  UNL     1      -9.370   8.298  66.598  1.00  0.00     0.000 HD 
HETATM   21  C   UNL     1     -11.148  11.901  66.208  1.00  0.00    -0.364 A  
HETATM   22  H2  UNL     1      -8.434   8.790  65.327  1.00  0.00     0.000 HD 
ENDBRANCH  11  14
ENDBRANCH   9  11
ENDBRANCH   6   9
ENDBRANCH   2   3
TORSDOF 4
ENDMDL
MODEL       18
REMARK 921   NORMALIZED FREE ENERGY PREDICTED BY IDOCK:   -5.77 KCAL/MOL
REMARK 922        TOTAL FREE ENERGY PREDICTED BY IDOCK:   -7.47 KCAL/MOL
REMARK 923 INTER-LIGAND FREE ENERGY PREDICTED BY IDOCK:   -7.15 KCAL/MOL
REMARK 924 INTRA-LIGAND FREE ENERGY PREDICTED BY IDOCK:   -0.32 KCAL/MOL
REMARK 927      BINDING AFFINITY PREDICTED BY RF-SCORE:    0.00 PKD
ROOT
HETATM    1  C   UNL     1      -5.819  20.916  67.805  1.00  0.00    -0.300 C  
HETATM    2  O   UNL     1      -7.162  21.281  67.503  1.00  0.00    -0.476 OA 
ENDROOT
BRANCH   2   3
HETATM    3  C   UNL     1      -8.058  20.261  67.447  1.00  0.00    -0.336 A  
HETATM    4  C   UNL     1      -8.656  20.002  66.231  1.00  0.00    -0.288 A  
HETATM    5  N   UNL     1      -9.532  19.001  66.014  1.00  0.00    -0.467 NA 
HETATM    6  C   UNL     1      -9.808  18.241  67.073  1.00  0.00    -0.326 A  
HETATM    7  C   UNL     1      -8.423  19.396  68.459  1.00  0.00    -0.362 A  
HETATM    8  N   UNL     1      -9.316  18.387  68.309  1.00  0.00    -0.314 NA 
BRANCH   6   9
HETATM    9  N   UNL     1     -10.747  17.239  66.885  1.00  0.00    -0.197 N  
HETATM   10  H   UNL     1     -11.657  17.260  67.347  1.00  0.00     0.000 HD 
BRANCH   9  11
HETATM   11  S   UNL     1     -10.308  15.998  65.864  1.00  0.00    -0.384 S  
HETATM   12  O   UNL     1      -8.866  15.923  65.760  1.00  0.00    -0.252 OA 
HETATM   13  O   UNL     1     -11.122  16.147  64.673  1.00  0.00    -0.598 OA 
BRANCH  11  14
HETATM   14  C   UNL     1     -10.855  14.505  66.673  1.00  0.00    -0.311 A  
HETATM   15  C   UNL     1     -11.207  14.537  68.024  1.00  0.00    -0.308 A  
HETATM   16  C   UNL     1     -11.665  13.371  68.646  1.00  0.00    -0.384 A  
HETATM   17  C   UNL     1     -11.739  12.166  67.940  1.00  0.00    -0.336 A  
HETATM   18  N   UNL     1     -12.283  11.027  68.547  1.00  0.00    -0.781 NA 
HETATM   19  C   UNL     1     -11.488  12.177  66.565  1.00  0.00    -0.430 A  
HETATM   20  H1  UNL     1     -12.338  10.148  68.032  1.00  0.00     0.000 HD 
HETATM   21  C   UNL     1     -11.038  13.338  65.928  1.00  0.00    -0.301 A  
HETATM   22  H2  UNL     1     -13.216  11.259  68.887  1.00  0.00     0.000 HD 
ENDBRANCH  11  14
ENDBRANCH   9  11
ENDBRANCH   6   9
ENDBRANCH   2   3
TORSDOF 4
ENDMDL
MODEL       19
REMARK 921   NORMALIZED FREE ENERGY PREDICTED BY IDOCK:   -5.76 KCAL/MOL
REMARK 922        TOTAL FREE ENERGY PREDICTED BY IDOCK:   -7.46 KCAL/MOL
REMARK 923 INTER-LIGAND FREE ENERGY PREDICTED BY IDOCK:   -7.47 KCAL/MOL
REMARK 924 INTRA-LIGAND FREE ENERGY PREDICTED BY IDOCK:    0.01 KCAL/MOL
REMARK 927      BINDING AFFINITY PREDICTED BY RF-SCORE:    0.00 PKD
ROOT
HETATM    1  C   UNL     1     -14.202  14.546  72.117  1.00  0.00    -0.531 C  
HETATM    2  O   UNL     1     -13.113  13.655  72.331  1.00  0.00    -0.407 OA 
ENDROOT
BRANCH   2   3
HETATM    3  C   UNL     1     -12.716  12.930  71.252  1.00  0.00    -0.278 A  
HETATM    4  C   UNL     1     -12.391  13.621  70.103  1.00  0.00    -0.304 A  
HETATM    5  N   UNL     1     -11.945  13.042  68.970  1.00  0.00    -0.295 NA 
HETATM    6  C   UNL     1     -11.828  11.715  69.012  1.00  0.00    -0.328 A  
HETATM    7  C   UNL     1     -12.543  11.564  71.166  1.00  0.00    -0.359 A  
HETATM    8  N   UNL     1     -12.121  10.922  70.048  1.00  0.00    -0.329 NA 
BRANCH   6   9
HETATM    9  N   UNL     1     -11.422  11.095  67.841  1.00  0.00    -0.297 N  
HETATM   10  H   UNL     1     -11.941  10.316  67.436  1.00  0.00     0.000 HD 
BRANCH   9  11
HETATM   11  S   UNL     1     -10.039  11.694  67.130  1.00  0.00    -0.206 S  
HETATM   12  O   UNL     1      -9.501  10.730  66.192  1.00  0.00    -0.176 OA 
HETATM   13  O   UNL     1      -9.217  12.203  68.210  1.00  0.00    -0.194 OA 
BRANCH  11  14
HETATM   14  C   UNL     1     -10.571  13.110  66.183  1.00  0.00    -0.279 A  
HETATM   15  C   UNL     1      -9.820  14.287  66.214  1.00  0.00    -0.323 A  
HETATM   16  C   UNL     1     -10.224  15.384  65.446  1.00  0.00    -0.408 A  
HETATM   17  C   UNL     1     -11.390  15.327  64.675  1.00  0.00    -0.358 A  
HETATM   18  N   UNL     1     -11.736  16.397  63.841  1.00  0.00    -1.527 NA 
HETATM   19  C   UNL     1     -12.066  14.108  64.571  1.00  0.00    -0.489 A  
HETATM   20  H1  UNL     1     -12.586  16.356  63.279  1.00  0.00     0.000 HD 
HETATM   21  C   UNL     1     -11.669  13.001  65.327  1.00  0.00    -0.388 A  
HETATM   22  H2  UNL     1     -10.949  16.588  63.221  1.00  0.00     0.000 HD 
ENDBRANCH  11  14
ENDBRANCH   9  11
ENDBRANCH   6   9
ENDBRANCH   2   3
TORSDOF 4
ENDMDL
MODEL       20
REMARK 921   NORMALIZED FREE ENERGY PREDICTED BY IDOCK:   -5.75 KCAL/MOL
REMARK 922        TOTAL FREE ENERGY PREDICTED BY IDOCK:   -7.44 KCAL/MOL
REMARK 923 INTER-LIGAND FREE ENERGY PREDICTED BY IDOCK:   -7.13 KCAL/MOL
REMARK 924 INTRA-LIGAND FREE ENERGY PREDICTED BY IDOCK:   -0.31 KCAL/MOL
REMARK 927      BINDING AFFINITY PREDICTED BY RF-SCORE:    0.00 PKD
ROOT
HETATM    1  C   UNL     1     -13.809  13.612  72.295  1.00  0.00    -0.590 C  
HETATM    2  O   UNL     1     -12.578  14.324  72.346  1.00  0.00    -0.301 OA 
ENDROOT
BRANCH   2   3
HETATM    3  C   UNL     1     -12.109  14.787  71.157  1.00  0.00    -0.332 A  
HETATM    4  C   UNL     1     -12.391  14.047  70.027  1.00  0.00    -0.337 A  
HETATM    5  N   UNL     1     -12.026  14.402  68.778  1.00  0.00    -0.316 NA 
HETATM    6  C   UNL     1     -11.351  15.547  68.681  1.00  0.00    -0.344 A  
HETATM    7  C   UNL     1     -11.412  15.954  70.917  1.00  0.00    -0.409 A  
HETATM    8  N   UNL     1     -10.998  16.352  69.689  1.00  0.00    -0.336 NA 
BRANCH   6   9
HETATM    9  N   UNL     1     -10.920  15.902  67.412  1.00  0.00    -0.296 N  
HETATM   10  H   UNL     1     -11.302  16.710  66.921  1.00  0.00     0.000 HD 
BRANCH   9  11
HETATM   11  S   UNL     1      -9.744  14.936  66.735  1.00  0.00    -0.263 S  
HETATM   12  O   UNL     1      -9.151  14.086  67.746  1.00  0.00    -0.177 OA 
HETATM   13  O   UNL     1      -8.911  15.813  65.934  1.00  0.00    -0.321 OA 
BRANCH  11  14
HETATM   14  C   UNL     1     -10.608  13.871  65.593  1.00  0.00    -0.301 A  
HETATM   15  C   UNL     1     -11.562  14.410  64.727  1.00  0.00    -0.410 A  
HETATM   16  C   UNL     1     -12.214  13.576  63.813  1.00  0.00    -0.449 A  
HETATM   17  C   UNL     1     -11.949  12.203  63.782  1.00  0.00    -0.513 A  
HETATM   18  N   UNL     1     -12.540  11.394  62.804  1.00  0.00    -0.763 NA 
HETATM   19  C   UNL     1     -10.915  11.701  64.579  1.00  0.00    -0.376 A  
HETATM   20  H1  UNL     1     -12.346  10.393  62.781  1.00  0.00     0.000 HD 
HETATM   21  C   UNL     1     -10.248  12.525  65.490  1.00  0.00    -0.295 A  
HETATM   22  H2  UNL     1     -12.321  11.785  61.888  1.00  0.00     0.000 HD 
ENDBRANCH  11  14
ENDBRANCH   9  11
ENDBRANCH   6   9
ENDBRANCH   2   3
TORSDOF 4
ENDMDL
MODEL       21
REMARK 921   NORMALIZED FREE ENERGY PREDICTED BY IDOCK:   -5.71 KCAL/MOL
REMARK 922        TOTAL FREE ENERGY PREDICTED BY IDOCK:   -7.40 KCAL/MOL
REMARK 923 INTER-LIGAND FREE ENERGY PREDICTED BY IDOCK:   -7.01 KCAL/MOL
REMARK 924 INTRA-LIGAND FREE ENERGY PREDICTED BY IDOCK:   -0.39 KCAL/MOL
REMARK 927      BINDING AFFINITY PREDICTED BY RF-SCORE:    0.00 PKD
ROOT
HETATM    1  C   UNL     1     -10.438   7.092  73.512  1.00  0.00    -0.380 C  
HETATM    2  O   UNL     1     -11.580   7.865  73.162  1.00  0.00    -0.292 OA 
ENDROOT
BRANCH   2   3
HETATM    3  C   UNL     1     -11.420   8.728  72.124  1.00  0.00    -0.351 A  
HETATM    4  C   UNL     1     -10.152   8.870  71.601  1.00  0.00    -0.341 A  
HETATM    5  N   UNL     1      -9.849   9.658  70.549  1.00  0.00    -0.260 NA 
HETATM    6  C   UNL     1     -10.873  10.322  70.016  1.00  0.00    -0.307 A  
HETATM    7  C   UNL     1     -12.392   9.465  71.476  1.00  0.00    -0.370 A  
HETATM    8  N   UNL     1     -12.145  10.291  70.430  1.00  0.00    -0.289 NA 
BRANCH   6   9
HETATM    9  N   UNL     1     -10.574  11.178  68.968  1.00  0.00    -0.215 N  
HETATM   10  H   UNL     1     -10.603  12.192  69.076  1.00  0.00     0.000 HD 
BRANCH   9  11
HETATM   11  S   UNL     1     -10.165  10.459  67.522  1.00  0.00    -0.224 S  
HETATM   12  O   UNL     1     -10.796   9.159  67.414  1.00  0.00    -0.243 OA 
HETATM   13  O   UNL     1      -8.726  10.587  67.398  1.00  0.00    -0.126 OA 
BRANCH  11  14
HETATM   14  C   UNL     1     -10.881  11.497  66.259  1.00  0.00    -0.282 A  
HETATM   15  C   UNL     1     -11.708  12.562  66.623  1.00  0.00    -0.453 A  
HETATM   16  C   UNL     1     -12.242  13.392  65.632  1.00  0.00    -0.510 A  
HETATM   17  C   UNL     1     -11.987  13.145  64.279  1.00  0.00    -0.411 A  
HETATM   18  N   UNL     1     -12.452  14.033  63.302  1.00  0.00    -1.112 NA 
HETATM   19  C   UNL     1     -11.072  12.144  63.941  1.00  0.00    -0.470 A  
HETATM   20  H1  UNL     1     -12.266  13.854  62.315  1.00  0.00     0.000 HD 
HETATM   21  C   UNL     1     -10.523  11.312  64.922  1.00  0.00    -0.375 A  
HETATM   22  H2  UNL     1     -12.111  14.967  63.528  1.00  0.00     0.000 HD 
ENDBRANCH  11  14
ENDBRANCH   9  11
ENDBRANCH   6   9
ENDBRANCH   2   3
TORSDOF 4
ENDMDL
MODEL       22
REMARK 921   NORMALIZED FREE ENERGY PREDICTED BY IDOCK:   -5.69 KCAL/MOL
REMARK 922        TOTAL FREE ENERGY PREDICTED BY IDOCK:   -7.37 KCAL/MOL
REMARK 923 INTER-LIGAND FREE ENERGY PREDICTED BY IDOCK:   -6.99 KCAL/MOL
REMARK 924 INTRA-LIGAND FREE ENERGY PREDICTED BY IDOCK:   -0.38 KCAL/MOL
REMARK 927      BINDING AFFINITY PREDICTED BY RF-SCORE:    0.00 PKD
ROOT
HETATM    1  C   UNL     1     -13.100  15.687  73.450  1.00  0.00    -0.554 C  
HETATM    2  O   UNL     1     -12.965  14.395  72.870  1.00  0.00    -0.472 OA 
ENDROOT
BRANCH   2   3
HETATM    3  C   UNL     1     -12.621  14.365  71.555  1.00  0.00    -0.350 A  
HETATM    4  C   UNL     1     -12.527  15.572  70.892  1.00  0.00    -0.440 A  
HETATM    5  N   UNL     1     -12.160  15.701  69.602  1.00  0.00    -0.354 NA 
HETATM    6  C   UNL     1     -11.882  14.563  68.967  1.00  0.00    -0.318 A  
HETATM    7  C   UNL     1     -12.299  13.265  70.787  1.00  0.00    -0.344 A  
HETATM    8  N   UNL     1     -11.946  13.329  69.479  1.00  0.00    -0.317 NA 
BRANCH   6   9
HETATM    9  N   UNL     1     -11.553  14.670  67.625  1.00  0.00    -0.349 N  
HETATM   10  H   UNL     1     -12.245  14.529  66.889  1.00  0.00     0.000 HD 
BRANCH   9  11
HETATM   11  S   UNL     1      -9.966  15.042  67.280  1.00  0.00    -0.234 S  
HETATM   12  O   UNL     1      -9.619  14.573  65.955  1.00  0.00    -0.303 OA 
HETATM   13  O   UNL     1      -9.192  14.622  68.433  1.00  0.00    -0.184 OA 
BRANCH  11  14
HETATM   14  C   UNL     1      -9.897  16.825  67.243  1.00  0.00    -0.260 A  
HETATM   15  C   UNL     1      -9.257  17.517  68.273  1.00  0.00    -0.277 A  
HETATM   16  C   UNL     1      -9.179  18.912  68.224  1.00  0.00    -0.373 A  
HETATM   17  C   UNL     1      -9.766  19.625  67.173  1.00  0.00    -0.355 A  
HETATM   18  N   UNL     1      -9.604  21.012  67.086  1.00  0.00    -0.661 NA 
HETATM   19  C   UNL     1     -10.305  18.911  66.098  1.00  0.00    -0.517 A  
HETATM   20  H1  UNL     1     -10.032  21.532  66.320  1.00  0.00     0.000 HD 
HETATM   21  C   UNL     1     -10.382  17.516  66.130  1.00  0.00    -0.330 A  
HETATM   22  H2  UNL     1      -8.606  21.221  67.097  1.00  0.00     0.000 HD 
ENDBRANCH  11  14
ENDBRANCH   9  11
ENDBRANCH   6   9
ENDBRANCH   2   3
TORSDOF 4
ENDMDL
MODEL       23
REMARK 921   NORMALIZED FREE ENERGY PREDICTED BY IDOCK:   -5.68 KCAL/MOL
REMARK 922        TOTAL FREE ENERGY PREDICTED BY IDOCK:   -7.36 KCAL/MOL
REMARK 923 INTER-LIGAND FREE ENERGY PREDICTED BY IDOCK:   -7.02 KCAL/MOL
REMARK 924 INTRA-LIGAND FREE ENERGY PREDICTED BY IDOCK:   -0.35 KCAL/MOL
REMARK 927      BINDING AFFINITY PREDICTED BY RF-SCORE:    0.00 PKD
ROOT
HETATM    1  C   UNL     1      -8.161  18.367  68.315  1.00  0.00    -0.298 C  
HETATM    2  O   UNL     1      -9.515  18.430  68.747  1.00  0.00    -0.329 OA 
ENDROOT
BRANCH   2   3
HETATM    3  C   UNL     1     -10.241  17.291  68.600  1.00  0.00    -0.351 A  
HETATM    4  C   UNL     1     -10.322  16.743  67.336  1.00  0.00    -0.302 A  
HETATM    5  N   UNL     1     -10.972  15.598  67.045  1.00  0.00    -0.301 NA 
HETATM    6  C   UNL     1     -11.559  14.994  68.077  1.00  0.00    -0.338 A  
HETATM    7  C   UNL     1     -10.886  16.563  69.580  1.00  0.00    -0.315 A  
HETATM    8  N   UNL     1     -11.575  15.419  69.346  1.00  0.00    -0.317 NA 
BRANCH   6   9
HETATM    9  N   UNL     1     -12.278  13.844  67.791  1.00  0.00    -0.489 N  
HETATM   10  H   UNL     1     -13.250  13.878  67.485  1.00  0.00     0.000 HD 
BRANCH   9  11
HETATM   11  S   UNL     1     -11.464  12.401  67.975  1.00  0.00    -0.343 S  
HETATM   12  O   UNL     1     -12.345  11.398  68.536  1.00  0.00    -0.504 OA 
HETATM   13  O   UNL     1     -10.211  12.724  68.629  1.00  0.00    -0.222 OA 
BRANCH  11  14
HETATM   14  C   UNL     1     -11.055  11.876  66.320  1.00  0.00    -0.314 A  
HETATM   15  C   UNL     1     -11.808  12.341  65.239  1.00  0.00    -0.411 A  
HETATM   16  C   UNL     1     -11.464  11.951  63.940  1.00  0.00    -0.511 A  
HETATM   17  C   UNL     1     -10.399  11.072  63.715  1.00  0.00    -0.364 A  
HETATM   18  N   UNL     1     -10.008  10.760  62.408  1.00  0.00    -0.701 NA 
HETATM   19  C   UNL     1      -9.593  10.705  64.796  1.00  0.00    -0.334 A  
HETATM   20  H1  UNL     1      -9.232  10.120  62.243  1.00  0.00     0.000 HD 
HETATM   21  C   UNL     1      -9.919  11.095  66.099  1.00  0.00    -0.273 A  
HETATM   22  H2  UNL     1      -9.816  11.631  61.913  1.00  0.00     0.000 HD 
ENDBRANCH  11  14
ENDBRANCH   9  11
ENDBRANCH   6   9
ENDBRANCH   2   3
TORSDOF 4
ENDMDL
MODEL       24
REMARK 921   NORMALIZED FREE ENERGY PREDICTED BY IDOCK:   -5.68 KCAL/MOL
REMARK 922        TOTAL FREE ENERGY PREDICTED BY IDOCK:   -7.36 KCAL/MOL
REMARK 923 INTER-LIGAND FREE ENERGY PREDICTED BY IDOCK:   -7.00 KCAL/MOL
REMARK 924 INTRA-LIGAND FREE ENERGY PREDICTED BY IDOCK:   -0.35 KCAL/MOL
REMARK 927      BINDING AFFINITY PREDICTED BY RF-SCORE:    0.00 PKD
ROOT
HETATM    1  C   UNL     1     -10.169   7.075  73.758  1.00  0.00    -0.363 C  
HETATM    2  O   UNL     1     -11.273   7.765  73.181  1.00  0.00    -0.402 OA 
ENDROOT
BRANCH   2   3
HETATM    3  C   UNL     1     -10.986   8.569  72.123  1.00  0.00    -0.357 A  
HETATM    4  C   UNL     1     -12.017   9.312  71.587  1.00  0.00    -0.378 A  
HETATM    5  N   UNL     1     -11.875  10.179  70.564  1.00  0.00    -0.301 NA 
HETATM    6  C   UNL     1     -10.642  10.290  70.073  1.00  0.00    -0.269 A  
HETATM    7  C   UNL     1      -9.758   8.783  71.529  1.00  0.00    -0.291 A  
HETATM    8  N   UNL     1      -9.558   9.623  70.484  1.00  0.00    -0.247 NA 
BRANCH   6   9
HETATM    9  N   UNL     1     -10.485  11.137  68.987  1.00  0.00    -0.232 N  
HETATM   10  H   UNL     1     -10.572  12.149  69.076  1.00  0.00     0.000 HD 
BRANCH   9  11
HETATM   11  S   UNL     1     -10.143  10.408  67.527  1.00  0.00    -0.202 S  
HETATM   12  O   UNL     1     -10.872   9.163  67.408  1.00  0.00    -0.243 OA 
HETATM   13  O   UNL     1      -8.700  10.429  67.392  1.00  0.00    -0.125 OA 
BRANCH  11  14
HETATM   14  C   UNL     1     -10.788  11.516  66.286  1.00  0.00    -0.282 A  
HETATM   15  C   UNL     1     -10.414  11.354  64.950  1.00  0.00    -0.363 A  
HETATM   16  C   UNL     1     -10.946  12.205  63.976  1.00  0.00    -0.438 A  
HETATM   17  C   UNL     1     -11.819  13.240  64.329  1.00  0.00    -0.417 A  
HETATM   18  N   UNL     1     -12.415  14.028  63.338  1.00  0.00    -1.123 NA 
HETATM   19  C   UNL     1     -12.265  13.318  65.652  1.00  0.00    -0.514 A  
HETATM   20  H1  UNL     1     -13.051  14.782  63.595  1.00  0.00     0.000 HD 
HETATM   21  C   UNL     1     -11.749  12.468  66.634  1.00  0.00    -0.453 A  
HETATM   22  H2  UNL     1     -12.895  13.411  62.683  1.00  0.00     0.000 HD 
ENDBRANCH  11  14
ENDBRANCH   9  11
ENDBRANCH   6   9
ENDBRANCH   2   3
TORSDOF 4
ENDMDL
MODEL       25
REMARK 921   NORMALIZED FREE ENERGY PREDICTED BY IDOCK:   -5.66 KCAL/MOL
REMARK 922        TOTAL FREE ENERGY PREDICTED BY IDOCK:   -7.33 KCAL/MOL
REMARK 923 INTER-LIGAND FREE ENERGY PREDICTED BY IDOCK:   -7.01 KCAL/MOL
REMARK 924 INTRA-LIGAND FREE ENERGY PREDICTED BY IDOCK:   -0.32 KCAL/MOL
REMARK 927      BINDING AFFINITY PREDICTED BY RF-SCORE:    0.00 PKD
ROOT
HETATM    1  C   UNL     1      -5.917  21.316  66.734  1.00  0.00    -0.322 C  
HETATM    2  O   UNL     1      -7.134  21.347  67.472  1.00  0.00    -0.522 OA 
ENDROOT
BRANCH   2   3
HETATM    3  C   UNL     1      -7.954  20.276  67.312  1.00  0.00    -0.340 A  
HETATM    4  C   UNL     1      -8.307  19.567  68.441  1.00  0.00    -0.349 A  
HETATM    5  N   UNL     1      -9.143  18.508  68.442  1.00  0.00    -0.315 NA 
HETATM    6  C   UNL     1      -9.632  18.163  67.252  1.00  0.00    -0.281 A  
HETATM    7  C   UNL     1      -8.536  19.820  66.146  1.00  0.00    -0.338 A  
HETATM    8  N   UNL     1      -9.364  18.748  66.080  1.00  0.00    -0.475 NA 
BRANCH   6   9
HETATM    9  N   UNL     1     -10.451  17.045  67.224  1.00  0.00    -0.316 N  
HETATM   10  H   UNL     1     -11.466  17.122  67.168  1.00  0.00     0.000 HD 
BRANCH   9  11
HETATM   11  S   UNL     1      -9.684  15.567  67.284  1.00  0.00    -0.220 S  
HETATM   12  O   UNL     1      -9.710  15.045  68.635  1.00  0.00    -0.204 OA 
HETATM   13  O   UNL     1      -8.423  15.736  66.588  1.00  0.00    -0.239 OA 
BRANCH  11  14
HETATM   14  C   UNL     1     -10.679  14.478  66.281  1.00  0.00    -0.309 A  
HETATM   15  C   UNL     1     -11.091  13.245  66.793  1.00  0.00    -0.313 A  
HETATM   16  C   UNL     1     -11.896  12.408  66.014  1.00  0.00    -0.459 A  
HETATM   17  C   UNL     1     -12.263  12.775  64.715  1.00  0.00    -0.459 A  
HETATM   18  N   UNL     1     -13.142  11.972  63.978  1.00  0.00    -0.667 NA 
HETATM   19  C   UNL     1     -11.933  14.056  64.261  1.00  0.00    -0.463 A  
HETATM   20  H1  UNL     1     -13.410  12.240  63.031  1.00  0.00     0.000 HD 
HETATM   21  C   UNL     1     -11.136  14.906  65.033  1.00  0.00    -0.422 A  
HETATM   22  H2  UNL     1     -13.991  11.839  64.527  1.00  0.00     0.000 HD 
ENDBRANCH  11  14
ENDBRANCH   9  11
ENDBRANCH   6   9
ENDBRANCH   2   3
TORSDOF 4
ENDMDL
MODEL       26
REMARK 921   NORMALIZED FREE ENERGY PREDICTED BY IDOCK:   -5.62 KCAL/MOL
REMARK 922        TOTAL FREE ENERGY PREDICTED BY IDOCK:   -7.29 KCAL/MOL
REMARK 923 INTER-LIGAND FREE ENERGY PREDICTED BY IDOCK:   -7.05 KCAL/MOL
REMARK 924 INTRA-LIGAND FREE ENERGY PREDICTED BY IDOCK:   -0.24 KCAL/MOL
REMARK 927      BINDING AFFINITY PREDICTED BY RF-SCORE:    0.00 PKD
ROOT
HETATM    1  C   UNL     1      -7.051  18.078  66.487  1.00  0.00    -0.228 C  
HETATM    2  O   UNL     1      -8.273  17.879  65.785  1.00  0.00    -0.530 OA 
ENDROOT
BRANCH   2   3
HETATM    3  C   UNL     1      -9.268  17.272  66.482  1.00  0.00    -0.261 A  
HETATM    4  C   UNL     1      -9.518  15.942  66.212  1.00  0.00    -0.318 A  
HETATM    5  N   UNL     1     -10.445  15.199  66.850  1.00  0.00    -0.277 NA 
HETATM    6  C   UNL     1     -11.140  15.835  67.792  1.00  0.00    -0.313 A  
HETATM    7  C   UNL     1     -10.052  17.808  67.485  1.00  0.00    -0.340 A  
HETATM    8  N   UNL     1     -11.015  17.119  68.145  1.00  0.00    -0.314 NA 
BRANCH   6   9
HETATM    9  N   UNL     1     -12.135  15.104  68.423  1.00  0.00    -0.569 N  
HETATM   10  H   UNL     1     -12.923  14.711  67.908  1.00  0.00     0.000 HD 
BRANCH   9  11
HETATM   11  S   UNL     1     -11.971  14.903  70.069  1.00  0.00    -0.352 S  
HETATM   12  O   UNL     1     -12.984  15.666  70.769  1.00  0.00    -0.478 OA 
HETATM   13  O   UNL     1     -10.566  15.106  70.364  1.00  0.00    -0.235 OA 
BRANCH  11  14
HETATM   14  C   UNL     1     -12.312  13.178  70.370  1.00  0.00    -0.279 A  
HETATM   15  C   UNL     1     -11.902  12.217  69.442  1.00  0.00    -0.370 A  
HETATM   16  C   UNL     1     -12.144  10.864  69.697  1.00  0.00    -0.400 A  
HETATM   17  C   UNL     1     -12.824  10.463  70.852  1.00  0.00    -0.392 A  
HETATM   18  N   UNL     1     -12.981   9.103  71.141  1.00  0.00    -0.507 NA 
HETATM   19  C   UNL     1     -13.128  11.427  71.818  1.00  0.00    -0.523 A  
HETATM   20  H1  UNL     1     -13.476   8.810  71.983  1.00  0.00     0.000 HD 
HETATM   21  C   UNL     1     -12.884  12.783  71.581  1.00  0.00    -0.363 A  
HETATM   22  H2  UNL     1     -12.059   8.666  71.142  1.00  0.00     0.000 HD 
ENDBRANCH  11  14
ENDBRANCH   9  11
ENDBRANCH   6   9
ENDBRANCH   2   3
TORSDOF 4
ENDMDL
MODEL       27
REMARK 921   NORMALIZED FREE ENERGY PREDICTED BY IDOCK:   -5.62 KCAL/MOL
REMARK 922        TOTAL FREE ENERGY PREDICTED BY IDOCK:   -7.29 KCAL/MOL
REMARK 923 INTER-LIGAND FREE ENERGY PREDICTED BY IDOCK:   -7.15 KCAL/MOL
REMARK 924 INTRA-LIGAND FREE ENERGY PREDICTED BY IDOCK:   -0.14 KCAL/MOL
REMARK 927      BINDING AFFINITY PREDICTED BY RF-SCORE:    0.00 PKD
ROOT
HETATM    1  C   UNL     1      -6.782  18.875  66.375  1.00  0.00    -0.205 C  
HETATM    2  O   UNL     1      -7.742  17.972  65.835  1.00  0.00    -0.497 OA 
ENDROOT
BRANCH   2   3
HETATM    3  C   UNL     1      -8.256  17.061  66.702  1.00  0.00    -0.260 A  
HETATM    4  C   UNL     1      -8.664  15.848  66.187  1.00  0.00    -0.293 A  
HETATM    5  N   UNL     1      -9.157  14.836  66.929  1.00  0.00    -0.234 NA 
HETATM    6  C   UNL     1      -9.235  15.070  68.238  1.00  0.00    -0.184 A  
HETATM    7  C   UNL     1      -8.382  17.172  68.072  1.00  0.00    -0.218 A  
HETATM    8  N   UNL     1      -8.891  16.199  68.868  1.00  0.00    -0.236 NA 
BRANCH   6   9
HETATM    9  N   UNL     1      -9.788  14.061  69.012  1.00  0.00    -0.424 N  
HETATM   10  H   UNL     1      -9.211  13.440  69.579  1.00  0.00     0.000 HD 
BRANCH   9  11
HETATM   11  S   UNL     1     -11.448  13.922  68.966  1.00  0.00    -0.321 S  
HETATM   12  O   UNL     1     -11.831  12.526  68.912  1.00  0.00    -0.304 OA 
HETATM   13  O   UNL     1     -11.904  14.847  67.948  1.00  0.00    -0.338 OA 
BRANCH  11  14
HETATM   14  C   UNL     1     -12.018  14.563  70.531  1.00  0.00    -0.318 A  
HETATM   15  C   UNL     1     -12.768  13.749  71.383  1.00  0.00    -0.450 A  
HETATM   16  C   UNL     1     -13.187  14.246  72.621  1.00  0.00    -0.601 A  
HETATM   17  C   UNL     1     -12.894  15.561  73.000  1.00  0.00    -0.472 A  
HETATM   18  N   UNL     1     -13.240  16.019  74.277  1.00  0.00    -0.821 NA 
HETATM   19  C   UNL     1     -12.052  16.322  72.185  1.00  0.00    -0.530 A  
HETATM   20  H1  UNL     1     -13.026  16.977  74.554  1.00  0.00     0.000 HD 
HETATM   21  C   UNL     1     -11.619  15.835  70.948  1.00  0.00    -0.440 A  
HETATM   22  H2  UNL     1     -12.832  15.387  74.966  1.00  0.00     0.000 HD 
ENDBRANCH  11  14
ENDBRANCH   9  11
ENDBRANCH   6   9
ENDBRANCH   2   3
TORSDOF 4
ENDMDL
MODEL       28
REMARK 921   NORMALIZED FREE ENERGY PREDICTED BY IDOCK:   -5.62 KCAL/MOL
REMARK 922        TOTAL FREE ENERGY PREDICTED BY IDOCK:   -7.28 KCAL/MOL
REMARK 923 INTER-LIGAND FREE ENERGY PREDICTED BY IDOCK:   -6.99 KCAL/MOL
REMARK 924 INTRA-LIGAND FREE ENERGY PREDICTED BY IDOCK:   -0.29 KCAL/MOL
REMARK 927      BINDING AFFINITY PREDICTED BY RF-SCORE:    0.00 PKD
ROOT
HETATM    1  C   UNL     1     -12.581  11.977  63.233  1.00  0.00    -0.385 C  
HETATM    2  O   UNL     1     -12.750  13.348  63.574  1.00  0.00    -0.703 OA 
ENDROOT
BRANCH   2   3
HETATM    3  C   UNL     1     -12.011  13.796  64.623  1.00  0.00    -0.416 A  
HETATM    4  C   UNL     1     -12.192  13.176  65.843  1.00  0.00    -0.436 A  
HETATM    5  N   UNL     1     -11.504  13.486  66.960  1.00  0.00    -0.324 NA 
HETATM    6  C   UNL     1     -10.603  14.459  66.829  1.00  0.00    -0.282 A  
HETATM    7  C   UNL     1     -11.044  14.781  64.620  1.00  0.00    -0.325 A  
HETATM    8  N   UNL     1     -10.336  15.152  65.716  1.00  0.00    -0.314 NA 
BRANCH   6   9
HETATM    9  N   UNL     1      -9.923  14.829  67.978  1.00  0.00    -0.216 N  
HETATM   10  H   UNL     1      -9.037  14.397  68.242  1.00  0.00     0.000 HD 
BRANCH   9  11
HETATM   11  S   UNL     1     -10.631  16.019  68.905  1.00  0.00    -0.277 S  
HETATM   12  O   UNL     1     -10.295  15.832  70.301  1.00  0.00    -0.286 OA 
HETATM   13  O   UNL     1     -12.018  16.085  68.487  1.00  0.00    -0.273 OA 
BRANCH  11  14
HETATM   14  C   UNL     1      -9.867  17.543  68.379  1.00  0.00    -0.325 A  
HETATM   15  C   UNL     1     -10.664  18.605  67.944  1.00  0.00    -0.347 A  
HETATM   16  C   UNL     1     -10.062  19.808  67.562  1.00  0.00    -0.554 A  
HETATM   17  C   UNL     1      -8.670  19.949  67.577  1.00  0.00    -0.338 A  
HETATM   18  N   UNL     1      -8.084  21.185  67.280  1.00  0.00    -0.580 NA 
HETATM   19  C   UNL     1      -7.898  18.916  68.119  1.00  0.00    -0.327 A  
HETATM   20  H1  UNL     1      -7.069  21.288  67.291  1.00  0.00     0.000 HD 
HETATM   21  C   UNL     1      -8.487  17.711  68.512  1.00  0.00    -0.289 A  
HETATM   22  H2  UNL     1      -8.485  21.888  67.901  1.00  0.00     0.000 HD 
ENDBRANCH  11  14
ENDBRANCH   9  11
ENDBRANCH   6   9
ENDBRANCH   2   3
TORSDOF 4
ENDMDL
MODEL       29
REMARK 921   NORMALIZED FREE ENERGY PREDICTED BY IDOCK:   -5.56 KCAL/MOL
REMARK 922        TOTAL FREE ENERGY PREDICTED BY IDOCK:   -7.21 KCAL/MOL
REMARK 923 INTER-LIGAND FREE ENERGY PREDICTED BY IDOCK:   -6.88 KCAL/MOL
REMARK 924 INTRA-LIGAND FREE ENERGY PREDICTED BY IDOCK:   -0.33 KCAL/MOL
REMARK 927      BINDING AFFINITY PREDICTED BY RF-SCORE:    0.00 PKD
ROOT
HETATM    1  C   UNL     1     -12.459  15.772  73.705  1.00  0.00    -0.577 C  
HETATM    2  O   UNL     1     -13.027  15.989  72.418  1.00  0.00    -0.451 OA 
ENDROOT
BRANCH   2   3
HETATM    3  C   UNL     1     -12.474  15.283  71.396  1.00  0.00    -0.361 A  
HETATM    4  C   UNL     1     -11.504  15.908  70.639  1.00  0.00    -0.400 A  
HETATM    5  N   UNL     1     -10.841  15.322  69.622  1.00  0.00    -0.270 NA 
HETATM    6  C   UNL     1     -11.180  14.059  69.369  1.00  0.00    -0.237 A  
HETATM    7  C   UNL     1     -12.725  13.975  71.036  1.00  0.00    -0.361 A  
HETATM    8  N   UNL     1     -12.109  13.340  70.009  1.00  0.00    -0.328 NA 
BRANCH   6   9
HETATM    9  N   UNL     1     -10.549  13.455  68.293  1.00  0.00    -0.247 N  
HETATM   10  H   UNL     1      -9.892  12.685  68.417  1.00  0.00     0.000 HD 
BRANCH   9  11
HETATM   11  S   UNL     1     -10.924  14.057  66.785  1.00  0.00    -0.302 S  
HETATM   12  O   UNL     1     -10.033  15.147  66.446  1.00  0.00    -0.248 OA 
HETATM   13  O   UNL     1     -12.361  14.253  66.773  1.00  0.00    -0.429 OA 
BRANCH  11  14
HETATM   14  C   UNL     1     -10.582  12.725  65.647  1.00  0.00    -0.275 A  
HETATM   15  C   UNL     1     -10.583  12.970  64.272  1.00  0.00    -0.434 A  
HETATM   16  C   UNL     1     -10.284  11.930  63.386  1.00  0.00    -0.478 A  
HETATM   17  C   UNL     1     -10.020  10.640  63.859  1.00  0.00    -0.326 A  
HETATM   18  N   UNL     1      -9.634   9.630  62.970  1.00  0.00    -0.509 NA 
HETATM   19  C   UNL     1      -9.916  10.440  65.239  1.00  0.00    -0.376 A  
HETATM   20  H1  UNL     1      -9.441   8.689  63.315  1.00  0.00     0.000 HD 
HETATM   21  C   UNL     1     -10.204  11.473  66.136  1.00  0.00    -0.272 A  
HETATM   22  H2  UNL     1      -8.819   9.954  62.449  1.00  0.00     0.000 HD 
ENDBRANCH  11  14
ENDBRANCH   9  11
ENDBRANCH   6   9
ENDBRANCH   2   3
TORSDOF 4
ENDMDL
MODEL       30
REMARK 921   NORMALIZED FREE ENERGY PREDICTED BY IDOCK:   -5.55 KCAL/MOL
REMARK 922        TOTAL FREE ENERGY PREDICTED BY IDOCK:   -7.20 KCAL/MOL
REMARK 923 INTER-LIGAND FREE ENERGY PREDICTED BY IDOCK:   -6.88 KCAL/MOL
REMARK 924 INTRA-LIGAND FREE ENERGY PREDICTED BY IDOCK:   -0.32 KCAL/MOL
REMARK 927      BINDING AFFINITY PREDICTED BY RF-SCORE:    0.00 PKD
ROOT
HETATM    1  C   UNL     1     -10.409   8.075  67.058  1.00  0.00    -0.344 C  
HETATM    2  O   UNL     1     -10.150   9.098  66.104  1.00  0.00    -0.290 OA 
ENDROOT
BRANCH   2   3
HETATM    3  C   UNL     1     -10.633  10.331  66.407  1.00  0.00    -0.107 A  
HETATM    4  C   UNL     1     -11.281  10.485  67.616  1.00  0.00    -0.265 A  
HETATM    5  N   UNL     1     -11.777  11.654  68.067  1.00  0.00    -0.513 NA 
HETATM    6  C   UNL     1     -11.608  12.700  67.259  1.00  0.00    -0.364 A  
HETATM    7  C   UNL     1     -10.518  11.492  65.669  1.00  0.00    -0.266 A  
HETATM    8  N   UNL     1     -11.016  12.691  66.059  1.00  0.00    -0.275 NA 
BRANCH   6   9
HETATM    9  N   UNL     1     -12.157  13.900  67.681  1.00  0.00    -0.463 N  
HETATM   10  H   UNL     1     -13.141  14.124  67.530  1.00  0.00     0.000 HD 
BRANCH   9  11
HETATM   11  S   UNL     1     -11.121  14.956  68.448  1.00  0.00    -0.287 S  
HETATM   12  O   UNL     1     -11.261  16.286  67.891  1.00  0.00    -0.309 OA 
HETATM   13  O   UNL     1      -9.826  14.306  68.475  1.00  0.00    -0.223 OA 
BRANCH  11  14
HETATM   14  C   UNL     1     -11.690  15.031  70.137  1.00  0.00    -0.299 A  
HETATM   15  C   UNL     1     -11.444  16.174  70.902  1.00  0.00    -0.421 A  
HETATM   16  C   UNL     1     -11.919  16.240  72.216  1.00  0.00    -0.605 A  
HETATM   17  C   UNL     1     -12.605  15.162  72.784  1.00  0.00    -0.390 A  
HETATM   18  N   UNL     1     -13.153  15.273  74.068  1.00  0.00    -0.574 NA 
HETATM   19  C   UNL     1     -12.935  14.074  71.971  1.00  0.00    -0.450 A  
HETATM   20  H1  UNL     1     -13.653  14.487  74.482  1.00  0.00     0.000 HD 
HETATM   21  C   UNL     1     -12.475  13.998  70.653  1.00  0.00    -0.435 A  
HETATM   22  H2  UNL     1     -13.765  16.089  74.086  1.00  0.00     0.000 HD 
ENDBRANCH  11  14
ENDBRANCH   9  11
ENDBRANCH   6   9
ENDBRANCH   2   3
TORSDOF 4
ENDMDL
MODEL       31
REMARK 921   NORMALIZED FREE ENERGY PREDICTED BY IDOCK:   -5.55 KCAL/MOL
REMARK 922        TOTAL FREE ENERGY PREDICTED BY IDOCK:   -7.20 KCAL/MOL
REMARK 923 INTER-LIGAND FREE ENERGY PREDICTED BY IDOCK:   -6.98 KCAL/MOL
REMARK 924 INTRA-LIGAND FREE ENERGY PREDICTED BY IDOCK:   -0.22 KCAL/MOL
REMARK 927      BINDING AFFINITY PREDICTED BY RF-SCORE:    0.00 PKD
ROOT
HETATM    1  C   UNL     1     -13.347   9.569  71.385  1.00  0.00    -0.361 C  
HETATM    2  O   UNL     1     -12.458  10.636  71.698  1.00  0.00    -0.373 OA 
ENDROOT
BRANCH   2   3
HETATM    3  C   UNL     1     -12.353  11.617  70.764  1.00  0.00    -0.358 A  
HETATM    4  C   UNL     1     -12.595  12.914  71.169  1.00  0.00    -0.281 A  
HETATM    5  N   UNL     1     -12.491  13.992  70.365  1.00  0.00    -0.351 NA 
HETATM    6  C   UNL     1     -12.130  13.737  69.108  1.00  0.00    -0.333 A  
HETATM    7  C   UNL     1     -11.980  11.492  69.440  1.00  0.00    -0.325 A  
HETATM    8  N   UNL     1     -11.881  12.534  68.578  1.00  0.00    -0.315 NA 
BRANCH   6   9
HETATM    9  N   UNL     1     -12.069  14.826  68.252  1.00  0.00    -0.573 N  
HETATM   10  H   UNL     1     -12.861  15.455  68.123  1.00  0.00     0.000 HD 
BRANCH   9  11
HETATM   11  S   UNL     1     -10.628  15.050  67.445  1.00  0.00    -0.276 S  
HETATM   12  O   UNL     1     -10.734  14.557  66.087  1.00  0.00    -0.298 OA 
HETATM   13  O   UNL     1      -9.589  14.553  68.326  1.00  0.00    -0.199 OA 
BRANCH  11  14
HETATM   14  C   UNL     1     -10.412  16.818  67.348  1.00  0.00    -0.310 A  
HETATM   15  C   UNL     1     -10.170  17.553  68.511  1.00  0.00    -0.378 A  
HETATM   16  C   UNL     1      -9.971  18.934  68.426  1.00  0.00    -0.447 A  
HETATM   17  C   UNL     1     -10.047  19.594  67.195  1.00  0.00    -0.411 A  
HETATM   18  N   UNL     1      -9.757  20.961  67.109  1.00  0.00    -0.654 NA 
HETATM   19  C   UNL     1     -10.181  18.829  66.032  1.00  0.00    -0.413 A  
HETATM   20  H1  UNL     1      -9.813  21.442  66.212  1.00  0.00     0.000 HD 
HETATM   21  C   UNL     1     -10.372  17.446  66.101  1.00  0.00    -0.329 A  
HETATM   22  H2  UNL     1      -8.829  21.117  67.501  1.00  0.00     0.000 HD 
ENDBRANCH  11  14
ENDBRANCH   9  11
ENDBRANCH   6   9
ENDBRANCH   2   3
TORSDOF 4
ENDMDL
MODEL       32
REMARK 921   NORMALIZED FREE ENERGY PREDICTED BY IDOCK:   -5.55 KCAL/MOL
REMARK 922        TOTAL FREE ENERGY PREDICTED BY IDOCK:   -7.20 KCAL/MOL
REMARK 923 INTER-LIGAND FREE ENERGY PREDICTED BY IDOCK:   -6.83 KCAL/MOL
REMARK 924 INTRA-LIGAND FREE ENERGY PREDICTED BY IDOCK:   -0.36 KCAL/MOL
REMARK 927      BINDING AFFINITY PREDICTED BY RF-SCORE:    0.00 PKD
ROOT
HETATM    1  C   UNL     1      -9.325  10.299  63.237  1.00  0.00    -0.306 C  
HETATM    2  O   UNL     1      -9.576   9.797  64.545  1.00  0.00    -0.273 OA 
ENDROOT
BRANCH   2   3
HETATM    3  C   UNL     1     -10.226  10.638  65.391  1.00  0.00    -0.273 A  
HETATM    4  C   UNL     1     -10.252  10.303  66.729  1.00  0.00    -0.228 A  
HETATM    5  N   UNL     1     -10.824  11.058  67.689  1.00  0.00    -0.237 NA 
HETATM    6  C   UNL     1     -11.388  12.189  67.269  1.00  0.00    -0.334 A  
HETATM    7  C   UNL     1     -10.839  11.837  65.090  1.00  0.00    -0.297 A  
HETATM    8  N   UNL     1     -11.451  12.627  66.007  1.00  0.00    -0.347 NA 
BRANCH   6   9
HETATM    9  N   UNL     1     -12.028  12.954  68.232  1.00  0.00    -0.311 N  
HETATM   10  H   UNL     1     -12.906  12.658  68.659  1.00  0.00     0.000 HD 
BRANCH   9  11
HETATM   11  S   UNL     1     -11.283  14.383  68.654  1.00  0.00    -0.274 S  
HETATM   12  O   UNL     1     -11.767  15.464  67.820  1.00  0.00    -0.297 OA 
HETATM   13  O   UNL     1      -9.864  14.094  68.728  1.00  0.00    -0.224 OA 
BRANCH  11  14
HETATM   14  C   UNL     1     -11.823  14.723  70.320  1.00  0.00    -0.302 A  
HETATM   15  C   UNL     1     -11.449  15.917  70.941  1.00  0.00    -0.444 A  
HETATM   16  C   UNL     1     -11.900  16.192  72.236  1.00  0.00    -0.631 A  
HETATM   17  C   UNL     1     -12.690  15.269  72.930  1.00  0.00    -0.421 A  
HETATM   18  N   UNL     1     -13.210  15.593  74.189  1.00  0.00    -0.694 NA 
HETATM   19  C   UNL     1     -13.143  14.132  72.254  1.00  0.00    -0.514 A  
HETATM   20  H1  UNL     1     -13.786  14.921  74.695  1.00  0.00     0.000 HD 
HETATM   21  C   UNL     1     -12.707  13.849  70.956  1.00  0.00    -0.428 A  
HETATM   22  H2  UNL     1     -13.732  16.465  74.106  1.00  0.00     0.000 HD 
ENDBRANCH  11  14
ENDBRANCH   9  11
ENDBRANCH   6   9
ENDBRANCH   2   3
TORSDOF 4
ENDMDL
MODEL       33
REMARK 921   NORMALIZED FREE ENERGY PREDICTED BY IDOCK:   -5.55 KCAL/MOL
REMARK 922        TOTAL FREE ENERGY PREDICTED BY IDOCK:   -7.19 KCAL/MOL
REMARK 923 INTER-LIGAND FREE ENERGY PREDICTED BY IDOCK:   -6.80 KCAL/MOL
REMARK 924 INTRA-LIGAND FREE ENERGY PREDICTED BY IDOCK:   -0.40 KCAL/MOL
REMARK 927      BINDING AFFINITY PREDICTED BY RF-SCORE:    0.00 PKD
ROOT
HETATM    1  C   UNL     1     -12.327  11.953  63.430  1.00  0.00    -0.462 C  
HETATM    2  O   UNL     1     -13.088  12.392  64.550  1.00  0.00    -0.823 OA 
ENDROOT
BRANCH   2   3
HETATM    3  C   UNL     1     -12.375  12.851  65.611  1.00  0.00    -0.423 A  
HETATM    4  C   UNL     1     -12.397  14.208  65.857  1.00  0.00    -0.463 A  
HETATM    5  N   UNL     1     -11.771  14.802  66.893  1.00  0.00    -0.343 NA 
HETATM    6  C   UNL     1     -11.100  13.984  67.703  1.00  0.00    -0.282 A  
HETATM    7  C   UNL     1     -11.651  12.116  66.529  1.00  0.00    -0.359 A  
HETATM    8  N   UNL     1     -10.982  12.657  67.576  1.00  0.00    -0.238 NA 
BRANCH   6   9
HETATM    9  N   UNL     1     -10.406  14.580  68.744  1.00  0.00    -0.240 N  
HETATM   10  H   UNL     1     -10.807  14.669  69.678  1.00  0.00     0.000 HD 
BRANCH   9  11
HETATM   11  S   UNL     1      -8.878  15.141  68.386  1.00  0.00    -0.181 S  
HETATM   12  O   UNL     1      -8.345  14.441  67.236  1.00  0.00    -0.191 OA 
HETATM   13  O   UNL     1      -8.148  15.156  69.639  1.00  0.00    -0.214 OA 
BRANCH  11  14
HETATM   14  C   UNL     1      -9.103  16.845  67.907  1.00  0.00    -0.233 A  
HETATM   15  C   UNL     1      -8.474  17.331  66.758  1.00  0.00    -0.275 A  
HETATM   16  C   UNL     1      -8.678  18.659  66.369  1.00  0.00    -0.286 A  
HETATM   17  C   UNL     1      -9.474  19.515  67.137  1.00  0.00    -0.332 A  
HETATM   18  N   UNL     1      -9.743  20.815  66.692  1.00  0.00    -0.624 NA 
HETATM   19  C   UNL     1     -10.180  18.983  68.220  1.00  0.00    -0.460 A  
HETATM   20  H1  UNL     1     -10.324  21.440  67.251  1.00  0.00     0.000 HD 
HETATM   21  C   UNL     1      -9.993  17.655  68.615  1.00  0.00    -0.367 A  
HETATM   22  H2  UNL     1     -10.144  20.756  65.755  1.00  0.00     0.000 HD 
ENDBRANCH  11  14
ENDBRANCH   9  11
ENDBRANCH   6   9
ENDBRANCH   2   3
TORSDOF 4
ENDMDL
MODEL       34
REMARK 921   NORMALIZED FREE ENERGY PREDICTED BY IDOCK:   -5.50 KCAL/MOL
REMARK 922        TOTAL FREE ENERGY PREDICTED BY IDOCK:   -7.14 KCAL/MOL
REMARK 923 INTER-LIGAND FREE ENERGY PREDICTED BY IDOCK:   -6.79 KCAL/MOL
REMARK 924 INTRA-LIGAND FREE ENERGY PREDICTED BY IDOCK:   -0.34 KCAL/MOL
REMARK 927      BINDING AFFINITY PREDICTED BY RF-SCORE:    0.00 PKD
ROOT
HETATM    1  C   UNL     1      -8.400   7.792  65.481  1.00  0.00    -0.146 C  
HETATM    2  O   UNL     1      -8.494   8.470  64.233  1.00  0.00    -0.144 OA 
ENDROOT
BRANCH   2   3
HETATM    3  C   UNL     1      -8.984   9.737  64.278  1.00  0.00    -0.237 A  
HETATM    4  C   UNL     1      -9.457  10.281  63.102  1.00  0.00    -0.298 A  
HETATM    5  N   UNL     1     -10.005  11.509  63.001  1.00  0.00    -0.359 NA 
HETATM    6  C   UNL     1     -10.072  12.203  64.137  1.00  0.00    -0.308 A  
HETATM    7  C   UNL     1      -9.119  10.555  65.382  1.00  0.00    -0.187 A  
HETATM    8  N   UNL     1      -9.639  11.806  65.339  1.00  0.00    -0.221 NA 
BRANCH   6   9
HETATM    9  N   UNL     1     -10.584  13.487  64.045  1.00  0.00    -0.508 N  
HETATM   10  H   UNL     1     -10.080  14.235  63.568  1.00  0.00     0.000 HD 
BRANCH   9  11
HETATM   11  S   UNL     1     -12.068  13.743  64.758  1.00  0.00    -0.424 S  
HETATM   12  O   UNL     1     -12.850  12.524  64.735  1.00  0.00    -0.755 OA 
HETATM   13  O   UNL     1     -12.594  14.962  64.175  1.00  0.00    -0.785 OA 
BRANCH  11  14
HETATM   14  C   UNL     1     -11.713  14.107  66.469  1.00  0.00    -0.397 A  
HETATM   15  C   UNL     1     -11.089  15.310  66.807  1.00  0.00    -0.278 A  
HETATM   16  C   UNL     1     -10.841  15.605  68.151  1.00  0.00    -0.301 A  
HETATM   17  C   UNL     1     -11.177  14.693  69.158  1.00  0.00    -0.270 A  
HETATM   18  N   UNL     1     -11.007  15.036  70.504  1.00  0.00    -0.472 NA 
HETATM   19  C   UNL     1     -11.897  13.547  68.810  1.00  0.00    -0.390 A  
HETATM   20  H1  UNL     1     -11.252  14.372  71.238  1.00  0.00     0.000 HD 
HETATM   21  C   UNL     1     -12.160  13.243  67.471  1.00  0.00    -0.312 A  
HETATM   22  H2  UNL     1     -11.507  15.908  70.679  1.00  0.00     0.000 HD 
ENDBRANCH  11  14
ENDBRANCH   9  11
ENDBRANCH   6   9
ENDBRANCH   2   3
TORSDOF 4
ENDMDL
MODEL       35
REMARK 921   NORMALIZED FREE ENERGY PREDICTED BY IDOCK:   -5.49 KCAL/MOL
REMARK 922        TOTAL FREE ENERGY PREDICTED BY IDOCK:   -7.12 KCAL/MOL
REMARK 923 INTER-LIGAND FREE ENERGY PREDICTED BY IDOCK:   -6.72 KCAL/MOL
REMARK 924 INTRA-LIGAND FREE ENERGY PREDICTED BY IDOCK:   -0.40 KCAL/MOL
REMARK 927      BINDING AFFINITY PREDICTED BY RF-SCORE:    0.00 PKD
ROOT
HETATM    1  C   UNL     1      -6.415  20.938  66.990  1.00  0.00    -0.307 C  
HETATM    2  O   UNL     1      -7.784  21.218  67.261  1.00  0.00    -0.361 OA 
ENDROOT
BRANCH   2   3
HETATM    3  C   UNL     1      -8.593  20.137  67.416  1.00  0.00    -0.343 A  
HETATM    4  C   UNL     1      -8.648  19.225  66.382  1.00  0.00    -0.343 A  
HETATM    5  N   UNL     1      -9.373  18.089  66.409  1.00  0.00    -0.382 NA 
HETATM    6  C   UNL     1     -10.067  17.878  67.527  1.00  0.00    -0.342 A  
HETATM    7  C   UNL     1      -9.351  19.796  68.519  1.00  0.00    -0.289 A  
HETATM    8  N   UNL     1     -10.118  18.681  68.596  1.00  0.00    -0.379 NA 
BRANCH   6   9
HETATM    9  N   UNL     1     -10.861  16.743  67.555  1.00  0.00    -0.270 N  
HETATM   10  H   UNL     1     -11.815  16.744  67.194  1.00  0.00     0.000 HD 
BRANCH   9  11
HETATM   11  S   UNL     1     -10.170  15.375  68.210  1.00  0.00    -0.232 S  
HETATM   12  O   UNL     1      -8.819  15.658  68.649  1.00  0.00    -0.180 OA 
HETATM   13  O   UNL     1     -10.425  14.302  67.268  1.00  0.00    -0.266 OA 
BRANCH  11  14
HETATM   14  C   UNL     1     -11.132  15.013  69.668  1.00  0.00    -0.273 A  
HETATM   15  C   UNL     1     -11.310  15.997  70.644  1.00  0.00    -0.424 A  
HETATM   16  C   UNL     1     -12.090  15.718  71.771  1.00  0.00    -0.541 A  
HETATM   17  C   UNL     1     -12.664  14.455  71.949  1.00  0.00    -0.349 A  
HETATM   18  N   UNL     1     -13.516  14.215  73.034  1.00  0.00    -0.627 NA 
HETATM   19  C   UNL     1     -12.566  13.521  70.913  1.00  0.00    -0.414 A  
HETATM   20  H1  UNL     1     -13.934  13.295  73.165  1.00  0.00     0.000 HD 
HETATM   21  C   UNL     1     -11.796  13.789  69.777  1.00  0.00    -0.394 A  
HETATM   22  H2  UNL     1     -14.264  14.909  73.014  1.00  0.00     0.000 HD 
ENDBRANCH  11  14
ENDBRANCH   9  11
ENDBRANCH   6   9
ENDBRANCH   2   3
TORSDOF 4
ENDMDL
MODEL       36
REMARK 921   NORMALIZED FREE ENERGY PREDICTED BY IDOCK:   -5.48 KCAL/MOL
REMARK 922        TOTAL FREE ENERGY PREDICTED BY IDOCK:   -7.11 KCAL/MOL
REMARK 923 INTER-LIGAND FREE ENERGY PREDICTED BY IDOCK:   -6.80 KCAL/MOL
REMARK 924 INTRA-LIGAND FREE ENERGY PREDICTED BY IDOCK:   -0.31 KCAL/MOL
REMARK 927      BINDING AFFINITY PREDICTED BY RF-SCORE:    0.00 PKD
ROOT
HETATM    1  C   UNL     1     -13.067  10.531  71.814  1.00  0.00    -0.464 C  
HETATM    2  O   UNL     1     -11.899  10.527  71.000  1.00  0.00    -0.350 OA 
ENDROOT
BRANCH   2   3
HETATM    3  C   UNL     1     -11.928  11.343  69.913  1.00  0.00    -0.359 A  
HETATM    4  C   UNL     1     -12.067  12.698  70.134  1.00  0.00    -0.294 A  
HETATM    5  N   UNL     1     -12.072  13.629  69.159  1.00  0.00    -0.343 NA 
HETATM    6  C   UNL     1     -11.934  13.162  67.919  1.00  0.00    -0.303 A  
HETATM    7  C   UNL     1     -11.785  10.992  68.586  1.00  0.00    -0.296 A  
HETATM    8  N   UNL     1     -11.807  11.880  67.560  1.00  0.00    -0.597 NA 
BRANCH   6   9
HETATM    9  N   UNL     1     -11.990  14.098  66.898  1.00  0.00    -0.433 N  
HETATM   10  H   UNL     1     -12.877  14.452  66.542  1.00  0.00     0.000 HD 
BRANCH   9  11
HETATM   11  S   UNL     1     -10.528  14.611  66.286  1.00  0.00    -0.310 S  
HETATM   12  O   UNL     1     -10.546  14.561  64.839  1.00  0.00    -0.409 OA 
HETATM   13  O   UNL     1      -9.506  13.902  67.031  1.00  0.00    -0.236 OA 
BRANCH  11  14
HETATM   14  C   UNL     1     -10.399  16.328  66.751  1.00  0.00    -0.296 A  
HETATM   15  C   UNL     1     -10.454  17.320  65.769  1.00  0.00    -0.237 A  
HETATM   16  C   UNL     1     -10.384  18.666  66.142  1.00  0.00    -0.481 A  
HETATM   17  C   UNL     1     -10.221  19.030  67.483  1.00  0.00    -0.394 A  
HETATM   18  N   UNL     1     -10.242  20.379  67.854  1.00  0.00    -0.304 NA 
HETATM   19  C   UNL     1     -10.277  18.031  68.460  1.00  0.00    -0.392 A  
HETATM   20  H1  UNL     1     -10.124  20.645  68.832  1.00  0.00     0.000 HD 
HETATM   21  C   UNL     1     -10.357  16.682  68.102  1.00  0.00    -0.303 A  
HETATM   22  H2  UNL     1     -11.109  20.793  67.511  1.00  0.00     0.000 HD 
ENDBRANCH  11  14
ENDBRANCH   9  11
ENDBRANCH   6   9
ENDBRANCH   2   3
TORSDOF 4
ENDMDL
MODEL       37
REMARK 921   NORMALIZED FREE ENERGY PREDICTED BY IDOCK:   -5.45 KCAL/MOL
REMARK 922        TOTAL FREE ENERGY PREDICTED BY IDOCK:   -7.08 KCAL/MOL
REMARK 923 INTER-LIGAND FREE ENERGY PREDICTED BY IDOCK:   -6.69 KCAL/MOL
REMARK 924 INTRA-LIGAND FREE ENERGY PREDICTED BY IDOCK:   -0.39 KCAL/MOL
REMARK 927      BINDING AFFINITY PREDICTED BY RF-SCORE:    0.00 PKD
ROOT
HETATM    1  C   UNL     1     -10.620  16.966  65.573  1.00  0.00    -0.202 C  
HETATM    2  O   UNL     1     -10.853  15.810  64.776  1.00  0.00    -0.465 OA 
ENDROOT
BRANCH   2   3
HETATM    3  C   UNL     1     -11.069  14.653  65.454  1.00  0.00    -0.348 A  
HETATM    4  C   UNL     1     -10.452  13.512  64.983  1.00  0.00    -0.376 A  
HETATM    5  N   UNL     1     -10.542  12.303  65.573  1.00  0.00    -0.260 NA 
HETATM    6  C   UNL     1     -11.285  12.256  66.677  1.00  0.00    -0.316 A  
HETATM    7  C   UNL     1     -11.802  14.470  66.609  1.00  0.00    -0.366 A  
HETATM    8  N   UNL     1     -11.949  13.276  67.234  1.00  0.00    -0.364 NA 
BRANCH   6   9
HETATM    9  N   UNL     1     -11.434  11.012  67.269  1.00  0.00    -0.189 N  
HETATM   10  H   UNL     1     -12.175  10.369  66.991  1.00  0.00     0.000 HD 
BRANCH   9  11
HETATM   11  S   UNL     1     -10.334  10.625  68.460  1.00  0.00    -0.196 S  
HETATM   12  O   UNL     1      -9.546  11.789  68.809  1.00  0.00    -0.152 OA 
HETATM   13  O   UNL     1      -9.684   9.403  68.030  1.00  0.00    -0.140 OA 
BRANCH  11  14
HETATM   14  C   UNL     1     -11.315  10.206  69.890  1.00  0.00    -0.275 A  
HETATM   15  C   UNL     1     -12.369  11.038  70.277  1.00  0.00    -0.410 A  
HETATM   16  C   UNL     1     -13.154  10.689  71.380  1.00  0.00    -0.499 A  
HETATM   17  C   UNL     1     -12.875   9.536  72.122  1.00  0.00    -0.389 A  
HETATM   18  N   UNL     1     -13.721   9.149  73.167  1.00  0.00    -1.052 NA 
HETATM   19  C   UNL     1     -11.888   8.662  71.655  1.00  0.00    -0.389 A  
HETATM   20  H1  UNL     1     -13.518   8.308  73.708  1.00  0.00     0.000 HD 
HETATM   21  C   UNL     1     -11.101   8.993  70.549  1.00  0.00    -0.297 A  
HETATM   22  H2  UNL     1     -14.670   9.074  72.801  1.00  0.00     0.000 HD 
ENDBRANCH  11  14
ENDBRANCH   9  11
ENDBRANCH   6   9
ENDBRANCH   2   3
TORSDOF 4
ENDMDL
MODEL       38
REMARK 921   NORMALIZED FREE ENERGY PREDICTED BY IDOCK:   -5.40 KCAL/MOL
REMARK 922        TOTAL FREE ENERGY PREDICTED BY IDOCK:   -7.01 KCAL/MOL
REMARK 923 INTER-LIGAND FREE ENERGY PREDICTED BY IDOCK:   -6.62 KCAL/MOL
REMARK 924 INTRA-LIGAND FREE ENERGY PREDICTED BY IDOCK:   -0.39 KCAL/MOL
REMARK 927      BINDING AFFINITY PREDICTED BY RF-SCORE:    0.00 PKD
ROOT
HETATM    1  C   UNL     1      -9.913   9.763  65.962  1.00  0.00    -0.272 C  
HETATM    2  O   UNL     1     -10.878   9.938  66.993  1.00  0.00    -0.213 OA 
ENDROOT
BRANCH   2   3
HETATM    3  C   UNL     1     -11.173  11.223  67.321  1.00  0.00    -0.296 A  
HETATM    4  C   UNL     1     -11.507  11.487  68.634  1.00  0.00    -0.293 A  
HETATM    5  N   UNL     1     -11.785  12.716  69.113  1.00  0.00    -0.309 NA 
HETATM    6  C   UNL     1     -11.721  13.707  68.225  1.00  0.00    -0.363 A  
HETATM    7  C   UNL     1     -11.135  12.337  66.506  1.00  0.00    -0.299 A  
HETATM    8  N   UNL     1     -11.427  13.593  66.925  1.00  0.00    -0.330 NA 
BRANCH   6   9
HETATM    9  N   UNL     1     -12.055  14.971  68.685  1.00  0.00    -0.583 N  
HETATM   10  H   UNL     1     -13.003  15.338  68.610  1.00  0.00     0.000 HD 
BRANCH   9  11
HETATM   11  S   UNL     1     -10.820  15.856  69.370  1.00  0.00    -0.316 S  
HETATM   12  O   UNL     1      -9.591  15.089  69.362  1.00  0.00    -0.202 OA 
HETATM   13  O   UNL     1     -11.344  16.388  70.613  1.00  0.00    -0.368 OA 
BRANCH  11  14
HETATM   14  C   UNL     1     -10.578  17.248  68.281  1.00  0.00    -0.383 A  
HETATM   15  C   UNL     1     -10.341  18.516  68.817  1.00  0.00    -0.210 A  
HETATM   16  C   UNL     1     -10.121  19.598  67.959  1.00  0.00    -0.555 A  
HETATM   17  C   UNL     1     -10.173  19.433  66.571  1.00  0.00    -0.450 A  
HETATM   18  N   UNL     1      -9.863  20.502  65.722  1.00  0.00    -0.550 NA 
HETATM   19  C   UNL     1     -10.302  18.140  66.054  1.00  0.00    -0.360 A  
HETATM   20  H1  UNL     1      -9.900  20.382  64.710  1.00  0.00     0.000 HD 
HETATM   21  C   UNL     1     -10.513  17.048  66.900  1.00  0.00    -0.268 A  
HETATM   22  H2  UNL     1      -8.937  20.852  65.971  1.00  0.00     0.000 HD 
ENDBRANCH  11  14
ENDBRANCH   9  11
ENDBRANCH   6   9
ENDBRANCH   2   3
TORSDOF 4
ENDMDL
MODEL       39
REMARK 921   NORMALIZED FREE ENERGY PREDICTED BY IDOCK:   -5.39 KCAL/MOL
REMARK 922        TOTAL FREE ENERGY PREDICTED BY IDOCK:   -7.01 KCAL/MOL
REMARK 923 INTER-LIGAND FREE ENERGY PREDICTED BY IDOCK:   -6.68 KCAL/MOL
REMARK 924 INTRA-LIGAND FREE ENERGY PREDICTED BY IDOCK:   -0.32 KCAL/MOL
REMARK 927      BINDING AFFINITY PREDICTED BY RF-SCORE:    0.00 PKD
ROOT
HETATM    1  C   UNL     1      -5.305  21.056  68.478  1.00  0.00    -0.326 C  
HETATM    2  O   UNL     1      -6.598  21.144  67.888  1.00  0.00    -0.332 OA 
ENDROOT
BRANCH   2   3
HETATM    3  C   UNL     1      -7.126  19.977  67.436  1.00  0.00    -0.251 A  
HETATM    4  C   UNL     1      -7.348  18.976  68.359  1.00  0.00    -0.295 A  
HETATM    5  N   UNL     1      -7.901  17.782  68.065  1.00  0.00    -0.234 NA 
HETATM    6  C   UNL     1      -8.238  17.604  66.788  1.00  0.00    -0.243 A  
HETATM    7  C   UNL     1      -7.526  19.668  66.151  1.00  0.00    -0.305 A  
HETATM    8  N   UNL     1      -8.066  18.478  65.790  1.00  0.00    -0.456 NA 
BRANCH   6   9
HETATM    9  N   UNL     1      -8.759  16.364  66.454  1.00  0.00    -0.291 N  
HETATM   10  H   UNL     1      -8.166  15.541  66.347  1.00  0.00     0.000 HD 
BRANCH   9  11
HETATM   11  S   UNL     1     -10.410  16.292  66.238  1.00  0.00    -0.323 S  
HETATM   12  O   UNL     1     -10.729  16.290  64.826  1.00  0.00    -0.680 OA 
HETATM   13  O   UNL     1     -10.978  17.295  67.117  1.00  0.00    -0.145 OA 
BRANCH  11  14
HETATM   14  C   UNL     1     -10.901  14.705  66.890  1.00  0.00    -0.305 A  
HETATM   15  C   UNL     1     -11.315  14.600  68.220  1.00  0.00    -0.317 A  
HETATM   16  C   UNL     1     -11.729  13.360  68.718  1.00  0.00    -0.377 A  
HETATM   17  C   UNL     1     -11.699  12.218  67.911  1.00  0.00    -0.347 A  
HETATM   18  N   UNL     1     -12.200  11.003  68.391  1.00  0.00    -0.780 NA 
HETATM   19  C   UNL     1     -11.387  12.364  66.556  1.00  0.00    -0.392 A  
HETATM   20  H1  UNL     1     -12.178  10.170  67.803  1.00  0.00     0.000 HD 
HETATM   21  C   UNL     1     -10.980  13.599  66.042  1.00  0.00    -0.288 A  
HETATM   22  H2  UNL     1     -13.159  11.151  68.703  1.00  0.00     0.000 HD 
ENDBRANCH  11  14
ENDBRANCH   9  11
ENDBRANCH   6   9
ENDBRANCH   2   3
TORSDOF 4
ENDMDL
MODEL       40
REMARK 921   NORMALIZED FREE ENERGY PREDICTED BY IDOCK:   -5.32 KCAL/MOL
REMARK 922        TOTAL FREE ENERGY PREDICTED BY IDOCK:   -6.91 KCAL/MOL
REMARK 923 INTER-LIGAND FREE ENERGY PREDICTED BY IDOCK:   -6.53 KCAL/MOL
REMARK 924 INTRA-LIGAND FREE ENERGY PREDICTED BY IDOCK:   -0.38 KCAL/MOL
REMARK 927      BINDING AFFINITY PREDICTED BY RF-SCORE:    0.00 PKD
ROOT
HETATM    1  C   UNL     1     -12.186   9.133  71.442  1.00  0.00    -0.335 C  
HETATM    2  O   UNL     1     -12.374  10.475  71.876  1.00  0.00    -0.269 OA 
ENDROOT
BRANCH   2   3
HETATM    3  C   UNL     1     -12.329  11.427  70.906  1.00  0.00    -0.381 A  
HETATM    4  C   UNL     1     -12.116  11.007  69.609  1.00  0.00    -0.340 A  
HETATM    5  N   UNL     1     -12.086  11.830  68.541  1.00  0.00    -0.455 NA 
HETATM    6  C   UNL     1     -12.276  13.121  68.806  1.00  0.00    -0.055 A  
HETATM    7  C   UNL     1     -12.519  12.787  71.043  1.00  0.00    -0.277 A  
HETATM    8  N   UNL     1     -12.476  13.666  70.012  1.00  0.00    -0.257 NA 
BRANCH   6   9
HETATM    9  N   UNL     1     -12.196  13.990  67.730  1.00  0.00    -0.528 N  
HETATM   10  H   UNL     1     -13.021  14.451  67.347  1.00  0.00     0.000 HD 
BRANCH   9  11
HETATM   11  S   UNL     1     -10.675  14.240  67.095  1.00  0.00    -0.284 S  
HETATM   12  O   UNL     1      -9.663  13.872  68.064  1.00  0.00    -0.213 OA 
HETATM   13  O   UNL     1     -10.690  15.571  66.520  1.00  0.00    -0.306 OA 
BRANCH  11  14
HETATM   14  C   UNL     1     -10.540  13.097  65.732  1.00  0.00    -0.282 A  
HETATM   15  C   UNL     1     -11.276  13.317  64.566  1.00  0.00    -0.387 A  
HETATM   16  C   UNL     1     -11.143  12.435  63.488  1.00  0.00    -0.521 A  
HETATM   17  C   UNL     1     -10.309  11.316  63.579  1.00  0.00    -0.408 A  
HETATM   18  N   UNL     1     -10.114  10.491  62.465  1.00  0.00    -0.752 NA 
HETATM   19  C   UNL     1      -9.499  11.173  64.710  1.00  0.00    -0.250 A  
HETATM   20  H1  UNL     1      -9.506   9.675  62.531  1.00  0.00     0.000 HD 
HETATM   21  C   UNL     1      -9.615  12.052  65.791  1.00  0.00    -0.227 A  
HETATM   22  H2  UNL     1      -9.792  11.070  61.689  1.00  0.00     0.000 HD 
ENDBRANCH  11  14
ENDBRANCH   9  11
ENDBRANCH   6   9
ENDBRANCH   2   3
TORSDOF 4
ENDMDL
MODEL       41
REMARK 921   NORMALIZED FREE ENERGY PREDICTED BY IDOCK:   -5.28 KCAL/MOL
REMARK 922        TOTAL FREE ENERGY PREDICTED BY IDOCK:   -6.86 KCAL/MOL
REMARK 923 INTER-LIGAND FREE ENERGY PREDICTED BY IDOCK:   -6.67 KCAL/MOL
REMARK 924 INTRA-LIGAND FREE ENERGY PREDICTED BY IDOCK:   -0.20 KCAL/MOL
REMARK 927      BINDING AFFINITY PREDICTED BY RF-SCORE:    0.00 PKD
ROOT
HETATM    1  C   UNL     1     -11.912  14.066  64.092  1.00  0.00    -0.408 C  
HETATM    2  O   UNL     1     -10.653  13.551  64.511  1.00  0.00    -0.406 OA 
ENDROOT
BRANCH   2   3
HETATM    3  C   UNL     1     -10.695  12.527  65.404  1.00  0.00    -0.280 A  
HETATM    4  C   UNL     1     -11.657  12.580  66.391  1.00  0.00    -0.391 A  
HETATM    5  N   UNL     1     -11.844  11.621  67.320  1.00  0.00    -0.626 NA 
HETATM    6  C   UNL     1     -11.022  10.576  67.239  1.00  0.00    -0.260 A  
HETATM    7  C   UNL     1      -9.915  11.389  65.426  1.00  0.00    -0.245 A  
HETATM    8  N   UNL     1     -10.039  10.402  66.348  1.00  0.00    -0.220 NA 
BRANCH   6   9
HETATM    9  N   UNL     1     -11.162   9.604  68.218  1.00  0.00    -0.513 N  
HETATM   10  H   UNL     1     -11.562   8.688  68.013  1.00  0.00     0.000 HD 
BRANCH   9  11
HETATM   11  S   UNL     1     -10.640  10.015  69.746  1.00  0.00    -0.285 S  
HETATM   12  O   UNL     1     -11.467  11.073  70.289  1.00  0.00    -0.301 OA 
HETATM   13  O   UNL     1      -9.203  10.182  69.652  1.00  0.00    -0.214 OA 
BRANCH  11  14
HETATM   14  C   UNL     1     -10.920   8.563  70.745  1.00  0.00    -0.247 A  
HETATM   15  C   UNL     1     -10.887   8.663  72.138  1.00  0.00    -0.424 A  
HETATM   16  C   UNL     1     -11.137   7.529  72.918  1.00  0.00    -0.426 A  
HETATM   17  C   UNL     1     -11.385   6.289  72.319  1.00  0.00    -0.294 A  
HETATM   18  N   UNL     1     -11.723   5.182  73.105  1.00  0.00    -0.514 NA 
HETATM   19  C   UNL     1     -11.523   6.232  70.928  1.00  0.00    -0.377 A  
HETATM   20  H1  UNL     1     -11.904   4.278  72.669  1.00  0.00     0.000 HD 
HETATM   21  C   UNL     1     -11.284   7.360  70.137  1.00  0.00    -0.239 A  
HETATM   22  H2  UNL     1     -12.530   5.430  73.678  1.00  0.00     0.000 HD 
ENDBRANCH  11  14
ENDBRANCH   9  11
ENDBRANCH   6   9
ENDBRANCH   2   3
TORSDOF 4
ENDMDL
MODEL       42
REMARK 921   NORMALIZED FREE ENERGY PREDICTED BY IDOCK:   -5.28 KCAL/MOL
REMARK 922        TOTAL FREE ENERGY PREDICTED BY IDOCK:   -6.86 KCAL/MOL
REMARK 923 INTER-LIGAND FREE ENERGY PREDICTED BY IDOCK:   -6.76 KCAL/MOL
REMARK 924 INTRA-LIGAND FREE ENERGY PREDICTED BY IDOCK:   -0.11 KCAL/MOL
REMARK 927      BINDING AFFINITY PREDICTED BY RF-SCORE:    0.00 PKD
ROOT
HETATM    1  C   UNL     1     -10.983  10.081  69.492  1.00  0.00    -0.253 C  
HETATM    2  O   UNL     1     -12.137  10.871  69.227  1.00  0.00    -0.332 OA 
ENDROOT
BRANCH   2   3
HETATM    3  C   UNL     1     -11.910  12.088  68.666  1.00  0.00    -0.311 A  
HETATM    4  C   UNL     1     -11.671  13.148  69.515  1.00  0.00    -0.319 A  
HETATM    5  N   UNL     1     -11.393  14.402  69.103  1.00  0.00    -0.262 NA 
HETATM    6  C   UNL     1     -11.358  14.578  67.783  1.00  0.00    -0.317 A  
HETATM    7  C   UNL     1     -11.837  12.402  67.323  1.00  0.00    -0.287 A  
HETATM    8  N   UNL     1     -11.585  13.647  66.849  1.00  0.00    -0.348 NA 
BRANCH   6   9
HETATM    9  N   UNL     1     -11.126  15.870  67.339  1.00  0.00    -0.262 N  
HETATM   10  H   UNL     1     -11.607  16.673  67.745  1.00  0.00     0.000 HD 
BRANCH   9  11
HETATM   11  S   UNL     1     -10.018  16.039  66.106  1.00  0.00    -0.349 S  
HETATM   12  O   UNL     1     -10.699  16.113  64.830  1.00  0.00    -0.648 OA 
HETATM   13  O   UNL     1      -9.000  15.033  66.336  1.00  0.00    -0.280 OA 
BRANCH  11  14
HETATM   14  C   UNL     1      -9.244  17.622  66.382  1.00  0.00    -0.244 A  
HETATM   15  C   UNL     1     -10.029  18.774  66.467  1.00  0.00    -0.415 A  
HETATM   16  C   UNL     1      -9.420  20.009  66.714  1.00  0.00    -0.530 A  
HETATM   17  C   UNL     1      -8.030  20.108  66.840  1.00  0.00    -0.317 A  
HETATM   18  N   UNL     1      -7.440  21.332  67.176  1.00  0.00    -0.775 NA 
HETATM   19  C   UNL     1      -7.273  18.933  66.861  1.00  0.00    -0.225 A  
HETATM   20  H1  UNL     1      -6.427  21.405  67.268  1.00  0.00     0.000 HD 
HETATM   21  C   UNL     1      -7.870  17.691  66.624  1.00  0.00    -0.283 A  
HETATM   22  H2  UNL     1      -7.866  21.668  68.040  1.00  0.00     0.000 HD 
ENDBRANCH  11  14
ENDBRANCH   9  11
ENDBRANCH   6   9
ENDBRANCH   2   3
TORSDOF 4
ENDMDL
MODEL       43
REMARK 921   NORMALIZED FREE ENERGY PREDICTED BY IDOCK:   -5.28 KCAL/MOL
REMARK 922        TOTAL FREE ENERGY PREDICTED BY IDOCK:   -6.86 KCAL/MOL
REMARK 923 INTER-LIGAND FREE ENERGY PREDICTED BY IDOCK:   -6.59 KCAL/MOL
REMARK 924 INTRA-LIGAND FREE ENERGY PREDICTED BY IDOCK:   -0.27 KCAL/MOL
REMARK 927      BINDING AFFINITY PREDICTED BY RF-SCORE:    0.00 PKD
ROOT
HETATM    1  C   UNL     1     -12.660  12.020  63.455  1.00  0.00    -0.507 C  
HETATM    2  O   UNL     1     -13.092  12.488  64.728  1.00  0.00    -0.853 OA 
ENDROOT
BRANCH   2   3
HETATM    3  C   UNL     1     -12.346  13.479  65.284  1.00  0.00    -0.467 A  
HETATM    4  C   UNL     1     -12.386  13.616  66.656  1.00  0.00    -0.331 A  
HETATM    5  N   UNL     1     -11.670  14.525  67.348  1.00  0.00    -0.388 NA 
HETATM    6  C   UNL     1     -10.892  15.321  66.616  1.00  0.00    -0.310 A  
HETATM    7  C   UNL     1     -11.495  14.358  64.646  1.00  0.00    -0.387 A  
HETATM    8  N   UNL     1     -10.769  15.309  65.284  1.00  0.00    -0.385 NA 
BRANCH   6   9
HETATM    9  N   UNL     1     -10.188  16.297  67.304  1.00  0.00    -0.274 N  
HETATM   10  H   UNL     1     -10.434  17.285  67.237  1.00  0.00     0.000 HD 
BRANCH   9  11
HETATM   11  S   UNL     1      -8.920  15.768  68.246  1.00  0.00    -0.186 S  
HETATM   12  O   UNL     1      -8.063  14.886  67.481  1.00  0.00    -0.153 OA 
HETATM   13  O   UNL     1      -9.502  15.322  69.496  1.00  0.00    -0.239 OA 
BRANCH  11  14
HETATM   14  C   UNL     1      -7.968  17.230  68.619  1.00  0.00    -0.267 A  
HETATM   15  C   UNL     1      -6.635  17.108  69.017  1.00  0.00    -0.218 A  
HETATM   16  C   UNL     1      -5.884  18.258  69.279  1.00  0.00    -0.234 A  
HETATM   17  C   UNL     1      -6.463  19.528  69.183  1.00  0.00    -0.321 A  
HETATM   18  N   UNL     1      -5.679  20.675  69.360  1.00  0.00    -0.349 NA 
HETATM   19  C   UNL     1      -7.763  19.636  68.680  1.00  0.00    -0.363 A  
HETATM   20  H1  UNL     1      -6.101  21.601  69.290  1.00  0.00     0.000 HD 
HETATM   21  C   UNL     1      -8.522  18.494  68.405  1.00  0.00    -0.352 A  
HETATM   22  H2  UNL     1      -4.894  20.630  68.711  1.00  0.00     0.000 HD 
ENDBRANCH  11  14
ENDBRANCH   9  11
ENDBRANCH   6   9
ENDBRANCH   2   3
TORSDOF 4
ENDMDL
MODEL       44
REMARK 921   NORMALIZED FREE ENERGY PREDICTED BY IDOCK:   -5.27 KCAL/MOL
REMARK 922        TOTAL FREE ENERGY PREDICTED BY IDOCK:   -6.86 KCAL/MOL
REMARK 923 INTER-LIGAND FREE ENERGY PREDICTED BY IDOCK:   -6.61 KCAL/MOL
REMARK 924 INTRA-LIGAND FREE ENERGY PREDICTED BY IDOCK:   -0.25 KCAL/MOL
REMARK 927      BINDING AFFINITY PREDICTED BY RF-SCORE:    0.00 PKD
ROOT
HETATM    1  C   UNL     1     -11.224   6.027  69.703  1.00  0.00    -0.357 C  
HETATM    2  O   UNL     1      -9.965   6.580  69.333  1.00  0.00    -0.154 OA 
ENDROOT
BRANCH   2   3
HETATM    3  C   UNL     1      -9.953   7.914  69.075  1.00  0.00    -0.187 A  
HETATM    4  C   UNL     1     -10.249   8.768  70.118  1.00  0.00    -0.190 A  
HETATM    5  N   UNL     1     -10.238  10.113  70.022  1.00  0.00    -0.248 NA 
HETATM    6  C   UNL     1      -9.916  10.601  68.825  1.00  0.00    -0.193 A  
HETATM    7  C   UNL     1      -9.629   8.546  67.892  1.00  0.00    -0.152 A  
HETATM    8  N   UNL     1      -9.623   9.892  67.728  1.00  0.00    -0.140 NA 
BRANCH   6   9
HETATM    9  N   UNL     1      -9.950  11.980  68.691  1.00  0.00    -0.348 N  
HETATM   10  H   UNL     1      -9.098  12.534  68.603  1.00  0.00     0.000 HD 
BRANCH   9  11
HETATM   11  S   UNL     1     -11.461  12.683  68.680  1.00  0.00    -0.331 S  
HETATM   12  O   UNL     1     -11.630  13.521  69.849  1.00  0.00    -0.261 OA 
HETATM   13  O   UNL     1     -12.402  11.615  68.401  1.00  0.00    -0.417 OA 
BRANCH  11  14
HETATM   14  C   UNL     1     -11.471  13.757  67.256  1.00  0.00    -0.341 A  
HETATM   15  C   UNL     1     -12.180  13.385  66.111  1.00  0.00    -0.471 A  
HETATM   16  C   UNL     1     -12.210  14.245  65.008  1.00  0.00    -0.438 A  
HETATM   17  C   UNL     1     -11.510  15.456  65.025  1.00  0.00    -0.263 A  
HETATM   18  N   UNL     1     -11.620  16.348  63.953  1.00  0.00    -1.602 NA 
HETATM   19  C   UNL     1     -10.898  15.860  66.216  1.00  0.00    -0.200 A  
HETATM   20  H1  UNL     1     -11.110  17.231  63.965  1.00  0.00     0.000 HD 
HETATM   21  C   UNL     1     -10.868  15.014  67.329  1.00  0.00    -0.310 A  
HETATM   22  H2  UNL     1     -12.609  16.551  63.804  1.00  0.00     0.000 HD 
ENDBRANCH  11  14
ENDBRANCH   9  11
ENDBRANCH   6   9
ENDBRANCH   2   3
TORSDOF 4
ENDMDL
MODEL       45
REMARK 921   NORMALIZED FREE ENERGY PREDICTED BY IDOCK:   -5.22 KCAL/MOL
REMARK 922        TOTAL FREE ENERGY PREDICTED BY IDOCK:   -6.79 KCAL/MOL
REMARK 923 INTER-LIGAND FREE ENERGY PREDICTED BY IDOCK:   -6.38 KCAL/MOL
REMARK 924 INTRA-LIGAND FREE ENERGY PREDICTED BY IDOCK:   -0.41 KCAL/MOL
REMARK 927      BINDING AFFINITY PREDICTED BY RF-SCORE:    0.00 PKD
ROOT
HETATM    1  C   UNL     1     -10.285   9.004  67.560  1.00  0.00    -0.241 C  
HETATM    2  O   UNL     1     -10.221   9.349  66.181  1.00  0.00    -0.279 OA 
ENDROOT
BRANCH   2   3
HETATM    3  C   UNL     1     -10.117  10.675  65.903  1.00  0.00    -0.261 A  
HETATM    4  C   UNL     1     -10.364  11.078  64.607  1.00  0.00    -0.345 A  
HETATM    5  N   UNL     1     -10.338  12.361  64.193  1.00  0.00    -0.365 NA 
HETATM    6  C   UNL     1     -10.048  13.261  65.132  1.00  0.00    -0.231 A  
HETATM    7  C   UNL     1      -9.837  11.706  66.778  1.00  0.00    -0.200 A  
HETATM    8  N   UNL     1      -9.773  13.011  66.417  1.00  0.00    -0.265 NA 
BRANCH   6   9
HETATM    9  N   UNL     1      -9.963  14.580  64.716  1.00  0.00    -0.525 N  
HETATM   10  H   UNL     1      -9.115  14.958  64.294  1.00  0.00     0.000 HD 
BRANCH   9  11
HETATM   11  S   UNL     1     -11.325  15.514  64.943  1.00  0.00    -0.272 S  
HETATM   12  O   UNL     1     -12.416  14.697  65.432  1.00  0.00    -0.286 OA 
HETATM   13  O   UNL     1     -11.482  16.301  63.736  1.00  0.00    -0.888 OA 
BRANCH  11  14
HETATM   14  C   UNL     1     -10.900  16.658  66.245  1.00  0.00    -0.015 A  
HETATM   15  C   UNL     1     -10.611  17.988  65.934  1.00  0.00    -0.225 A  
HETATM   16  C   UNL     1     -10.308  18.888  66.961  1.00  0.00    -0.469 A  
HETATM   17  C   UNL     1     -10.256  18.463  68.292  1.00  0.00    -0.384 A  
HETATM   18  N   UNL     1     -10.041  19.389  69.320  1.00  0.00    -0.570 NA 
HETATM   19  C   UNL     1     -10.654  17.157  68.595  1.00  0.00    -0.352 A  
HETATM   20  H1  UNL     1     -10.003  19.079  70.291  1.00  0.00     0.000 HD 
HETATM   21  C   UNL     1     -10.967  16.249  67.579  1.00  0.00    -0.207 A  
HETATM   22  H2  UNL     1     -10.746  20.122  69.244  1.00  0.00     0.000 HD 
ENDBRANCH  11  14
ENDBRANCH   9  11
ENDBRANCH   6   9
ENDBRANCH   2   3
TORSDOF 4
ENDMDL
MODEL       46
REMARK 921   NORMALIZED FREE ENERGY PREDICTED BY IDOCK:   -5.22 KCAL/MOL
REMARK 922        TOTAL FREE ENERGY PREDICTED BY IDOCK:   -6.79 KCAL/MOL
REMARK 923 INTER-LIGAND FREE ENERGY PREDICTED BY IDOCK:   -6.45 KCAL/MOL
REMARK 924 INTRA-LIGAND FREE ENERGY PREDICTED BY IDOCK:   -0.34 KCAL/MOL
REMARK 927      BINDING AFFINITY PREDICTED BY RF-SCORE:    0.00 PKD
ROOT
HETATM    1  C   UNL     1      -9.268  18.728  66.458  1.00  0.00    -0.331 C  
HETATM    2  O   UNL     1      -8.780  18.161  67.669  1.00  0.00    -0.245 OA 
ENDROOT
BRANCH   2   3
HETATM    3  C   UNL     1      -9.087  16.854  67.881  1.00  0.00    -0.233 A  
HETATM    4  C   UNL     1      -8.849  16.337  69.138  1.00  0.00    -0.217 A  
HETATM    5  N   UNL     1      -9.139  15.073  69.506  1.00  0.00    -0.120 NA 
HETATM    6  C   UNL     1      -9.687  14.312  68.560  1.00  0.00    -0.225 A  
HETATM    7  C   UNL     1      -9.664  15.964  66.997  1.00  0.00    -0.228 A  
HETATM    8  N   UNL     1      -9.957  14.676  67.301  1.00  0.00    -0.234 NA 
BRANCH   6   9
HETATM    9  N   UNL     1      -9.944  12.993  68.901  1.00  0.00    -0.424 N  
HETATM   10  H   UNL     1      -9.195  12.343  69.140  1.00  0.00     0.000 HD 
BRANCH   9  11
HETATM   11  S   UNL     1     -11.544  12.529  68.901  1.00  0.00    -0.335 S  
HETATM   12  O   UNL     1     -11.913  12.007  67.602  1.00  0.00    -0.547 OA 
HETATM   13  O   UNL     1     -12.285  13.630  69.486  1.00  0.00    -0.319 OA 
BRANCH  11  14
HETATM   14  C   UNL     1     -11.643  11.175  70.059  1.00  0.00    -0.338 A  
HETATM   15  C   UNL     1     -12.743  11.072  70.915  1.00  0.00    -0.452 A  
HETATM   16  C   UNL     1     -12.830   9.992  71.799  1.00  0.00    -0.546 A  
HETATM   17  C   UNL     1     -11.812   9.035  71.863  1.00  0.00    -0.376 A  
HETATM   18  N   UNL     1     -11.953   7.912  72.686  1.00  0.00    -0.582 NA 
HETATM   19  C   UNL     1     -10.776   9.095  70.926  1.00  0.00    -0.343 A  
HETATM   20  H1  UNL     1     -11.211   7.213  72.733  1.00  0.00     0.000 HD 
HETATM   21  C   UNL     1     -10.681  10.164  70.030  1.00  0.00    -0.356 A  
HETATM   22  H2  UNL     1     -12.823   7.440  72.440  1.00  0.00     0.000 HD 
ENDBRANCH  11  14
ENDBRANCH   9  11
ENDBRANCH   6   9
ENDBRANCH   2   3
TORSDOF 4
ENDMDL
MODEL       47
REMARK 921   NORMALIZED FREE ENERGY PREDICTED BY IDOCK:   -5.22 KCAL/MOL
REMARK 922        TOTAL FREE ENERGY PREDICTED BY IDOCK:   -6.78 KCAL/MOL
REMARK 923 INTER-LIGAND FREE ENERGY PREDICTED BY IDOCK:   -6.74 KCAL/MOL
REMARK 924 INTRA-LIGAND FREE ENERGY PREDICTED BY IDOCK:   -0.04 KCAL/MOL
REMARK 927      BINDING AFFINITY PREDICTED BY RF-SCORE:    0.00 PKD
ROOT
HETATM    1  C   UNL     1     -10.189  19.647  68.082  1.00  0.00    -0.461 C  
HETATM    2  O   UNL     1      -9.157  18.679  67.924  1.00  0.00    -0.284 OA 
ENDROOT
BRANCH   2   3
HETATM    3  C   UNL     1      -9.458  17.417  68.328  1.00  0.00    -0.290 A  
HETATM    4  C   UNL     1     -10.778  17.021  68.259  1.00  0.00    -0.372 A  
HETATM    5  N   UNL     1     -11.219  15.790  68.587  1.00  0.00    -0.329 NA 
HETATM    6  C   UNL     1     -10.283  14.937  69.002  1.00  0.00    -0.243 A  
HETATM    7  C   UNL     1      -8.590  16.437  68.765  1.00  0.00    -0.250 A  
HETATM    8  N   UNL     1      -8.976  15.190  69.133  1.00  0.00    -0.220 NA 
BRANCH   6   9
HETATM    9  N   UNL     1     -10.722  13.683  69.396  1.00  0.00    -0.446 N  
HETATM   10  H   UNL     1     -11.264  13.545  70.249  1.00  0.00     0.000 HD 
BRANCH   9  11
HETATM   11  S   UNL     1     -10.317  12.412  68.396  1.00  0.00    -0.221 S  
HETATM   12  O   UNL     1     -11.021  11.214  68.802  1.00  0.00    -0.187 OA 
HETATM   13  O   UNL     1      -8.870  12.416  68.302  1.00  0.00    -0.185 OA 
BRANCH  11  14
HETATM   14  C   UNL     1     -10.934  12.865  66.785  1.00  0.00    -0.272 A  
HETATM   15  C   UNL     1     -12.265  13.265  66.638  1.00  0.00    -0.359 A  
HETATM   16  C   UNL     1     -12.735  13.649  65.378  1.00  0.00    -0.500 A  
HETATM   17  C   UNL     1     -11.900  13.600  64.257  1.00  0.00    -0.425 A  
HETATM   18  N   UNL     1     -12.354  14.071  63.019  1.00  0.00    -0.977 NA 
HETATM   19  C   UNL     1     -10.546  13.303  64.442  1.00  0.00    -0.438 A  
HETATM   20  H1  UNL     1     -11.746  14.036  62.202  1.00  0.00     0.000 HD 
HETATM   21  C   UNL     1     -10.060  12.926  65.697  1.00  0.00    -0.282 A  
HETATM   22  H2  UNL     1     -12.676  15.031  63.140  1.00  0.00     0.000 HD 
ENDBRANCH  11  14
ENDBRANCH   9  11
ENDBRANCH   6   9
ENDBRANCH   2   3
TORSDOF 4
ENDMDL
MODEL       48
REMARK 921   NORMALIZED FREE ENERGY PREDICTED BY IDOCK:   -5.19 KCAL/MOL
REMARK 922        TOTAL FREE ENERGY PREDICTED BY IDOCK:   -6.76 KCAL/MOL
REMARK 923 INTER-LIGAND FREE ENERGY PREDICTED BY IDOCK:   -6.37 KCAL/MOL
REMARK 924 INTRA-LIGAND FREE ENERGY PREDICTED BY IDOCK:   -0.39 KCAL/MOL
REMARK 927      BINDING AFFINITY PREDICTED BY RF-SCORE:    0.00 PKD
ROOT
HETATM    1  C   UNL     1      -9.706   9.063  66.958  1.00  0.00    -0.189 C  
HETATM    2  O   UNL     1     -10.671  10.089  67.167  1.00  0.00    -0.250 OA 
ENDROOT
BRANCH   2   3
HETATM    3  C   UNL     1     -10.269  11.353  66.871  1.00  0.00    -0.219 A  
HETATM    4  C   UNL     1     -10.773  11.931  65.724  1.00  0.00    -0.284 A  
HETATM    5  N   UNL     1     -10.496  13.189  65.325  1.00  0.00    -0.298 NA 
HETATM    6  C   UNL     1      -9.678  13.877  66.120  1.00  0.00    -0.272 A  
HETATM    7  C   UNL     1      -9.441  12.174  67.609  1.00  0.00    -0.187 A  
HETATM    8  N   UNL     1      -9.107  13.438  67.247  1.00  0.00    -0.212 NA 
BRANCH   6   9
HETATM    9  N   UNL     1      -9.338  15.153  65.699  1.00  0.00    -0.438 N  
HETATM   10  H   UNL     1      -8.436  15.356  65.270  1.00  0.00     0.000 HD 
BRANCH   9  11
HETATM   11  S   UNL     1     -10.487  16.337  65.934  1.00  0.00    -0.324 S  
HETATM   12  O   UNL     1     -11.328  16.000  67.063  1.00  0.00    -0.059 OA 
HETATM   13  O   UNL     1     -11.074  16.596  64.634  1.00  0.00    -0.763 OA 
BRANCH  11  14
HETATM   14  C   UNL     1      -9.570  17.802  66.380  1.00  0.00    -0.283 A  
HETATM   15  C   UNL     1      -8.227  17.694  66.750  1.00  0.00    -0.270 A  
HETATM   16  C   UNL     1      -7.504  18.848  67.068  1.00  0.00    -0.226 A  
HETATM   17  C   UNL     1      -8.120  20.104  67.057  1.00  0.00    -0.326 A  
HETATM   18  N   UNL     1      -7.365  21.260  67.290  1.00  0.00    -0.740 NA 
HETATM   19  C   UNL     1      -9.430  20.204  66.581  1.00  0.00    -0.517 A  
HETATM   20  H1  UNL     1      -7.814  22.176  67.282  1.00  0.00     0.000 HD 
HETATM   21  C   UNL     1     -10.162  19.060  66.250  1.00  0.00    -0.510 A  
HETATM   22  H2  UNL     1      -6.590  21.276  66.628  1.00  0.00     0.000 HD 
ENDBRANCH  11  14
ENDBRANCH   9  11
ENDBRANCH   6   9
ENDBRANCH   2   3
TORSDOF 4
ENDMDL
MODEL       49
REMARK 921   NORMALIZED FREE ENERGY PREDICTED BY IDOCK:   -5.18 KCAL/MOL
REMARK 922        TOTAL FREE ENERGY PREDICTED BY IDOCK:   -6.74 KCAL/MOL
REMARK 923 INTER-LIGAND FREE ENERGY PREDICTED BY IDOCK:   -6.38 KCAL/MOL
REMARK 924 INTRA-LIGAND FREE ENERGY PREDICTED BY IDOCK:   -0.36 KCAL/MOL
REMARK 927      BINDING AFFINITY PREDICTED BY RF-SCORE:    0.00 PKD
ROOT
HETATM    1  C   UNL     1      -8.380   7.546  66.739  1.00  0.00    -0.126 C  
HETATM    2  O   UNL     1      -8.308   8.892  67.198  1.00  0.00    -0.103 OA 
ENDROOT
BRANCH   2   3
HETATM    3  C   UNL     1      -8.875   9.827  66.391  1.00  0.00    -0.146 A  
HETATM    4  C   UNL     1      -8.815  11.144  66.799  1.00  0.00    -0.161 A  
HETATM    5  N   UNL     1      -9.298  12.181  66.085  1.00  0.00    -0.222 NA 
HETATM    6  C   UNL     1      -9.861  11.864  64.920  1.00  0.00    -0.199 A  
HETATM    7  C   UNL     1      -9.476   9.636  65.163  1.00  0.00    -0.265 A  
HETATM    8  N   UNL     1     -10.000  10.635  64.411  1.00  0.00    -0.330 NA 
BRANCH   6   9
HETATM    9  N   UNL     1     -10.410  12.911  64.196  1.00  0.00    -0.513 N  
HETATM   10  H   UNL     1      -9.961  13.280  63.359  1.00  0.00     0.000 HD 
BRANCH   9  11
HETATM   11  S   UNL     1     -11.847  13.530  64.770  1.00  0.00    -0.403 S  
HETATM   12  O   UNL     1     -12.581  12.508  65.487  1.00  0.00    -0.642 OA 
HETATM   13  O   UNL     1     -12.460  14.228  63.657  1.00  0.00    -0.816 OA 
BRANCH  11  14
HETATM   14  C   UNL     1     -11.382  14.775  65.960  1.00  0.00    -0.332 A  
HETATM   15  C   UNL     1     -10.734  15.936  65.532  1.00  0.00    -0.386 A  
HETATM   16  C   UNL     1     -10.399  16.924  66.464  1.00  0.00    -0.299 A  
HETATM   17  C   UNL     1     -10.672  16.745  67.824  1.00  0.00    -0.321 A  
HETATM   18  N   UNL     1     -10.414  17.777  68.735  1.00  0.00    -0.355 NA 
HETATM   19  C   UNL     1     -11.416  15.629  68.218  1.00  0.00    -0.353 A  
HETATM   20  H1  UNL     1     -10.613  17.647  69.727  1.00  0.00     0.000 HD 
HETATM   21  C   UNL     1     -11.766  14.639  67.296  1.00  0.00    -0.406 A  
HETATM   22  H2  UNL     1     -10.900  18.615  68.417  1.00  0.00     0.000 HD 
ENDBRANCH  11  14
ENDBRANCH   9  11
ENDBRANCH   6   9
ENDBRANCH   2   3
TORSDOF 4
ENDMDL
MODEL       50
REMARK 921   NORMALIZED FREE ENERGY PREDICTED BY IDOCK:   -5.17 KCAL/MOL
REMARK 922        TOTAL FREE ENERGY PREDICTED BY IDOCK:   -6.72 KCAL/MOL
REMARK 923 INTER-LIGAND FREE ENERGY PREDICTED BY IDOCK:   -6.46 KCAL/MOL
REMARK 924 INTRA-LIGAND FREE ENERGY PREDICTED BY IDOCK:   -0.27 KCAL/MOL
REMARK 927      BINDING AFFINITY PREDICTED BY RF-SCORE:    0.00 PKD
ROOT
HETATM    1  C   UNL     1      -8.801   9.363  63.061  1.00  0.00    -0.195 C  
HETATM    2  O   UNL     1      -8.473   8.783  64.319  1.00  0.00    -0.167 OA 
ENDROOT
BRANCH   2   3
HETATM    3  C   UNL     1      -8.854   9.487  65.417  1.00  0.00    -0.178 A  
HETATM    4  C   UNL     1      -8.684  10.856  65.389  1.00  0.00    -0.155 A  
HETATM    5  N   UNL     1      -9.051  11.686  66.386  1.00  0.00    -0.203 NA 
HETATM    6  C   UNL     1      -9.606  11.100  67.446  1.00  0.00    -0.168 A  
HETATM    7  C   UNL     1      -9.447   9.008  66.568  1.00  0.00    -0.206 A  
HETATM    8  N   UNL     1      -9.815   9.789  67.613  1.00  0.00    -0.159 NA 
BRANCH   6   9
HETATM    9  N   UNL     1      -9.941  11.930  68.504  1.00  0.00    -0.249 N  
HETATM   10  H   UNL     1      -9.279  12.145  69.250  1.00  0.00     0.000 HD 
BRANCH   9  11
HETATM   11  S   UNL     1     -11.485  12.557  68.490  1.00  0.00    -0.329 S  
HETATM   12  O   UNL     1     -11.729  13.312  69.702  1.00  0.00    -0.293 OA 
HETATM   13  O   UNL     1     -12.362  11.464  68.118  1.00  0.00    -0.502 OA 
BRANCH  11  14
HETATM   14  C   UNL     1     -11.511  13.716  67.134  1.00  0.00    -0.342 A  
HETATM   15  C   UNL     1     -10.797  14.913  67.231  1.00  0.00    -0.306 A  
HETATM   16  C   UNL     1     -10.795  15.804  66.153  1.00  0.00    -0.240 A  
HETATM   17  C   UNL     1     -11.529  15.528  64.994  1.00  0.00    -0.218 A  
HETATM   18  N   UNL     1     -11.448  16.383  63.889  1.00  0.00    -1.618 NA 
HETATM   19  C   UNL     1     -12.146  14.279  64.873  1.00  0.00    -0.442 A  
HETATM   20  H1  UNL     1     -11.982  16.181  63.044  1.00  0.00     0.000 HD 
HETATM   21  C   UNL     1     -12.148  13.374  65.939  1.00  0.00    -0.486 A  
HETATM   22  H2  UNL     1     -10.466  16.483  63.632  1.00  0.00     0.000 HD 
ENDBRANCH  11  14
ENDBRANCH   9  11
ENDBRANCH   6   9
ENDBRANCH   2   3
TORSDOF 4
ENDMDL
MODEL       51
REMARK 921   NORMALIZED FREE ENERGY PREDICTED BY IDOCK:   -5.15 KCAL/MOL
REMARK 922        TOTAL FREE ENERGY PREDICTED BY IDOCK:   -6.70 KCAL/MOL
REMARK 923 INTER-LIGAND FREE ENERGY PREDICTED BY IDOCK:   -6.44 KCAL/MOL
REMARK 924 INTRA-LIGAND FREE ENERGY PREDICTED BY IDOCK:   -0.26 KCAL/MOL
REMARK 927      BINDING AFFINITY PREDICTED BY RF-SCORE:    0.00 PKD
ROOT
HETATM    1  C   UNL     1     -13.530  12.172  72.241  1.00  0.00    -0.193 C  
HETATM    2  O   UNL     1     -13.491  13.548  72.606  1.00  0.00    -0.561 OA 
ENDROOT
BRANCH   2   3
HETATM    3  C   UNL     1     -12.843  14.374  71.744  1.00  0.00    -0.347 A  
HETATM    4  C   UNL     1     -12.145  15.436  72.280  1.00  0.00    -0.411 A  
HETATM    5  N   UNL     1     -11.424  16.314  71.553  1.00  0.00    -0.369 NA 
HETATM    6  C   UNL     1     -11.418  16.102  70.238  1.00  0.00    -0.308 A  
HETATM    7  C   UNL     1     -12.748  14.262  70.371  1.00  0.00    -0.295 A  
HETATM    8  N   UNL     1     -12.060  15.127  69.586  1.00  0.00    -0.316 NA 
BRANCH   6   9
HETATM    9  N   UNL     1     -10.726  17.024  69.468  1.00  0.00    -0.368 N  
HETATM   10  H   UNL     1     -11.034  17.993  69.384  1.00  0.00     0.000 HD 
BRANCH   9  11
HETATM   11  S   UNL     1      -9.365  16.462  68.688  1.00  0.00    -0.242 S  
HETATM   12  O   UNL     1      -8.697  15.469  69.503  1.00  0.00    -0.261 OA 
HETATM   13  O   UNL     1      -8.648  17.635  68.228  1.00  0.00    -0.253 OA 
BRANCH  11  14
HETATM   14  C   UNL     1      -9.968  15.628  67.231  1.00  0.00    -0.236 A  
HETATM   15  C   UNL     1     -10.533  16.369  66.190  1.00  0.00    -0.321 A  
HETATM   16  C   UNL     1     -10.976  15.714  65.037  1.00  0.00    -0.445 A  
HETATM   17  C   UNL     1     -10.893  14.322  64.928  1.00  0.00    -0.416 A  
HETATM   18  N   UNL     1     -11.255  13.686  63.735  1.00  0.00    -0.527 NA 
HETATM   19  C   UNL     1     -10.226  13.610  65.930  1.00  0.00    -0.318 A  
HETATM   20  H1  UNL     1     -11.194  12.671  63.655  1.00  0.00     0.000 HD 
HETATM   21  C   UNL     1      -9.771  14.253  67.085  1.00  0.00    -0.254 A  
HETATM   22  H2  UNL     1     -10.717  14.101  62.974  1.00  0.00     0.000 HD 
ENDBRANCH  11  14
ENDBRANCH   9  11
ENDBRANCH   6   9
ENDBRANCH   2   3
TORSDOF 4
ENDMDL
MODEL       52
REMARK 921   NORMALIZED FREE ENERGY PREDICTED BY IDOCK:   -5.15 KCAL/MOL
REMARK 922        TOTAL FREE ENERGY PREDICTED BY IDOCK:   -6.70 KCAL/MOL
REMARK 923 INTER-LIGAND FREE ENERGY PREDICTED BY IDOCK:   -6.37 KCAL/MOL
REMARK 924 INTRA-LIGAND FREE ENERGY PREDICTED BY IDOCK:   -0.33 KCAL/MOL
REMARK 927      BINDING AFFINITY PREDICTED BY RF-SCORE:    0.00 PKD
ROOT
HETATM    1  C   UNL     1      -7.616   7.030  72.009  1.00  0.00    -0.091 C  
HETATM    2  O   UNL     1      -9.027   6.850  72.021  1.00  0.00    -0.133 OA 
ENDROOT
BRANCH   2   3
HETATM    3  C   UNL     1      -9.754   7.796  71.370  1.00  0.00    -0.166 A  
HETATM    4  C   UNL     1      -9.687   7.817  69.992  1.00  0.00    -0.176 A  
HETATM    5  N   UNL     1     -10.381   8.670  69.212  1.00  0.00    -0.219 NA 
HETATM    6  C   UNL     1     -11.167   9.530  69.859  1.00  0.00    -0.178 A  
HETATM    7  C   UNL     1     -10.610   8.732  71.915  1.00  0.00    -0.354 A  
HETATM    8  N   UNL     1     -11.315   9.631  71.185  1.00  0.00    -0.357 NA 
BRANCH   6   9
HETATM    9  N   UNL     1     -11.848  10.451  69.079  1.00  0.00    -0.525 N  
HETATM   10  H   UNL     1     -12.757  10.240  68.668  1.00  0.00     0.000 HD 
BRANCH   9  11
HETATM   11  S   UNL     1     -11.098  11.921  68.849  1.00  0.00    -0.257 S  
HETATM   12  O   UNL     1      -9.660  11.763  68.908  1.00  0.00    -0.101 OA 
HETATM   13  O   UNL     1     -11.770  12.860  69.726  1.00  0.00    -0.307 OA 
BRANCH  11  14
HETATM   14  C   UNL     1     -11.506  12.402  67.180  1.00  0.00    -0.357 A  
HETATM   15  C   UNL     1     -12.123  13.633  66.943  1.00  0.00    -0.431 A  
HETATM   16  C   UNL     1     -12.412  14.019  65.630  1.00  0.00    -0.531 A  
HETATM   17  C   UNL     1     -12.125  13.171  64.555  1.00  0.00    -0.404 A  
HETATM   18  N   UNL     1     -12.336  13.605  63.241  1.00  0.00    -1.080 NA 
HETATM   19  C   UNL     1     -11.410  11.995  64.801  1.00  0.00    -0.369 A  
HETATM   20  H1  UNL     1     -12.126  12.987  62.457  1.00  0.00     0.000 HD 
HETATM   21  C   UNL     1     -11.106  11.601  66.108  1.00  0.00    -0.335 A  
HETATM   22  H2  UNL     1     -11.828  14.479  63.106  1.00  0.00     0.000 HD 
ENDBRANCH  11  14
ENDBRANCH   9  11
ENDBRANCH   6   9
ENDBRANCH   2   3
TORSDOF 4
ENDMDL
MODEL       53
REMARK 921   NORMALIZED FREE ENERGY PREDICTED BY IDOCK:   -5.13 KCAL/MOL
REMARK 922        TOTAL FREE ENERGY PREDICTED BY IDOCK:   -6.68 KCAL/MOL
REMARK 923 INTER-LIGAND FREE ENERGY PREDICTED BY IDOCK:   -6.31 KCAL/MOL
REMARK 924 INTRA-LIGAND FREE ENERGY PREDICTED BY IDOCK:   -0.37 KCAL/MOL
REMARK 927      BINDING AFFINITY PREDICTED BY RF-SCORE:    0.00 PKD
ROOT
HETATM    1  C   UNL     1      -9.087   5.853  66.220  1.00  0.00    -0.149 C  
HETATM    2  O   UNL     1      -8.570   7.144  65.915  1.00  0.00    -0.146 OA 
ENDROOT
BRANCH   2   3
HETATM    3  C   UNL     1      -9.309   8.199  66.347  1.00  0.00    -0.210 A  
HETATM    4  C   UNL     1      -9.807   8.147  67.633  1.00  0.00    -0.169 A  
HETATM    5  N   UNL     1     -10.522   9.133  68.210  1.00  0.00    -0.216 NA 
HETATM    6  C   UNL     1     -10.737  10.206  67.449  1.00  0.00    -0.277 A  
HETATM    7  C   UNL     1      -9.596   9.367  65.670  1.00  0.00    -0.274 A  
HETATM    8  N   UNL     1     -10.329  10.383  66.188  1.00  0.00    -0.228 NA 
BRANCH   6   9
HETATM    9  N   UNL     1     -11.516  11.209  68.005  1.00  0.00    -0.299 N  
HETATM   10  H   UNL     1     -12.515  11.087  68.170  1.00  0.00     0.000 HD 
BRANCH   9  11
HETATM   11  S   UNL     1     -10.728  12.627  68.389  1.00  0.00    -0.247 S  
HETATM   12  O   UNL     1      -9.298  12.405  68.441  1.00  0.00    -0.206 OA 
HETATM   13  O   UNL     1     -11.426  13.181  69.533  1.00  0.00    -0.264 OA 
BRANCH  11  14
HETATM   14  C   UNL     1     -11.040  13.726  67.019  1.00  0.00    -0.302 A  
HETATM   15  C   UNL     1     -10.134  14.749  66.729  1.00  0.00    -0.258 A  
HETATM   16  C   UNL     1     -10.367  15.588  65.635  1.00  0.00    -0.407 A  
HETATM   17  C   UNL     1     -11.516  15.439  64.851  1.00  0.00    -0.311 A  
HETATM   18  N   UNL     1     -11.695  16.226  63.707  1.00  0.00    -1.488 NA 
HETATM   19  C   UNL     1     -12.354  14.345  65.089  1.00  0.00    -0.383 A  
HETATM   20  H1  UNL     1     -12.532  16.117  63.135  1.00  0.00     0.000 HD 
HETATM   21  C   UNL     1     -12.127  13.492  66.174  1.00  0.00    -0.482 A  
HETATM   22  H2  UNL     1     -10.878  16.110  63.107  1.00  0.00     0.000 HD 
ENDBRANCH  11  14
ENDBRANCH   9  11
ENDBRANCH   6   9
ENDBRANCH   2   3
TORSDOF 4
ENDMDL
MODEL       54
REMARK 921   NORMALIZED FREE ENERGY PREDICTED BY IDOCK:   -5.12 KCAL/MOL
REMARK 922        TOTAL FREE ENERGY PREDICTED BY IDOCK:   -6.67 KCAL/MOL
REMARK 923 INTER-LIGAND FREE ENERGY PREDICTED BY IDOCK:   -6.32 KCAL/MOL
REMARK 924 INTRA-LIGAND FREE ENERGY PREDICTED BY IDOCK:   -0.35 KCAL/MOL
REMARK 927      BINDING AFFINITY PREDICTED BY RF-SCORE:    0.00 PKD
ROOT
HETATM    1  C   UNL     1      -6.434  15.516  69.232  1.00  0.00    -0.141 C  
HETATM    2  O   UNL     1      -7.449  16.505  69.103  1.00  0.00    -0.226 OA 
ENDROOT
BRANCH   2   3
HETATM    3  C   UNL     1      -8.471  16.203  68.259  1.00  0.00    -0.180 A  
HETATM    4  C   UNL     1      -8.203  15.347  67.211  1.00  0.00    -0.196 A  
HETATM    5  N   UNL     1      -9.124  14.928  66.320  1.00  0.00    -0.266 NA 
HETATM    6  C   UNL     1     -10.356  15.399  66.503  1.00  0.00    -0.289 A  
HETATM    7  C   UNL     1      -9.787  16.612  68.341  1.00  0.00    -0.252 A  
HETATM    8  N   UNL     1     -10.751  16.244  67.462  1.00  0.00    -0.316 NA 
BRANCH   6   9
HETATM    9  N   UNL     1     -11.306  15.023  65.567  1.00  0.00    -0.338 N  
HETATM   10  H   UNL     1     -11.482  15.574  64.727  1.00  0.00     0.000 HD 
BRANCH   9  11
HETATM   11  S   UNL     1     -12.143  13.618  65.888  1.00  0.00    -0.464 S  
HETATM   12  O   UNL     1     -13.407  13.617  65.182  1.00  0.00    -0.677 OA 
HETATM   13  O   UNL     1     -12.108  13.446  67.328  1.00  0.00    -0.361 OA 
BRANCH  11  14
HETATM   14  C   UNL     1     -11.151  12.308  65.194  1.00  0.00    -0.317 A  
HETATM   15  C   UNL     1     -10.647  11.305  66.024  1.00  0.00    -0.314 A  
HETATM   16  C   UNL     1      -9.895  10.263  65.470  1.00  0.00    -0.347 A  
HETATM   17  C   UNL     1      -9.613  10.235  64.100  1.00  0.00    -0.315 A  
HETATM   18  N   UNL     1      -8.938   9.142  63.543  1.00  0.00    -0.422 NA 
HETATM   19  C   UNL     1     -10.216  11.185  63.271  1.00  0.00    -0.403 A  
HETATM   20  H1  UNL     1      -8.732   9.121  62.544  1.00  0.00     0.000 HD 
HETATM   21  C   UNL     1     -10.977  12.227  63.810  1.00  0.00    -0.495 A  
HETATM   22  H2  UNL     1      -9.448   8.293  63.784  1.00  0.00     0.000 HD 
ENDBRANCH  11  14
ENDBRANCH   9  11
ENDBRANCH   6   9
ENDBRANCH   2   3
TORSDOF 4
ENDMDL
MODEL       55
REMARK 921   NORMALIZED FREE ENERGY PREDICTED BY IDOCK:   -5.11 KCAL/MOL
REMARK 922        TOTAL FREE ENERGY PREDICTED BY IDOCK:   -6.66 KCAL/MOL
REMARK 923 INTER-LIGAND FREE ENERGY PREDICTED BY IDOCK:   -6.51 KCAL/MOL
REMARK 924 INTRA-LIGAND FREE ENERGY PREDICTED BY IDOCK:   -0.15 KCAL/MOL
REMARK 927      BINDING AFFINITY PREDICTED BY RF-SCORE:    0.00 PKD
ROOT
HETATM    1  C   UNL     1     -13.093  13.818  72.449  1.00  0.00    -0.422 C  
HETATM    2  O   UNL     1     -13.512  14.285  71.171  1.00  0.00    -0.343 OA 
ENDROOT
BRANCH   2   3
HETATM    3  C   UNL     1     -12.524  14.505  70.264  1.00  0.00    -0.348 A  
HETATM    4  C   UNL     1     -11.918  15.744  70.268  1.00  0.00    -0.361 A  
HETATM    5  N   UNL     1     -10.900  16.092  69.455  1.00  0.00    -0.295 NA 
HETATM    6  C   UNL     1     -10.490  15.146  68.611  1.00  0.00    -0.234 A  
HETATM    7  C   UNL     1     -12.001  13.614  69.349  1.00  0.00    -0.342 A  
HETATM    8  N   UNL     1     -10.995  13.914  68.489  1.00  0.00    -0.248 NA 
BRANCH   6   9
HETATM    9  N   UNL     1      -9.481  15.501  67.730  1.00  0.00    -0.204 N  
HETATM   10  H   UNL     1      -8.498  15.324  67.937  1.00  0.00     0.000 HD 
BRANCH   9  11
HETATM   11  S   UNL     1      -9.962  16.233  66.312  1.00  0.00    -0.337 S  
HETATM   12  O   UNL     1      -8.811  16.747  65.599  1.00  0.00    -0.461 OA 
HETATM   13  O   UNL     1     -11.060  17.113  66.663  1.00  0.00     0.099 OA 
BRANCH  11  14
HETATM   14  C   UNL     1     -10.655  14.924  65.318  1.00  0.00    -0.401 A  
HETATM   15  C   UNL     1      -9.970  13.714  65.188  1.00  0.00    -0.218 A  
HETATM   16  C   UNL     1     -10.532  12.679  64.432  1.00  0.00    -0.398 A  
HETATM   17  C   UNL     1     -11.755  12.855  63.776  1.00  0.00    -0.492 A  
HETATM   18  N   UNL     1     -12.351  11.785  63.098  1.00  0.00    -0.959 NA 
HETATM   19  C   UNL     1     -12.476  14.031  64.007  1.00  0.00    -0.237 A  
HETATM   20  H1  UNL     1     -13.242  11.913  62.620  1.00  0.00     0.000 HD 
HETATM   21  C   UNL     1     -11.930  15.070  64.767  1.00  0.00    -0.313 A  
HETATM   22  H2  UNL     1     -12.444  11.005  63.749  1.00  0.00     0.000 HD 
ENDBRANCH  11  14
ENDBRANCH   9  11
ENDBRANCH   6   9
ENDBRANCH   2   3
TORSDOF 4
ENDMDL
MODEL       56
REMARK 921   NORMALIZED FREE ENERGY PREDICTED BY IDOCK:   -5.09 KCAL/MOL
REMARK 922        TOTAL FREE ENERGY PREDICTED BY IDOCK:   -6.63 KCAL/MOL
REMARK 923 INTER-LIGAND FREE ENERGY PREDICTED BY IDOCK:   -6.20 KCAL/MOL
REMARK 924 INTRA-LIGAND FREE ENERGY PREDICTED BY IDOCK:   -0.43 KCAL/MOL
REMARK 927      BINDING AFFINITY PREDICTED BY RF-SCORE:    0.00 PKD
ROOT
HETATM    1  C   UNL     1     -10.454   7.089  66.977  1.00  0.00    -0.316 C  
HETATM    2  O   UNL     1      -9.404   7.780  66.310  1.00  0.00    -0.185 OA 
ENDROOT
BRANCH   2   3
HETATM    3  C   UNL     1      -9.515   9.134  66.267  1.00  0.00    -0.237 A  
HETATM    4  C   UNL     1      -9.536   9.735  65.025  1.00  0.00    -0.264 A  
HETATM    5  N   UNL     1      -9.681  11.061  64.827  1.00  0.00    -0.243 NA 
HETATM    6  C   UNL     1      -9.805  11.796  65.931  1.00  0.00    -0.238 A  
HETATM    7  C   UNL     1      -9.660  10.007  67.327  1.00  0.00    -0.156 A  
HETATM    8  N   UNL     1      -9.785  11.350  67.192  1.00  0.00    -0.181 NA 
BRANCH   6   9
HETATM    9  N   UNL     1      -9.901  13.167  65.751  1.00  0.00    -0.415 N  
HETATM   10  H   UNL     1      -9.078  13.748  65.589  1.00  0.00     0.000 HD 
BRANCH   9  11
HETATM   11  S   UNL     1     -11.435  13.814  65.812  1.00  0.00    -0.327 S  
HETATM   12  O   UNL     1     -12.425  12.757  65.767  1.00  0.00    -0.579 OA 
HETATM   13  O   UNL     1     -11.463  14.886  64.836  1.00  0.00    -0.380 OA 
BRANCH  11  14
HETATM   14  C   UNL     1     -11.559  14.582  67.418  1.00  0.00    -0.385 A  
HETATM   15  C   UNL     1     -12.040  13.847  68.504  1.00  0.00    -0.331 A  
HETATM   16  C   UNL     1     -12.106  14.444  69.767  1.00  0.00    -0.386 A  
HETATM   17  C   UNL     1     -11.731  15.780  69.947  1.00  0.00    -0.357 A  
HETATM   18  N   UNL     1     -11.715  16.340  71.230  1.00  0.00    -0.624 NA 
HETATM   19  C   UNL     1     -11.151  16.464  68.875  1.00  0.00    -0.328 A  
HETATM   20  H1  UNL     1     -11.441  17.313  71.362  1.00  0.00     0.000 HD 
HETATM   21  C   UNL     1     -11.070  15.876  67.609  1.00  0.00    -0.266 A  
HETATM   22  H2  UNL     1     -11.129  15.757  71.828  1.00  0.00     0.000 HD 
ENDBRANCH  11  14
ENDBRANCH   9  11
ENDBRANCH   6   9
ENDBRANCH   2   3
TORSDOF 4
ENDMDL
MODEL       57
REMARK 921   NORMALIZED FREE ENERGY PREDICTED BY IDOCK:   -5.08 KCAL/MOL
REMARK 922        TOTAL FREE ENERGY PREDICTED BY IDOCK:   -6.61 KCAL/MOL
REMARK 923 INTER-LIGAND FREE ENERGY PREDICTED BY IDOCK:   -6.26 KCAL/MOL
REMARK 924 INTRA-LIGAND FREE ENERGY PREDICTED BY IDOCK:   -0.35 KCAL/MOL
REMARK 927      BINDING AFFINITY PREDICTED BY RF-SCORE:    0.00 PKD
ROOT
HETATM    1  C   UNL     1     -11.154   6.049  69.357  1.00  0.00    -0.375 C  
HETATM    2  O   UNL     1      -9.869   6.657  69.282  1.00  0.00    -0.148 OA 
ENDROOT
BRANCH   2   3
HETATM    3  C   UNL     1      -9.856   8.005  69.112  1.00  0.00    -0.178 A  
HETATM    4  C   UNL     1     -10.382   8.781  70.125  1.00  0.00    -0.208 A  
HETATM    5  N   UNL     1     -10.403  10.129  70.114  1.00  0.00    -0.263 NA 
HETATM    6  C   UNL     1      -9.872  10.703  69.035  1.00  0.00    -0.205 A  
HETATM    7  C   UNL     1      -9.331   8.722  68.056  1.00  0.00    -0.142 A  
HETATM    8  N   UNL     1      -9.344  10.076  67.978  1.00  0.00    -0.131 NA 
BRANCH   6   9
HETATM    9  N   UNL     1      -9.931  12.086  68.980  1.00  0.00    -0.415 N  
HETATM   10  H   UNL     1      -9.151  12.671  69.281  1.00  0.00     0.000 HD 
BRANCH   9  11
HETATM   11  S   UNL     1     -11.347  12.741  68.395  1.00  0.00    -0.321 S  
HETATM   12  O   UNL     1     -12.234  11.690  67.941  1.00  0.00    -0.560 OA 
HETATM   13  O   UNL     1     -10.958  13.811  67.496  1.00  0.00    -0.265 OA 
BRANCH  11  14
HETATM   14  C   UNL     1     -12.125  13.515  69.802  1.00  0.00    -0.318 A  
HETATM   15  C   UNL     1     -12.603  12.727  70.851  1.00  0.00    -0.342 A  
HETATM   16  C   UNL     1     -13.185  13.340  71.966  1.00  0.00    -0.541 A  
HETATM   17  C   UNL     1     -13.326  14.730  72.025  1.00  0.00    -0.363 A  
HETATM   18  N   UNL     1     -13.826  15.339  73.183  1.00  0.00    -0.581 NA 
HETATM   19  C   UNL     1     -12.744  15.507  71.018  1.00  0.00    -0.526 A  
HETATM   20  H1  UNL     1     -13.929  16.352  73.227  1.00  0.00     0.000 HD 
HETATM   21  C   UNL     1     -12.152  14.908  69.903  1.00  0.00    -0.379 A  
HETATM   22  H2  UNL     1     -13.258  15.039  73.974  1.00  0.00     0.000 HD 
ENDBRANCH  11  14
ENDBRANCH   9  11
ENDBRANCH   6   9
ENDBRANCH   2   3
TORSDOF 4
ENDMDL
MODEL       58
REMARK 921   NORMALIZED FREE ENERGY PREDICTED BY IDOCK:   -5.08 KCAL/MOL
REMARK 922        TOTAL FREE ENERGY PREDICTED BY IDOCK:   -6.61 KCAL/MOL
REMARK 923 INTER-LIGAND FREE ENERGY PREDICTED BY IDOCK:   -6.24 KCAL/MOL
REMARK 924 INTRA-LIGAND FREE ENERGY PREDICTED BY IDOCK:   -0.37 KCAL/MOL
REMARK 927      BINDING AFFINITY PREDICTED BY RF-SCORE:    0.00 PKD
ROOT
HETATM    1  C   UNL     1      -9.617  20.104  67.265  1.00  0.00    -0.421 C  
HETATM    2  O   UNL     1      -8.868  19.087  66.610  1.00  0.00    -0.295 OA 
ENDROOT
BRANCH   2   3
HETATM    3  C   UNL     1      -9.047  17.822  67.075  1.00  0.00    -0.252 A  
HETATM    4  C   UNL     1      -9.671  17.673  68.297  1.00  0.00    -0.315 A  
HETATM    5  N   UNL     1      -9.951  16.483  68.865  1.00  0.00    -0.250 NA 
HETATM    6  C   UNL     1      -9.582  15.412  68.164  1.00  0.00    -0.203 A  
HETATM    7  C   UNL     1      -8.724  16.635  66.449  1.00  0.00    -0.310 A  
HETATM    8  N   UNL     1      -8.959  15.410  66.980  1.00  0.00    -0.215 NA 
BRANCH   6   9
HETATM    9  N   UNL     1      -9.814  14.179  68.754  1.00  0.00    -0.339 N  
HETATM   10  H   UNL     1      -9.278  13.860  69.561  1.00  0.00     0.000 HD 
BRANCH   9  11
HETATM   11  S   UNL     1     -11.016  13.248  68.072  1.00  0.00    -0.255 S  
HETATM   12  O   UNL     1     -10.444  12.299  67.139  1.00  0.00    -0.217 OA 
HETATM   13  O   UNL     1     -12.046  14.172  67.639  1.00  0.00    -0.378 OA 
BRANCH  11  14
HETATM   14  C   UNL     1     -11.707  12.308  69.422  1.00  0.00    -0.330 A  
HETATM   15  C   UNL     1     -12.401  12.964  70.441  1.00  0.00    -0.333 A  
HETATM   16  C   UNL     1     -12.968  12.220  71.481  1.00  0.00    -0.390 A  
HETATM   17  C   UNL     1     -12.817  10.830  71.531  1.00  0.00    -0.462 A  
HETATM   18  N   UNL     1     -13.463  10.087  72.525  1.00  0.00    -0.589 NA 
HETATM   19  C   UNL     1     -12.215  10.182  70.448  1.00  0.00    -0.300 A  
HETATM   20  H1  UNL     1     -13.353   9.074  72.562  1.00  0.00     0.000 HD 
HETATM   21  C   UNL     1     -11.652  10.913  69.397  1.00  0.00    -0.387 A  
HETATM   22  H2  UNL     1     -14.460  10.301  72.489  1.00  0.00     0.000 HD 
ENDBRANCH  11  14
ENDBRANCH   9  11
ENDBRANCH   6   9
ENDBRANCH   2   3
TORSDOF 4
ENDMDL
MODEL       59
REMARK 921   NORMALIZED FREE ENERGY PREDICTED BY IDOCK:   -5.07 KCAL/MOL
REMARK 922        TOTAL FREE ENERGY PREDICTED BY IDOCK:   -6.60 KCAL/MOL
REMARK 923 INTER-LIGAND FREE ENERGY PREDICTED BY IDOCK:   -6.29 KCAL/MOL
REMARK 924 INTRA-LIGAND FREE ENERGY PREDICTED BY IDOCK:   -0.31 KCAL/MOL
REMARK 927      BINDING AFFINITY PREDICTED BY RF-SCORE:    0.00 PKD
ROOT
HETATM    1  C   UNL     1      -9.859  11.032  62.799  1.00  0.00    -0.223 C  
HETATM    2  O   UNL     1      -9.132  10.489  63.897  1.00  0.00    -0.198 OA 
ENDROOT
BRANCH   2   3
HETATM    3  C   UNL     1      -9.451  10.980  65.123  1.00  0.00    -0.228 A  
HETATM    4  C   UNL     1      -9.025  10.269  66.226  1.00  0.00    -0.153 A  
HETATM    5  N   UNL     1      -9.232  10.653  67.502  1.00  0.00    -0.143 NA 
HETATM    6  C   UNL     1      -9.896  11.797  67.656  1.00  0.00    -0.185 A  
HETATM    7  C   UNL     1     -10.120  12.150  65.421  1.00  0.00    -0.255 A  
HETATM    8  N   UNL     1     -10.379  12.576  66.682  1.00  0.00    -0.226 NA 
BRANCH   6   9
HETATM    9  N   UNL     1     -10.166  12.182  68.960  1.00  0.00    -0.425 N  
HETATM   10  H   UNL     1      -9.587  12.862  69.452  1.00  0.00     0.000 HD 
BRANCH   9  11
HETATM   11  S   UNL     1     -11.492  11.473  69.680  1.00  0.00    -0.292 S  
HETATM   12  O   UNL     1     -11.066  10.456  70.619  1.00  0.00    -0.313 OA 
HETATM   13  O   UNL     1     -12.407  11.141  68.605  1.00  0.00    -0.549 OA 
BRANCH  11  14
HETATM   14  C   UNL     1     -12.266  12.772  70.626  1.00  0.00    -0.288 A  
HETATM   15  C   UNL     1     -12.055  14.107  70.274  1.00  0.00    -0.412 A  
HETATM   16  C   UNL     1     -12.689  15.121  71.000  1.00  0.00    -0.458 A  
HETATM   17  C   UNL     1     -13.502  14.815  72.096  1.00  0.00    -0.391 A  
HETATM   18  N   UNL     1     -14.202  15.830  72.759  1.00  0.00    -0.494 NA 
HETATM   19  C   UNL     1     -13.788  13.473  72.365  1.00  0.00    -0.687 A  
HETATM   20  H1  UNL     1     -14.795  15.607  73.558  1.00  0.00     0.000 HD 
HETATM   21  C   UNL     1     -13.168  12.449  71.642  1.00  0.00    -0.367 A  
HETATM   22  H2  UNL     1     -14.764  16.334  72.072  1.00  0.00     0.000 HD 
ENDBRANCH  11  14
ENDBRANCH   9  11
ENDBRANCH   6   9
ENDBRANCH   2   3
TORSDOF 4
ENDMDL
MODEL       60
REMARK 921   NORMALIZED FREE ENERGY PREDICTED BY IDOCK:   -5.06 KCAL/MOL
REMARK 922        TOTAL FREE ENERGY PREDICTED BY IDOCK:   -6.60 KCAL/MOL
REMARK 923 INTER-LIGAND FREE ENERGY PREDICTED BY IDOCK:   -6.34 KCAL/MOL
REMARK 924 INTRA-LIGAND FREE ENERGY PREDICTED BY IDOCK:   -0.25 KCAL/MOL
REMARK 927      BINDING AFFINITY PREDICTED BY RF-SCORE:    0.00 PKD
ROOT
HETATM    1  C   UNL     1     -13.205  15.037  72.463  1.00  0.00    -0.405 C  
HETATM    2  O   UNL     1     -13.582  13.700  72.773  1.00  0.00    -0.672 OA 
ENDROOT
BRANCH   2   3
HETATM    3  C   UNL     1     -13.210  12.752  71.873  1.00  0.00    -0.412 A  
HETATM    4  C   UNL     1     -12.425  13.152  70.811  1.00  0.00    -0.308 A  
HETATM    5  N   UNL     1     -11.948  12.319  69.864  1.00  0.00    -0.327 NA 
HETATM    6  C   UNL     1     -12.285  11.038  70.004  1.00  0.00    -0.343 A  
HETATM    7  C   UNL     1     -13.480  11.398  71.906  1.00  0.00    -0.176 A  
HETATM    8  N   UNL     1     -13.049  10.516  70.971  1.00  0.00    -0.371 NA 
BRANCH   6   9
HETATM    9  N   UNL     1     -11.850  10.173  69.012  1.00  0.00    -0.496 N  
HETATM   10  H   UNL     1     -12.384  10.024  68.156  1.00  0.00     0.000 HD 
BRANCH   9  11
HETATM   11  S   UNL     1     -10.406   9.392  69.295  1.00  0.00    -0.214 S  
HETATM   12  O   UNL     1      -9.419  10.330  69.788  1.00  0.00    -0.191 OA 
HETATM   13  O   UNL     1     -10.137   8.597  68.113  1.00  0.00    -0.181 OA 
BRANCH  11  14
HETATM   14  C   UNL     1     -10.744   8.242  70.617  1.00  0.00    -0.220 A  
HETATM   15  C   UNL     1     -11.286   6.988  70.325  1.00  0.00    -0.339 A  
HETATM   16  C   UNL     1     -11.520   6.079  71.361  1.00  0.00    -0.265 A  
HETATM   17  C   UNL     1     -11.252   6.423  72.690  1.00  0.00    -0.255 A  
HETATM   18  N   UNL     1     -11.405   5.474  73.708  1.00  0.00    -0.380 NA 
HETATM   19  C   UNL     1     -10.609   7.637  72.951  1.00  0.00    -0.411 A  
HETATM   20  H1  UNL     1     -11.209   5.725  74.677  1.00  0.00     0.000 HD 
HETATM   21  C   UNL     1     -10.361   8.552  71.924  1.00  0.00    -0.378 A  
HETATM   22  H2  UNL     1     -10.847   4.654  73.469  1.00  0.00     0.000 HD 
ENDBRANCH  11  14
ENDBRANCH   9  11
ENDBRANCH   6   9
ENDBRANCH   2   3
TORSDOF 4
ENDMDL
MODEL       61
REMARK 921   NORMALIZED FREE ENERGY PREDICTED BY IDOCK:   -5.04 KCAL/MOL
REMARK 922        TOTAL FREE ENERGY PREDICTED BY IDOCK:   -6.56 KCAL/MOL
REMARK 923 INTER-LIGAND FREE ENERGY PREDICTED BY IDOCK:   -6.27 KCAL/MOL
REMARK 924 INTRA-LIGAND FREE ENERGY PREDICTED BY IDOCK:   -0.29 KCAL/MOL
REMARK 927      BINDING AFFINITY PREDICTED BY RF-SCORE:    0.00 PKD
ROOT
HETATM    1  C   UNL     1     -12.896   9.446  71.970  1.00  0.00    -0.414 C  
HETATM    2  O   UNL     1     -11.628   9.956  71.572  1.00  0.00    -0.373 OA 
ENDROOT
BRANCH   2   3
HETATM    3  C   UNL     1     -11.241   9.666  70.302  1.00  0.00    -0.271 A  
HETATM    4  C   UNL     1     -11.715  10.476  69.290  1.00  0.00    -0.209 A  
HETATM    5  N   UNL     1     -11.387  10.335  67.990  1.00  0.00    -0.299 NA 
HETATM    6  C   UNL     1     -10.551   9.335  67.714  1.00  0.00    -0.246 A  
HETATM    7  C   UNL     1     -10.378   8.674  69.884  1.00  0.00    -0.209 A  
HETATM    8  N   UNL     1     -10.030   8.468  68.589  1.00  0.00    -0.178 NA 
BRANCH   6   9
HETATM    9  N   UNL     1     -10.243   9.140  66.377  1.00  0.00    -0.266 N  
HETATM   10  H   UNL     1     -10.622   8.356  65.846  1.00  0.00     0.000 HD 
BRANCH   9  11
HETATM   11  S   UNL     1      -9.219  10.257  65.685  1.00  0.00    -0.199 S  
HETATM   12  O   UNL     1      -8.576   9.691  64.517  1.00  0.00    -0.161 OA 
HETATM   13  O   UNL     1      -8.423  10.802  66.768  1.00  0.00    -0.128 OA 
BRANCH  11  14
HETATM   14  C   UNL     1     -10.276  11.577  65.115  1.00  0.00    -0.274 A  
HETATM   15  C   UNL     1     -10.199  12.836  65.715  1.00  0.00    -0.302 A  
HETATM   16  C   UNL     1     -11.008  13.876  65.244  1.00  0.00    -0.331 A  
HETATM   17  C   UNL     1     -11.919  13.659  64.205  1.00  0.00    -0.445 A  
HETATM   18  N   UNL     1     -12.658  14.726  63.682  1.00  0.00    -0.960 NA 
HETATM   19  C   UNL     1     -11.904  12.425  63.547  1.00  0.00    -0.605 A  
HETATM   20  H1  UNL     1     -13.322  14.569  62.925  1.00  0.00     0.000 HD 
HETATM   21  C   UNL     1     -11.095  11.380  64.001  1.00  0.00    -0.400 A  
HETATM   22  H2  UNL     1     -12.007  15.456  63.392  1.00  0.00     0.000 HD 
ENDBRANCH  11  14
ENDBRANCH   9  11
ENDBRANCH   6   9
ENDBRANCH   2   3
TORSDOF 4
ENDMDL
MODEL       62
REMARK 921   NORMALIZED FREE ENERGY PREDICTED BY IDOCK:   -5.03 KCAL/MOL
REMARK 922        TOTAL FREE ENERGY PREDICTED BY IDOCK:   -6.55 KCAL/MOL
REMARK 923 INTER-LIGAND FREE ENERGY PREDICTED BY IDOCK:   -6.15 KCAL/MOL
REMARK 924 INTRA-LIGAND FREE ENERGY PREDICTED BY IDOCK:   -0.40 KCAL/MOL
REMARK 927      BINDING AFFINITY PREDICTED BY RF-SCORE:    0.00 PKD
ROOT
HETATM    1  C   UNL     1     -12.094  12.917  63.407  1.00  0.00    -0.530 C  
HETATM    2  O   UNL     1     -11.684  13.962  64.282  1.00  0.00    -0.397 OA 
ENDROOT
BRANCH   2   3
HETATM    3  C   UNL     1     -11.546  13.623  65.591  1.00  0.00    -0.328 A  
HETATM    4  C   UNL     1     -10.676  12.596  65.896  1.00  0.00    -0.266 A  
HETATM    5  N   UNL     1     -10.408  12.177  67.150  1.00  0.00    -0.213 NA 
HETATM    6  C   UNL     1     -11.049  12.826  68.121  1.00  0.00    -0.256 A  
HETATM    7  C   UNL     1     -12.138  14.216  66.688  1.00  0.00    -0.451 A  
HETATM    8  N   UNL     1     -11.927  13.824  67.968  1.00  0.00    -0.371 NA 
BRANCH   6   9
HETATM    9  N   UNL     1     -10.828  12.375  69.413  1.00  0.00    -0.454 N  
HETATM   10  H   UNL     1     -10.024  12.681  69.960  1.00  0.00     0.000 HD 
BRANCH   9  11
HETATM   11  S   UNL     1     -11.951  11.306  70.024  1.00  0.00    -0.384 S  
HETATM   12  O   UNL     1     -12.758  10.762  68.951  1.00  0.00    -0.153 OA 
HETATM   13  O   UNL     1     -12.580  11.975  71.146  1.00  0.00    -0.367 OA 
BRANCH  11  14
HETATM   14  C   UNL     1     -10.999   9.958  70.702  1.00  0.00    -0.337 A  
HETATM   15  C   UNL     1      -9.672   9.777  70.304  1.00  0.00    -0.279 A  
HETATM   16  C   UNL     1      -8.920   8.738  70.861  1.00  0.00    -0.247 A  
HETATM   17  C   UNL     1      -9.492   7.856  71.784  1.00  0.00    -0.158 A  
HETATM   18  N   UNL     1      -8.706   6.876  72.403  1.00  0.00    -0.126 NA 
HETATM   19  C   UNL     1     -10.784   8.119  72.251  1.00  0.00    -0.381 A  
HETATM   20  H1  UNL     1      -9.123   6.233  73.076  1.00  0.00     0.000 HD 
HETATM   21  C   UNL     1     -11.544   9.159  71.709  1.00  0.00    -0.457 A  
HETATM   22  H2  UNL     1      -7.911   7.335  72.846  1.00  0.00     0.000 HD 
ENDBRANCH  11  14
ENDBRANCH   9  11
ENDBRANCH   6   9
ENDBRANCH   2   3
TORSDOF 4
ENDMDL
MODEL       63
REMARK 921   NORMALIZED FREE ENERGY PREDICTED BY IDOCK:   -5.01 KCAL/MOL
REMARK 922        TOTAL FREE ENERGY PREDICTED BY IDOCK:   -6.53 KCAL/MOL
REMARK 923 INTER-LIGAND FREE ENERGY PREDICTED BY IDOCK:   -6.18 KCAL/MOL
REMARK 924 INTRA-LIGAND FREE ENERGY PREDICTED BY IDOCK:   -0.35 KCAL/MOL
REMARK 927      BINDING AFFINITY PREDICTED BY RF-SCORE:    0.00 PKD
ROOT
HETATM    1  C   UNL     1     -11.564  15.917  70.953  1.00  0.00    -0.421 C  
HETATM    2  O   UNL     1     -10.416  15.395  70.291  1.00  0.00    -0.301 OA 
ENDROOT
BRANCH   2   3
HETATM    3  C   UNL     1     -10.562  15.131  68.966  1.00  0.00    -0.245 A  
HETATM    4  C   UNL     1      -9.703  14.211  68.400  1.00  0.00    -0.226 A  
HETATM    5  N   UNL     1      -9.753  13.820  67.111  1.00  0.00    -0.238 NA 
HETATM    6  C   UNL     1     -10.708  14.388  66.376  1.00  0.00    -0.306 A  
HETATM    7  C   UNL     1     -11.509  15.638  68.099  1.00  0.00    -0.322 A  
HETATM    8  N   UNL     1     -11.594  15.302  66.788  1.00  0.00    -0.141 NA 
BRANCH   6   9
HETATM    9  N   UNL     1     -10.743  14.041  65.034  1.00  0.00    -0.372 N  
HETATM   10  H   UNL     1     -10.194  14.540  64.334  1.00  0.00     0.000 HD 
BRANCH   9  11
HETATM   11  S   UNL     1     -11.731  12.761  64.629  1.00  0.00    -0.380 S  
HETATM   12  O   UNL     1     -12.430  13.042  63.393  1.00  0.00    -0.710 OA 
HETATM   13  O   UNL     1     -12.471  12.425  65.830  1.00  0.00    -0.615 OA 
BRANCH  11  14
HETATM   14  C   UNL     1     -10.627  11.396  64.311  1.00  0.00    -0.355 A  
HETATM   15  C   UNL     1     -10.142  11.182  63.018  1.00  0.00    -0.311 A  
HETATM   16  C   UNL     1      -9.253  10.130  62.780  1.00  0.00    -0.322 A  
HETATM   17  C   UNL     1      -8.873   9.266  63.813  1.00  0.00    -0.118 A  
HETATM   18  N   UNL     1      -7.914   8.272  63.583  1.00  0.00    -0.156 NA 
HETATM   19  C   UNL     1      -9.281   9.561  65.117  1.00  0.00    -0.305 A  
HETATM   20  H1  UNL     1      -7.636   7.643  64.335  1.00  0.00     0.000 HD 
HETATM   21  C   UNL     1     -10.162  10.616  65.372  1.00  0.00    -0.341 A  
HETATM   22  H2  UNL     1      -7.075   8.716  63.208  1.00  0.00     0.000 HD 
ENDBRANCH  11  14
ENDBRANCH   9  11
ENDBRANCH   6   9
ENDBRANCH   2   3
TORSDOF 4
ENDMDL
MODEL       64
REMARK 921   NORMALIZED FREE ENERGY PREDICTED BY IDOCK:   -4.98 KCAL/MOL
REMARK 922        TOTAL FREE ENERGY PREDICTED BY IDOCK:   -6.50 KCAL/MOL
REMARK 923 INTER-LIGAND FREE ENERGY PREDICTED BY IDOCK:   -6.21 KCAL/MOL
REMARK 924 INTRA-LIGAND FREE ENERGY PREDICTED BY IDOCK:   -0.29 KCAL/MOL
REMARK 927      BINDING AFFINITY PREDICTED BY RF-SCORE:    0.00 PKD
ROOT
HETATM    1  C   UNL     1      -7.496   8.229  63.476  1.00  0.00    -0.119 C  
HETATM    2  O   UNL     1      -7.556   9.646  63.364  1.00  0.00    -0.115 OA 
ENDROOT
BRANCH   2   3
HETATM    3  C   UNL     1      -8.613  10.248  63.970  1.00  0.00    -0.190 A  
HETATM    4  C   UNL     1      -8.479  10.583  65.302  1.00  0.00    -0.171 A  
HETATM    5  N   UNL     1      -9.426  11.217  66.023  1.00  0.00    -0.200 NA 
HETATM    6  C   UNL     1     -10.544  11.517  65.364  1.00  0.00    -0.282 A  
HETATM    7  C   UNL     1      -9.815  10.621  63.405  1.00  0.00    -0.321 A  
HETATM    8  N   UNL     1     -10.813  11.239  64.084  1.00  0.00    -0.360 NA 
BRANCH   6   9
HETATM    9  N   UNL     1     -11.551  12.121  66.101  1.00  0.00    -0.375 N  
HETATM   10  H   UNL     1     -12.128  11.595  66.757  1.00  0.00     0.000 HD 
BRANCH   9  11
HETATM   11  S   UNL     1     -11.764  13.755  65.857  1.00  0.00    -0.371 S  
HETATM   12  O   UNL     1     -13.082  14.012  65.313  1.00  0.00    -0.782 OA 
HETATM   13  O   UNL     1     -10.581  14.219  65.159  1.00  0.00    -0.354 OA 
BRANCH  11  14
HETATM   14  C   UNL     1     -11.716  14.486  67.484  1.00  0.00    -0.386 A  
HETATM   15  C   UNL     1     -11.407  15.840  67.628  1.00  0.00    -0.194 A  
HETATM   16  C   UNL     1     -11.401  16.416  68.903  1.00  0.00    -0.272 A  
HETATM   17  C   UNL     1     -11.665  15.642  70.038  1.00  0.00    -0.357 A  
HETATM   18  N   UNL     1     -11.745  16.245  71.299  1.00  0.00    -0.624 NA 
HETATM   19  C   UNL     1     -12.078  14.317  69.865  1.00  0.00    -0.404 A  
HETATM   20  H1  UNL     1     -11.937  15.682  72.127  1.00  0.00     0.000 HD 
HETATM   21  C   UNL     1     -12.097  13.732  68.596  1.00  0.00    -0.333 A  
HETATM   22  H2  UNL     1     -12.435  16.995  71.252  1.00  0.00     0.000 HD 
ENDBRANCH  11  14
ENDBRANCH   9  11
ENDBRANCH   6   9
ENDBRANCH   2   3
TORSDOF 4
ENDMDL
MODEL       65
REMARK 921   NORMALIZED FREE ENERGY PREDICTED BY IDOCK:   -4.97 KCAL/MOL
REMARK 922        TOTAL FREE ENERGY PREDICTED BY IDOCK:   -6.49 KCAL/MOL
REMARK 923 INTER-LIGAND FREE ENERGY PREDICTED BY IDOCK:   -6.26 KCAL/MOL
REMARK 924 INTRA-LIGAND FREE ENERGY PREDICTED BY IDOCK:   -0.22 KCAL/MOL
REMARK 927      BINDING AFFINITY PREDICTED BY RF-SCORE:    0.00 PKD
ROOT
HETATM    1  C   UNL     1      -6.644   6.793  70.632  1.00  0.00    -0.053 C  
HETATM    2  O   UNL     1      -7.981   7.224  70.862  1.00  0.00    -0.096 OA 
ENDROOT
BRANCH   2   3
HETATM    3  C   UNL     1      -8.389   8.305  70.147  1.00  0.00    -0.124 A  
HETATM    4  C   UNL     1      -7.774   8.539  68.934  1.00  0.00    -0.100 A  
HETATM    5  N   UNL     1      -8.100   9.547  68.100  1.00  0.00    -0.102 NA 
HETATM    6  C   UNL     1      -9.085  10.341  68.518  1.00  0.00    -0.138 A  
HETATM    7  C   UNL     1      -9.397   9.196  70.458  1.00  0.00    -0.240 A  
HETATM    8  N   UNL     1      -9.754  10.241  69.672  1.00  0.00    -0.216 NA 
BRANCH   6   9
HETATM    9  N   UNL     1      -9.400  11.415  67.700  1.00  0.00    -0.157 N  
HETATM   10  H   UNL     1      -8.831  12.261  67.679  1.00  0.00     0.000 HD 
BRANCH   9  11
HETATM   11  S   UNL     1     -10.759  11.246  66.751  1.00  0.00    -0.279 S  
HETATM   12  O   UNL     1     -11.922  11.008  67.581  1.00  0.00    -0.583 OA 
HETATM   13  O   UNL     1     -10.406  10.311  65.700  1.00  0.00    -0.243 OA 
BRANCH  11  14
HETATM   14  C   UNL     1     -10.988  12.832  65.967  1.00  0.00    -0.278 A  
HETATM   15  C   UNL     1     -10.000  13.813  66.084  1.00  0.00    -0.318 A  
HETATM   16  C   UNL     1     -10.170  15.044  65.442  1.00  0.00    -0.411 A  
HETATM   17  C   UNL     1     -11.333  15.317  64.716  1.00  0.00    -0.391 A  
HETATM   18  N   UNL     1     -11.454  16.517  64.004  1.00  0.00    -1.581 NA 
HETATM   19  C   UNL     1     -12.259  14.288  64.520  1.00  0.00    -0.476 A  
HETATM   20  H1  UNL     1     -12.302  16.717  63.474  1.00  0.00     0.000 HD 
HETATM   21  C   UNL     1     -12.098  13.050  65.148  1.00  0.00    -0.476 A  
HETATM   22  H2  UNL     1     -10.655  16.598  63.375  1.00  0.00     0.000 HD 
ENDBRANCH  11  14
ENDBRANCH   9  11
ENDBRANCH   6   9
ENDBRANCH   2   3
TORSDOF 4
ENDMDL
MODEL       66
REMARK 921   NORMALIZED FREE ENERGY PREDICTED BY IDOCK:   -4.93 KCAL/MOL
REMARK 922        TOTAL FREE ENERGY PREDICTED BY IDOCK:   -6.44 KCAL/MOL
REMARK 923 INTER-LIGAND FREE ENERGY PREDICTED BY IDOCK:   -6.18 KCAL/MOL
REMARK 924 INTRA-LIGAND FREE ENERGY PREDICTED BY IDOCK:   -0.26 KCAL/MOL
REMARK 927      BINDING AFFINITY PREDICTED BY RF-SCORE:    0.00 PKD
ROOT
HETATM    1  C   UNL     1     -10.110  19.817  66.390  1.00  0.00    -0.491 C  
HETATM    2  O   UNL     1      -9.611  18.615  65.813  1.00  0.00    -0.440 OA 
ENDROOT
BRANCH   2   3
HETATM    3  C   UNL     1     -10.207  17.465  66.223  1.00  0.00    -0.341 A  
HETATM    4  C   UNL     1     -10.720  16.630  65.252  1.00  0.00    -0.204 A  
HETATM    5  N   UNL     1     -11.303  15.441  65.505  1.00  0.00    -0.227 NA 
HETATM    6  C   UNL     1     -11.366  15.094  66.790  1.00  0.00    -0.248 A  
HETATM    7  C   UNL     1     -10.329  16.986  67.512  1.00  0.00    -0.329 A  
HETATM    8  N   UNL     1     -10.925  15.811  67.831  1.00  0.00    -0.317 NA 
BRANCH   6   9
HETATM    9  N   UNL     1     -12.009  13.900  67.077  1.00  0.00    -0.414 N  
HETATM   10  H   UNL     1     -12.874  13.870  67.616  1.00  0.00     0.000 HD 
BRANCH   9  11
HETATM   11  S   UNL     1     -11.290  12.516  66.490  1.00  0.00    -0.355 S  
HETATM   12  O   UNL     1      -9.909  12.780  66.140  1.00  0.00    -0.262 OA 
HETATM   13  O   UNL     1     -12.204  11.971  65.505  1.00  0.00    -0.483 OA 
BRANCH  11  14
HETATM   14  C   UNL     1     -11.276  11.374  67.861  1.00  0.00    -0.288 A  
HETATM   15  C   UNL     1     -11.892  11.727  69.064  1.00  0.00    -0.379 A  
HETATM   16  C   UNL     1     -11.906  10.817  70.125  1.00  0.00    -0.427 A  
HETATM   17  C   UNL     1     -11.278   9.572  70.009  1.00  0.00    -0.209 A  
HETATM   18  N   UNL     1     -11.375   8.634  71.044  1.00  0.00    -0.266 NA 
HETATM   19  C   UNL     1     -10.763   9.195  68.765  1.00  0.00    -0.162 A  
HETATM   20  H1  UNL     1     -10.918   7.727  70.959  1.00  0.00     0.000 HD 
HETATM   21  C   UNL     1     -10.751  10.091  67.692  1.00  0.00    -0.340 A  
HETATM   22  H2  UNL     1     -12.363   8.479  71.245  1.00  0.00     0.000 HD 
ENDBRANCH  11  14
ENDBRANCH   9  11
ENDBRANCH   6   9
ENDBRANCH   2   3
TORSDOF 4
ENDMDL
MODEL       67
REMARK 921   NORMALIZED FREE ENERGY PREDICTED BY IDOCK:   -4.93 KCAL/MOL
REMARK 922        TOTAL FREE ENERGY PREDICTED BY IDOCK:   -6.44 KCAL/MOL
REMARK 923 INTER-LIGAND FREE ENERGY PREDICTED BY IDOCK:   -6.04 KCAL/MOL
REMARK 924 INTRA-LIGAND FREE ENERGY PREDICTED BY IDOCK:   -0.40 KCAL/MOL
REMARK 927      BINDING AFFINITY PREDICTED BY RF-SCORE:    0.00 PKD
ROOT
HETATM    1  C   UNL     1      -6.854  20.618  66.588  1.00  0.00    -0.271 C  
HETATM    2  O   UNL     1      -7.408  20.203  67.832  1.00  0.00    -0.288 OA 
ENDROOT
BRANCH   2   3
HETATM    3  C   UNL     1      -8.319  19.196  67.772  1.00  0.00    -0.292 A  
HETATM    4  C   UNL     1      -9.163  19.162  66.681  1.00  0.00    -0.334 A  
HETATM    5  N   UNL     1     -10.088  18.205  66.467  1.00  0.00    -0.366 NA 
HETATM    6  C   UNL     1     -10.153  17.253  67.397  1.00  0.00    -0.307 A  
HETATM    7  C   UNL     1      -8.484  18.148  68.655  1.00  0.00    -0.270 A  
HETATM    8  N   UNL     1      -9.411  17.170  68.507  1.00  0.00    -0.274 NA 
BRANCH   6   9
HETATM    9  N   UNL     1     -11.133  16.288  67.223  1.00  0.00    -0.138 N  
HETATM   10  H   UNL     1     -12.071  16.398  67.607  1.00  0.00     0.000 HD 
BRANCH   9  11
HETATM   11  S   UNL     1     -10.693  14.938  66.350  1.00  0.00    -0.322 S  
HETATM   12  O   UNL     1      -9.255  14.895  66.188  1.00  0.00    -0.287 OA 
HETATM   13  O   UNL     1     -11.562  14.904  65.190  1.00  0.00    -0.354 OA 
BRANCH  11  14
HETATM   14  C   UNL     1     -11.149  13.548  67.371  1.00  0.00    -0.281 A  
HETATM   15  C   UNL     1     -11.001  12.248  66.880  1.00  0.00    -0.312 A  
HETATM   16  C   UNL     1     -11.331  11.161  67.695  1.00  0.00    -0.356 A  
HETATM   17  C   UNL     1     -11.842  11.360  68.982  1.00  0.00    -0.348 A  
HETATM   18  N   UNL     1     -12.084  10.266  69.821  1.00  0.00    -0.490 NA 
HETATM   19  C   UNL     1     -11.881  12.660  69.494  1.00  0.00    -0.376 A  
HETATM   20  H1  UNL     1     -12.457  10.410  70.759  1.00  0.00     0.000 HD 
HETATM   21  C   UNL     1     -11.546  13.756  68.694  1.00  0.00    -0.369 A  
HETATM   22  H2  UNL     1     -11.224   9.723  69.897  1.00  0.00     0.000 HD 
ENDBRANCH  11  14
ENDBRANCH   9  11
ENDBRANCH   6   9
ENDBRANCH   2   3
TORSDOF 4
ENDMDL
MODEL       68
REMARK 921   NORMALIZED FREE ENERGY PREDICTED BY IDOCK:   -4.89 KCAL/MOL
REMARK 922        TOTAL FREE ENERGY PREDICTED BY IDOCK:   -6.38 KCAL/MOL
REMARK 923 INTER-LIGAND FREE ENERGY PREDICTED BY IDOCK:   -6.11 KCAL/MOL
REMARK 924 INTRA-LIGAND FREE ENERGY PREDICTED BY IDOCK:   -0.27 KCAL/MOL
REMARK 927      BINDING AFFINITY PREDICTED BY RF-SCORE:    0.00 PKD
ROOT
HETATM    1  C   UNL     1     -11.072  16.071  64.819  1.00  0.00    -0.365 C  
HETATM    2  O   UNL     1     -11.340  14.683  64.653  1.00  0.00    -0.387 OA 
ENDROOT
BRANCH   2   3
HETATM    3  C   UNL     1     -11.199  13.912  65.763  1.00  0.00    -0.303 A  
HETATM    4  C   UNL     1     -10.014  14.009  66.463  1.00  0.00    -0.284 A  
HETATM    5  N   UNL     1      -9.747  13.337  67.601  1.00  0.00    -0.214 NA 
HETATM    6  C   UNL     1     -10.721  12.539  68.038  1.00  0.00    -0.221 A  
HETATM    7  C   UNL     1     -12.126  13.058  66.326  1.00  0.00    -0.386 A  
HETATM    8  N   UNL     1     -11.908  12.338  67.454  1.00  0.00    -0.536 NA 
BRANCH   6   9
HETATM    9  N   UNL     1     -10.447  11.799  69.177  1.00  0.00    -0.409 N  
HETATM   10  H   UNL     1     -10.718  12.121  70.106  1.00  0.00     0.000 HD 
BRANCH   9  11
HETATM   11  S   UNL     1      -9.651  10.354  68.944  1.00  0.00    -0.200 S  
HETATM   12  O   UNL     1      -8.309  10.430  69.483  1.00  0.00    -0.162 OA 
HETATM   13  O   UNL     1      -9.864   9.993  67.556  1.00  0.00    -0.164 OA 
BRANCH  11  14
HETATM   14  C   UNL     1     -10.544   9.160  69.924  1.00  0.00    -0.230 A  
HETATM   15  C   UNL     1     -10.419   7.798  69.642  1.00  0.00    -0.229 A  
HETATM   16  C   UNL     1     -11.097   6.864  70.433  1.00  0.00    -0.341 A  
HETATM   17  C   UNL     1     -11.927   7.281  71.478  1.00  0.00    -0.316 A  
HETATM   18  N   UNL     1     -12.529   6.336  72.319  1.00  0.00    -0.528 NA 
HETATM   19  C   UNL     1     -11.954   8.638  71.814  1.00  0.00    -0.402 A  
HETATM   20  H1  UNL     1     -13.134   6.640  73.082  1.00  0.00     0.000 HD 
HETATM   21  C   UNL     1     -11.274   9.581  71.038  1.00  0.00    -0.432 A  
HETATM   22  H2  UNL     1     -11.798   5.740  72.706  1.00  0.00     0.000 HD 
ENDBRANCH  11  14
ENDBRANCH   9  11
ENDBRANCH   6   9
ENDBRANCH   2   3
TORSDOF 4
ENDMDL
MODEL       69
REMARK 921   NORMALIZED FREE ENERGY PREDICTED BY IDOCK:   -4.80 KCAL/MOL
REMARK 922        TOTAL FREE ENERGY PREDICTED BY IDOCK:   -6.27 KCAL/MOL
REMARK 923 INTER-LIGAND FREE ENERGY PREDICTED BY IDOCK:   -6.83 KCAL/MOL
REMARK 924 INTRA-LIGAND FREE ENERGY PREDICTED BY IDOCK:    0.56 KCAL/MOL
REMARK 927      BINDING AFFINITY PREDICTED BY RF-SCORE:    0.00 PKD
ROOT
HETATM    1  C   UNL     1     -13.485   8.457  71.728  1.00  0.00    -0.364 C  
HETATM    2  O   UNL     1     -12.538   9.449  72.110  1.00  0.00    -0.368 OA 
ENDROOT
BRANCH   2   3
HETATM    3  C   UNL     1     -12.551  10.596  71.382  1.00  0.00    -0.421 A  
HETATM    4  C   UNL     1     -13.159  11.701  71.941  1.00  0.00    -0.385 A  
HETATM    5  N   UNL     1     -13.214  12.914  71.355  1.00  0.00    -0.246 NA 
HETATM    6  C   UNL     1     -12.631  13.001  70.160  1.00  0.00     0.023 A  
HETATM    7  C   UNL     1     -11.979  10.822  70.146  1.00  0.00    -0.349 A  
HETATM    8  N   UNL     1     -12.022  12.012  69.497  1.00  0.00    -0.301 NA 
BRANCH   6   9
HETATM    9  N   UNL     1     -12.723  14.226  69.517  1.00  0.00    -0.452 N  
HETATM   10  H   UNL     1     -13.585  14.771  69.518  1.00  0.00     0.000 HD 
BRANCH   9  11
HETATM   11  S   UNL     1     -11.346  14.757  68.743  1.00  0.00    -0.299 S  
HETATM   12  O   UNL     1     -10.194  14.010  69.202  1.00  0.00    -0.148 OA 
HETATM   13  O   UNL     1     -11.364  16.204  68.833  1.00  0.00    -0.341 OA 
BRANCH  11  14
HETATM   14  C   UNL     1     -11.586  14.350  67.023  1.00  0.00    -0.384 A  
HETATM   15  C   UNL     1     -11.159  15.238  66.033  1.00  0.00    -0.278 A  
HETATM   16  C   UNL     1     -11.321  14.900  64.685  1.00  0.00    -0.362 A  
HETATM   17  C   UNL     1     -11.938  13.700  64.318  1.00  0.00    -0.445 A  
HETATM   18  N   UNL     1     -12.014  13.331  62.970  1.00  0.00    -0.769 NA 
HETATM   19  C   UNL     1     -12.259  12.777  65.318  1.00  0.00    -0.535 A  
HETATM   20  H1  UNL     1     -12.464  12.456  62.701  1.00  0.00     0.000 HD 
HETATM   21  C   UNL     1     -12.094  13.098  66.669  1.00  0.00    -0.409 A  
HETATM   22  H2  UNL     1     -11.071  13.340  62.581  1.00  0.00     0.000 HD 
ENDBRANCH  11  14
ENDBRANCH   9  11
ENDBRANCH   6   9
ENDBRANCH   2   3
TORSDOF 4
ENDMDL
MODEL       70
REMARK 921   NORMALIZED FREE ENERGY PREDICTED BY IDOCK:   -4.76 KCAL/MOL
REMARK 922        TOTAL FREE ENERGY PREDICTED BY IDOCK:   -6.22 KCAL/MOL
REMARK 923 INTER-LIGAND FREE ENERGY PREDICTED BY IDOCK:   -6.83 KCAL/MOL
REMARK 924 INTRA-LIGAND FREE ENERGY PREDICTED BY IDOCK:    0.60 KCAL/MOL
REMARK 927      BINDING AFFINITY PREDICTED BY RF-SCORE:    0.00 PKD
ROOT
HETATM    1  C   UNL     1     -13.069  10.731  72.091  1.00  0.00    -0.244 C  
HETATM    2  O   UNL     1     -13.290  11.998  72.701  1.00  0.00    -0.135 OA 
ENDROOT
BRANCH   2   3
HETATM    3  C   UNL     1     -13.085  13.084  71.910  1.00  0.00    -0.384 A  
HETATM    4  C   UNL     1     -12.618  12.863  70.631  1.00  0.00    -0.177 A  
HETATM    5  N   UNL     1     -12.406  13.837  69.723  1.00  0.00    -0.298 NA 
HETATM    6  C   UNL     1     -12.678  15.075  70.134  1.00  0.00    -0.224 A  
HETATM    7  C   UNL     1     -13.335  14.408  72.207  1.00  0.00    -0.421 A  
HETATM    8  N   UNL     1     -13.119  15.433  71.345  1.00  0.00    -0.455 NA 
BRANCH   6   9
HETATM    9  N   UNL     1     -12.417  16.095  69.233  1.00  0.00    -0.357 N  
HETATM   10  H   UNL     1     -13.079  16.854  69.073  1.00  0.00     0.000 HD 
BRANCH   9  11
HETATM   11  S   UNL     1     -10.960  16.013  68.428  1.00  0.00    -0.346 S  
HETATM   12  O   UNL     1     -10.058  15.114  69.117  1.00  0.00    -0.226 OA 
HETATM   13  O   UNL     1     -10.567  17.383  68.161  1.00  0.00    -0.365 OA 
BRANCH  11  14
HETATM   14  C   UNL     1     -11.336  15.273  66.848  1.00  0.00    -0.209 A  
HETATM   15  C   UNL     1     -12.033  14.064  66.797  1.00  0.00    -0.473 A  
HETATM   16  C   UNL     1     -12.352  13.503  65.556  1.00  0.00    -0.524 A  
HETATM   17  C   UNL     1     -11.950  14.121  64.367  1.00  0.00    -0.457 A  
HETATM   18  N   UNL     1     -12.352  13.600  63.131  1.00  0.00    -1.076 NA 
HETATM   19  C   UNL     1     -11.351  15.383  64.436  1.00  0.00    -0.246 A  
HETATM   20  H1  UNL     1     -12.059  14.050  62.264  1.00  0.00     0.000 HD 
HETATM   21  C   UNL     1     -11.034  15.959  65.670  1.00  0.00    -0.207 A  
HETATM   22  H2  UNL     1     -13.369  13.528  63.129  1.00  0.00     0.000 HD 
ENDBRANCH  11  14
ENDBRANCH   9  11
ENDBRANCH   6   9
ENDBRANCH   2   3
TORSDOF 4
ENDMDL
MODEL       71
REMARK 921   NORMALIZED FREE ENERGY PREDICTED BY IDOCK:   -4.75 KCAL/MOL
REMARK 922        TOTAL FREE ENERGY PREDICTED BY IDOCK:   -6.21 KCAL/MOL
REMARK 923 INTER-LIGAND FREE ENERGY PREDICTED BY IDOCK:   -5.83 KCAL/MOL
REMARK 924 INTRA-LIGAND FREE ENERGY PREDICTED BY IDOCK:   -0.38 KCAL/MOL
REMARK 927      BINDING AFFINITY PREDICTED BY RF-SCORE:    0.00 PKD
ROOT
HETATM    1  C   UNL     1      -6.397  18.840  67.707  1.00  0.00    -0.206 C  
HETATM    2  O   UNL     1      -6.117  17.461  67.487  1.00  0.00    -0.137 OA 
ENDROOT
BRANCH   2   3
HETATM    3  C   UNL     1      -7.081  16.588  67.880  1.00  0.00    -0.137 A  
HETATM    4  C   UNL     1      -7.450  15.600  66.991  1.00  0.00    -0.193 A  
HETATM    5  N   UNL     1      -8.361  14.642  67.256  1.00  0.00    -0.201 NA 
HETATM    6  C   UNL     1      -8.915  14.696  68.467  1.00  0.00    -0.184 A  
HETATM    7  C   UNL     1      -7.723  16.527  69.101  1.00  0.00    -0.205 A  
HETATM    8  N   UNL     1      -8.665  15.604  69.417  1.00  0.00    -0.258 NA 
BRANCH   6   9
HETATM    9  N   UNL     1      -9.893  13.753  68.740  1.00  0.00    -0.393 N  
HETATM   10  H   UNL     1      -9.673  12.864  69.189  1.00  0.00     0.000 HD 
BRANCH   9  11
HETATM   11  S   UNL     1     -11.448  14.153  68.296  1.00  0.00    -0.324 S  
HETATM   12  O   UNL     1     -11.553  15.580  68.071  1.00  0.00    -0.342 OA 
HETATM   13  O   UNL     1     -12.323  13.495  69.246  1.00  0.00    -0.260 OA 
BRANCH  11  14
HETATM   14  C   UNL     1     -11.710  13.352  66.723  1.00  0.00    -0.385 A  
HETATM   15  C   UNL     1     -12.656  13.865  65.832  1.00  0.00    -0.498 A  
HETATM   16  C   UNL     1     -12.835  13.252  64.587  1.00  0.00    -0.190 A  
HETATM   17  C   UNL     1     -12.105  12.110  64.240  1.00  0.00    -0.375 A  
HETATM   18  N   UNL     1     -12.227  11.558  62.959  1.00  0.00    -0.941 NA 
HETATM   19  C   UNL     1     -11.089  11.677  65.098  1.00  0.00    -0.300 A  
HETATM   20  H1  UNL     1     -11.695  10.726  62.706  1.00  0.00     0.000 HD 
HETATM   21  C   UNL     1     -10.892  12.286  66.341  1.00  0.00    -0.299 A  
HETATM   22  H2  UNL     1     -12.028  12.288  62.275  1.00  0.00     0.000 HD 
ENDBRANCH  11  14
ENDBRANCH   9  11
ENDBRANCH   6   9
ENDBRANCH   2   3
TORSDOF 4
ENDMDL
MODEL       72
REMARK 921   NORMALIZED FREE ENERGY PREDICTED BY IDOCK:   -4.71 KCAL/MOL
REMARK 922        TOTAL FREE ENERGY PREDICTED BY IDOCK:   -6.16 KCAL/MOL
REMARK 923 INTER-LIGAND FREE ENERGY PREDICTED BY IDOCK:   -5.98 KCAL/MOL
REMARK 924 INTRA-LIGAND FREE ENERGY PREDICTED BY IDOCK:   -0.18 KCAL/MOL
REMARK 927      BINDING AFFINITY PREDICTED BY RF-SCORE:    0.00 PKD
ROOT
HETATM    1  C   UNL     1      -6.477  17.562  69.209  1.00  0.00    -0.243 C  
HETATM    2  O   UNL     1      -6.565  17.145  67.851  1.00  0.00    -0.140 OA 
ENDROOT
BRANCH   2   3
HETATM    3  C   UNL     1      -7.788  16.721  67.437  1.00  0.00    -0.171 A  
HETATM    4  C   UNL     1      -8.494  15.886  68.279  1.00  0.00    -0.170 A  
HETATM    5  N   UNL     1      -9.732  15.418  68.020  1.00  0.00    -0.207 NA 
HETATM    6  C   UNL     1     -10.265  15.813  66.865  1.00  0.00    -0.280 A  
HETATM    7  C   UNL     1      -8.456  17.061  66.277  1.00  0.00    -0.269 A  
HETATM    8  N   UNL     1      -9.690  16.604  65.951  1.00  0.00    -0.488 NA 
BRANCH   6   9
HETATM    9  N   UNL     1     -11.515  15.301  66.555  1.00  0.00    -0.176 N  
HETATM   10  H   UNL     1     -12.368  15.673  66.972  1.00  0.00     0.000 HD 
BRANCH   9  11
HETATM   11  S   UNL     1     -11.546  14.042  65.463  1.00  0.00    -0.344 S  
HETATM   12  O   UNL     1     -10.446  14.163  64.529  1.00  0.00    -0.408 OA 
HETATM   13  O   UNL     1     -12.911  13.958  64.981  1.00  0.00    -0.731 OA 
BRANCH  11  14
HETATM   14  C   UNL     1     -11.255  12.572  66.431  1.00  0.00    -0.306 A  
HETATM   15  C   UNL     1     -11.731  12.498  67.742  1.00  0.00    -0.419 A  
HETATM   16  C   UNL     1     -11.528  11.331  68.486  1.00  0.00    -0.372 A  
HETATM   17  C   UNL     1     -10.821  10.252  67.945  1.00  0.00    -0.284 A  
HETATM   18  N   UNL     1     -10.701   9.057  68.664  1.00  0.00    -0.391 NA 
HETATM   19  C   UNL     1     -10.448  10.302  66.598  1.00  0.00    -0.260 A  
HETATM   20  H1  UNL     1     -10.186   8.270  68.270  1.00  0.00     0.000 HD 
HETATM   21  C   UNL     1     -10.653  11.458  65.840  1.00  0.00    -0.317 A  
HETATM   22  H2  UNL     1     -11.637   8.737  68.913  1.00  0.00     0.000 HD 
ENDBRANCH  11  14
ENDBRANCH   9  11
ENDBRANCH   6   9
ENDBRANCH   2   3
TORSDOF 4
ENDMDL
MODEL       73
REMARK 921   NORMALIZED FREE ENERGY PREDICTED BY IDOCK:   -4.70 KCAL/MOL
REMARK 922        TOTAL FREE ENERGY PREDICTED BY IDOCK:   -6.15 KCAL/MOL
REMARK 923 INTER-LIGAND FREE ENERGY PREDICTED BY IDOCK:   -5.82 KCAL/MOL
REMARK 924 INTRA-LIGAND FREE ENERGY PREDICTED BY IDOCK:   -0.33 KCAL/MOL
REMARK 927      BINDING AFFINITY PREDICTED BY RF-SCORE:    0.00 PKD
ROOT
HETATM    1  C   UNL     1     -13.380  14.779  72.511  1.00  0.00    -0.434 C  
HETATM    2  O   UNL     1     -13.716  13.428  72.809  1.00  0.00    -0.697 OA 
ENDROOT
BRANCH   2   3
HETATM    3  C   UNL     1     -13.272  12.495  71.926  1.00  0.00    -0.392 A  
HETATM    4  C   UNL     1     -12.500  12.932  70.870  1.00  0.00    -0.296 A  
HETATM    5  N   UNL     1     -11.958  12.120  69.940  1.00  0.00    -0.325 NA 
HETATM    6  C   UNL     1     -12.214  10.822  70.092  1.00  0.00    -0.346 A  
HETATM    7  C   UNL     1     -13.455  11.128  71.974  1.00  0.00    -0.174 A  
HETATM    8  N   UNL     1     -12.957  10.264  71.055  1.00  0.00    -0.384 NA 
BRANCH   6   9
HETATM    9  N   UNL     1     -11.711   9.975  69.117  1.00  0.00    -0.479 N  
HETATM   10  H   UNL     1     -12.261   9.707  68.301  1.00  0.00     0.000 HD 
BRANCH   9  11
HETATM   11  S   UNL     1     -10.158   9.420  69.352  1.00  0.00    -0.210 S  
HETATM   12  O   UNL     1      -9.906   9.220  70.764  1.00  0.00    -0.243 OA 
HETATM   13  O   UNL     1      -9.296  10.285  68.569  1.00  0.00    -0.144 OA 
BRANCH  11  14
HETATM   14  C   UNL     1     -10.108   7.815  68.576  1.00  0.00    -0.199 A  
HETATM   15  C   UNL     1     -10.180   6.662  69.361  1.00  0.00    -0.207 A  
HETATM   16  C   UNL     1     -10.172   5.406  68.746  1.00  0.00    -0.252 A  
HETATM   17  C   UNL     1     -10.056   5.290  67.357  1.00  0.00    -0.187 A  
HETATM   18  N   UNL     1     -10.140   4.033  66.745  1.00  0.00    -0.319 NA 
HETATM   19  C   UNL     1     -10.096   6.453  66.581  1.00  0.00    -0.206 A  
HETATM   20  H1  UNL     1     -10.056   3.949  65.732  1.00  0.00     0.000 HD 
HETATM   21  C   UNL     1     -10.113   7.715  67.183  1.00  0.00    -0.323 A  
HETATM   22  H2  UNL     1     -11.014   3.594  67.033  1.00  0.00     0.000 HD 
ENDBRANCH  11  14
ENDBRANCH   9  11
ENDBRANCH   6   9
ENDBRANCH   2   3
TORSDOF 4
ENDMDL
MODEL       74
REMARK 921   NORMALIZED FREE ENERGY PREDICTED BY IDOCK:   -4.67 KCAL/MOL
REMARK 922        TOTAL FREE ENERGY PREDICTED BY IDOCK:   -6.12 KCAL/MOL
REMARK 923 INTER-LIGAND FREE ENERGY PREDICTED BY IDOCK:   -5.87 KCAL/MOL
REMARK 924 INTRA-LIGAND FREE ENERGY PREDICTED BY IDOCK:   -0.25 KCAL/MOL
REMARK 927      BINDING AFFINITY PREDICTED BY RF-SCORE:    0.00 PKD
ROOT
HETATM    1  C   UNL     1     -10.152  19.944  66.384  1.00  0.00    -0.499 C  
HETATM    2  O   UNL     1      -9.571  18.854  67.090  1.00  0.00    -0.295 OA 
ENDROOT
BRANCH   2   3
HETATM    3  C   UNL     1      -9.742  17.625  66.535  1.00  0.00    -0.304 A  
HETATM    4  C   UNL     1      -9.077  16.564  67.114  1.00  0.00    -0.213 A  
HETATM    5  N   UNL     1      -9.180  15.286  66.698  1.00  0.00    -0.254 NA 
HETATM    6  C   UNL     1      -9.987  15.085  65.656  1.00  0.00    -0.355 A  
HETATM    7  C   UNL     1     -10.550  17.281  65.470  1.00  0.00    -0.127 A  
HETATM    8  N   UNL     1     -10.676  16.019  64.991  1.00  0.00    -0.593 NA 
BRANCH   6   9
HETATM    9  N   UNL     1     -10.066  13.786  65.179  1.00  0.00    -0.538 N  
HETATM   10  H   UNL     1      -9.378  13.409  64.527  1.00  0.00     0.000 HD 
BRANCH   9  11
HETATM   11  S   UNL     1     -11.347  12.875  65.729  1.00  0.00    -0.330 S  
HETATM   12  O   UNL     1     -11.796  11.967  64.694  1.00  0.00    -0.330 OA 
HETATM   13  O   UNL     1     -12.275  13.807  66.339  1.00  0.00    -0.429 OA 
BRANCH  11  14
HETATM   14  C   UNL     1     -10.683  11.878  67.051  1.00  0.00    -0.240 A  
HETATM   15  C   UNL     1     -11.530  11.042  67.783  1.00  0.00    -0.339 A  
HETATM   16  C   UNL     1     -11.000  10.239  68.798  1.00  0.00    -0.285 A  
HETATM   17  C   UNL     1      -9.638  10.291  69.113  1.00  0.00    -0.218 A  
HETATM   18  N   UNL     1      -9.103   9.418  70.068  1.00  0.00    -0.202 NA 
HETATM   19  C   UNL     1      -8.790  11.049  68.300  1.00  0.00    -0.144 A  
HETATM   20  H1  UNL     1      -8.110   9.455  70.298  1.00  0.00     0.000 HD 
HETATM   21  C   UNL     1      -9.305  11.849  67.276  1.00  0.00    -0.177 A  
HETATM   22  H2  UNL     1      -9.334   8.463  69.796  1.00  0.00     0.000 HD 
ENDBRANCH  11  14
ENDBRANCH   9  11
ENDBRANCH   6   9
ENDBRANCH   2   3
TORSDOF 4
ENDMDL
MODEL       75
REMARK 921   NORMALIZED FREE ENERGY PREDICTED BY IDOCK:   -4.67 KCAL/MOL
REMARK 922        TOTAL FREE ENERGY PREDICTED BY IDOCK:   -6.11 KCAL/MOL
REMARK 923 INTER-LIGAND FREE ENERGY PREDICTED BY IDOCK:   -5.86 KCAL/MOL
REMARK 924 INTRA-LIGAND FREE ENERGY PREDICTED BY IDOCK:   -0.25 KCAL/MOL
REMARK 927      BINDING AFFINITY PREDICTED BY RF-SCORE:    0.00 PKD
ROOT
HETATM    1  C   UNL     1     -10.021  10.895  63.288  1.00  0.00    -0.349 C  
HETATM    2  O   UNL     1     -10.404  12.252  63.096  1.00  0.00    -0.355 OA 
ENDROOT
BRANCH   2   3
HETATM    3  C   UNL     1     -10.880  12.898  64.193  1.00  0.00    -0.416 A  
HETATM    4  C   UNL     1     -11.976  12.352  64.830  1.00  0.00    -0.398 A  
HETATM    5  N   UNL     1     -12.532  12.859  65.949  1.00  0.00    -0.529 NA 
HETATM    6  C   UNL     1     -11.953  13.958  66.431  1.00  0.00    -0.438 A  
HETATM    7  C   UNL     1     -10.372  14.030  64.798  1.00  0.00    -0.380 A  
HETATM    8  N   UNL     1     -10.902  14.599  65.909  1.00  0.00    -0.303 NA 
BRANCH   6   9
HETATM    9  N   UNL     1     -12.542  14.525  67.550  1.00  0.00    -0.305 N  
HETATM   10  H   UNL     1     -13.394  15.082  67.486  1.00  0.00     0.000 HD 
BRANCH   9  11
HETATM   11  S   UNL     1     -11.781  14.245  69.006  1.00  0.00    -0.335 S  
HETATM   12  O   UNL     1     -12.739  14.305  70.091  1.00  0.00    -0.331 OA 
HETATM   13  O   UNL     1     -10.606  15.095  69.018  1.00  0.00    -0.228 OA 
BRANCH  11  14
HETATM   14  C   UNL     1     -11.194  12.563  68.916  1.00  0.00    -0.281 A  
HETATM   15  C   UNL     1      -9.868  12.309  68.558  1.00  0.00    -0.157 A  
HETATM   16  C   UNL     1      -9.403  10.990  68.518  1.00  0.00    -0.188 A  
HETATM   17  C   UNL     1     -10.261   9.921  68.797  1.00  0.00    -0.189 A  
HETATM   18  N   UNL     1      -9.765   8.613  68.843  1.00  0.00    -0.166 NA 
HETATM   19  C   UNL     1     -11.552  10.200  69.258  1.00  0.00    -0.120 A  
HETATM   20  H1  UNL     1     -10.390   7.833  69.046  1.00  0.00     0.000 HD 
HETATM   21  C   UNL     1     -12.026  11.514  69.311  1.00  0.00    -0.397 A  
HETATM   22  H2  UNL     1      -8.991   8.587  69.507  1.00  0.00     0.000 HD 
ENDBRANCH  11  14
ENDBRANCH   9  11
ENDBRANCH   6   9
ENDBRANCH   2   3
TORSDOF 4
ENDMDL
MODEL       76
REMARK 921   NORMALIZED FREE ENERGY PREDICTED BY IDOCK:   -4.67 KCAL/MOL
REMARK 922        TOTAL FREE ENERGY PREDICTED BY IDOCK:   -6.11 KCAL/MOL
REMARK 923 INTER-LIGAND FREE ENERGY PREDICTED BY IDOCK:   -5.89 KCAL/MOL
REMARK 924 INTRA-LIGAND FREE ENERGY PREDICTED BY IDOCK:   -0.22 KCAL/MOL
REMARK 927      BINDING AFFINITY PREDICTED BY RF-SCORE:    0.00 PKD
ROOT
HETATM    1  C   UNL     1      -9.809  11.508  62.928  1.00  0.00    -0.249 C  
HETATM    2  O   UNL     1     -10.861  11.148  63.816  1.00  0.00    -0.376 OA 
ENDROOT
BRANCH   2   3
HETATM    3  C   UNL     1     -11.237  12.098  64.711  1.00  0.00    -0.323 A  
HETATM    4  C   UNL     1     -11.210  11.762  66.049  1.00  0.00    -0.296 A  
HETATM    5  N   UNL     1     -11.518  12.611  67.050  1.00  0.00    -0.326 NA 
HETATM    6  C   UNL     1     -11.865  13.841  66.674  1.00  0.00    -0.412 A  
HETATM    7  C   UNL     1     -11.606  13.404  64.457  1.00  0.00    -0.371 A  
HETATM    8  N   UNL     1     -11.949  14.296  65.419  1.00  0.00    -0.370 NA 
BRANCH   6   9
HETATM    9  N   UNL     1     -12.236  14.714  67.685  1.00  0.00    -0.587 N  
HETATM   10  H   UNL     1     -13.194  15.050  67.781  1.00  0.00     0.000 HD 
BRANCH   9  11
HETATM   11  S   UNL     1     -11.030  15.181  68.735  1.00  0.00    -0.270 S  
HETATM   12  O   UNL     1     -10.349  14.018  69.264  1.00  0.00    -0.115 OA 
HETATM   13  O   UNL     1     -11.628  16.152  69.632  1.00  0.00    -0.312 OA 
BRANCH  11  14
HETATM   14  C   UNL     1      -9.851  16.071  67.734  1.00  0.00    -0.231 A  
HETATM   15  C   UNL     1      -8.621  15.485  67.426  1.00  0.00    -0.196 A  
HETATM   16  C   UNL     1      -7.713  16.173  66.615  1.00  0.00    -0.265 A  
HETATM   17  C   UNL     1      -8.007  17.456  66.139  1.00  0.00    -0.240 A  
HETATM   18  N   UNL     1      -7.131  18.097  65.255  1.00  0.00    -0.374 NA 
HETATM   19  C   UNL     1      -9.284  17.978  66.366  1.00  0.00    -0.256 A  
HETATM   20  H1  UNL     1      -7.346  19.032  64.908  1.00  0.00     0.000 HD 
HETATM   21  C   UNL     1     -10.205  17.297  67.167  1.00  0.00    -0.319 A  
HETATM   22  H2  UNL     1      -6.976  17.485  64.455  1.00  0.00     0.000 HD 
ENDBRANCH  11  14
ENDBRANCH   9  11
ENDBRANCH   6   9
ENDBRANCH   2   3
TORSDOF 4
ENDMDL
MODEL       77
REMARK 921   NORMALIZED FREE ENERGY PREDICTED BY IDOCK:   -4.63 KCAL/MOL
REMARK 922        TOTAL FREE ENERGY PREDICTED BY IDOCK:   -6.07 KCAL/MOL
REMARK 923 INTER-LIGAND FREE ENERGY PREDICTED BY IDOCK:   -5.77 KCAL/MOL
REMARK 924 INTRA-LIGAND FREE ENERGY PREDICTED BY IDOCK:   -0.30 KCAL/MOL
REMARK 927      BINDING AFFINITY PREDICTED BY RF-SCORE:    0.00 PKD
ROOT
HETATM    1  C   UNL     1     -12.391  15.534  70.499  1.00  0.00    -0.418 C  
HETATM    2  O   UNL     1     -12.564  14.643  71.595  1.00  0.00    -0.308 OA 
ENDROOT
BRANCH   2   3
HETATM    3  C   UNL     1     -12.614  13.320  71.286  1.00  0.00    -0.308 A  
HETATM    4  C   UNL     1     -13.239  12.478  72.182  1.00  0.00    -0.403 A  
HETATM    5  N   UNL     1     -13.399  11.153  71.992  1.00  0.00    -0.401 NA 
HETATM    6  C   UNL     1     -12.906  10.673  70.852  1.00  0.00    -0.382 A  
HETATM    7  C   UNL     1     -12.155  12.699  70.142  1.00  0.00    -0.294 A  
HETATM    8  N   UNL     1     -12.266  11.369  69.905  1.00  0.00    -0.293 NA 
BRANCH   6   9
HETATM    9  N   UNL     1     -13.013   9.304  70.661  1.00  0.00    -0.459 N  
HETATM   10  H   UNL     1     -13.783   8.893  70.134  1.00  0.00     0.000 HD 
BRANCH   9  11
HETATM   11  S   UNL     1     -11.813   8.368  71.339  1.00  0.00    -0.305 S  
HETATM   12  O   UNL     1     -12.393   7.352  72.193  1.00  0.00    -0.277 OA 
HETATM   13  O   UNL     1     -10.827   9.292  71.866  1.00  0.00    -0.351 OA 
BRANCH  11  14
HETATM   14  C   UNL     1     -11.040   7.525  69.969  1.00  0.00    -0.204 A  
HETATM   15  C   UNL     1     -10.252   8.244  69.068  1.00  0.00    -0.226 A  
HETATM   16  C   UNL     1      -9.624   7.574  68.013  1.00  0.00    -0.156 A  
HETATM   17  C   UNL     1      -9.805   6.199  67.830  1.00  0.00    -0.123 A  
HETATM   18  N   UNL     1      -9.101   5.523  66.826  1.00  0.00    -0.116 NA 
HETATM   19  C   UNL     1     -10.506   5.480  68.803  1.00  0.00    -0.261 A  
HETATM   20  H1  UNL     1      -9.233   4.521  66.693  1.00  0.00     0.000 HD 
HETATM   21  C   UNL     1     -11.132   6.136  69.867  1.00  0.00    -0.481 A  
HETATM   22  H2  UNL     1      -8.105   5.702  66.957  1.00  0.00     0.000 HD 
ENDBRANCH  11  14
ENDBRANCH   9  11
ENDBRANCH   6   9
ENDBRANCH   2   3
TORSDOF 4
ENDMDL
MODEL       78
REMARK 921   NORMALIZED FREE ENERGY PREDICTED BY IDOCK:   -4.63 KCAL/MOL
REMARK 922        TOTAL FREE ENERGY PREDICTED BY IDOCK:   -6.07 KCAL/MOL
REMARK 923 INTER-LIGAND FREE ENERGY PREDICTED BY IDOCK:   -5.69 KCAL/MOL
REMARK 924 INTRA-LIGAND FREE ENERGY PREDICTED BY IDOCK:   -0.37 KCAL/MOL
REMARK 927      BINDING AFFINITY PREDICTED BY RF-SCORE:    0.00 PKD
ROOT
HETATM    1  C   UNL     1      -6.481   8.272  65.722  1.00  0.00    -0.052 C  
HETATM    2  O   UNL     1      -6.604   9.645  66.077  1.00  0.00    -0.075 OA 
ENDROOT
BRANCH   2   3
HETATM    3  C   UNL     1      -7.862  10.158  66.046  1.00  0.00    -0.122 A  
HETATM    4  C   UNL     1      -8.125  11.255  66.840  1.00  0.00    -0.155 A  
HETATM    5  N   UNL     1      -9.312  11.893  66.883  1.00  0.00    -0.191 NA 
HETATM    6  C   UNL     1     -10.261  11.394  66.093  1.00  0.00    -0.239 A  
HETATM    7  C   UNL     1      -8.927   9.746  65.270  1.00  0.00    -0.193 A  
HETATM    8  N   UNL     1     -10.150  10.331  65.288  1.00  0.00    -0.308 NA 
BRANCH   6   9
HETATM    9  N   UNL     1     -11.505  12.002  66.162  1.00  0.00    -0.357 N  
HETATM   10  H   UNL     1     -12.256  11.627  66.741  1.00  0.00     0.000 HD 
BRANCH   9  11
HETATM   11  S   UNL     1     -11.703  13.381  65.248  1.00  0.00    -0.340 S  
HETATM   12  O   UNL     1     -13.084  13.511  64.831  1.00  0.00    -0.718 OA 
HETATM   13  O   UNL     1     -10.639  13.371  64.263  1.00  0.00    -0.420 OA 
BRANCH  11  14
HETATM   14  C   UNL     1     -11.359  14.736  66.357  1.00  0.00    -0.339 A  
HETATM   15  C   UNL     1     -11.770  14.663  67.690  1.00  0.00    -0.389 A  
HETATM   16  C   UNL     1     -11.471  15.714  68.563  1.00  0.00    -0.380 A  
HETATM   17  C   UNL     1     -10.798  16.853  68.108  1.00  0.00    -0.351 A  
HETATM   18  N   UNL     1     -10.425  17.857  69.009  1.00  0.00    -0.416 NA 
HETATM   19  C   UNL     1     -10.301  16.860  66.802  1.00  0.00    -0.298 A  
HETATM   20  H1  UNL     1      -9.935  18.688  68.678  1.00  0.00     0.000 HD 
HETATM   21  C   UNL     1     -10.584  15.813  65.920  1.00  0.00    -0.350 A  
HETATM   22  H2  UNL     1      -9.872  17.432  69.753  1.00  0.00     0.000 HD 
ENDBRANCH  11  14
ENDBRANCH   9  11
ENDBRANCH   6   9
ENDBRANCH   2   3
TORSDOF 4
ENDMDL
MODEL       79
REMARK 921   NORMALIZED FREE ENERGY PREDICTED BY IDOCK:   -4.63 KCAL/MOL
REMARK 922        TOTAL FREE ENERGY PREDICTED BY IDOCK:   -6.07 KCAL/MOL
REMARK 923 INTER-LIGAND FREE ENERGY PREDICTED BY IDOCK:   -5.87 KCAL/MOL
REMARK 924 INTRA-LIGAND FREE ENERGY PREDICTED BY IDOCK:   -0.20 KCAL/MOL
REMARK 927      BINDING AFFINITY PREDICTED BY RF-SCORE:    0.00 PKD
ROOT
HETATM    1  C   UNL     1     -12.652  11.785  63.677  1.00  0.00    -0.344 C  
HETATM    2  O   UNL     1     -13.075  12.883  64.477  1.00  0.00    -0.728 OA 
ENDROOT
BRANCH   2   3
HETATM    3  C   UNL     1     -12.128  13.818  64.754  1.00  0.00    -0.410 A  
HETATM    4  C   UNL     1     -11.080  13.443  65.570  1.00  0.00    -0.282 A  
HETATM    5  N   UNL     1     -10.050  14.248  65.900  1.00  0.00    -0.313 NA 
HETATM    6  C   UNL     1     -10.091  15.474  65.381  1.00  0.00    -0.352 A  
HETATM    7  C   UNL     1     -12.046  15.110  64.277  1.00  0.00    -0.261 A  
HETATM    8  N   UNL     1     -11.049  15.974  64.592  1.00  0.00    -0.587 NA 
BRANCH   6   9
HETATM    9  N   UNL     1      -9.069  16.335  65.750  1.00  0.00    -0.191 N  
HETATM   10  H   UNL     1      -8.158  16.315  65.293  1.00  0.00     0.000 HD 
BRANCH   9  11
HETATM   11  S   UNL     1      -9.413  17.403  66.982  1.00  0.00    -0.275 S  
HETATM   12  O   UNL     1     -10.415  18.357  66.551  1.00  0.00    -0.384 OA 
HETATM   13  O   UNL     1      -8.135  17.862  67.489  1.00  0.00    -0.221 OA 
BRANCH  11  14
HETATM   14  C   UNL     1     -10.149  16.414  68.272  1.00  0.00    -0.248 A  
HETATM   15  C   UNL     1      -9.339  15.841  69.254  1.00  0.00    -0.261 A  
HETATM   16  C   UNL     1      -9.923  15.093  70.281  1.00  0.00     0.125 A  
HETATM   17  C   UNL     1     -11.306  14.881  70.314  1.00  0.00    -0.254 A  
HETATM   18  N   UNL     1     -11.889  14.207  71.394  1.00  0.00    -0.426 NA 
HETATM   19  C   UNL     1     -12.109  15.552  69.387  1.00  0.00    -0.302 A  
HETATM   20  H1  UNL     1     -12.897  14.053  71.419  1.00  0.00     0.000 HD 
HETATM   21  C   UNL     1     -11.539  16.310  68.361  1.00  0.00    -0.154 A  
HETATM   22  H2  UNL     1     -11.615  14.682  72.254  1.00  0.00     0.000 HD 
ENDBRANCH  11  14
ENDBRANCH   9  11
ENDBRANCH   6   9
ENDBRANCH   2   3
TORSDOF 4
ENDMDL
MODEL       80
REMARK 921   NORMALIZED FREE ENERGY PREDICTED BY IDOCK:   -4.63 KCAL/MOL
REMARK 922        TOTAL FREE ENERGY PREDICTED BY IDOCK:   -6.06 KCAL/MOL
REMARK 923 INTER-LIGAND FREE ENERGY PREDICTED BY IDOCK:   -5.69 KCAL/MOL
REMARK 924 INTRA-LIGAND FREE ENERGY PREDICTED BY IDOCK:   -0.37 KCAL/MOL
REMARK 927      BINDING AFFINITY PREDICTED BY RF-SCORE:    0.00 PKD
ROOT
HETATM    1  C   UNL     1     -10.944   6.409  69.609  1.00  0.00    -0.358 C  
HETATM    2  O   UNL     1     -10.799   6.798  68.248  1.00  0.00    -0.234 OA 
ENDROOT
BRANCH   2   3
HETATM    3  C   UNL     1     -10.521   8.111  68.030  1.00  0.00    -0.183 A  
HETATM    4  C   UNL     1     -10.189   8.489  66.745  1.00  0.00    -0.300 A  
HETATM    5  N   UNL     1      -9.928   9.758  66.372  1.00  0.00    -0.233 NA 
HETATM    6  C   UNL     1     -10.006  10.669  67.342  1.00  0.00    -0.181 A  
HETATM    7  C   UNL     1     -10.575   9.150  68.937  1.00  0.00    -0.191 A  
HETATM    8  N   UNL     1     -10.300  10.441  68.627  1.00  0.00    -0.174 NA 
BRANCH   6   9
HETATM    9  N   UNL     1      -9.688  11.972  66.991  1.00  0.00    -0.194 N  
HETATM   10  H   UNL     1      -8.817  12.412  67.285  1.00  0.00     0.000 HD 
BRANCH   9  11
HETATM   11  S   UNL     1     -10.810  12.779  66.060  1.00  0.00    -0.282 S  
HETATM   12  O   UNL     1     -12.147  12.328  66.385  1.00  0.00    -0.623 OA 
HETATM   13  O   UNL     1     -10.327  12.714  64.695  1.00  0.00    -0.313 OA 
BRANCH  11  14
HETATM   14  C   UNL     1     -10.696  14.488  66.560  1.00  0.00    -0.312 A  
HETATM   15  C   UNL     1     -11.082  14.861  67.850  1.00  0.00    -0.304 A  
HETATM   16  C   UNL     1     -10.962  16.196  68.248  1.00  0.00    -0.340 A  
HETATM   17  C   UNL     1     -10.493  17.168  67.357  1.00  0.00    -0.334 A  
HETATM   18  N   UNL     1     -10.292  18.484  67.793  1.00  0.00    -0.384 NA 
HETATM   19  C   UNL     1     -10.010  16.759  66.111  1.00  0.00    -0.345 A  
HETATM   20  H1  UNL     1      -9.950  19.193  67.144  1.00  0.00     0.000 HD 
HETATM   21  C   UNL     1     -10.116  15.426  65.703  1.00  0.00    -0.406 A  
HETATM   22  H2  UNL     1      -9.671  18.462  68.602  1.00  0.00     0.000 HD 
ENDBRANCH  11  14
ENDBRANCH   9  11
ENDBRANCH   6   9
ENDBRANCH   2   3
TORSDOF 4
ENDMDL
MODEL       81
REMARK 921   NORMALIZED FREE ENERGY PREDICTED BY IDOCK:   -4.62 KCAL/MOL
REMARK 922        TOTAL FREE ENERGY PREDICTED BY IDOCK:   -6.05 KCAL/MOL
REMARK 923 INTER-LIGAND FREE ENERGY PREDICTED BY IDOCK:   -5.77 KCAL/MOL
REMARK 924 INTRA-LIGAND FREE ENERGY PREDICTED BY IDOCK:   -0.28 KCAL/MOL
REMARK 927      BINDING AFFINITY PREDICTED BY RF-SCORE:    0.00 PKD
ROOT
HETATM    1  C   UNL     1     -11.145   5.131  72.478  1.00  0.00    -0.194 C  
HETATM    2  O   UNL     1     -12.140   6.080  72.111  1.00  0.00    -0.304 OA 
ENDROOT
BRANCH   2   3
HETATM    3  C   UNL     1     -11.692   7.202  71.488  1.00  0.00    -0.290 A  
HETATM    4  C   UNL     1     -11.909   8.412  72.116  1.00  0.00    -0.375 A  
HETATM    5  N   UNL     1     -11.488   9.600  71.639  1.00  0.00    -0.367 NA 
HETATM    6  C   UNL     1     -10.827   9.553  70.483  1.00  0.00    -0.292 A  
HETATM    7  C   UNL     1     -10.989   7.291  70.304  1.00  0.00    -0.260 A  
HETATM    8  N   UNL     1     -10.561   8.458  69.762  1.00  0.00    -0.222 NA 
BRANCH   6   9
HETATM    9  N   UNL     1     -10.432  10.769  69.948  1.00  0.00    -0.451 N  
HETATM   10  H   UNL     1      -9.449  11.033  69.878  1.00  0.00     0.000 HD 
BRANCH   9  11
HETATM   11  S   UNL     1     -11.652  11.776  69.426  1.00  0.00    -0.342 S  
HETATM   12  O   UNL     1     -12.199  12.520  70.543  1.00  0.00    -0.365 OA 
HETATM   13  O   UNL     1     -12.518  10.966  68.592  1.00  0.00    -0.418 OA 
BRANCH  11  14
HETATM   14  C   UNL     1     -10.861  12.956  68.346  1.00  0.00    -0.254 A  
HETATM   15  C   UNL     1     -10.536  14.227  68.826  1.00  0.00    -0.249 A  
HETATM   16  C   UNL     1      -9.888  15.137  67.985  1.00  0.00    -0.213 A  
HETATM   17  C   UNL     1      -9.594  14.802  66.658  1.00  0.00    -0.272 A  
HETATM   18  N   UNL     1      -8.866  15.686  65.853  1.00  0.00    -0.355 NA 
HETATM   19  C   UNL     1      -9.828  13.492  66.230  1.00  0.00    -0.306 A  
HETATM   20  H1  UNL     1      -8.652  15.442  64.887  1.00  0.00     0.000 HD 
HETATM   21  C   UNL     1     -10.467  12.568  67.064  1.00  0.00    -0.246 A  
HETATM   22  H2  UNL     1      -7.992  15.908  66.330  1.00  0.00     0.000 HD 
ENDBRANCH  11  14
ENDBRANCH   9  11
ENDBRANCH   6   9
ENDBRANCH   2   3
TORSDOF 4
ENDMDL
MODEL       82
REMARK 921   NORMALIZED FREE ENERGY PREDICTED BY IDOCK:   -4.62 KCAL/MOL
REMARK 922        TOTAL FREE ENERGY PREDICTED BY IDOCK:   -6.05 KCAL/MOL
REMARK 923 INTER-LIGAND FREE ENERGY PREDICTED BY IDOCK:   -5.68 KCAL/MOL
REMARK 924 INTRA-LIGAND FREE ENERGY PREDICTED BY IDOCK:   -0.36 KCAL/MOL
REMARK 927      BINDING AFFINITY PREDICTED BY RF-SCORE:    0.00 PKD
ROOT
HETATM    1  C   UNL     1     -10.033   4.176  73.458  1.00  0.00    -0.129 C  
HETATM    2  O   UNL     1     -10.511   5.455  73.857  1.00  0.00    -0.239 OA 
ENDROOT
BRANCH   2   3
HETATM    3  C   UNL     1     -10.859   6.301  72.852  1.00  0.00    -0.256 A  
HETATM    4  C   UNL     1     -11.144   7.609  73.187  1.00  0.00    -0.317 A  
HETATM    5  N   UNL     1     -11.465   8.568  72.295  1.00  0.00    -0.374 NA 
HETATM    6  C   UNL     1     -11.497   8.179  71.021  1.00  0.00    -0.279 A  
HETATM    7  C   UNL     1     -10.921   6.031  71.499  1.00  0.00    -0.277 A  
HETATM    8  N   UNL     1     -11.260   6.946  70.558  1.00  0.00    -0.288 NA 
BRANCH   6   9
HETATM    9  N   UNL     1     -11.877   9.136  70.093  1.00  0.00    -0.460 N  
HETATM   10  H   UNL     1     -12.851   9.411  69.972  1.00  0.00     0.000 HD 
BRANCH   9  11
HETATM   11  S   UNL     1     -10.652   9.812  69.188  1.00  0.00    -0.224 S  
HETATM   12  O   UNL     1     -10.649   9.251  67.853  1.00  0.00    -0.244 OA 
HETATM   13  O   UNL     1      -9.460   9.753  70.011  1.00  0.00    -0.225 OA 
BRANCH  11  14
HETATM   14  C   UNL     1     -11.080  11.537  69.031  1.00  0.00    -0.245 A  
HETATM   15  C   UNL     1     -11.946  12.125  69.957  1.00  0.00    -0.391 A  
HETATM   16  C   UNL     1     -12.253  13.485  69.848  1.00  0.00    -0.356 A  
HETATM   17  C   UNL     1     -11.733  14.255  68.802  1.00  0.00    -0.343 A  
HETATM   18  N   UNL     1     -11.974  15.633  68.754  1.00  0.00    -0.550 NA 
HETATM   19  C   UNL     1     -10.784  13.677  67.952  1.00  0.00    -0.257 A  
HETATM   20  H1  UNL     1     -11.595  16.195  67.992  1.00  0.00     0.000 HD 
HETATM   21  C   UNL     1     -10.460  12.321  68.055  1.00  0.00    -0.231 A  
HETATM   22  H2  UNL     1     -11.671  16.043  69.638  1.00  0.00     0.000 HD 
ENDBRANCH  11  14
ENDBRANCH   9  11
ENDBRANCH   6   9
ENDBRANCH   2   3
TORSDOF 4
ENDMDL
MODEL       83
REMARK 921   NORMALIZED FREE ENERGY PREDICTED BY IDOCK:   -4.61 KCAL/MOL
REMARK 922        TOTAL FREE ENERGY PREDICTED BY IDOCK:   -6.04 KCAL/MOL
REMARK 923 INTER-LIGAND FREE ENERGY PREDICTED BY IDOCK:   -5.69 KCAL/MOL
REMARK 924 INTRA-LIGAND FREE ENERGY PREDICTED BY IDOCK:   -0.35 KCAL/MOL
REMARK 927      BINDING AFFINITY PREDICTED BY RF-SCORE:    0.00 PKD
ROOT
HETATM    1  C   UNL     1      -8.070   4.017  69.069  1.00  0.00    -0.069 C  
HETATM    2  O   UNL     1      -8.426   4.612  70.312  1.00  0.00    -0.074 OA 
ENDROOT
BRANCH   2   3
HETATM    3  C   UNL     1      -9.331   5.624  70.251  1.00  0.00    -0.152 A  
HETATM    4  C   UNL     1      -8.879   6.862  69.842  1.00  0.00    -0.142 A  
HETATM    5  N   UNL     1      -9.667   7.946  69.696  1.00  0.00    -0.172 NA 
HETATM    6  C   UNL     1     -10.956   7.762  69.978  1.00  0.00    -0.214 A  
HETATM    7  C   UNL     1     -10.687   5.565  70.504  1.00  0.00    -0.240 A  
HETATM    8  N   UNL     1     -11.525   6.626  70.398  1.00  0.00    -0.362 NA 
BRANCH   6   9
HETATM    9  N   UNL     1     -11.773   8.877  69.886  1.00  0.00    -0.379 N  
HETATM   10  H   UNL     1     -11.982   9.319  68.991  1.00  0.00     0.000 HD 
BRANCH   9  11
HETATM   11  S   UNL     1     -12.397   9.455  71.319  1.00  0.00    -0.345 S  
HETATM   12  O   UNL     1     -11.450   9.250  72.395  1.00  0.00    -0.075 OA 
HETATM   13  O   UNL     1     -13.744   8.927  71.417  1.00  0.00    -0.351 OA 
BRANCH  11  14
HETATM   14  C   UNL     1     -12.556  11.217  71.087  1.00  0.00    -0.397 A  
HETATM   15  C   UNL     1     -13.243  11.983  72.032  1.00  0.00    -0.481 A  
HETATM   16  C   UNL     1     -13.338  13.367  71.862  1.00  0.00    -0.539 A  
HETATM   17  C   UNL     1     -12.785  13.990  70.737  1.00  0.00    -0.326 A  
HETATM   18  N   UNL     1     -12.808  15.385  70.622  1.00  0.00    -0.557 NA 
HETATM   19  C   UNL     1     -12.010  13.225  69.861  1.00  0.00    -0.400 A  
HETATM   20  H1  UNL     1     -12.405  15.839  69.803  1.00  0.00     0.000 HD 
HETATM   21  C   UNL     1     -11.899  11.841  70.024  1.00  0.00    -0.422 A  
HETATM   22  H2  UNL     1     -12.376  15.783  71.456  1.00  0.00     0.000 HD 
ENDBRANCH  11  14
ENDBRANCH   9  11
ENDBRANCH   6   9
ENDBRANCH   2   3
TORSDOF 4
ENDMDL
MODEL       84
REMARK 921   NORMALIZED FREE ENERGY PREDICTED BY IDOCK:   -4.59 KCAL/MOL
REMARK 922        TOTAL FREE ENERGY PREDICTED BY IDOCK:   -6.02 KCAL/MOL
REMARK 923 INTER-LIGAND FREE ENERGY PREDICTED BY IDOCK:   -6.04 KCAL/MOL
REMARK 924 INTRA-LIGAND FREE ENERGY PREDICTED BY IDOCK:    0.02 KCAL/MOL
REMARK 927      BINDING AFFINITY PREDICTED BY RF-SCORE:    0.00 PKD
ROOT
HETATM    1  C   UNL     1     -13.232  15.596  71.878  1.00  0.00    -0.453 C  
HETATM    2  O   UNL     1     -13.211  14.322  72.512  1.00  0.00    -0.418 OA 
ENDROOT
BRANCH   2   3
HETATM    3  C   UNL     1     -12.962  13.259  71.704  1.00  0.00    -0.349 A  
HETATM    4  C   UNL     1     -12.446  13.516  70.450  1.00  0.00    -0.275 A  
HETATM    5  N   UNL     1     -12.113  12.563  69.557  1.00  0.00    -0.235 NA 
HETATM    6  C   UNL     1     -12.315  11.307  69.955  1.00  0.00    -0.257 A  
HETATM    7  C   UNL     1     -13.114  11.918  71.995  1.00  0.00    -0.336 A  
HETATM    8  N   UNL     1     -12.820  10.916  71.130  1.00  0.00    -0.399 NA 
BRANCH   6   9
HETATM    9  N   UNL     1     -12.029  10.314  69.032  1.00  0.00    -0.502 N  
HETATM   10  H   UNL     1     -12.756   9.709  68.650  1.00  0.00     0.000 HD 
BRANCH   9  11
HETATM   11  S   UNL     1     -10.432  10.163  68.581  1.00  0.00    -0.214 S  
HETATM   12  O   UNL     1     -10.022   8.776  68.648  1.00  0.00    -0.171 OA 
HETATM   13  O   UNL     1      -9.705  11.179  69.318  1.00  0.00    -0.098 OA 
BRANCH  11  14
HETATM   14  C   UNL     1     -10.380  10.644  66.863  1.00  0.00    -0.236 A  
HETATM   15  C   UNL     1     -11.281  11.597  66.382  1.00  0.00    -0.349 A  
HETATM   16  C   UNL     1     -11.216  11.993  65.042  1.00  0.00    -0.374 A  
HETATM   17  C   UNL     1     -10.284  11.420  64.170  1.00  0.00    -0.324 A  
HETATM   18  N   UNL     1     -10.168  11.888  62.856  1.00  0.00    -0.541 NA 
HETATM   19  C   UNL     1      -9.322  10.551  64.695  1.00  0.00    -0.294 A  
HETATM   20  H1  UNL     1      -9.489  11.470  62.220  1.00  0.00     0.000 HD 
HETATM   21  C   UNL     1      -9.369  10.153  66.034  1.00  0.00    -0.216 A  
HETATM   22  H2  UNL     1     -10.004  12.894  62.887  1.00  0.00     0.000 HD 
ENDBRANCH  11  14
ENDBRANCH   9  11
ENDBRANCH   6   9
ENDBRANCH   2   3
TORSDOF 4
ENDMDL
MODEL       85
REMARK 921   NORMALIZED FREE ENERGY PREDICTED BY IDOCK:   -4.59 KCAL/MOL
REMARK 922        TOTAL FREE ENERGY PREDICTED BY IDOCK:   -6.01 KCAL/MOL
REMARK 923 INTER-LIGAND FREE ENERGY PREDICTED BY IDOCK:   -5.99 KCAL/MOL
REMARK 924 INTRA-LIGAND FREE ENERGY PREDICTED BY IDOCK:   -0.02 KCAL/MOL
REMARK 927      BINDING AFFINITY PREDICTED BY RF-SCORE:    0.00 PKD
ROOT
HETATM    1  C   UNL     1     -13.060  16.159  73.698  1.00  0.00    -0.446 C  
HETATM    2  O   UNL     1     -13.860  15.497  72.724  1.00  0.00    -0.529 OA 
ENDROOT
BRANCH   2   3
HETATM    3  C   UNL     1     -13.227  14.561  71.970  1.00  0.00    -0.362 A  
HETATM    4  C   UNL     1     -12.330  15.005  71.020  1.00  0.00    -0.332 A  
HETATM    5  N   UNL     1     -11.602  14.193  70.227  1.00  0.00    -0.240 NA 
HETATM    6  C   UNL     1     -11.796  12.888  70.409  1.00  0.00    -0.157 A  
HETATM    7  C   UNL     1     -13.329  13.187  72.062  1.00  0.00    -0.493 A  
HETATM    8  N   UNL     1     -12.641  12.321  71.278  1.00  0.00    -0.306 NA 
BRANCH   6   9
HETATM    9  N   UNL     1     -11.096  12.037  69.567  1.00  0.00    -0.452 N  
HETATM   10  H   UNL     1     -10.664  11.179  69.908  1.00  0.00     0.000 HD 
BRANCH   9  11
HETATM   11  S   UNL     1     -10.999  12.497  67.968  1.00  0.00    -0.247 S  
HETATM   12  O   UNL     1     -10.074  13.601  67.821  1.00  0.00    -0.233 OA 
HETATM   13  O   UNL     1     -12.365  12.617  67.498  1.00  0.00    -0.304 OA 
BRANCH  11  14
HETATM   14  C   UNL     1     -10.288  11.098  67.119  1.00  0.00    -0.212 A  
HETATM   15  C   UNL     1     -10.038   9.915  67.817  1.00  0.00    -0.221 A  
HETATM   16  C   UNL     1      -9.510   8.811  67.140  1.00  0.00    -0.208 A  
HETATM   17  C   UNL     1      -9.195   8.891  65.779  1.00  0.00    -0.221 A  
HETATM   18  N   UNL     1      -8.751   7.755  65.092  1.00  0.00    -0.370 NA 
HETATM   19  C   UNL     1      -9.552  10.044  65.074  1.00  0.00    -0.362 A  
HETATM   20  H1  UNL     1      -8.521   7.812  64.100  1.00  0.00     0.000 HD 
HETATM   21  C   UNL     1     -10.090  11.152  65.737  1.00  0.00    -0.299 A  
HETATM   22  H2  UNL     1      -9.439   7.013  65.220  1.00  0.00     0.000 HD 
ENDBRANCH  11  14
ENDBRANCH   9  11
ENDBRANCH   6   9
ENDBRANCH   2   3
TORSDOF 4
ENDMDL
MODEL       86
REMARK 921   NORMALIZED FREE ENERGY PREDICTED BY IDOCK:   -4.56 KCAL/MOL
REMARK 922        TOTAL FREE ENERGY PREDICTED BY IDOCK:   -5.98 KCAL/MOL
REMARK 923 INTER-LIGAND FREE ENERGY PREDICTED BY IDOCK:   -5.64 KCAL/MOL
REMARK 924 INTRA-LIGAND FREE ENERGY PREDICTED BY IDOCK:   -0.34 KCAL/MOL
REMARK 927      BINDING AFFINITY PREDICTED BY RF-SCORE:    0.00 PKD
ROOT
HETATM    1  C   UNL     1      -7.692   6.763  64.681  1.00  0.00    -0.112 C  
HETATM    2  O   UNL     1      -8.316   7.976  64.277  1.00  0.00    -0.110 OA 
ENDROOT
BRANCH   2   3
HETATM    3  C   UNL     1      -8.595   8.862  65.269  1.00  0.00    -0.184 A  
HETATM    4  C   UNL     1      -9.172   8.369  66.422  1.00  0.00    -0.201 A  
HETATM    5  N   UNL     1      -9.469   9.119  67.502  1.00  0.00    -0.137 NA 
HETATM    6  C   UNL     1      -9.169  10.414  67.401  1.00  0.00    -0.142 A  
HETATM    7  C   UNL     1      -8.329  10.216  65.297  1.00  0.00    -0.159 A  
HETATM    8  N   UNL     1      -8.625  11.026  66.343  1.00  0.00    -0.161 NA 
BRANCH   6   9
HETATM    9  N   UNL     1      -9.515  11.212  68.480  1.00  0.00    -0.188 N  
HETATM   10  H   UNL     1      -8.850  11.434  69.221  1.00  0.00     0.000 HD 
BRANCH   9  11
HETATM   11  S   UNL     1     -11.078  11.790  68.499  1.00  0.00    -0.262 S  
HETATM   12  O   UNL     1     -11.784  11.359  67.311  1.00  0.00    -0.577 OA 
HETATM   13  O   UNL     1     -10.984  13.200  68.825  1.00  0.00    -0.251 OA 
BRANCH  11  14
HETATM   14  C   UNL     1     -11.857  10.995  69.893  1.00  0.00    -0.353 A  
HETATM   15  C   UNL     1     -12.649  11.744  70.766  1.00  0.00    -0.344 A  
HETATM   16  C   UNL     1     -13.283  11.110  71.840  1.00  0.00    -0.488 A  
HETATM   17  C   UNL     1     -13.104   9.742  72.070  1.00  0.00    -0.452 A  
HETATM   18  N   UNL     1     -13.814   9.101  73.092  1.00  0.00    -1.136 NA 
HETATM   19  C   UNL     1     -12.398   8.990  71.126  1.00  0.00    -0.306 A  
HETATM   20  H1  UNL     1     -13.683   8.104  73.261  1.00  0.00     0.000 HD 
HETATM   21  C   UNL     1     -11.767   9.609  70.043  1.00  0.00    -0.074 A  
HETATM   22  H2  UNL     1     -14.808   9.276  72.951  1.00  0.00     0.000 HD 
ENDBRANCH  11  14
ENDBRANCH   9  11
ENDBRANCH   6   9
ENDBRANCH   2   3
TORSDOF 4
ENDMDL
MODEL       87
REMARK 921   NORMALIZED FREE ENERGY PREDICTED BY IDOCK:   -4.55 KCAL/MOL
REMARK 922        TOTAL FREE ENERGY PREDICTED BY IDOCK:   -5.97 KCAL/MOL
REMARK 923 INTER-LIGAND FREE ENERGY PREDICTED BY IDOCK:   -6.23 KCAL/MOL
REMARK 924 INTRA-LIGAND FREE ENERGY PREDICTED BY IDOCK:    0.26 KCAL/MOL
REMARK 927      BINDING AFFINITY PREDICTED BY RF-SCORE:    0.00 PKD
ROOT
HETATM    1  C   UNL     1      -8.755   8.965  64.822  1.00  0.00    -0.127 C  
HETATM    2  O   UNL     1      -9.590   9.107  65.966  1.00  0.00    -0.236 OA 
ENDROOT
BRANCH   2   3
HETATM    3  C   UNL     1      -9.506  10.294  66.622  1.00  0.00    -0.166 A  
HETATM    4  C   UNL     1      -9.986  10.346  67.914  1.00  0.00    -0.167 A  
HETATM    5  N   UNL     1      -9.935  11.442  68.699  1.00  0.00    -0.207 NA 
HETATM    6  C   UNL     1      -9.377  12.518  68.146  1.00  0.00    -0.210 A  
HETATM    7  C   UNL     1      -8.946  11.473  66.172  1.00  0.00    -0.197 A  
HETATM    8  N   UNL     1      -8.887  12.613  66.905  1.00  0.00    -0.213 NA 
BRANCH   6   9
HETATM    9  N   UNL     1      -9.362  13.670  68.917  1.00  0.00    -0.398 N  
HETATM   10  H   UNL     1      -8.574  13.904  69.519  1.00  0.00     0.000 HD 
BRANCH   9  11
HETATM   11  S   UNL     1     -10.706  14.649  68.805  1.00  0.00    -0.256 S  
HETATM   12  O   UNL     1     -10.333  16.034  69.007  1.00  0.00    -0.215 OA 
HETATM   13  O   UNL     1     -11.725  14.036  69.634  1.00  0.00    -0.274 OA 
BRANCH  11  14
HETATM   14  C   UNL     1     -11.262  14.496  67.116  1.00  0.00    -0.333 A  
HETATM   15  C   UNL     1     -10.820  15.407  66.155  1.00  0.00    -0.313 A  
HETATM   16  C   UNL     1     -11.234  15.264  64.826  1.00  0.00    -0.405 A  
HETATM   17  C   UNL     1     -12.114  14.241  64.457  1.00  0.00    -0.480 A  
HETATM   18  N   UNL     1     -12.451  14.053  63.112  1.00  0.00    -1.070 NA 
HETATM   19  C   UNL     1     -12.458  13.276  65.409  1.00  0.00    -0.543 A  
HETATM   20  H1  UNL     1     -13.092  13.307  62.842  1.00  0.00     0.000 HD 
HETATM   21  C   UNL     1     -12.044  13.402  66.739  1.00  0.00    -0.419 A  
HETATM   22  H2  UNL     1     -11.589  13.944  62.577  1.00  0.00     0.000 HD 
ENDBRANCH  11  14
ENDBRANCH   9  11
ENDBRANCH   6   9
ENDBRANCH   2   3
TORSDOF 4
ENDMDL
MODEL       88
REMARK 921   NORMALIZED FREE ENERGY PREDICTED BY IDOCK:   -4.55 KCAL/MOL
REMARK 922        TOTAL FREE ENERGY PREDICTED BY IDOCK:   -5.97 KCAL/MOL
REMARK 923 INTER-LIGAND FREE ENERGY PREDICTED BY IDOCK:   -5.85 KCAL/MOL
REMARK 924 INTRA-LIGAND FREE ENERGY PREDICTED BY IDOCK:   -0.11 KCAL/MOL
REMARK 927      BINDING AFFINITY PREDICTED BY RF-SCORE:    0.00 PKD
ROOT
HETATM    1  C   UNL     1     -13.760  13.073  72.274  1.00  0.00    -0.512 C  
HETATM    2  O   UNL     1     -12.765  14.024  71.911  1.00  0.00    -0.326 OA 
ENDROOT
BRANCH   2   3
HETATM    3  C   UNL     1     -12.116  13.789  70.741  1.00  0.00    -0.319 A  
HETATM    4  C   UNL     1     -11.599  14.877  70.068  1.00  0.00    -0.289 A  
HETATM    5  N   UNL     1     -10.899  14.795  68.918  1.00  0.00    -0.245 NA 
HETATM    6  C   UNL     1     -10.722  13.564  68.441  1.00  0.00    -0.259 A  
HETATM    7  C   UNL     1     -11.856  12.572  70.144  1.00  0.00    -0.258 A  
HETATM    8  N   UNL     1     -11.179  12.428  68.978  1.00  0.00    -0.260 NA 
BRANCH   6   9
HETATM    9  N   UNL     1     -10.051  13.462  67.232  1.00  0.00    -0.236 N  
HETATM   10  H   UNL     1      -9.231  12.866  67.120  1.00  0.00     0.000 HD 
BRANCH   9  11
HETATM   11  S   UNL     1     -10.657  14.369  65.972  1.00  0.00    -0.313 S  
HETATM   12  O   UNL     1     -12.079  14.579  66.148  1.00  0.00    -0.367 OA 
HETATM   13  O   UNL     1     -10.151  13.763  64.757  1.00  0.00    -0.361 OA 
BRANCH  11  14
HETATM   14  C   UNL     1      -9.868  15.962  66.115  1.00  0.00    -0.317 A  
HETATM   15  C   UNL     1     -10.647  17.122  66.152  1.00  0.00    -0.201 A  
HETATM   16  C   UNL     1     -10.025  18.366  66.295  1.00  0.00    -0.378 A  
HETATM   17  C   UNL     1      -8.632  18.467  66.365  1.00  0.00    -0.247 A  
HETATM   18  N   UNL     1      -8.026  19.707  66.599  1.00  0.00    -0.285 NA 
HETATM   19  C   UNL     1      -7.878  17.291  66.437  1.00  0.00    -0.345 A  
HETATM   20  H1  UNL     1      -7.010  19.780  66.650  1.00  0.00     0.000 HD 
HETATM   21  C   UNL     1      -8.487  16.040  66.304  1.00  0.00    -0.337 A  
HETATM   22  H2  UNL     1      -8.420  20.101  67.453  1.00  0.00     0.000 HD 
ENDBRANCH  11  14
ENDBRANCH   9  11
ENDBRANCH   6   9
ENDBRANCH   2   3
TORSDOF 4
ENDMDL
MODEL       89
REMARK 921   NORMALIZED FREE ENERGY PREDICTED BY IDOCK:   -4.55 KCAL/MOL
REMARK 922        TOTAL FREE ENERGY PREDICTED BY IDOCK:   -5.96 KCAL/MOL
REMARK 923 INTER-LIGAND FREE ENERGY PREDICTED BY IDOCK:   -5.82 KCAL/MOL
REMARK 924 INTRA-LIGAND FREE ENERGY PREDICTED BY IDOCK:   -0.14 KCAL/MOL
REMARK 927      BINDING AFFINITY PREDICTED BY RF-SCORE:    0.00 PKD
ROOT
HETATM    1  C   UNL     1      -5.891  18.399  69.040  1.00  0.00    -0.216 C  
HETATM    2  O   UNL     1      -6.766  18.493  67.921  1.00  0.00    -0.209 OA 
ENDROOT
BRANCH   2   3
HETATM    3  C   UNL     1      -7.964  17.863  68.047  1.00  0.00    -0.250 A  
HETATM    4  C   UNL     1      -9.034  18.611  68.492  1.00  0.00    -0.334 A  
HETATM    5  N   UNL     1     -10.288  18.134  68.629  1.00  0.00    -0.350 NA 
HETATM    6  C   UNL     1     -10.453  16.853  68.301  1.00  0.00    -0.352 A  
HETATM    7  C   UNL     1      -8.271  16.554  67.734  1.00  0.00    -0.165 A  
HETATM    8  N   UNL     1      -9.506  16.011  67.873  1.00  0.00    -0.209 NA 
BRANCH   6   9
HETATM    9  N   UNL     1     -11.723  16.328  68.485  1.00  0.00    -0.212 N  
HETATM   10  H   UNL     1     -12.468  16.470  67.803  1.00  0.00     0.000 HD 
BRANCH   9  11
HETATM   11  S   UNL     1     -11.964  15.452  69.882  1.00  0.00    -0.368 S  
HETATM   12  O   UNL     1     -13.330  15.606  70.339  1.00  0.00    -0.338 OA 
HETATM   13  O   UNL     1     -10.857  15.776  70.759  1.00  0.00    -0.312 OA 
BRANCH  11  14
HETATM   14  C   UNL     1     -11.758  13.744  69.408  1.00  0.00    -0.325 A  
HETATM   15  C   UNL     1     -11.943  12.734  70.355  1.00  0.00    -0.331 A  
HETATM   16  C   UNL     1     -11.811  11.396  69.972  1.00  0.00    -0.440 A  
HETATM   17  C   UNL     1     -11.459  11.058  68.661  1.00  0.00    -0.308 A  
HETATM   18  N   UNL     1     -11.417   9.716  68.266  1.00  0.00    -0.388 NA 
HETATM   19  C   UNL     1     -11.385  12.075  67.704  1.00  0.00    -0.375 A  
HETATM   20  H1  UNL     1     -11.161   9.469  67.310  1.00  0.00     0.000 HD 
HETATM   21  C   UNL     1     -11.525  13.417  68.071  1.00  0.00    -0.339 A  
HETATM   22  H2  UNL     1     -12.320   9.291  68.477  1.00  0.00     0.000 HD 
ENDBRANCH  11  14
ENDBRANCH   9  11
ENDBRANCH   6   9
ENDBRANCH   2   3
TORSDOF 4
ENDMDL
MODEL       90
REMARK 921   NORMALIZED FREE ENERGY PREDICTED BY IDOCK:   -4.52 KCAL/MOL
REMARK 922        TOTAL FREE ENERGY PREDICTED BY IDOCK:   -5.93 KCAL/MOL
REMARK 923 INTER-LIGAND FREE ENERGY PREDICTED BY IDOCK:   -5.57 KCAL/MOL
REMARK 924 INTRA-LIGAND FREE ENERGY PREDICTED BY IDOCK:   -0.36 KCAL/MOL
REMARK 927      BINDING AFFINITY PREDICTED BY RF-SCORE:    0.00 PKD
ROOT
HETATM    1  C   UNL     1      -6.340   9.762  64.055  1.00  0.00    -0.118 C  
HETATM    2  O   UNL     1      -7.716   9.802  63.693  1.00  0.00    -0.125 OA 
ENDROOT
BRANCH   2   3
HETATM    3  C   UNL     1      -8.604   9.775  64.722  1.00  0.00    -0.179 A  
HETATM    4  C   UNL     1      -9.220  10.961  65.065  1.00  0.00    -0.207 A  
HETATM    5  N   UNL     1     -10.148  11.080  66.036  1.00  0.00    -0.238 NA 
HETATM    6  C   UNL     1     -10.456   9.953  66.677  1.00  0.00    -0.169 A  
HETATM    7  C   UNL     1      -9.017   8.682  65.458  1.00  0.00    -0.158 A  
HETATM    8  N   UNL     1      -9.927   8.743  66.460  1.00  0.00    -0.275 NA 
BRANCH   6   9
HETATM    9  N   UNL     1     -11.369  10.063  67.714  1.00  0.00    -0.445 N  
HETATM   10  H   UNL     1     -12.358  10.243  67.544  1.00  0.00     0.000 HD 
BRANCH   9  11
HETATM   11  S   UNL     1     -10.760   9.884  69.255  1.00  0.00    -0.231 S  
HETATM   12  O   UNL     1      -9.383  10.329  69.303  1.00  0.00    -0.193 OA 
HETATM   13  O   UNL     1     -11.113   8.542  69.676  1.00  0.00    -0.154 OA 
BRANCH  11  14
HETATM   14  C   UNL     1     -11.710  11.003  70.270  1.00  0.00    -0.355 A  
HETATM   15  C   UNL     1     -11.632  12.380  70.045  1.00  0.00    -0.216 A  
HETATM   16  C   UNL     1     -12.402  13.251  70.823  1.00  0.00    -0.425 A  
HETATM   17  C   UNL     1     -13.221  12.762  71.847  1.00  0.00    -0.412 A  
HETATM   18  N   UNL     1     -14.054  13.633  72.558  1.00  0.00    -0.754 NA 
HETATM   19  C   UNL     1     -13.369  11.379  71.984  1.00  0.00    -0.388 A  
HETATM   20  H1  UNL     1     -14.651  13.277  73.305  1.00  0.00     0.000 HD 
HETATM   21  C   UNL     1     -12.612  10.496  71.208  1.00  0.00    -0.531 A  
HETATM   22  H2  UNL     1     -14.639  14.135  71.890  1.00  0.00     0.000 HD 
ENDBRANCH  11  14
ENDBRANCH   9  11
ENDBRANCH   6   9
ENDBRANCH   2   3
TORSDOF 4
ENDMDL
MODEL       91
REMARK 921   NORMALIZED FREE ENERGY PREDICTED BY IDOCK:   -4.52 KCAL/MOL
REMARK 922        TOTAL FREE ENERGY PREDICTED BY IDOCK:   -5.93 KCAL/MOL
REMARK 923 INTER-LIGAND FREE ENERGY PREDICTED BY IDOCK:   -5.65 KCAL/MOL
REMARK 924 INTRA-LIGAND FREE ENERGY PREDICTED BY IDOCK:   -0.28 KCAL/MOL
REMARK 927      BINDING AFFINITY PREDICTED BY RF-SCORE:    0.00 PKD
ROOT
HETATM    1  C   UNL     1      -5.165  18.344  67.944  1.00  0.00    -0.161 C  
HETATM    2  O   UNL     1      -5.625  17.046  68.305  1.00  0.00    -0.120 OA 
ENDROOT
BRANCH   2   3
HETATM    3  C   UNL     1      -6.883  16.727  67.903  1.00  0.00    -0.144 A  
HETATM    4  C   UNL     1      -7.906  16.893  68.815  1.00  0.00    -0.250 A  
HETATM    5  N   UNL     1      -9.206  16.655  68.547  1.00  0.00    -0.226 NA 
HETATM    6  C   UNL     1      -9.470  16.233  67.311  1.00  0.00    -0.227 A  
HETATM    7  C   UNL     1      -7.292  16.294  66.658  1.00  0.00    -0.169 A  
HETATM    8  N   UNL     1      -8.579  16.015  66.337  1.00  0.00    -0.311 NA 
BRANCH   6   9
HETATM    9  N   UNL     1     -10.793  15.932  67.032  1.00  0.00    -0.293 N  
HETATM   10  H   UNL     1     -11.462  16.651  66.755  1.00  0.00     0.000 HD 
BRANCH   9  11
HETATM   11  S   UNL     1     -11.231  14.331  67.173  1.00  0.00    -0.336 S  
HETATM   12  O   UNL     1     -10.067  13.480  67.035  1.00  0.00    -0.238 OA 
HETATM   13  O   UNL     1     -12.380  14.147  66.307  1.00  0.00    -0.456 OA 
BRANCH  11  14
HETATM   14  C   UNL     1     -11.820  14.149  68.847  1.00  0.00    -0.347 A  
HETATM   15  C   UNL     1     -12.359  15.250  69.517  1.00  0.00    -0.210 A  
HETATM   16  C   UNL     1     -12.847  15.095  70.819  1.00  0.00    -0.473 A  
HETATM   17  C   UNL     1     -12.769  13.859  71.470  1.00  0.00    -0.357 A  
HETATM   18  N   UNL     1     -13.342  13.693  72.737  1.00  0.00    -0.588 NA 
HETATM   19  C   UNL     1     -12.328  12.747  70.747  1.00  0.00    -0.375 A  
HETATM   20  H1  UNL     1     -13.285  12.793  73.212  1.00  0.00     0.000 HD 
HETATM   21  C   UNL     1     -11.845  12.885  69.442  1.00  0.00    -0.371 A  
HETATM   22  H2  UNL     1     -14.323  13.968  72.684  1.00  0.00     0.000 HD 
ENDBRANCH  11  14
ENDBRANCH   9  11
ENDBRANCH   6   9
ENDBRANCH   2   3
TORSDOF 4
ENDMDL
MODEL       92
REMARK 921   NORMALIZED FREE ENERGY PREDICTED BY IDOCK:   -4.50 KCAL/MOL
REMARK 922        TOTAL FREE ENERGY PREDICTED BY IDOCK:   -5.90 KCAL/MOL
REMARK 923 INTER-LIGAND FREE ENERGY PREDICTED BY IDOCK:   -5.70 KCAL/MOL
REMARK 924 INTRA-LIGAND FREE ENERGY PREDICTED BY IDOCK:   -0.20 KCAL/MOL
REMARK 927      BINDING AFFINITY PREDICTED BY RF-SCORE:    0.00 PKD
ROOT
HETATM    1  C   UNL     1      -8.069   4.653  70.317  1.00  0.00    -0.067 C  
HETATM    2  O   UNL     1      -9.469   4.890  70.225  1.00  0.00    -0.145 OA 
ENDROOT
BRANCH   2   3
HETATM    3  C   UNL     1      -9.838   6.067  69.654  1.00  0.00    -0.163 A  
HETATM    4  C   UNL     1     -10.243   6.039  68.336  1.00  0.00    -0.181 A  
HETATM    5  N   UNL     1     -10.672   7.119  67.651  1.00  0.00    -0.248 NA 
HETATM    6  C   UNL     1     -10.687   8.263  68.334  1.00  0.00    -0.019 A  
HETATM    7  C   UNL     1      -9.908   7.312  70.248  1.00  0.00    -0.179 A  
HETATM    8  N   UNL     1     -10.308   8.437  69.605  1.00  0.00    -0.214 NA 
BRANCH   6   9
HETATM    9  N   UNL     1     -11.074   9.394  67.633  1.00  0.00    -0.459 N  
HETATM   10  H   UNL     1     -12.038   9.728  67.641  1.00  0.00     0.000 HD 
BRANCH   9  11
HETATM   11  S   UNL     1      -9.878  10.178  66.778  1.00  0.00    -0.204 S  
HETATM   12  O   UNL     1      -9.272   9.273  65.824  1.00  0.00    -0.190 OA 
HETATM   13  O   UNL     1      -9.061  10.863  67.760  1.00  0.00    -0.146 OA 
BRANCH  11  14
HETATM   14  C   UNL     1     -10.720  11.442  65.842  1.00  0.00    -0.255 A  
HETATM   15  C   UNL     1     -11.539  12.363  66.499  1.00  0.00    -0.447 A  
HETATM   16  C   UNL     1     -12.172  13.371  65.765  1.00  0.00    -0.507 A  
HETATM   17  C   UNL     1     -12.023  13.446  64.376  1.00  0.00    -0.411 A  
HETATM   18  N   UNL     1     -12.587  14.511  63.663  1.00  0.00    -0.992 NA 
HETATM   19  C   UNL     1     -11.115  12.585  63.752  1.00  0.00    -0.503 A  
HETATM   20  H1  UNL     1     -12.478  14.566  62.651  1.00  0.00     0.000 HD 
HETATM   21  C   UNL     1     -10.468  11.578  64.474  1.00  0.00    -0.369 A  
HETATM   22  H2  UNL     1     -12.251  15.383  64.070  1.00  0.00     0.000 HD 
ENDBRANCH  11  14
ENDBRANCH   9  11
ENDBRANCH   6   9
ENDBRANCH   2   3
TORSDOF 4
ENDMDL
MODEL       93
REMARK 921   NORMALIZED FREE ENERGY PREDICTED BY IDOCK:   -4.50 KCAL/MOL
REMARK 922        TOTAL FREE ENERGY PREDICTED BY IDOCK:   -5.90 KCAL/MOL
REMARK 923 INTER-LIGAND FREE ENERGY PREDICTED BY IDOCK:   -5.60 KCAL/MOL
REMARK 924 INTRA-LIGAND FREE ENERGY PREDICTED BY IDOCK:   -0.30 KCAL/MOL
REMARK 927      BINDING AFFINITY PREDICTED BY RF-SCORE:    0.00 PKD
ROOT
HETATM    1  C   UNL     1      -9.083   9.881  64.493  1.00  0.00    -0.250 C  
HETATM    2  O   UNL     1     -10.082   9.857  65.507  1.00  0.00    -0.303 OA 
ENDROOT
BRANCH   2   3
HETATM    3  C   UNL     1     -10.083  10.909  66.367  1.00  0.00    -0.231 A  
HETATM    4  C   UNL     1     -11.100  10.972  67.298  1.00  0.00    -0.294 A  
HETATM    5  N   UNL     1     -11.209  11.933  68.238  1.00  0.00    -0.239 NA 
HETATM    6  C   UNL     1     -10.252  12.859  68.226  1.00  0.00    -0.245 A  
HETATM    7  C   UNL     1      -9.153  11.923  66.468  1.00  0.00    -0.211 A  
HETATM    8  N   UNL     1      -9.222  12.929  67.375  1.00  0.00    -0.189 NA 
BRANCH   6   9
HETATM    9  N   UNL     1     -10.375  13.885  69.149  1.00  0.00    -0.425 N  
HETATM   10  H   UNL     1      -9.979  13.816  70.086  1.00  0.00     0.000 HD 
BRANCH   9  11
HETATM   11  S   UNL     1     -11.205  15.238  68.642  1.00  0.00    -0.315 S  
HETATM   12  O   UNL     1     -12.192  15.619  69.631  1.00  0.00    -0.352 OA 
HETATM   13  O   UNL     1     -11.604  14.979  67.272  1.00  0.00    -0.343 OA 
BRANCH  11  14
HETATM   14  C   UNL     1      -9.989  16.542  68.582  1.00  0.00    -0.248 A  
HETATM   15  C   UNL     1     -10.401  17.868  68.423  1.00  0.00    -0.380 A  
HETATM   16  C   UNL     1      -9.446  18.890  68.407  1.00  0.00    -0.405 A  
HETATM   17  C   UNL     1      -8.082  18.597  68.513  1.00  0.00    -0.341 A  
HETATM   18  N   UNL     1      -7.143  19.632  68.586  1.00  0.00    -0.323 NA 
HETATM   19  C   UNL     1      -7.698  17.279  68.780  1.00  0.00    -0.261 A  
HETATM   20  H1  UNL     1      -6.149  19.419  68.664  1.00  0.00     0.000 HD 
HETATM   21  C   UNL     1      -8.643  16.249  68.808  1.00  0.00    -0.240 A  
HETATM   22  H2  UNL     1      -7.401  20.245  69.360  1.00  0.00     0.000 HD 
ENDBRANCH  11  14
ENDBRANCH   9  11
ENDBRANCH   6   9
ENDBRANCH   2   3
TORSDOF 4
ENDMDL
MODEL       94
REMARK 921   NORMALIZED FREE ENERGY PREDICTED BY IDOCK:   -4.48 KCAL/MOL
REMARK 922        TOTAL FREE ENERGY PREDICTED BY IDOCK:   -5.87 KCAL/MOL
REMARK 923 INTER-LIGAND FREE ENERGY PREDICTED BY IDOCK:   -5.51 KCAL/MOL
REMARK 924 INTRA-LIGAND FREE ENERGY PREDICTED BY IDOCK:   -0.36 KCAL/MOL
REMARK 927      BINDING AFFINITY PREDICTED BY RF-SCORE:    0.00 PKD
ROOT
HETATM    1  C   UNL     1      -9.659  11.174  63.137  1.00  0.00    -0.369 C  
HETATM    2  O   UNL     1      -9.910  10.056  63.981  1.00  0.00    -0.233 OA 
ENDROOT
BRANCH   2   3
HETATM    3  C   UNL     1      -9.606  10.222  65.295  1.00  0.00    -0.264 A  
HETATM    4  C   UNL     1     -10.646  10.189  66.201  1.00  0.00    -0.028 A  
HETATM    5  N   UNL     1     -10.493  10.300  67.536  1.00  0.00    -0.226 NA 
HETATM    6  C   UNL     1      -9.238  10.450  67.960  1.00  0.00    -0.140 A  
HETATM    7  C   UNL     1      -8.357  10.374  65.864  1.00  0.00    -0.152 A  
HETATM    8  N   UNL     1      -8.142  10.514  67.195  1.00  0.00    -0.118 NA 
BRANCH   6   9
HETATM    9  N   UNL     1      -9.064  10.619  69.324  1.00  0.00    -0.355 N  
HETATM   10  H   UNL     1      -8.996  11.544  69.748  1.00  0.00     0.000 HD 
BRANCH   9  11
HETATM   11  S   UNL     1      -8.971   9.226  70.234  1.00  0.00    -0.246 S  
HETATM   12  O   UNL     1      -8.059   9.413  71.343  1.00  0.00    -0.306 OA 
HETATM   13  O   UNL     1      -8.768   8.141  69.294  1.00  0.00    -0.138 OA 
BRANCH  11  14
HETATM   14  C   UNL     1     -10.601   9.004  70.925  1.00  0.00    -0.250 A  
HETATM   15  C   UNL     1     -11.025   7.730  71.308  1.00  0.00    -0.259 A  
HETATM   16  C   UNL     1     -12.292   7.566  71.878  1.00  0.00    -0.342 A  
HETATM   17  C   UNL     1     -13.153   8.657  72.033  1.00  0.00    -0.381 A  
HETATM   18  N   UNL     1     -14.382   8.498  72.686  1.00  0.00    -0.858 NA 
HETATM   19  C   UNL     1     -12.671   9.938  71.745  1.00  0.00    -0.523 A  
HETATM   20  H1  UNL     1     -15.010   9.294  72.800  1.00  0.00     0.000 HD 
HETATM   21  C   UNL     1     -11.404  10.118  71.184  1.00  0.00    -0.326 A  
HETATM   22  H2  UNL     1     -14.206   8.093  73.605  1.00  0.00     0.000 HD 
ENDBRANCH  11  14
ENDBRANCH   9  11
ENDBRANCH   6   9
ENDBRANCH   2   3
TORSDOF 4
ENDMDL
MODEL       95
REMARK 921   NORMALIZED FREE ENERGY PREDICTED BY IDOCK:   -4.45 KCAL/MOL
REMARK 922        TOTAL FREE ENERGY PREDICTED BY IDOCK:   -5.84 KCAL/MOL
REMARK 923 INTER-LIGAND FREE ENERGY PREDICTED BY IDOCK:   -5.71 KCAL/MOL
REMARK 924 INTRA-LIGAND FREE ENERGY PREDICTED BY IDOCK:   -0.13 KCAL/MOL
REMARK 927      BINDING AFFINITY PREDICTED BY RF-SCORE:    0.00 PKD
ROOT
HETATM    1  C   UNL     1      -5.798  14.877  70.776  1.00  0.00    -0.098 C  
HETATM    2  O   UNL     1      -5.637  16.187  70.242  1.00  0.00    -0.175 OA 
ENDROOT
BRANCH   2   3
HETATM    3  C   UNL     1      -6.411  16.492  69.167  1.00  0.00    -0.185 A  
HETATM    4  C   UNL     1      -6.557  15.527  68.191  1.00  0.00    -0.130 A  
HETATM    5  N   UNL     1      -7.322  15.672  67.091  1.00  0.00    -0.221 NA 
HETATM    6  C   UNL     1      -7.958  16.838  66.983  1.00  0.00    -0.197 A  
HETATM    7  C   UNL     1      -7.127  17.649  68.939  1.00  0.00    -0.254 A  
HETATM    8  N   UNL     1      -7.894  17.862  67.842  1.00  0.00    -0.225 NA 
BRANCH   6   9
HETATM    9  N   UNL     1      -8.708  17.028  65.833  1.00  0.00    -0.111 N  
HETATM   10  H   UNL     1      -8.271  17.175  64.923  1.00  0.00     0.000 HD 
BRANCH   9  11
HETATM   11  S   UNL     1     -10.363  17.002  66.020  1.00  0.00    -0.254 S  
HETATM   12  O   UNL     1     -11.011  17.441  64.801  1.00  0.00    -0.964 OA 
HETATM   13  O   UNL     1     -10.640  17.668  67.278  1.00  0.00    -0.347 OA 
BRANCH  11  14
HETATM   14  C   UNL     1     -10.785  15.283  66.249  1.00  0.00    -0.315 A  
HETATM   15  C   UNL     1     -10.231  14.315  65.409  1.00  0.00    -0.395 A  
HETATM   16  C   UNL     1     -10.541  12.966  65.612  1.00  0.00    -0.295 A  
HETATM   17  C   UNL     1     -11.426  12.580  66.623  1.00  0.00    -0.359 A  
HETATM   18  N   UNL     1     -11.659  11.222  66.875  1.00  0.00    -0.436 NA 
HETATM   19  C   UNL     1     -11.884  13.549  67.521  1.00  0.00    -0.406 A  
HETATM   20  H1  UNL     1     -12.304  10.940  67.613  1.00  0.00     0.000 HD 
HETATM   21  C   UNL     1     -11.575  14.900  67.335  1.00  0.00    -0.347 A  
HETATM   22  H2  UNL     1     -10.761  10.769  67.043  1.00  0.00     0.000 HD 
ENDBRANCH  11  14
ENDBRANCH   9  11
ENDBRANCH   6   9
ENDBRANCH   2   3
TORSDOF 4
ENDMDL
MODEL       96
REMARK 921   NORMALIZED FREE ENERGY PREDICTED BY IDOCK:   -4.43 KCAL/MOL
REMARK 922        TOTAL FREE ENERGY PREDICTED BY IDOCK:   -5.82 KCAL/MOL
REMARK 923 INTER-LIGAND FREE ENERGY PREDICTED BY IDOCK:   -5.58 KCAL/MOL
REMARK 924 INTRA-LIGAND FREE ENERGY PREDICTED BY IDOCK:   -0.23 KCAL/MOL
REMARK 927      BINDING AFFINITY PREDICTED BY RF-SCORE:    0.00 PKD
ROOT
HETATM    1  C   UNL     1      -9.895  19.619  66.148  1.00  0.00    -0.436 C  
HETATM    2  O   UNL     1      -8.991  19.302  67.200  1.00  0.00    -0.286 OA 
ENDROOT
BRANCH   2   3
HETATM    3  C   UNL     1      -9.229  18.138  67.860  1.00  0.00    -0.269 A  
HETATM    4  C   UNL     1     -10.141  18.166  68.895  1.00  0.00    -0.338 A  
HETATM    5  N   UNL     1     -10.506  17.084  69.612  1.00  0.00    -0.198 NA 
HETATM    6  C   UNL     1      -9.921  15.939  69.263  1.00  0.00    -0.254 A  
HETATM    7  C   UNL     1      -8.703  16.890  67.594  1.00  0.00    -0.209 A  
HETATM    8  N   UNL     1      -9.013  15.772  68.295  1.00  0.00    -0.179 NA 
BRANCH   6   9
HETATM    9  N   UNL     1     -10.243  14.825  70.022  1.00  0.00    -0.453 N  
HETATM   10  H   UNL     1      -9.571  14.393  70.655  1.00  0.00     0.000 HD 
BRANCH   9  11
HETATM   11  S   UNL     1     -11.790  14.233  69.844  1.00  0.00    -0.341 S  
HETATM   12  O   UNL     1     -12.487  14.960  68.803  1.00  0.00    -0.034 OA 
HETATM   13  O   UNL     1     -12.349  14.149  71.179  1.00  0.00    -0.337 OA 
BRANCH  11  14
HETATM   14  C   UNL     1     -11.590  12.556  69.269  1.00  0.00    -0.319 A  
HETATM   15  C   UNL     1     -11.323  12.312  67.920  1.00  0.00    -0.356 A  
HETATM   16  C   UNL     1     -11.136  10.998  67.480  1.00  0.00    -0.366 A  
HETATM   17  C   UNL     1     -11.249   9.923  68.368  1.00  0.00    -0.074 A  
HETATM   18  N   UNL     1     -10.971   8.620  67.936  1.00  0.00    -0.487 NA 
HETATM   19  C   UNL     1     -11.406  10.193  69.731  1.00  0.00    -0.312 A  
HETATM   20  H1  UNL     1     -11.052   7.836  68.583  1.00  0.00     0.000 HD 
HETATM   21  C   UNL     1     -11.586  11.502  70.186  1.00  0.00    -0.336 A  
HETATM   22  H2  UNL     1     -10.034   8.609  67.534  1.00  0.00     0.000 HD 
ENDBRANCH  11  14
ENDBRANCH   9  11
ENDBRANCH   6   9
ENDBRANCH   2   3
TORSDOF 4
ENDMDL
MODEL       97
REMARK 921   NORMALIZED FREE ENERGY PREDICTED BY IDOCK:   -4.43 KCAL/MOL
REMARK 922        TOTAL FREE ENERGY PREDICTED BY IDOCK:   -5.81 KCAL/MOL
REMARK 923 INTER-LIGAND FREE ENERGY PREDICTED BY IDOCK:   -5.47 KCAL/MOL
REMARK 924 INTRA-LIGAND FREE ENERGY PREDICTED BY IDOCK:   -0.35 KCAL/MOL
REMARK 927      BINDING AFFINITY PREDICTED BY RF-SCORE:    0.00 PKD
ROOT
HETATM    1  C   UNL     1     -11.434   6.523  70.148  1.00  0.00    -0.415 C  
HETATM    2  O   UNL     1     -10.192   6.677  69.469  1.00  0.00    -0.172 OA 
ENDROOT
BRANCH   2   3
HETATM    3  C   UNL     1     -10.089   7.759  68.654  1.00  0.00    -0.199 A  
HETATM    4  C   UNL     1      -9.755   8.966  69.233  1.00  0.00    -0.165 A  
HETATM    5  N   UNL     1      -9.580  10.113  68.547  1.00  0.00    -0.150 NA 
HETATM    6  C   UNL     1      -9.753  10.026  67.228  1.00  0.00    -0.167 A  
HETATM    7  C   UNL     1     -10.231   7.803  67.281  1.00  0.00    -0.273 A  
HETATM    8  N   UNL     1     -10.091   8.930  66.540  1.00  0.00    -0.292 NA 
BRANCH   6   9
HETATM    9  N   UNL     1      -9.629  11.205  66.511  1.00  0.00    -0.192 N  
HETATM   10  H   UNL     1      -8.723  11.553  66.198  1.00  0.00     0.000 HD 
BRANCH   9  11
HETATM   11  S   UNL     1     -11.044  12.023  66.187  1.00  0.00    -0.332 S  
HETATM   12  O   UNL     1     -12.013  11.780  67.235  1.00  0.00    -0.618 OA 
HETATM   13  O   UNL     1     -11.372  11.734  64.804  1.00  0.00    -0.308 OA 
BRANCH  11  14
HETATM   14  C   UNL     1     -10.615  13.754  66.258  1.00  0.00    -0.289 A  
HETATM   15  C   UNL     1      -9.998  14.270  67.400  1.00  0.00    -0.242 A  
HETATM   16  C   UNL     1      -9.636  15.620  67.438  1.00  0.00    -0.217 A  
HETATM   17  C   UNL     1      -9.917  16.467  66.361  1.00  0.00    -0.303 A  
HETATM   18  N   UNL     1      -9.470  17.794  66.374  1.00  0.00    -0.362 NA 
HETATM   19  C   UNL     1     -10.434  15.911  65.188  1.00  0.00    -0.363 A  
HETATM   20  H1  UNL     1      -9.675  18.412  65.589  1.00  0.00     0.000 HD 
HETATM   21  C   UNL     1     -10.793  14.561  65.132  1.00  0.00    -0.407 A  
HETATM   22  H2  UNL     1      -8.462  17.791  66.527  1.00  0.00     0.000 HD 
ENDBRANCH  11  14
ENDBRANCH   9  11
ENDBRANCH   6   9
ENDBRANCH   2   3
TORSDOF 4
ENDMDL
MODEL       98
REMARK 921   NORMALIZED FREE ENERGY PREDICTED BY IDOCK:   -4.43 KCAL/MOL
REMARK 922        TOTAL FREE ENERGY PREDICTED BY IDOCK:   -5.81 KCAL/MOL
REMARK 923 INTER-LIGAND FREE ENERGY PREDICTED BY IDOCK:   -5.58 KCAL/MOL
REMARK 924 INTRA-LIGAND FREE ENERGY PREDICTED BY IDOCK:   -0.23 KCAL/MOL
REMARK 927      BINDING AFFINITY PREDICTED BY RF-SCORE:    0.00 PKD
ROOT
HETATM    1  C   UNL     1     -12.809   8.075  72.486  1.00  0.00    -0.011 C  
HETATM    2  O   UNL     1     -11.803   9.081  72.436  1.00  0.00    -0.302 OA 
ENDROOT
BRANCH   2   3
HETATM    3  C   UNL     1     -11.793   9.858  71.321  1.00  0.00    -0.395 A  
HETATM    4  C   UNL     1     -12.330  11.125  71.421  1.00  0.00    -0.233 A  
HETATM    5  N   UNL     1     -12.355  12.020  70.413  1.00  0.00    -0.274 NA 
HETATM    6  C   UNL     1     -11.815  11.608  69.267  1.00  0.00    -0.331 A  
HETATM    7  C   UNL     1     -11.260   9.559  70.083  1.00  0.00    -0.234 A  
HETATM    8  N   UNL     1     -11.277  10.407  69.026  1.00  0.00    -0.238 NA 
BRANCH   6   9
HETATM    9  N   UNL     1     -11.878  12.493  68.202  1.00  0.00    -0.341 N  
HETATM   10  H   UNL     1     -12.765  12.756  67.772  1.00  0.00     0.000 HD 
BRANCH   9  11
HETATM   11  S   UNL     1     -10.424  13.104  67.664  1.00  0.00    -0.224 S  
HETATM   12  O   UNL     1      -9.350  12.680  68.537  1.00  0.00    -0.178 OA 
HETATM   13  O   UNL     1     -10.647  14.514  67.407  1.00  0.00    -0.266 OA 
BRANCH  11  14
HETATM   14  C   UNL     1     -10.148  12.335  66.078  1.00  0.00    -0.248 A  
HETATM   15  C   UNL     1      -9.548  11.075  66.013  1.00  0.00    -0.249 A  
HETATM   16  C   UNL     1      -9.362  10.462  64.770  1.00  0.00    -0.301 A  
HETATM   17  C   UNL     1      -9.735  11.112  63.588  1.00  0.00    -0.317 A  
HETATM   18  N   UNL     1      -9.627  10.454  62.358  1.00  0.00    -0.614 NA 
HETATM   19  C   UNL     1     -10.431  12.322  63.680  1.00  0.00    -0.483 A  
HETATM   20  H1  UNL     1      -9.899  10.928  61.496  1.00  0.00     0.000 HD 
HETATM   21  C   UNL     1     -10.633  12.941  64.917  1.00  0.00    -0.342 A  
HETATM   22  H2  UNL     1     -10.141   9.575  62.418  1.00  0.00     0.000 HD 
ENDBRANCH  11  14
ENDBRANCH   9  11
ENDBRANCH   6   9
ENDBRANCH   2   3
TORSDOF 4
ENDMDL
MODEL       99
REMARK 921   NORMALIZED FREE ENERGY PREDICTED BY IDOCK:   -4.42 KCAL/MOL
REMARK 922        TOTAL FREE ENERGY PREDICTED BY IDOCK:   -5.80 KCAL/MOL
REMARK 923 INTER-LIGAND FREE ENERGY PREDICTED BY IDOCK:   -5.43 KCAL/MOL
REMARK 924 INTRA-LIGAND FREE ENERGY PREDICTED BY IDOCK:   -0.37 KCAL/MOL
REMARK 927      BINDING AFFINITY PREDICTED BY RF-SCORE:    0.00 PKD
ROOT
HETATM    1  C   UNL     1      -6.106  11.014  69.615  1.00  0.00    -0.084 C  
HETATM    2  O   UNL     1      -5.397  12.236  69.439  1.00  0.00    -0.064 OA 
ENDROOT
BRANCH   2   3
HETATM    3  C   UNL     1      -6.158  13.340  69.219  1.00  0.00    -0.100 A  
HETATM    4  C   UNL     1      -6.871  13.400  68.040  1.00  0.00    -0.132 A  
HETATM    5  N   UNL     1      -7.697  14.412  67.703  1.00  0.00    -0.168 NA 
HETATM    6  C   UNL     1      -7.796  15.394  68.599  1.00  0.00    -0.142 A  
HETATM    7  C   UNL     1      -6.356  14.415  70.062  1.00  0.00    -0.160 A  
HETATM    8  N   UNL     1      -7.153  15.472  69.770  1.00  0.00    -0.160 NA 
BRANCH   6   9
HETATM    9  N   UNL     1      -8.598  16.469  68.249  1.00  0.00    -0.194 N  
HETATM   10  H   UNL     1      -8.209  17.323  67.850  1.00  0.00     0.000 HD 
BRANCH   9  11
HETATM   11  S   UNL     1     -10.232  16.287  68.517  1.00  0.00    -0.261 S  
HETATM   12  O   UNL     1     -10.863  17.584  68.652  1.00  0.00    -0.256 OA 
HETATM   13  O   UNL     1     -10.363  15.295  69.567  1.00  0.00    -0.236 OA 
BRANCH  11  14
HETATM   14  C   UNL     1     -10.874  15.543  67.028  1.00  0.00    -0.314 A  
HETATM   15  C   UNL     1     -11.736  14.447  67.116  1.00  0.00    -0.424 A  
HETATM   16  C   UNL     1     -12.261  13.887  65.947  1.00  0.00    -0.497 A  
HETATM   17  C   UNL     1     -11.904  14.386  64.691  1.00  0.00    -0.451 A  
HETATM   18  N   UNL     1     -12.504  13.877  63.533  1.00  0.00    -1.067 NA 
HETATM   19  C   UNL     1     -11.128  15.548  64.627  1.00  0.00    -0.373 A  
HETATM   20  H1  UNL     1     -12.244  14.241  62.617  1.00  0.00     0.000 HD 
HETATM   21  C   UNL     1     -10.604  16.125  65.788  1.00  0.00    -0.347 A  
HETATM   22  H2  UNL     1     -13.516  13.955  63.635  1.00  0.00     0.000 HD 
ENDBRANCH  11  14
ENDBRANCH   9  11
ENDBRANCH   6   9
ENDBRANCH   2   3
TORSDOF 4
ENDMDL
MODEL      100
REMARK 921   NORMALIZED FREE ENERGY PREDICTED BY IDOCK:   -4.41 KCAL/MOL
REMARK 922        TOTAL FREE ENERGY PREDICTED BY IDOCK:   -5.79 KCAL/MOL
REMARK 923 INTER-LIGAND FREE ENERGY PREDICTED BY IDOCK:   -5.63 KCAL/MOL
REMARK 924 INTRA-LIGAND FREE ENERGY PREDICTED BY IDOCK:   -0.16 KCAL/MOL
REMARK 927      BINDING AFFINITY PREDICTED BY RF-SCORE:    0.00 PKD
ROOT
HETATM    1  C   UNL     1     -13.693   8.974  72.363  1.00  0.00    -0.479 C  
HETATM    2  O   UNL     1     -12.384   8.451  72.555  1.00  0.00    -0.376 OA 
ENDROOT
BRANCH   2   3
HETATM    3  C   UNL     1     -11.549   8.528  71.485  1.00  0.00    -0.292 A  
HETATM    4  C   UNL     1     -11.100   7.344  70.938  1.00  0.00    -0.263 A  
HETATM    5  N   UNL     1     -10.301   7.264  69.855  1.00  0.00    -0.213 NA 
HETATM    6  C   UNL     1      -9.948   8.430  69.315  1.00  0.00    -0.195 A  
HETATM    7  C   UNL     1     -11.117   9.662  70.827  1.00  0.00    -0.334 A  
HETATM    8  N   UNL     1     -10.295   9.647  69.749  1.00  0.00    -0.223 NA 
BRANCH   6   9
HETATM    9  N   UNL     1      -9.084   8.372  68.232  1.00  0.00    -0.139 N  
HETATM   10  H   UNL     1      -8.087   8.566  68.328  1.00  0.00     0.000 HD 
BRANCH   9  11
HETATM   11  S   UNL     1      -9.764   7.967  66.766  1.00  0.00    -0.246 S  
HETATM   12  O   UNL     1     -11.108   7.464  66.960  1.00  0.00    -0.268 OA 
HETATM   13  O   UNL     1      -8.776   7.167  66.069  1.00  0.00    -0.147 OA 
BRANCH  11  14
HETATM   14  C   UNL     1      -9.902   9.503  65.870  1.00  0.00    -0.290 A  
HETATM   15  C   UNL     1     -10.466  10.620  66.490  1.00  0.00    -0.285 A  
HETATM   16  C   UNL     1     -10.544  11.831  65.793  1.00  0.00    -0.312 A  
HETATM   17  C   UNL     1     -10.096  11.926  64.471  1.00  0.00    -0.271 A  
HETATM   18  N   UNL     1     -10.095  13.162  63.815  1.00  0.00    -0.710 NA 
HETATM   19  C   UNL     1      -9.436  10.830  63.907  1.00  0.00    -0.312 A  
HETATM   20  H1  UNL     1      -9.769  13.232  62.851  1.00  0.00     0.000 HD 
HETATM   21  C   UNL     1      -9.344   9.617  64.594  1.00  0.00    -0.271 A  
HETATM   22  H2  UNL     1      -9.568  13.826  64.382  1.00  0.00     0.000 HD 
ENDBRANCH  11  14
ENDBRANCH   9  11
ENDBRANCH   6   9
ENDBRANCH   2   3
TORSDOF 4
ENDMDL
MODEL      101
REMARK 921   NORMALIZED FREE ENERGY PREDICTED BY IDOCK:   -4.39 KCAL/MOL
REMARK 922        TOTAL FREE ENERGY PREDICTED BY IDOCK:   -5.77 KCAL/MOL
REMARK 923 INTER-LIGAND FREE ENERGY PREDICTED BY IDOCK:   -5.61 KCAL/MOL
REMARK 924 INTRA-LIGAND FREE ENERGY PREDICTED BY IDOCK:   -0.16 KCAL/MOL
REMARK 927      BINDING AFFINITY PREDICTED BY RF-SCORE:    0.00 PKD
ROOT
HETATM    1  C   UNL     1     -11.168  13.372  68.402  1.00  0.00    -0.279 C  
HETATM    2  O   UNL     1     -12.148  12.724  69.206  1.00  0.00    -0.262 OA 
ENDROOT
BRANCH   2   3
HETATM    3  C   UNL     1     -11.750  11.580  69.824  1.00  0.00    -0.353 A  
HETATM    4  C   UNL     1     -12.487  11.149  70.907  1.00  0.00    -0.409 A  
HETATM    5  N   UNL     1     -12.236  10.015  71.593  1.00  0.00    -0.392 NA 
HETATM    6  C   UNL     1     -11.198   9.301  71.159  1.00  0.00    -0.343 A  
HETATM    7  C   UNL     1     -10.708  10.745  69.473  1.00  0.00    -0.226 A  
HETATM    8  N   UNL     1     -10.391   9.607  70.137  1.00  0.00    -0.247 NA 
BRANCH   6   9
HETATM    9  N   UNL     1     -10.891   8.159  71.883  1.00  0.00    -0.252 N  
HETATM   10  H   UNL     1     -10.136   8.144  72.569  1.00  0.00     0.000 HD 
BRANCH   9  11
HETATM   11  S   UNL     1     -11.823   6.814  71.570  1.00  0.00    -0.349 S  
HETATM   12  O   UNL     1     -13.161   7.212  71.185  1.00  0.00    -0.361 OA 
HETATM   13  O   UNL     1     -11.619   5.912  72.687  1.00  0.00    -0.290 OA 
BRANCH  11  14
HETATM   14  C   UNL     1     -11.074   6.041  70.147  1.00  0.00    -0.361 A  
HETATM   15  C   UNL     1     -11.340   6.536  68.868  1.00  0.00    -0.267 A  
HETATM   16  C   UNL     1     -10.726   5.946  67.758  1.00  0.00    -0.346 A  
HETATM   17  C   UNL     1      -9.877   4.845  67.911  1.00  0.00    -0.143 A  
HETATM   18  N   UNL     1      -9.199   4.320  66.805  1.00  0.00    -0.135 NA 
HETATM   19  C   UNL     1      -9.538   4.435  69.204  1.00  0.00    -0.252 A  
HETATM   20  H1  UNL     1      -8.579   3.518  66.916  1.00  0.00     0.000 HD 
HETATM   21  C   UNL     1     -10.137   5.021  70.323  1.00  0.00    -0.339 A  
HETATM   22  H2  UNL     1      -8.672   5.074  66.364  1.00  0.00     0.000 HD 
ENDBRANCH  11  14
ENDBRANCH   9  11
ENDBRANCH   6   9
ENDBRANCH   2   3
TORSDOF 4
ENDMDL
MODEL      102
REMARK 921   NORMALIZED FREE ENERGY PREDICTED BY IDOCK:   -4.39 KCAL/MOL
REMARK 922        TOTAL FREE ENERGY PREDICTED BY IDOCK:   -5.76 KCAL/MOL
REMARK 923 INTER-LIGAND FREE ENERGY PREDICTED BY IDOCK:   -5.52 KCAL/MOL
REMARK 924 INTRA-LIGAND FREE ENERGY PREDICTED BY IDOCK:   -0.25 KCAL/MOL
REMARK 927      BINDING AFFINITY PREDICTED BY RF-SCORE:    0.00 PKD
ROOT
HETATM    1  C   UNL     1      -9.783   5.183  74.314  1.00  0.00    -0.162 C  
HETATM    2  O   UNL     1     -10.977   5.422  73.578  1.00  0.00    -0.285 OA 
ENDROOT
BRANCH   2   3
HETATM    3  C   UNL     1     -10.832   6.110  72.415  1.00  0.00    -0.243 A  
HETATM    4  C   UNL     1     -11.979   6.536  71.777  1.00  0.00    -0.344 A  
HETATM    5  N   UNL     1     -11.990   7.260  70.639  1.00  0.00    -0.262 NA 
HETATM    6  C   UNL     1     -10.792   7.557  70.137  1.00  0.00    -0.249 A  
HETATM    7  C   UNL     1      -9.658   6.491  71.795  1.00  0.00    -0.152 A  
HETATM    8  N   UNL     1      -9.606   7.197  70.639  1.00  0.00    -0.165 NA 
BRANCH   6   9
HETATM    9  N   UNL     1     -10.782   8.255  68.939  1.00  0.00    -0.404 N  
HETATM   10  H   UNL     1     -10.844   7.781  68.039  1.00  0.00     0.000 HD 
BRANCH   9  11
HETATM   11  S   UNL     1     -10.664   9.914  69.054  1.00  0.00    -0.218 S  
HETATM   12  O   UNL     1      -9.368  10.287  69.583  1.00  0.00    -0.205 OA 
HETATM   13  O   UNL     1     -11.879  10.363  69.705  1.00  0.00    -0.241 OA 
BRANCH  11  14
HETATM   14  C   UNL     1     -10.736  10.508  67.373  1.00  0.00    -0.281 A  
HETATM   15  C   UNL     1     -11.344  11.734  67.096  1.00  0.00    -0.387 A  
HETATM   16  C   UNL     1     -11.371  12.211  65.781  1.00  0.00    -0.402 A  
HETATM   17  C   UNL     1     -10.828  11.456  64.736  1.00  0.00    -0.273 A  
HETATM   18  N   UNL     1     -10.780  11.982  63.439  1.00  0.00    -0.579 NA 
HETATM   19  C   UNL     1     -10.128  10.286  65.046  1.00  0.00    -0.353 A  
HETATM   20  H1  UNL     1     -10.384  11.432  62.677  1.00  0.00     0.000 HD 
HETATM   21  C   UNL     1     -10.086   9.803  66.357  1.00  0.00    -0.313 A  
HETATM   22  H2  UNL     1     -10.295  12.879  63.474  1.00  0.00     0.000 HD 
ENDBRANCH  11  14
ENDBRANCH   9  11
ENDBRANCH   6   9
ENDBRANCH   2   3
TORSDOF 4
ENDMDL
MODEL      103
REMARK 921   NORMALIZED FREE ENERGY PREDICTED BY IDOCK:   -4.38 KCAL/MOL
REMARK 922        TOTAL FREE ENERGY PREDICTED BY IDOCK:   -5.75 KCAL/MOL
REMARK 923 INTER-LIGAND FREE ENERGY PREDICTED BY IDOCK:   -5.55 KCAL/MOL
REMARK 924 INTRA-LIGAND FREE ENERGY PREDICTED BY IDOCK:   -0.20 KCAL/MOL
REMARK 927      BINDING AFFINITY PREDICTED BY RF-SCORE:    0.00 PKD
ROOT
HETATM    1  C   UNL     1     -12.283   6.566  71.538  1.00  0.00    -0.272 C  
HETATM    2  O   UNL     1     -12.382   7.894  72.040  1.00  0.00    -0.299 OA 
ENDROOT
BRANCH   2   3
HETATM    3  C   UNL     1     -11.815   8.864  71.276  1.00  0.00    -0.310 A  
HETATM    4  C   UNL     1     -10.978   8.464  70.255  1.00  0.00    -0.232 A  
HETATM    5  N   UNL     1     -10.376   9.309  69.393  1.00  0.00    -0.209 NA 
HETATM    6  C   UNL     1     -10.636  10.602  69.581  1.00  0.00    -0.217 A  
HETATM    7  C   UNL     1     -12.007  10.228  71.357  1.00  0.00    -0.327 A  
HETATM    8  N   UNL     1     -11.412  11.128  70.536  1.00  0.00    -0.193 NA 
BRANCH   6   9
HETATM    9  N   UNL     1      -9.986  11.490  68.739  1.00  0.00    -0.320 N  
HETATM   10  H   UNL     1      -8.982  11.657  68.804  1.00  0.00     0.000 HD 
BRANCH   9  11
HETATM   11  S   UNL     1     -10.936  12.270  67.614  1.00  0.00    -0.259 S  
HETATM   12  O   UNL     1     -10.665  13.693  67.631  1.00  0.00    -0.242 OA 
HETATM   13  O   UNL     1     -12.285  11.778  67.812  1.00  0.00    -0.536 OA 
BRANCH  11  14
HETATM   14  C   UNL     1     -10.395  11.652  66.030  1.00  0.00    -0.243 A  
HETATM   15  C   UNL     1     -10.402  12.495  64.916  1.00  0.00    -0.323 A  
HETATM   16  C   UNL     1      -9.948  12.014  63.684  1.00  0.00    -0.387 A  
HETATM   17  C   UNL     1      -9.522  10.689  63.546  1.00  0.00    -0.308 A  
HETATM   18  N   UNL     1      -8.986  10.245  62.331  1.00  0.00    -0.234 NA 
HETATM   19  C   UNL     1      -9.420   9.894  64.692  1.00  0.00    -0.343 A  
HETATM   20  H1  UNL     1      -8.675   9.279  62.230  1.00  0.00     0.000 HD 
HETATM   21  C   UNL     1      -9.861  10.365  65.932  1.00  0.00    -0.294 A  
HETATM   22  H2  UNL     1      -8.212  10.859  62.078  1.00  0.00     0.000 HD 
ENDBRANCH  11  14
ENDBRANCH   9  11
ENDBRANCH   6   9
ENDBRANCH   2   3
TORSDOF 4
ENDMDL
MODEL      104
REMARK 921   NORMALIZED FREE ENERGY PREDICTED BY IDOCK:   -4.36 KCAL/MOL
REMARK 922        TOTAL FREE ENERGY PREDICTED BY IDOCK:   -5.73 KCAL/MOL
REMARK 923 INTER-LIGAND FREE ENERGY PREDICTED BY IDOCK:   -5.54 KCAL/MOL
REMARK 924 INTRA-LIGAND FREE ENERGY PREDICTED BY IDOCK:   -0.19 KCAL/MOL
REMARK 927      BINDING AFFINITY PREDICTED BY RF-SCORE:    0.00 PKD
ROOT
HETATM    1  C   UNL     1     -13.431  13.766  72.498  1.00  0.00    -0.578 C  
HETATM    2  O   UNL     1     -13.820  14.416  71.293  1.00  0.00    -0.349 OA 
ENDROOT
BRANCH   2   3
HETATM    3  C   UNL     1     -12.835  14.612  70.377  1.00  0.00    -0.270 A  
HETATM    4  C   UNL     1     -12.258  13.495  69.809  1.00  0.00    -0.269 A  
HETATM    5  N   UNL     1     -11.300  13.534  68.862  1.00  0.00    -0.271 NA 
HETATM    6  C   UNL     1     -10.918  14.753  68.483  1.00  0.00    -0.258 A  
HETATM    7  C   UNL     1     -12.355  15.812  69.891  1.00  0.00    -0.178 A  
HETATM    8  N   UNL     1     -11.378  15.916  68.958  1.00  0.00    -0.347 NA 
BRANCH   6   9
HETATM    9  N   UNL     1      -9.896  14.816  67.548  1.00  0.00    -0.217 N  
HETATM   10  H   UNL     1     -10.057  14.615  66.561  1.00  0.00     0.000 HD 
BRANCH   9  11
HETATM   11  S   UNL     1      -8.392  15.238  68.126  1.00  0.00    -0.154 S  
HETATM   12  O   UNL     1      -7.366  14.456  67.468  1.00  0.00    -0.173 OA 
HETATM   13  O   UNL     1      -8.499  15.237  69.572  1.00  0.00    -0.247 OA 
BRANCH  11  14
HETATM   14  C   UNL     1      -8.157  16.936  67.633  1.00  0.00    -0.182 A  
HETATM   15  C   UNL     1      -8.722  17.964  68.392  1.00  0.00    -0.296 A  
HETATM   16  C   UNL     1      -8.509  19.295  68.020  1.00  0.00    -0.352 A  
HETATM   17  C   UNL     1      -7.767  19.608  66.875  1.00  0.00    -0.262 A  
HETATM   18  N   UNL     1      -7.485  20.942  66.562  1.00  0.00    -0.527 NA 
HETATM   19  C   UNL     1      -7.120  18.573  66.192  1.00  0.00    -0.301 A  
HETATM   20  H1  UNL     1      -6.945  21.171  65.728  1.00  0.00     0.000 HD 
HETATM   21  C   UNL     1      -7.317  17.239  66.559  1.00  0.00    -0.312 A  
HETATM   22  H2  UNL     1      -7.030  21.372  67.367  1.00  0.00     0.000 HD 
ENDBRANCH  11  14
ENDBRANCH   9  11
ENDBRANCH   6   9
ENDBRANCH   2   3
TORSDOF 4
ENDMDL
MODEL      105
REMARK 921   NORMALIZED FREE ENERGY PREDICTED BY IDOCK:   -4.36 KCAL/MOL
REMARK 922        TOTAL FREE ENERGY PREDICTED BY IDOCK:   -5.73 KCAL/MOL
REMARK 923 INTER-LIGAND FREE ENERGY PREDICTED BY IDOCK:   -5.39 KCAL/MOL
REMARK 924 INTRA-LIGAND FREE ENERGY PREDICTED BY IDOCK:   -0.33 KCAL/MOL
REMARK 927      BINDING AFFINITY PREDICTED BY RF-SCORE:    0.00 PKD
ROOT
HETATM    1  C   UNL     1     -12.169  10.304  70.468  1.00  0.00    -0.301 C  
HETATM    2  O   UNL     1     -12.556  11.670  70.362  1.00  0.00    -0.224 OA 
ENDROOT
BRANCH   2   3
HETATM    3  C   UNL     1     -11.769  12.453  69.578  1.00  0.00    -0.322 A  
HETATM    4  C   UNL     1     -11.970  13.817  69.631  1.00  0.00    -0.342 A  
HETATM    5  N   UNL     1     -11.241  14.718  68.942  1.00  0.00    -0.252 NA 
HETATM    6  C   UNL     1     -10.279  14.210  68.173  1.00  0.00    -0.241 A  
HETATM    7  C   UNL     1     -10.736  12.059  68.751  1.00  0.00    -0.220 A  
HETATM    8  N   UNL     1      -9.985  12.915  68.015  1.00  0.00    -0.230 NA 
BRANCH   6   9
HETATM    9  N   UNL     1      -9.553  15.116  67.415  1.00  0.00    -0.207 N  
HETATM   10  H   UNL     1      -9.927  15.523  66.558  1.00  0.00     0.000 HD 
BRANCH   9  11
HETATM   11  S   UNL     1      -8.035  15.503  67.982  1.00  0.00    -0.138 S  
HETATM   12  O   UNL     1      -7.020  14.857  67.176  1.00  0.00    -0.233 OA 
HETATM   13  O   UNL     1      -8.073  15.295  69.417  1.00  0.00    -0.218 OA 
BRANCH  11  14
HETATM   14  C   UNL     1      -7.870  17.261  67.726  1.00  0.00    -0.188 A  
HETATM   15  C   UNL     1      -6.933  17.986  68.467  1.00  0.00    -0.245 A  
HETATM   16  C   UNL     1      -6.786  19.358  68.241  1.00  0.00    -0.309 A  
HETATM   17  C   UNL     1      -7.592  20.020  67.308  1.00  0.00    -0.286 A  
HETATM   18  N   UNL     1      -7.375  21.373  67.025  1.00  0.00    -0.834 NA 
HETATM   19  C   UNL     1      -8.445  19.261  66.501  1.00  0.00    -0.336 A  
HETATM   20  H1  UNL     1      -7.962  21.856  66.345  1.00  0.00     0.000 HD 
HETATM   21  C   UNL     1      -8.595  17.887  66.710  1.00  0.00    -0.271 A  
HETATM   22  H2  UNL     1      -6.400  21.492  66.750  1.00  0.00     0.000 HD 
ENDBRANCH  11  14
ENDBRANCH   9  11
ENDBRANCH   6   9
ENDBRANCH   2   3
TORSDOF 4
ENDMDL
MODEL      106
REMARK 921   NORMALIZED FREE ENERGY PREDICTED BY IDOCK:   -4.35 KCAL/MOL
REMARK 922        TOTAL FREE ENERGY PREDICTED BY IDOCK:   -5.72 KCAL/MOL
REMARK 923 INTER-LIGAND FREE ENERGY PREDICTED BY IDOCK:   -5.45 KCAL/MOL
REMARK 924 INTRA-LIGAND FREE ENERGY PREDICTED BY IDOCK:   -0.27 KCAL/MOL
REMARK 927      BINDING AFFINITY PREDICTED BY RF-SCORE:    0.00 PKD
ROOT
HETATM    1  C   UNL     1     -11.885  13.663  68.266  1.00  0.00    -0.369 C  
HETATM    2  O   UNL     1     -12.122  12.334  67.814  1.00  0.00    -0.478 OA 
ENDROOT
BRANCH   2   3
HETATM    3  C   UNL     1     -11.718  11.340  68.648  1.00  0.00    -0.324 A  
HETATM    4  C   UNL     1     -11.078  10.255  68.086  1.00  0.00    -0.264 A  
HETATM    5  N   UNL     1     -10.588   9.215  68.790  1.00  0.00    -0.208 NA 
HETATM    6  C   UNL     1     -10.758   9.284  70.110  1.00  0.00    -0.235 A  
HETATM    7  C   UNL     1     -11.822  11.293  70.024  1.00  0.00    -0.367 A  
HETATM    8  N   UNL     1     -11.371  10.264  70.783  1.00  0.00    -0.345 NA 
BRANCH   6   9
HETATM    9  N   UNL     1     -10.309   8.200  70.847  1.00  0.00    -0.190 N  
HETATM   10  H   UNL     1      -9.328   7.922  70.853  1.00  0.00     0.000 HD 
BRANCH   9  11
HETATM   11  S   UNL     1     -11.462   7.377  71.725  1.00  0.00    -0.275 S  
HETATM   12  O   UNL     1     -12.692   7.278  70.966  1.00  0.00    -0.322 OA 
HETATM   13  O   UNL     1     -11.463   7.969  73.048  1.00  0.00    -0.370 OA 
BRANCH  11  14
HETATM   14  C   UNL     1     -10.822   5.721  71.908  1.00  0.00    -0.252 A  
HETATM   15  C   UNL     1     -11.108   4.991  73.064  1.00  0.00    -0.378 A  
HETATM   16  C   UNL     1     -10.629   3.682  73.189  1.00  0.00    -0.269 A  
HETATM   17  C   UNL     1      -9.838   3.111  72.187  1.00  0.00    -0.168 A  
HETATM   18  N   UNL     1      -9.441   1.771  72.281  1.00  0.00    -0.080 NA 
HETATM   19  C   UNL     1      -9.655   3.815  70.993  1.00  0.00    -0.249 A  
HETATM   20  H1  UNL     1      -8.864   1.354  71.551  1.00  0.00     0.000 HD 
HETATM   21  C   UNL     1     -10.135   5.121  70.851  1.00  0.00    -0.302 A  
HETATM   22  H2  UNL     1     -10.275   1.197  72.400  1.00  0.00     0.000 HD 
ENDBRANCH  11  14
ENDBRANCH   9  11
ENDBRANCH   6   9
ENDBRANCH   2   3
TORSDOF 4
ENDMDL
MODEL      107
REMARK 921   NORMALIZED FREE ENERGY PREDICTED BY IDOCK:   -4.35 KCAL/MOL
REMARK 922        TOTAL FREE ENERGY PREDICTED BY IDOCK:   -5.71 KCAL/MOL
REMARK 923 INTER-LIGAND FREE ENERGY PREDICTED BY IDOCK:   -5.58 KCAL/MOL
REMARK 924 INTRA-LIGAND FREE ENERGY PREDICTED BY IDOCK:   -0.13 KCAL/MOL
REMARK 927      BINDING AFFINITY PREDICTED BY RF-SCORE:    0.00 PKD
ROOT
HETATM    1  C   UNL     1      -8.155   8.788  62.340  1.00  0.00    -0.160 C  
HETATM    2  O   UNL     1      -7.850   8.409  63.678  1.00  0.00    -0.137 OA 
ENDROOT
BRANCH   2   3
HETATM    3  C   UNL     1      -8.710   8.853  64.632  1.00  0.00    -0.103 A  
HETATM    4  C   UNL     1      -9.032   7.985  65.655  1.00  0.00    -0.054 A  
HETATM    5  N   UNL     1      -9.838   8.298  66.690  1.00  0.00    -0.249 NA 
HETATM    6  C   UNL     1     -10.331   9.535  66.679  1.00  0.00    -0.210 A  
HETATM    7  C   UNL     1      -9.280  10.104  64.744  1.00  0.00    -0.242 A  
HETATM    8  N   UNL     1     -10.116  10.470  65.747  1.00  0.00    -0.260 NA 
BRANCH   6   9
HETATM    9  N   UNL     1     -11.204   9.860  67.705  1.00  0.00    -0.479 N  
HETATM   10  H   UNL     1     -12.215   9.773  67.600  1.00  0.00     0.000 HD 
BRANCH   9  11
HETATM   11  S   UNL     1     -10.511  10.400  69.121  1.00  0.00    -0.242 S  
HETATM   12  O   UNL     1     -10.425  11.845  69.116  1.00  0.00    -0.133 OA 
HETATM   13  O   UNL     1      -9.320   9.596  69.321  1.00  0.00    -0.161 OA 
BRANCH  11  14
HETATM   14  C   UNL     1     -11.656   9.945  70.411  1.00  0.00    -0.282 A  
HETATM   15  C   UNL     1     -11.779   8.606  70.789  1.00  0.00    -0.239 A  
HETATM   16  C   UNL     1     -12.656   8.258  71.822  1.00  0.00    -0.364 A  
HETATM   17  C   UNL     1     -13.438   9.230  72.455  1.00  0.00    -0.459 A  
HETATM   18  N   UNL     1     -14.244   8.885  73.546  1.00  0.00    -0.930 NA 
HETATM   19  C   UNL     1     -13.221  10.575  72.138  1.00  0.00    -0.398 A  
HETATM   20  H1  UNL     1     -14.814   9.594  74.008  1.00  0.00     0.000 HD 
HETATM   21  C   UNL     1     -12.342  10.938  71.114  1.00  0.00    -0.479 A  
HETATM   22  H2  UNL     1     -13.657   8.436  74.249  1.00  0.00     0.000 HD 
ENDBRANCH  11  14
ENDBRANCH   9  11
ENDBRANCH   6   9
ENDBRANCH   2   3
TORSDOF 4
ENDMDL
MODEL      108
REMARK 921   NORMALIZED FREE ENERGY PREDICTED BY IDOCK:   -4.34 KCAL/MOL
REMARK 922        TOTAL FREE ENERGY PREDICTED BY IDOCK:   -5.71 KCAL/MOL
REMARK 923 INTER-LIGAND FREE ENERGY PREDICTED BY IDOCK:   -5.53 KCAL/MOL
REMARK 924 INTRA-LIGAND FREE ENERGY PREDICTED BY IDOCK:   -0.18 KCAL/MOL
REMARK 927      BINDING AFFINITY PREDICTED BY RF-SCORE:    0.00 PKD
ROOT
HETATM    1  C   UNL     1     -12.470  11.852  63.658  1.00  0.00    -0.470 C  
HETATM    2  O   UNL     1     -13.080  12.769  64.560  1.00  0.00    -0.743 OA 
ENDROOT
BRANCH   2   3
HETATM    3  C   UNL     1     -12.369  13.893  64.838  1.00  0.00    -0.420 A  
HETATM    4  C   UNL     1     -11.394  13.808  65.812  1.00  0.00    -0.304 A  
HETATM    5  N   UNL     1     -10.586  14.828  66.166  1.00  0.00    -0.301 NA 
HETATM    6  C   UNL     1     -10.779  15.969  65.507  1.00  0.00    -0.361 A  
HETATM    7  C   UNL     1     -12.461  15.127  64.227  1.00  0.00    -0.052 A  
HETATM    8  N   UNL     1     -11.693  16.195  64.556  1.00  0.00    -0.314 NA 
BRANCH   6   9
HETATM    9  N   UNL     1      -9.995  17.045  65.892  1.00  0.00    -0.258 N  
HETATM   10  H   UNL     1      -9.252  17.410  65.297  1.00  0.00     0.000 HD 
BRANCH   9  11
HETATM   11  S   UNL     1     -10.333  17.708  67.383  1.00  0.00    -0.358 S  
HETATM   12  O   UNL     1     -11.347  16.925  68.060  1.00  0.00    -0.190 OA 
HETATM   13  O   UNL     1     -10.531  19.127  67.160  1.00  0.00    -0.391 OA 
BRANCH  11  14
HETATM   14  C   UNL     1      -8.827  17.544  68.325  1.00  0.00    -0.274 A  
HETATM   15  C   UNL     1      -8.070  18.679  68.625  1.00  0.00    -0.352 A  
HETATM   16  C   UNL     1      -6.906  18.550  69.390  1.00  0.00    -0.175 A  
HETATM   17  C   UNL     1      -6.472  17.294  69.827  1.00  0.00    -0.077 A  
HETATM   18  N   UNL     1      -5.357  17.186  70.666  1.00  0.00    -0.243 NA 
HETATM   19  C   UNL     1      -7.299  16.187  69.610  1.00  0.00     0.005 A  
HETATM   20  H1  UNL     1      -5.041  16.270  70.985  1.00  0.00     0.000 HD 
HETATM   21  C   UNL     1      -8.469  16.303  68.855  1.00  0.00    -0.253 A  
HETATM   22  H2  UNL     1      -5.513  17.775  71.484  1.00  0.00     0.000 HD 
ENDBRANCH  11  14
ENDBRANCH   9  11
ENDBRANCH   6   9
ENDBRANCH   2   3
TORSDOF 4
ENDMDL
MODEL      109
REMARK 921   NORMALIZED FREE ENERGY PREDICTED BY IDOCK:   -4.34 KCAL/MOL
REMARK 922        TOTAL FREE ENERGY PREDICTED BY IDOCK:   -5.71 KCAL/MOL
REMARK 923 INTER-LIGAND FREE ENERGY PREDICTED BY IDOCK:   -5.36 KCAL/MOL
REMARK 924 INTRA-LIGAND FREE ENERGY PREDICTED BY IDOCK:   -0.34 KCAL/MOL
REMARK 927      BINDING AFFINITY PREDICTED BY RF-SCORE:    0.00 PKD
ROOT
HETATM    1  C   UNL     1     -13.201  15.031  72.463  1.00  0.00    -0.405 C  
HETATM    2  O   UNL     1     -13.596  13.707  72.807  1.00  0.00    -0.672 OA 
ENDROOT
BRANCH   2   3
HETATM    3  C   UNL     1     -13.228  12.730  71.937  1.00  0.00    -0.412 A  
HETATM    4  C   UNL     1     -12.424  13.090  70.875  1.00  0.00    -0.310 A  
HETATM    5  N   UNL     1     -11.948  12.226  69.956  1.00  0.00    -0.333 NA 
HETATM    6  C   UNL     1     -12.306  10.954  70.126  1.00  0.00    -0.322 A  
HETATM    7  C   UNL     1     -13.518  11.382  72.003  1.00  0.00    -0.183 A  
HETATM    8  N   UNL     1     -13.090  10.469  71.097  1.00  0.00    -0.382 NA 
BRANCH   6   9
HETATM    9  N   UNL     1     -11.872  10.057  69.163  1.00  0.00    -0.469 N  
HETATM   10  H   UNL     1     -12.389   9.905  68.297  1.00  0.00     0.000 HD 
BRANCH   9  11
HETATM   11  S   UNL     1     -10.459   9.240  69.499  1.00  0.00    -0.225 S  
HETATM   12  O   UNL     1     -10.615   7.830  69.207  1.00  0.00    -0.220 OA 
HETATM   13  O   UNL     1     -10.044   9.674  70.818  1.00  0.00    -0.278 OA 
BRANCH  11  14
HETATM   14  C   UNL     1      -9.257   9.885  68.348  1.00  0.00    -0.130 A  
HETATM   15  C   UNL     1      -8.569  11.063  68.650  1.00  0.00    -0.157 A  
HETATM   16  C   UNL     1      -7.606  11.548  67.760  1.00  0.00    -0.111 A  
HETATM   17  C   UNL     1      -7.350  10.888  66.553  1.00  0.00    -0.142 A  
HETATM   18  N   UNL     1      -6.322  11.330  65.712  1.00  0.00    -0.365 NA 
HETATM   19  C   UNL     1      -7.968   9.655  66.319  1.00  0.00    -0.108 A  
HETATM   20  H1  UNL     1      -6.135  10.849  64.833  1.00  0.00     0.000 HD 
HETATM   21  C   UNL     1      -8.926   9.154  67.205  1.00  0.00    -0.136 A  
HETATM   22  H2  UNL     1      -5.457  11.362  66.252  1.00  0.00     0.000 HD 
ENDBRANCH  11  14
ENDBRANCH   9  11
ENDBRANCH   6   9
ENDBRANCH   2   3
TORSDOF 4
ENDMDL
MODEL      110
REMARK 921   NORMALIZED FREE ENERGY PREDICTED BY IDOCK:   -4.34 KCAL/MOL
REMARK 922        TOTAL FREE ENERGY PREDICTED BY IDOCK:   -5.71 KCAL/MOL
REMARK 923 INTER-LIGAND FREE ENERGY PREDICTED BY IDOCK:   -5.68 KCAL/MOL
REMARK 924 INTRA-LIGAND FREE ENERGY PREDICTED BY IDOCK:   -0.02 KCAL/MOL
REMARK 927      BINDING AFFINITY PREDICTED BY RF-SCORE:    0.00 PKD
ROOT
HETATM    1  C   UNL     1      -6.684   9.167  63.906  1.00  0.00    -0.089 C  
HETATM    2  O   UNL     1      -7.603   9.923  63.124  1.00  0.00    -0.125 OA 
ENDROOT
BRANCH   2   3
HETATM    3  C   UNL     1      -8.640  10.483  63.800  1.00  0.00    -0.151 A  
HETATM    4  C   UNL     1      -9.806  10.719  63.101  1.00  0.00    -0.334 A  
HETATM    5  N   UNL     1     -10.927  11.233  63.646  1.00  0.00    -0.362 NA 
HETATM    6  C   UNL     1     -10.855  11.515  64.946  1.00  0.00    -0.283 A  
HETATM    7  C   UNL     1      -8.700  10.813  65.140  1.00  0.00    -0.164 A  
HETATM    8  N   UNL     1      -9.789  11.353  65.739  1.00  0.00    -0.223 NA 
BRANCH   6   9
HETATM    9  N   UNL     1     -11.979  12.094  65.515  1.00  0.00    -0.315 N  
HETATM   10  H   UNL     1     -12.580  11.581  66.160  1.00  0.00     0.000 HD 
BRANCH   9  11
HETATM   11  S   UNL     1     -12.293  13.673  65.086  1.00  0.00    -0.461 S  
HETATM   12  O   UNL     1     -13.642  14.035  65.467  1.00  0.00    -0.596 OA 
HETATM   13  O   UNL     1     -11.858  13.813  63.710  1.00  0.00    -0.371 OA 
BRANCH  11  14
HETATM   14  C   UNL     1     -11.184  14.660  66.075  1.00  0.00    -0.342 A  
HETATM   15  C   UNL     1     -10.138  15.353  65.462  1.00  0.00    -0.405 A  
HETATM   16  C   UNL     1      -9.289  16.150  66.237  1.00  0.00    -0.351 A  
HETATM   17  C   UNL     1      -9.454  16.231  67.624  1.00  0.00    -0.221 A  
HETATM   18  N   UNL     1      -8.657  17.101  68.378  1.00  0.00    -0.238 NA 
HETATM   19  C   UNL     1     -10.569  15.620  68.204  1.00  0.00    -0.274 A  
HETATM   20  H1  UNL     1      -8.777  17.161  69.389  1.00  0.00     0.000 HD 
HETATM   21  C   UNL     1     -11.431  14.827  67.439  1.00  0.00    -0.376 A  
HETATM   22  H2  UNL     1      -8.747  18.039  67.987  1.00  0.00     0.000 HD 
ENDBRANCH  11  14
ENDBRANCH   9  11
ENDBRANCH   6   9
ENDBRANCH   2   3
TORSDOF 4
ENDMDL
MODEL      111
REMARK 921   NORMALIZED FREE ENERGY PREDICTED BY IDOCK:   -4.34 KCAL/MOL
REMARK 922        TOTAL FREE ENERGY PREDICTED BY IDOCK:   -5.70 KCAL/MOL
REMARK 923 INTER-LIGAND FREE ENERGY PREDICTED BY IDOCK:   -5.28 KCAL/MOL
REMARK 924 INTRA-LIGAND FREE ENERGY PREDICTED BY IDOCK:   -0.43 KCAL/MOL
REMARK 927      BINDING AFFINITY PREDICTED BY RF-SCORE:    0.00 PKD
ROOT
HETATM    1  C   UNL     1      -8.343   5.721  67.834  1.00  0.00    -0.104 C  
HETATM    2  O   UNL     1      -8.526   6.299  69.121  1.00  0.00    -0.119 OA 
ENDROOT
BRANCH   2   3
HETATM    3  C   UNL     1      -8.882   7.610  69.141  1.00  0.00    -0.139 A  
HETATM    4  C   UNL     1      -9.820   8.032  68.220  1.00  0.00    -0.170 A  
HETATM    5  N   UNL     1     -10.297   9.291  68.145  1.00  0.00    -0.206 NA 
HETATM    6  C   UNL     1      -9.801  10.146  69.038  1.00  0.00    -0.205 A  
HETATM    7  C   UNL     1      -8.456   8.592  70.012  1.00  0.00    -0.130 A  
HETATM    8  N   UNL     1      -8.881   9.879  69.972  1.00  0.00    -0.200 NA 
BRANCH   6   9
HETATM    9  N   UNL     1     -10.239  11.458  68.944  1.00  0.00    -0.307 N  
HETATM   10  H   UNL     1     -11.000  11.814  69.523  1.00  0.00     0.000 HD 
BRANCH   9  11
HETATM   11  S   UNL     1      -9.454  12.421  67.834  1.00  0.00    -0.203 S  
HETATM   12  O   UNL     1      -8.152  11.867  67.525  1.00  0.00    -0.138 OA 
HETATM   13  O   UNL     1      -9.575  13.781  68.320  1.00  0.00    -0.211 OA 
BRANCH  11  14
HETATM   14  C   UNL     1     -10.434  12.321  66.347  1.00  0.00    -0.236 A  
HETATM   15  C   UNL     1      -9.944  11.627  65.238  1.00  0.00    -0.292 A  
HETATM   16  C   UNL     1     -10.730  11.525  64.085  1.00  0.00    -0.428 A  
HETATM   17  C   UNL     1     -11.984  12.142  64.017  1.00  0.00    -0.440 A  
HETATM   18  N   UNL     1     -12.798  11.958  62.893  1.00  0.00    -0.720 NA 
HETATM   19  C   UNL     1     -12.502  12.737  65.171  1.00  0.00    -0.565 A  
HETATM   20  H1  UNL     1     -13.713  12.407  62.843  1.00  0.00     0.000 HD 
HETATM   21  C   UNL     1     -11.731  12.838  66.333  1.00  0.00    -0.464 A  
HETATM   22  H2  UNL     1     -12.923  10.957  62.747  1.00  0.00     0.000 HD 
ENDBRANCH  11  14
ENDBRANCH   9  11
ENDBRANCH   6   9
ENDBRANCH   2   3
TORSDOF 4
ENDMDL
MODEL      112
REMARK 921   NORMALIZED FREE ENERGY PREDICTED BY IDOCK:   -4.32 KCAL/MOL
REMARK 922        TOTAL FREE ENERGY PREDICTED BY IDOCK:   -5.67 KCAL/MOL
REMARK 923 INTER-LIGAND FREE ENERGY PREDICTED BY IDOCK:   -5.39 KCAL/MOL
REMARK 924 INTRA-LIGAND FREE ENERGY PREDICTED BY IDOCK:   -0.29 KCAL/MOL
REMARK 927      BINDING AFFINITY PREDICTED BY RF-SCORE:    0.00 PKD
ROOT
HETATM    1  C   UNL     1      -7.534   7.183  67.788  1.00  0.00    -0.098 C  
HETATM    2  O   UNL     1      -7.788   8.118  68.830  1.00  0.00    -0.108 OA 
ENDROOT
BRANCH   2   3
HETATM    3  C   UNL     1      -8.692   9.093  68.549  1.00  0.00    -0.129 A  
HETATM    4  C   UNL     1      -9.763   8.759  67.746  1.00  0.00    -0.158 A  
HETATM    5  N   UNL     1     -10.756   9.608  67.414  1.00  0.00    -0.272 NA 
HETATM    6  C   UNL     1     -10.652  10.838  67.917  1.00  0.00    -0.221 A  
HETATM    7  C   UNL     1      -8.707  10.394  69.010  1.00  0.00    -0.168 A  
HETATM    8  N   UNL     1      -9.665  11.300  68.692  1.00  0.00    -0.201 NA 
BRANCH   6   9
HETATM    9  N   UNL     1     -11.635  11.741  67.545  1.00  0.00    -0.311 N  
HETATM   10  H   UNL     1     -12.438  11.939  68.141  1.00  0.00     0.000 HD 
BRANCH   9  11
HETATM   11  S   UNL     1     -11.431  12.487  66.069  1.00  0.00    -0.397 S  
HETATM   12  O   UNL     1     -12.672  12.470  65.324  1.00  0.00    -0.654 OA 
HETATM   13  O   UNL     1     -10.223  11.925  65.495  1.00  0.00    -0.237 OA 
BRANCH  11  14
HETATM   14  C   UNL     1     -11.069  14.193  66.448  1.00  0.00    -0.320 A  
HETATM   15  C   UNL     1     -10.620  15.048  65.440  1.00  0.00    -0.398 A  
HETATM   16  C   UNL     1     -10.368  16.392  65.735  1.00  0.00    -0.388 A  
HETATM   17  C   UNL     1     -10.525  16.879  67.037  1.00  0.00    -0.281 A  
HETATM   18  N   UNL     1     -10.356  18.244  67.303  1.00  0.00    -0.373 NA 
HETATM   19  C   UNL     1     -11.078  16.037  68.007  1.00  0.00    -0.334 A  
HETATM   20  H1  UNL     1     -10.471  18.600  68.252  1.00  0.00     0.000 HD 
HETATM   21  C   UNL     1     -11.343  14.695  67.723  1.00  0.00    -0.338 A  
HETATM   22  H2  UNL     1     -10.974  18.770  66.685  1.00  0.00     0.000 HD 
ENDBRANCH  11  14
ENDBRANCH   9  11
ENDBRANCH   6   9
ENDBRANCH   2   3
TORSDOF 4
ENDMDL
MODEL      113
REMARK 921   NORMALIZED FREE ENERGY PREDICTED BY IDOCK:   -4.31 KCAL/MOL
REMARK 922        TOTAL FREE ENERGY PREDICTED BY IDOCK:   -5.66 KCAL/MOL
REMARK 923 INTER-LIGAND FREE ENERGY PREDICTED BY IDOCK:   -5.74 KCAL/MOL
REMARK 924 INTRA-LIGAND FREE ENERGY PREDICTED BY IDOCK:    0.07 KCAL/MOL
REMARK 927      BINDING AFFINITY PREDICTED BY RF-SCORE:    0.00 PKD
ROOT
HETATM    1  C   UNL     1     -13.503  11.065  71.625  1.00  0.00    -0.092 C  
HETATM    2  O   UNL     1     -12.352  10.615  70.918  1.00  0.00    -0.331 OA 
ENDROOT
BRANCH   2   3
HETATM    3  C   UNL     1     -11.699  11.554  70.184  1.00  0.00    -0.309 A  
HETATM    4  C   UNL     1     -10.767  11.114  69.266  1.00  0.00    -0.199 A  
HETATM    5  N   UNL     1     -10.072  11.924  68.443  1.00  0.00    -0.203 NA 
HETATM    6  C   UNL     1     -10.336  13.225  68.560  1.00  0.00    -0.239 A  
HETATM    7  C   UNL     1     -11.884  12.922  70.199  1.00  0.00    -0.245 A  
HETATM    8  N   UNL     1     -11.198  13.789  69.413  1.00  0.00    -0.236 NA 
BRANCH   6   9
HETATM    9  N   UNL     1      -9.594  14.079  67.760  1.00  0.00    -0.211 N  
HETATM   10  H   UNL     1      -8.575  14.101  67.796  1.00  0.00     0.000 HD 
BRANCH   9  11
HETATM   11  S   UNL     1     -10.459  15.067  66.735  1.00  0.00    -0.289 S  
HETATM   12  O   UNL     1      -9.567  15.971  66.040  1.00  0.00    -0.302 OA 
HETATM   13  O   UNL     1     -11.568  15.586  67.512  1.00  0.00    -0.253 OA 
BRANCH  11  14
HETATM   14  C   UNL     1     -11.161  13.977  65.510  1.00  0.00    -0.311 A  
HETATM   15  C   UNL     1     -10.328  13.345  64.584  1.00  0.00    -0.400 A  
HETATM   16  C   UNL     1     -10.879  12.467  63.645  1.00  0.00    -0.509 A  
HETATM   17  C   UNL     1     -12.259  12.242  63.600  1.00  0.00    -0.567 A  
HETATM   18  N   UNL     1     -12.790  11.294  62.717  1.00  0.00    -0.446 NA 
HETATM   19  C   UNL     1     -13.062  12.797  64.601  1.00  0.00    -0.051 A  
HETATM   20  H1  UNL     1     -13.796  11.130  62.683  1.00  0.00     0.000 HD 
HETATM   21  C   UNL     1     -12.523  13.669  65.551  1.00  0.00    -0.544 A  
HETATM   22  H2  UNL     1     -12.324  10.403  62.885  1.00  0.00     0.000 HD 
ENDBRANCH  11  14
ENDBRANCH   9  11
ENDBRANCH   6   9
ENDBRANCH   2   3
TORSDOF 4
ENDMDL
MODEL      114
REMARK 921   NORMALIZED FREE ENERGY PREDICTED BY IDOCK:   -4.28 KCAL/MOL
REMARK 922        TOTAL FREE ENERGY PREDICTED BY IDOCK:   -5.63 KCAL/MOL
REMARK 923 INTER-LIGAND FREE ENERGY PREDICTED BY IDOCK:   -5.32 KCAL/MOL
REMARK 924 INTRA-LIGAND FREE ENERGY PREDICTED BY IDOCK:   -0.31 KCAL/MOL
REMARK 927      BINDING AFFINITY PREDICTED BY RF-SCORE:    0.00 PKD
ROOT
HETATM    1  C   UNL     1      -8.485   8.099  65.851  1.00  0.00    -0.142 C  
HETATM    2  O   UNL     1      -9.493   9.031  65.475  1.00  0.00    -0.228 OA 
ENDROOT
BRANCH   2   3
HETATM    3  C   UNL     1      -9.773  10.004  66.381  1.00  0.00    -0.210 A  
HETATM    4  C   UNL     1      -9.149  11.225  66.220  1.00  0.00    -0.199 A  
HETATM    5  N   UNL     1      -9.358  12.293  67.016  1.00  0.00    -0.198 NA 
HETATM    6  C   UNL     1     -10.229  12.110  68.007  1.00  0.00    -0.201 A  
HETATM    7  C   UNL     1     -10.657   9.949  67.440  1.00  0.00    -0.277 A  
HETATM    8  N   UNL     1     -10.890  10.981  68.288  1.00  0.00    -0.198 NA 
BRANCH   6   9
HETATM    9  N   UNL     1     -10.417  13.179  68.868  1.00  0.00    -0.412 N  
HETATM   10  H   UNL     1      -9.807  13.339  69.670  1.00  0.00     0.000 HD 
BRANCH   9  11
HETATM   11  S   UNL     1     -11.696  14.189  68.521  1.00  0.00    -0.356 S  
HETATM   12  O   UNL     1     -12.456  14.465  69.723  1.00  0.00    -0.312 OA 
HETATM   13  O   UNL     1     -12.349  13.629  67.354  1.00  0.00    -0.297 OA 
BRANCH  11  14
HETATM   14  C   UNL     1     -10.955  15.727  68.003  1.00  0.00    -0.330 A  
HETATM   15  C   UNL     1     -10.585  16.676  68.958  1.00  0.00    -0.340 A  
HETATM   16  C   UNL     1      -9.976  17.867  68.549  1.00  0.00    -0.379 A  
HETATM   17  C   UNL     1      -9.767  18.134  67.192  1.00  0.00    -0.301 A  
HETATM   18  N   UNL     1      -9.077  19.287  66.799  1.00  0.00    -0.309 NA 
HETATM   19  C   UNL     1     -10.043  17.129  66.260  1.00  0.00    -0.329 A  
HETATM   20  H1  UNL     1      -8.924  19.482  65.810  1.00  0.00     0.000 HD 
HETATM   21  C   UNL     1     -10.644  15.930  66.656  1.00  0.00    -0.305 A  
HETATM   22  H2  UNL     1      -8.173  19.296  67.272  1.00  0.00     0.000 HD 
ENDBRANCH  11  14
ENDBRANCH   9  11
ENDBRANCH   6   9
ENDBRANCH   2   3
TORSDOF 4
ENDMDL
MODEL      115
REMARK 921   NORMALIZED FREE ENERGY PREDICTED BY IDOCK:   -4.28 KCAL/MOL
REMARK 922        TOTAL FREE ENERGY PREDICTED BY IDOCK:   -5.63 KCAL/MOL
REMARK 923 INTER-LIGAND FREE ENERGY PREDICTED BY IDOCK:   -5.32 KCAL/MOL
REMARK 924 INTRA-LIGAND FREE ENERGY PREDICTED BY IDOCK:   -0.31 KCAL/MOL
REMARK 927      BINDING AFFINITY PREDICTED BY RF-SCORE:    0.00 PKD
ROOT
HETATM    1  C   UNL     1     -11.197   6.026  69.687  1.00  0.00    -0.357 C  
HETATM    2  O   UNL     1     -10.238   5.964  68.637  1.00  0.00    -0.160 OA 
ENDROOT
BRANCH   2   3
HETATM    3  C   UNL     1      -9.852   7.157  68.112  1.00  0.00    -0.143 A  
HETATM    4  C   UNL     1      -8.649   7.683  68.536  1.00  0.00    -0.129 A  
HETATM    5  N   UNL     1      -8.120   8.835  68.076  1.00  0.00    -0.107 NA 
HETATM    6  C   UNL     1      -8.843   9.470  67.155  1.00  0.00    -0.131 A  
HETATM    7  C   UNL     1     -10.497   7.908  67.150  1.00  0.00    -0.344 A  
HETATM    8  N   UNL     1     -10.028   9.085  66.666  1.00  0.00    -0.256 NA 
BRANCH   6   9
HETATM    9  N   UNL     1      -8.343  10.683  66.707  1.00  0.00    -0.129 N  
HETATM   10  H   UNL     1      -7.685  10.740  65.930  1.00  0.00     0.000 HD 
BRANCH   9  11
HETATM   11  S   UNL     1      -8.878  12.042  67.509  1.00  0.00    -0.181 S  
HETATM   12  O   UNL     1      -7.775  12.951  67.743  1.00  0.00    -0.123 OA 
HETATM   13  O   UNL     1      -9.686  11.568  68.616  1.00  0.00    -0.197 OA 
BRANCH  11  14
HETATM   14  C   UNL     1      -9.993  12.850  66.374  1.00  0.00    -0.267 A  
HETATM   15  C   UNL     1     -10.665  14.010  66.768  1.00  0.00    -0.285 A  
HETATM   16  C   UNL     1     -11.514  14.657  65.865  1.00  0.00    -0.338 A  
HETATM   17  C   UNL     1     -11.726  14.137  64.584  1.00  0.00    -0.417 A  
HETATM   18  N   UNL     1     -12.506  14.840  63.658  1.00  0.00    -1.051 NA 
HETATM   19  C   UNL     1     -10.963  13.040  64.171  1.00  0.00    -0.438 A  
HETATM   20  H1  UNL     1     -12.661  14.461  62.724  1.00  0.00     0.000 HD 
HETATM   21  C   UNL     1     -10.104  12.389  65.061  1.00  0.00    -0.269 A  
HETATM   22  H2  UNL     1     -12.122  15.780  63.564  1.00  0.00     0.000 HD 
ENDBRANCH  11  14
ENDBRANCH   9  11
ENDBRANCH   6   9
ENDBRANCH   2   3
TORSDOF 4
ENDMDL
MODEL      116
REMARK 921   NORMALIZED FREE ENERGY PREDICTED BY IDOCK:   -4.28 KCAL/MOL
REMARK 922        TOTAL FREE ENERGY PREDICTED BY IDOCK:   -5.63 KCAL/MOL
REMARK 923 INTER-LIGAND FREE ENERGY PREDICTED BY IDOCK:   -5.41 KCAL/MOL
REMARK 924 INTRA-LIGAND FREE ENERGY PREDICTED BY IDOCK:   -0.21 KCAL/MOL
REMARK 927      BINDING AFFINITY PREDICTED BY RF-SCORE:    0.00 PKD
ROOT
HETATM    1  C   UNL     1     -12.992  11.066  71.702  1.00  0.00    -0.456 C  
HETATM    2  O   UNL     1     -12.140  10.738  70.610  1.00  0.00    -0.308 OA 
ENDROOT
BRANCH   2   3
HETATM    3  C   UNL     1     -12.115  11.631  69.585  1.00  0.00    -0.280 A  
HETATM    4  C   UNL     1     -12.063  12.972  69.907  1.00  0.00    -0.277 A  
HETATM    5  N   UNL     1     -11.994  13.967  69.000  1.00  0.00    -0.350 NA 
HETATM    6  C   UNL     1     -11.980  13.582  67.725  1.00  0.00    -0.334 A  
HETATM    7  C   UNL     1     -12.086  11.367  68.231  1.00  0.00    -0.009 A  
HETATM    8  N   UNL     1     -12.041  12.325  67.272  1.00  0.00    -0.517 NA 
BRANCH   6   9
HETATM    9  N   UNL     1     -11.963  14.592  66.776  1.00  0.00    -0.382 N  
HETATM   10  H   UNL     1     -12.790  15.151  66.570  1.00  0.00     0.000 HD 
BRANCH   9  11
HETATM   11  S   UNL     1     -10.515  14.841  65.990  1.00  0.00    -0.321 S  
HETATM   12  O   UNL     1     -10.468  16.181  65.441  1.00  0.00    -0.426 OA 
HETATM   13  O   UNL     1     -10.316  13.690  65.131  1.00  0.00    -0.338 OA 
BRANCH  11  14
HETATM   14  C   UNL     1      -9.266  14.750  67.262  1.00  0.00    -0.203 A  
HETATM   15  C   UNL     1      -9.143  15.788  68.189  1.00  0.00    -0.185 A  
HETATM   16  C   UNL     1      -8.184  15.698  69.203  1.00  0.00    -0.248 A  
HETATM   17  C   UNL     1      -7.322  14.598  69.277  1.00  0.00    -0.149 A  
HETATM   18  N   UNL     1      -6.428  14.475  70.346  1.00  0.00    -0.303 NA 
HETATM   19  C   UNL     1      -7.533  13.522  68.409  1.00  0.00    -0.124 A  
HETATM   20  H1  UNL     1      -5.800  13.674  70.401  1.00  0.00     0.000 HD 
HETATM   21  C   UNL     1      -8.494  13.595  67.397  1.00  0.00    -0.206 A  
HETATM   22  H2  UNL     1      -6.958  14.528  71.216  1.00  0.00     0.000 HD 
ENDBRANCH  11  14
ENDBRANCH   9  11
ENDBRANCH   6   9
ENDBRANCH   2   3
TORSDOF 4
ENDMDL
MODEL      117
REMARK 921   NORMALIZED FREE ENERGY PREDICTED BY IDOCK:   -4.27 KCAL/MOL
REMARK 922        TOTAL FREE ENERGY PREDICTED BY IDOCK:   -5.61 KCAL/MOL
REMARK 923 INTER-LIGAND FREE ENERGY PREDICTED BY IDOCK:   -6.05 KCAL/MOL
REMARK 924 INTRA-LIGAND FREE ENERGY PREDICTED BY IDOCK:    0.43 KCAL/MOL
REMARK 927      BINDING AFFINITY PREDICTED BY RF-SCORE:    0.00 PKD
ROOT
HETATM    1  C   UNL     1     -13.489   7.344  71.611  1.00  0.00    -0.366 C  
HETATM    2  O   UNL     1     -12.928   8.509  72.205  1.00  0.00    -0.350 OA 
ENDROOT
BRANCH   2   3
HETATM    3  C   UNL     1     -12.308   9.370  71.357  1.00  0.00    -0.357 A  
HETATM    4  C   UNL     1     -10.953   9.205  71.157  1.00  0.00    -0.320 A  
HETATM    5  N   UNL     1     -10.213   9.957  70.316  1.00  0.00    -0.279 NA 
HETATM    6  C   UNL     1     -10.878  10.908  69.661  1.00  0.00    -0.216 A  
HETATM    7  C   UNL     1     -12.876  10.384  70.612  1.00  0.00    -0.313 A  
HETATM    8  N   UNL     1     -12.181  11.188  69.770  1.00  0.00    -0.315 NA 
BRANCH   6   9
HETATM    9  N   UNL     1     -10.126  11.726  68.832  1.00  0.00    -0.394 N  
HETATM   10  H   UNL     1      -9.202  12.063  69.103  1.00  0.00     0.000 HD 
BRANCH   9  11
HETATM   11  S   UNL     1     -10.816  12.128  67.370  1.00  0.00    -0.258 S  
HETATM   12  O   UNL     1     -12.236  12.361  67.535  1.00  0.00    -0.442 OA 
HETATM   13  O   UNL     1     -10.340  11.147  66.414  1.00  0.00    -0.236 OA 
BRANCH  11  14
HETATM   14  C   UNL     1     -10.077  13.687  66.913  1.00  0.00    -0.260 A  
HETATM   15  C   UNL     1     -10.471  14.323  65.734  1.00  0.00    -0.326 A  
HETATM   16  C   UNL     1      -9.911  15.559  65.395  1.00  0.00    -0.339 A  
HETATM   17  C   UNL     1      -8.935  16.148  66.205  1.00  0.00    -0.344 A  
HETATM   18  N   UNL     1      -8.447  17.425  65.905  1.00  0.00    -0.541 NA 
HETATM   19  C   UNL     1      -8.633  15.551  67.433  1.00  0.00    -0.196 A  
HETATM   20  H1  UNL     1      -7.735  17.855  66.495  1.00  0.00     0.000 HD 
HETATM   21  C   UNL     1      -9.192  14.320  67.788  1.00  0.00    -0.194 A  
HETATM   22  H2  UNL     1      -9.240  18.064  65.840  1.00  0.00     0.000 HD 
ENDBRANCH  11  14
ENDBRANCH   9  11
ENDBRANCH   6   9
ENDBRANCH   2   3
TORSDOF 4
ENDMDL
MODEL      118
REMARK 921   NORMALIZED FREE ENERGY PREDICTED BY IDOCK:   -4.26 KCAL/MOL
REMARK 922        TOTAL FREE ENERGY PREDICTED BY IDOCK:   -5.61 KCAL/MOL
REMARK 923 INTER-LIGAND FREE ENERGY PREDICTED BY IDOCK:   -5.47 KCAL/MOL
REMARK 924 INTRA-LIGAND FREE ENERGY PREDICTED BY IDOCK:   -0.13 KCAL/MOL
REMARK 927      BINDING AFFINITY PREDICTED BY RF-SCORE:    0.00 PKD
ROOT
HETATM    1  C   UNL     1      -6.353  15.459  69.915  1.00  0.00    -0.158 C  
HETATM    2  O   UNL     1      -6.910  16.108  68.777  1.00  0.00    -0.129 OA 
ENDROOT
BRANCH   2   3
HETATM    3  C   UNL     1      -7.750  15.358  68.016  1.00  0.00    -0.125 A  
HETATM    4  C   UNL     1      -8.602  16.025  67.159  1.00  0.00    -0.194 A  
HETATM    5  N   UNL     1      -9.461  15.415  66.317  1.00  0.00    -0.285 NA 
HETATM    6  C   UNL     1      -9.451  14.083  66.353  1.00  0.00    -0.259 A  
HETATM    7  C   UNL     1      -7.835  13.982  67.950  1.00  0.00    -0.160 A  
HETATM    8  N   UNL     1      -8.694  13.313  67.142  1.00  0.00    -0.214 NA 
BRANCH   6   9
HETATM    9  N   UNL     1     -10.365  13.438  65.534  1.00  0.00    -0.289 N  
HETATM   10  H   UNL     1     -10.134  13.168  64.578  1.00  0.00     0.000 HD 
BRANCH   9  11
HETATM   11  S   UNL     1     -11.861  13.127  66.199  1.00  0.00    -0.418 S  
HETATM   12  O   UNL     1     -12.677  12.379  65.265  1.00  0.00    -0.617 OA 
HETATM   13  O   UNL     1     -12.333  14.387  66.740  1.00  0.00    -0.392 OA 
BRANCH  11  14
HETATM   14  C   UNL     1     -11.545  12.060  67.593  1.00  0.00    -0.321 A  
HETATM   15  C   UNL     1     -11.917  12.466  68.877  1.00  0.00    -0.289 A  
HETATM   16  C   UNL     1     -11.695  11.613  69.963  1.00  0.00    -0.402 A  
HETATM   17  C   UNL     1     -11.072  10.374  69.783  1.00  0.00    -0.295 A  
HETATM   18  N   UNL     1     -10.936   9.491  70.861  1.00  0.00    -0.308 NA 
HETATM   19  C   UNL     1     -10.807   9.939  68.481  1.00  0.00    -0.257 A  
HETATM   20  H1  UNL     1     -10.482   8.587  70.731  1.00  0.00     0.000 HD 
HETATM   21  C   UNL     1     -11.031  10.778  67.385  1.00  0.00    -0.361 A  
HETATM   22  H2  UNL     1     -11.860   9.331  71.263  1.00  0.00     0.000 HD 
ENDBRANCH  11  14
ENDBRANCH   9  11
ENDBRANCH   6   9
ENDBRANCH   2   3
TORSDOF 4
ENDMDL
MODEL      119
REMARK 921   NORMALIZED FREE ENERGY PREDICTED BY IDOCK:   -4.25 KCAL/MOL
REMARK 922        TOTAL FREE ENERGY PREDICTED BY IDOCK:   -5.59 KCAL/MOL
REMARK 923 INTER-LIGAND FREE ENERGY PREDICTED BY IDOCK:   -5.29 KCAL/MOL
REMARK 924 INTRA-LIGAND FREE ENERGY PREDICTED BY IDOCK:   -0.30 KCAL/MOL
REMARK 927      BINDING AFFINITY PREDICTED BY RF-SCORE:    0.00 PKD
ROOT
HETATM    1  C   UNL     1      -6.977  18.772  66.483  1.00  0.00    -0.213 C  
HETATM    2  O   UNL     1      -8.301  18.824  65.964  1.00  0.00    -0.468 OA 
ENDROOT
BRANCH   2   3
HETATM    3  C   UNL     1      -9.217  18.037  66.588  1.00  0.00    -0.284 A  
HETATM    4  C   UNL     1      -9.260  16.704  66.235  1.00  0.00    -0.294 A  
HETATM    5  N   UNL     1     -10.086  15.797  66.795  1.00  0.00    -0.264 NA 
HETATM    6  C   UNL     1     -10.895  16.267  67.743  1.00  0.00    -0.315 A  
HETATM    7  C   UNL     1     -10.100  18.392  67.588  1.00  0.00    -0.360 A  
HETATM    8  N   UNL     1     -10.970  17.532  68.172  1.00  0.00    -0.238 NA 
BRANCH   6   9
HETATM    9  N   UNL     1     -11.789  15.363  68.294  1.00  0.00    -0.485 N  
HETATM   10  H   UNL     1     -12.768  15.331  68.009  1.00  0.00     0.000 HD 
BRANCH   9  11
HETATM   11  S   UNL     1     -11.176  14.329  69.449  1.00  0.00    -0.260 S  
HETATM   12  O   UNL     1     -12.235  13.874  70.325  1.00  0.00    -0.318 OA 
HETATM   13  O   UNL     1     -10.003  14.982  69.995  1.00  0.00    -0.104 OA 
BRANCH  11  14
HETATM   14  C   UNL     1     -10.594  12.905  68.545  1.00  0.00    -0.253 A  
HETATM   15  C   UNL     1     -11.509  11.966  68.065  1.00  0.00    -0.389 A  
HETATM   16  C   UNL     1     -11.050  10.867  67.330  1.00  0.00    -0.373 A  
HETATM   17  C   UNL     1      -9.683  10.680  67.103  1.00  0.00    -0.171 A  
HETATM   18  N   UNL     1      -9.241   9.628  66.291  1.00  0.00    -0.158 NA 
HETATM   19  C   UNL     1      -8.793  11.685  67.496  1.00  0.00    -0.158 A  
HETATM   20  H1  UNL     1      -8.245   9.491  66.125  1.00  0.00     0.000 HD 
HETATM   21  C   UNL     1      -9.239  12.793  68.223  1.00  0.00    -0.186 A  
HETATM   22  H2  UNL     1      -9.711   9.700  65.389  1.00  0.00     0.000 HD 
ENDBRANCH  11  14
ENDBRANCH   9  11
ENDBRANCH   6   9
ENDBRANCH   2   3
TORSDOF 4
ENDMDL
MODEL      120
REMARK 921   NORMALIZED FREE ENERGY PREDICTED BY IDOCK:   -4.24 KCAL/MOL
REMARK 922        TOTAL FREE ENERGY PREDICTED BY IDOCK:   -5.58 KCAL/MOL
REMARK 923 INTER-LIGAND FREE ENERGY PREDICTED BY IDOCK:   -5.48 KCAL/MOL
REMARK 924 INTRA-LIGAND FREE ENERGY PREDICTED BY IDOCK:   -0.10 KCAL/MOL
REMARK 927      BINDING AFFINITY PREDICTED BY RF-SCORE:    0.00 PKD
ROOT
HETATM    1  C   UNL     1      -7.039   9.990  62.691  1.00  0.00    -0.124 C  
HETATM    2  O   UNL     1      -8.434  10.012  62.410  1.00  0.00    -0.134 OA 
ENDROOT
BRANCH   2   3
HETATM    3  C   UNL     1      -9.226  10.559  63.369  1.00  0.00    -0.276 A  
HETATM    4  C   UNL     1      -9.807  11.781  63.098  1.00  0.00    -0.336 A  
HETATM    5  N   UNL     1     -10.645  12.424  63.936  1.00  0.00    -0.404 NA 
HETATM    6  C   UNL     1     -10.897  11.802  65.087  1.00  0.00    -0.297 A  
HETATM    7  C   UNL     1      -9.575  10.018  64.591  1.00  0.00    -0.297 A  
HETATM    8  N   UNL     1     -10.392  10.628  65.484  1.00  0.00    -0.254 NA 
BRANCH   6   9
HETATM    9  N   UNL     1     -11.714  12.471  65.984  1.00  0.00    -0.402 N  
HETATM   10  H   UNL     1     -12.706  12.618  65.802  1.00  0.00     0.000 HD 
BRANCH   9  11
HETATM   11  S   UNL     1     -10.983  13.023  67.377  1.00  0.00    -0.268 S  
HETATM   12  O   UNL     1     -10.057  12.031  67.882  1.00  0.00    -0.186 OA 
HETATM   13  O   UNL     1     -12.049  13.527  68.221  1.00  0.00    -0.354 OA 
BRANCH  11  14
HETATM   14  C   UNL     1     -10.018  14.437  66.875  1.00  0.00    -0.261 A  
HETATM   15  C   UNL     1     -10.607  15.440  66.101  1.00  0.00    -0.321 A  
HETATM   16  C   UNL     1      -9.855  16.561  65.736  1.00  0.00    -0.275 A  
HETATM   17  C   UNL     1      -8.510  16.672  66.105  1.00  0.00    -0.273 A  
HETATM   18  N   UNL     1      -7.793  17.838  65.812  1.00  0.00    -0.544 NA 
HETATM   19  C   UNL     1      -7.971  15.714  66.969  1.00  0.00    -0.268 A  
HETATM   20  H1  UNL     1      -6.813  17.920  66.081  1.00  0.00     0.000 HD 
HETATM   21  C   UNL     1      -8.714  14.592  67.349  1.00  0.00    -0.209 A  
HETATM   22  H2  UNL     1      -8.300  18.633  66.201  1.00  0.00     0.000 HD 
ENDBRANCH  11  14
ENDBRANCH   9  11
ENDBRANCH   6   9
ENDBRANCH   2   3
TORSDOF 4
ENDMDL
MODEL      121
REMARK 921   NORMALIZED FREE ENERGY PREDICTED BY IDOCK:   -4.24 KCAL/MOL
REMARK 922        TOTAL FREE ENERGY PREDICTED BY IDOCK:   -5.58 KCAL/MOL
REMARK 923 INTER-LIGAND FREE ENERGY PREDICTED BY IDOCK:   -6.13 KCAL/MOL
REMARK 924 INTRA-LIGAND FREE ENERGY PREDICTED BY IDOCK:    0.55 KCAL/MOL
REMARK 927      BINDING AFFINITY PREDICTED BY RF-SCORE:    0.00 PKD
ROOT
HETATM    1  C   UNL     1     -14.407   8.303  71.770  1.00  0.00    -0.483 C  
HETATM    2  O   UNL     1     -13.328   8.992  72.392  1.00  0.00    -0.423 OA 
ENDROOT
BRANCH   2   3
HETATM    3  C   UNL     1     -12.769   9.998  71.669  1.00  0.00    -0.435 A  
HETATM    4  C   UNL     1     -11.883   9.651  70.671  1.00  0.00    -0.256 A  
HETATM    5  N   UNL     1     -11.281  10.535  69.849  1.00  0.00    -0.286 NA 
HETATM    6  C   UNL     1     -11.594  11.814  70.054  1.00  0.00    -0.236 A  
HETATM    7  C   UNL     1     -13.013  11.353  71.772  1.00  0.00    -0.414 A  
HETATM    8  N   UNL     1     -12.421  12.291  70.991  1.00  0.00    -0.336 NA 
BRANCH   6   9
HETATM    9  N   UNL     1     -10.947  12.743  69.256  1.00  0.00    -0.443 N  
HETATM   10  H   UNL     1      -9.979  12.616  68.959  1.00  0.00     0.000 HD 
BRANCH   9  11
HETATM   11  S   UNL     1     -11.837  14.078  68.807  1.00  0.00    -0.361 S  
HETATM   12  O   UNL     1     -12.754  14.446  69.865  1.00  0.00    -0.263 OA 
HETATM   13  O   UNL     1     -12.330  13.806  67.471  1.00  0.00    -0.287 OA 
BRANCH  11  14
HETATM   14  C   UNL     1     -10.653  15.404  68.653  1.00  0.00    -0.239 A  
HETATM   15  C   UNL     1     -11.019  16.590  68.012  1.00  0.00    -0.320 A  
HETATM   16  C   UNL     1     -10.097  17.638  67.921  1.00  0.00    -0.345 A  
HETATM   17  C   UNL     1      -8.803  17.499  68.433  1.00  0.00    -0.276 A  
HETATM   18  N   UNL     1      -7.919  18.585  68.417  1.00  0.00    -0.307 NA 
HETATM   19  C   UNL     1      -8.491  16.350  69.165  1.00  0.00    -0.181 A  
HETATM   20  H1  UNL     1      -6.975  18.484  68.789  1.00  0.00     0.000 HD 
HETATM   21  C   UNL     1      -9.405  15.298  69.272  1.00  0.00    -0.239 A  
HETATM   22  H2  UNL     1      -8.367  19.371  68.886  1.00  0.00     0.000 HD 
ENDBRANCH  11  14
ENDBRANCH   9  11
ENDBRANCH   6   9
ENDBRANCH   2   3
TORSDOF 4
ENDMDL
MODEL      122
REMARK 921   NORMALIZED FREE ENERGY PREDICTED BY IDOCK:   -4.23 KCAL/MOL
REMARK 922        TOTAL FREE ENERGY PREDICTED BY IDOCK:   -5.57 KCAL/MOL
REMARK 923 INTER-LIGAND FREE ENERGY PREDICTED BY IDOCK:   -5.34 KCAL/MOL
REMARK 924 INTRA-LIGAND FREE ENERGY PREDICTED BY IDOCK:   -0.23 KCAL/MOL
REMARK 927      BINDING AFFINITY PREDICTED BY RF-SCORE:    0.00 PKD
ROOT
HETATM    1  C   UNL     1      -8.204   4.665  65.985  1.00  0.00    -0.110 C  
HETATM    2  O   UNL     1      -8.452   4.492  67.376  1.00  0.00    -0.104 OA 
ENDROOT
BRANCH   2   3
HETATM    3  C   UNL     1      -9.077   5.524  68.001  1.00  0.00    -0.108 A  
HETATM    4  C   UNL     1     -10.232   6.015  67.427  1.00  0.00    -0.189 A  
HETATM    5  N   UNL     1     -10.979   7.006  67.953  1.00  0.00    -0.168 NA 
HETATM    6  C   UNL     1     -10.532   7.514  69.101  1.00  0.00    -0.215 A  
HETATM    7  C   UNL     1      -8.729   6.130  69.191  1.00  0.00    -0.121 A  
HETATM    8  N   UNL     1      -9.426   7.147  69.757  1.00  0.00    -0.150 NA 
BRANCH   6   9
HETATM    9  N   UNL     1     -11.256   8.570  69.631  1.00  0.00    -0.445 N  
HETATM   10  H   UNL     1     -11.999   8.424  70.314  1.00  0.00     0.000 HD 
BRANCH   9  11
HETATM   11  S   UNL     1     -10.845  10.092  69.090  1.00  0.00    -0.217 S  
HETATM   12  O   UNL     1     -11.340  10.295  67.745  1.00  0.00    -0.322 OA 
HETATM   13  O   UNL     1      -9.435  10.259  69.386  1.00  0.00    -0.207 OA 
BRANCH  11  14
HETATM   14  C   UNL     1     -11.726  11.223  70.151  1.00  0.00    -0.343 A  
HETATM   15  C   UNL     1     -12.467  10.731  71.228  1.00  0.00    -0.504 A  
HETATM   16  C   UNL     1     -13.131  11.624  72.075  1.00  0.00    -0.433 A  
HETATM   17  C   UNL     1     -13.092  13.001  71.835  1.00  0.00    -0.384 A  
HETATM   18  N   UNL     1     -13.685  13.891  72.739  1.00  0.00    -0.702 NA 
HETATM   19  C   UNL     1     -12.259  13.482  70.820  1.00  0.00    -0.417 A  
HETATM   20  H1  UNL     1     -13.656  14.896  72.564  1.00  0.00     0.000 HD 
HETATM   21  C   UNL     1     -11.582  12.601  69.971  1.00  0.00    -0.199 A  
HETATM   22  H2  UNL     1     -13.295  13.715  73.665  1.00  0.00     0.000 HD 
ENDBRANCH  11  14
ENDBRANCH   9  11
ENDBRANCH   6   9
ENDBRANCH   2   3
TORSDOF 4
ENDMDL
MODEL      123
REMARK 921   NORMALIZED FREE ENERGY PREDICTED BY IDOCK:   -4.20 KCAL/MOL
REMARK 922        TOTAL FREE ENERGY PREDICTED BY IDOCK:   -5.53 KCAL/MOL
REMARK 923 INTER-LIGAND FREE ENERGY PREDICTED BY IDOCK:   -5.25 KCAL/MOL
REMARK 924 INTRA-LIGAND FREE ENERGY PREDICTED BY IDOCK:   -0.27 KCAL/MOL
REMARK 927      BINDING AFFINITY PREDICTED BY RF-SCORE:    0.00 PKD
ROOT
HETATM    1  C   UNL     1      -5.927   9.571  68.093  1.00  0.00    -0.047 C  
HETATM    2  O   UNL     1      -7.163   9.691  67.396  1.00  0.00    -0.085 OA 
ENDROOT
BRANCH   2   3
HETATM    3  C   UNL     1      -7.879  10.819  67.643  1.00  0.00    -0.109 A  
HETATM    4  C   UNL     1      -7.215  12.027  67.565  1.00  0.00    -0.127 A  
HETATM    5  N   UNL     1      -7.802  13.227  67.746  1.00  0.00    -0.141 NA 
HETATM    6  C   UNL     1      -9.106  13.194  68.016  1.00  0.00    -0.207 A  
HETATM    7  C   UNL     1      -9.227  10.924  67.922  1.00  0.00    -0.152 A  
HETATM    8  N   UNL     1      -9.867  12.100  68.137  1.00  0.00    -0.202 NA 
BRANCH   6   9
HETATM    9  N   UNL     1      -9.717  14.414  68.258  1.00  0.00    -0.216 N  
HETATM   10  H   UNL     1      -9.946  14.724  69.202  1.00  0.00     0.000 HD 
BRANCH   9  11
HETATM   11  S   UNL     1     -10.057  15.347  66.920  1.00  0.00    -0.263 S  
HETATM   12  O   UNL     1      -8.829  15.783  66.289  1.00  0.00    -0.304 OA 
HETATM   13  O   UNL     1     -11.048  16.317  67.343  1.00  0.00    -0.232 OA 
BRANCH  11  14
HETATM   14  C   UNL     1     -10.875  14.249  65.775  1.00  0.00    -0.303 A  
HETATM   15  C   UNL     1     -10.137  13.620  64.769  1.00  0.00    -0.268 A  
HETATM   16  C   UNL     1     -10.777  12.737  63.894  1.00  0.00    -0.443 A  
HETATM   17  C   UNL     1     -12.153  12.504  63.991  1.00  0.00    -0.473 A  
HETATM   18  N   UNL     1     -12.766  11.551  63.169  1.00  0.00    -0.820 NA 
HETATM   19  C   UNL     1     -12.852  13.056  65.069  1.00  0.00    -0.365 A  
HETATM   20  H1  UNL     1     -13.769  11.381  63.239  1.00  0.00     0.000 HD 
HETATM   21  C   UNL     1     -12.223  13.934  65.957  1.00  0.00    -0.495 A  
HETATM   22  H2  UNL     1     -12.280  10.662  63.290  1.00  0.00     0.000 HD 
ENDBRANCH  11  14
ENDBRANCH   9  11
ENDBRANCH   6   9
ENDBRANCH   2   3
TORSDOF 4
ENDMDL
MODEL      124
REMARK 921   NORMALIZED FREE ENERGY PREDICTED BY IDOCK:   -4.18 KCAL/MOL
REMARK 922        TOTAL FREE ENERGY PREDICTED BY IDOCK:   -5.50 KCAL/MOL
REMARK 923 INTER-LIGAND FREE ENERGY PREDICTED BY IDOCK:   -6.60 KCAL/MOL
REMARK 924 INTRA-LIGAND FREE ENERGY PREDICTED BY IDOCK:    1.09 KCAL/MOL
REMARK 927      BINDING AFFINITY PREDICTED BY RF-SCORE:    0.00 PKD
ROOT
HETATM    1  C   UNL     1     -12.742   6.984  71.336  1.00  0.00    -0.374 C  
HETATM    2  O   UNL     1     -12.621   8.249  71.976  1.00  0.00    -0.321 OA 
ENDROOT
BRANCH   2   3
HETATM    3  C   UNL     1     -12.051   9.238  71.238  1.00  0.00    -0.337 A  
HETATM    4  C   UNL     1     -11.064   8.879  70.342  1.00  0.00    -0.239 A  
HETATM    5  N   UNL     1     -10.438   9.742  69.518  1.00  0.00    -0.217 NA 
HETATM    6  C   UNL     1     -10.830  11.012  69.611  1.00  0.00    -0.183 A  
HETATM    7  C   UNL     1     -12.369  10.581  71.229  1.00  0.00    -0.397 A  
HETATM    8  N   UNL     1     -11.759  11.500  70.441  1.00  0.00    -0.296 NA 
BRANCH   6   9
HETATM    9  N   UNL     1     -10.162  11.924  68.809  1.00  0.00    -0.348 N  
HETATM   10  H   UNL     1      -9.263  11.706  68.379  1.00  0.00     0.000 HD 
BRANCH   9  11
HETATM   11  S   UNL     1     -10.908  13.397  68.588  1.00  0.00    -0.261 S  
HETATM   12  O   UNL     1      -9.954  14.472  68.762  1.00  0.00    -0.230 OA 
HETATM   13  O   UNL     1     -12.122  13.359  69.380  1.00  0.00    -0.309 OA 
BRANCH  11  14
HETATM   14  C   UNL     1     -11.416  13.416  66.877  1.00  0.00    -0.342 A  
HETATM   15  C   UNL     1     -11.616  14.635  66.226  1.00  0.00    -0.344 A  
HETATM   16  C   UNL     1     -11.984  14.645  64.877  1.00  0.00    -0.402 A  
HETATM   17  C   UNL     1     -12.189  13.448  64.182  1.00  0.00    -0.398 A  
HETATM   18  N   UNL     1     -12.469  13.468  62.811  1.00  0.00    -0.743 NA 
HETATM   19  C   UNL     1     -11.878  12.242  64.818  1.00  0.00    -0.428 A  
HETATM   20  H1  UNL     1     -12.618  12.596  62.304  1.00  0.00     0.000 HD 
HETATM   21  C   UNL     1     -11.501  12.218  66.164  1.00  0.00    -0.429 A  
HETATM   22  H2  UNL     1     -11.730  13.991  62.340  1.00  0.00     0.000 HD 
ENDBRANCH  11  14
ENDBRANCH   9  11
ENDBRANCH   6   9
ENDBRANCH   2   3
TORSDOF 4
ENDMDL
MODEL      125
REMARK 921   NORMALIZED FREE ENERGY PREDICTED BY IDOCK:   -4.17 KCAL/MOL
REMARK 922        TOTAL FREE ENERGY PREDICTED BY IDOCK:   -5.49 KCAL/MOL
REMARK 923 INTER-LIGAND FREE ENERGY PREDICTED BY IDOCK:   -5.86 KCAL/MOL
REMARK 924 INTRA-LIGAND FREE ENERGY PREDICTED BY IDOCK:    0.37 KCAL/MOL
REMARK 927      BINDING AFFINITY PREDICTED BY RF-SCORE:    0.00 PKD
ROOT
HETATM    1  C   UNL     1      -7.788  20.571  67.204  1.00  0.00    -0.315 C  
HETATM    2  O   UNL     1      -9.100  20.020  67.245  1.00  0.00    -0.325 OA 
ENDROOT
BRANCH   2   3
HETATM    3  C   UNL     1      -9.226  18.748  66.785  1.00  0.00    -0.315 A  
HETATM    4  C   UNL     1      -8.207  17.862  67.068  1.00  0.00    -0.226 A  
HETATM    5  N   UNL     1      -8.212  16.562  66.711  1.00  0.00    -0.215 NA 
HETATM    6  C   UNL     1      -9.290  16.153  66.044  1.00  0.00    -0.333 A  
HETATM    7  C   UNL     1     -10.288  18.196  66.096  1.00  0.00    -0.385 A  
HETATM    8  N   UNL     1     -10.340  16.904  65.691  1.00  0.00    -0.578 NA 
BRANCH   6   9
HETATM    9  N   UNL     1      -9.291  14.833  65.622  1.00  0.00    -0.484 N  
HETATM   10  H   UNL     1      -8.651  14.497  64.903  1.00  0.00     0.000 HD 
BRANCH   9  11
HETATM   11  S   UNL     1     -10.396  13.825  66.356  1.00  0.00    -0.296 S  
HETATM   12  O   UNL     1      -9.786  12.545  66.652  1.00  0.00    -0.229 OA 
HETATM   13  O   UNL     1     -11.602  13.893  65.554  1.00  0.00    -0.314 OA 
BRANCH  11  14
HETATM   14  C   UNL     1     -10.778  14.600  67.917  1.00  0.00    -0.250 A  
HETATM   15  C   UNL     1      -9.748  14.904  68.811  1.00  0.00    -0.225 A  
HETATM   16  C   UNL     1     -10.048  15.539  70.020  1.00  0.00    -0.241 A  
HETATM   17  C   UNL     1     -11.371  15.840  70.361  1.00  0.00    -0.374 A  
HETATM   18  N   UNL     1     -11.651  16.556  71.531  1.00  0.00    -0.588 NA 
HETATM   19  C   UNL     1     -12.373  15.628  69.409  1.00  0.00    -0.096 A  
HETATM   20  H1  UNL     1     -12.616  16.776  71.779  1.00  0.00     0.000 HD 
HETATM   21  C   UNL     1     -12.086  15.002  68.193  1.00  0.00    -0.071 A  
HETATM   22  H2  UNL     1     -11.118  17.426  71.511  1.00  0.00     0.000 HD 
ENDBRANCH  11  14
ENDBRANCH   9  11
ENDBRANCH   6   9
ENDBRANCH   2   3
TORSDOF 4
ENDMDL
MODEL      126
REMARK 921   NORMALIZED FREE ENERGY PREDICTED BY IDOCK:   -4.16 KCAL/MOL
REMARK 922        TOTAL FREE ENERGY PREDICTED BY IDOCK:   -5.48 KCAL/MOL
REMARK 923 INTER-LIGAND FREE ENERGY PREDICTED BY IDOCK:   -5.26 KCAL/MOL
REMARK 924 INTRA-LIGAND FREE ENERGY PREDICTED BY IDOCK:   -0.22 KCAL/MOL
REMARK 927      BINDING AFFINITY PREDICTED BY RF-SCORE:    0.00 PKD
ROOT
HETATM    1  C   UNL     1      -9.857  15.270  66.243  1.00  0.00    -0.294 C  
HETATM    2  O   UNL     1     -11.165  14.712  66.174  1.00  0.00    -0.333 OA 
ENDROOT
BRANCH   2   3
HETATM    3  C   UNL     1     -11.370  13.582  66.899  1.00  0.00    -0.326 A  
HETATM    4  C   UNL     1     -11.485  13.713  68.268  1.00  0.00    -0.313 A  
HETATM    5  N   UNL     1     -11.727  12.688  69.110  1.00  0.00    -0.309 NA 
HETATM    6  C   UNL     1     -11.855  11.492  68.537  1.00  0.00    -0.297 A  
HETATM    7  C   UNL     1     -11.530  12.292  66.433  1.00  0.00    -0.378 A  
HETATM    8  N   UNL     1     -11.752  11.219  67.232  1.00  0.00    -0.553 NA 
BRANCH   6   9
HETATM    9  N   UNL     1     -12.052  10.417  69.390  1.00  0.00    -0.538 N  
HETATM   10  H   UNL     1     -12.974  10.008  69.536  1.00  0.00     0.000 HD 
BRANCH   9  11
HETATM   11  S   UNL     1     -10.697   9.832  70.164  1.00  0.00    -0.310 S  
HETATM   12  O   UNL     1     -10.976   9.621  71.569  1.00  0.00    -0.348 OA 
HETATM   13  O   UNL     1      -9.597  10.684  69.755  1.00  0.00    -0.052 OA 
BRANCH  11  14
HETATM   14  C   UNL     1     -10.396   8.229  69.441  1.00  0.00    -0.222 A  
HETATM   15  C   UNL     1     -11.310   7.193  69.646  1.00  0.00    -0.109 A  
HETATM   16  C   UNL     1     -11.086   5.947  69.052  1.00  0.00    -0.295 A  
HETATM   17  C   UNL     1      -9.939   5.716  68.285  1.00  0.00    -0.155 A  
HETATM   18  N   UNL     1      -9.770   4.495  67.622  1.00  0.00    -0.168 NA 
HETATM   19  C   UNL     1      -9.094   6.793  68.002  1.00  0.00    -0.119 A  
HETATM   20  H1  UNL     1      -8.934   4.326  67.063  1.00  0.00     0.000 HD 
HETATM   21  C   UNL     1      -9.311   8.046  68.582  1.00  0.00    -0.146 A  
HETATM   22  H2  UNL     1     -10.588   4.332  67.035  1.00  0.00     0.000 HD 
ENDBRANCH  11  14
ENDBRANCH   9  11
ENDBRANCH   6   9
ENDBRANCH   2   3
TORSDOF 4
ENDMDL
MODEL      127
REMARK 921   NORMALIZED FREE ENERGY PREDICTED BY IDOCK:   -4.15 KCAL/MOL
REMARK 922        TOTAL FREE ENERGY PREDICTED BY IDOCK:   -5.48 KCAL/MOL
REMARK 923 INTER-LIGAND FREE ENERGY PREDICTED BY IDOCK:   -5.33 KCAL/MOL
REMARK 924 INTRA-LIGAND FREE ENERGY PREDICTED BY IDOCK:   -0.15 KCAL/MOL
REMARK 927      BINDING AFFINITY PREDICTED BY RF-SCORE:    0.00 PKD
ROOT
HETATM    1  C   UNL     1      -9.680   8.617  72.078  1.00  0.00    -0.321 C  
HETATM    2  O   UNL     1      -8.814   9.337  71.207  1.00  0.00    -0.290 OA 
ENDROOT
BRANCH   2   3
HETATM    3  C   UNL     1      -9.063   9.206  69.878  1.00  0.00    -0.178 A  
HETATM    4  C   UNL     1     -10.124   9.917  69.354  1.00  0.00    -0.212 A  
HETATM    5  N   UNL     1     -10.466   9.917  68.049  1.00  0.00    -0.208 NA 
HETATM    6  C   UNL     1      -9.702   9.167  67.256  1.00  0.00    -0.173 A  
HETATM    7  C   UNL     1      -8.349   8.476  68.949  1.00  0.00    -0.118 A  
HETATM    8  N   UNL     1      -8.659   8.418  67.630  1.00  0.00    -0.129 NA 
BRANCH   6   9
HETATM    9  N   UNL     1     -10.070   9.111  65.920  1.00  0.00    -0.387 N  
HETATM   10  H   UNL     1     -10.819   8.502  65.593  1.00  0.00     0.000 HD 
BRANCH   9  11
HETATM   11  S   UNL     1      -9.218  10.095  64.880  1.00  0.00    -0.256 S  
HETATM   12  O   UNL     1      -9.174   9.505  63.558  1.00  0.00    -0.197 OA 
HETATM   13  O   UNL     1      -7.990  10.446  65.567  1.00  0.00    -0.147 OA 
BRANCH  11  14
HETATM   14  C   UNL     1     -10.179  11.593  64.755  1.00  0.00    -0.275 A  
HETATM   15  C   UNL     1     -10.978  11.814  63.631  1.00  0.00    -0.513 A  
HETATM   16  C   UNL     1     -11.753  12.976  63.552  1.00  0.00    -0.532 A  
HETATM   17  C   UNL     1     -11.709  13.936  64.569  1.00  0.00    -0.410 A  
HETATM   18  N   UNL     1     -12.555  15.050  64.523  1.00  0.00    -0.412 NA 
HETATM   19  C   UNL     1     -10.990  13.647  65.733  1.00  0.00    -0.281 A  
HETATM   20  H1  UNL     1     -12.524  15.750  65.264  1.00  0.00     0.000 HD 
HETATM   21  C   UNL     1     -10.217  12.486  65.829  1.00  0.00    -0.289 A  
HETATM   22  H2  UNL     1     -13.516  14.719  64.433  1.00  0.00     0.000 HD 
ENDBRANCH  11  14
ENDBRANCH   9  11
ENDBRANCH   6   9
ENDBRANCH   2   3
TORSDOF 4
ENDMDL
MODEL      128
REMARK 921   NORMALIZED FREE ENERGY PREDICTED BY IDOCK:   -4.14 KCAL/MOL
REMARK 922        TOTAL FREE ENERGY PREDICTED BY IDOCK:   -5.46 KCAL/MOL
REMARK 923 INTER-LIGAND FREE ENERGY PREDICTED BY IDOCK:   -5.38 KCAL/MOL
REMARK 924 INTRA-LIGAND FREE ENERGY PREDICTED BY IDOCK:   -0.08 KCAL/MOL
REMARK 927      BINDING AFFINITY PREDICTED BY RF-SCORE:    0.00 PKD
ROOT
HETATM    1  C   UNL     1     -11.792  12.003  64.117  1.00  0.00    -0.373 C  
HETATM    2  O   UNL     1     -12.679  13.012  64.587  1.00  0.00    -0.658 OA 
ENDROOT
BRANCH   2   3
HETATM    3  C   UNL     1     -12.096  14.102  65.151  1.00  0.00    -0.414 A  
HETATM    4  C   UNL     1     -11.989  14.130  66.526  1.00  0.00    -0.442 A  
HETATM    5  N   UNL     1     -11.402  15.125  67.221  1.00  0.00    -0.330 NA 
HETATM    6  C   UNL     1     -10.909  16.123  66.489  1.00  0.00    -0.139 A  
HETATM    7  C   UNL     1     -11.539  15.192  64.512  1.00  0.00    -0.329 A  
HETATM    8  N   UNL     1     -10.956  16.232  65.157  1.00  0.00    -0.431 NA 
BRANCH   6   9
HETATM    9  N   UNL     1     -10.348  17.181  67.187  1.00  0.00    -0.309 N  
HETATM   10  H   UNL     1     -10.917  17.829  67.731  1.00  0.00     0.000 HD 
BRANCH   9  11
HETATM   11  S   UNL     1      -8.691  17.333  67.090  1.00  0.00    -0.224 S  
HETATM   12  O   UNL     1      -8.244  18.451  67.893  1.00  0.00    -0.251 OA 
HETATM   13  O   UNL     1      -8.361  17.266  65.679  1.00  0.00    -0.475 OA 
BRANCH  11  14
HETATM   14  C   UNL     1      -8.036  15.852  67.838  1.00  0.00    -0.141 A  
HETATM   15  C   UNL     1      -7.886  15.783  69.225  1.00  0.00    -0.233 A  
HETATM   16  C   UNL     1      -7.401  14.609  69.810  1.00  0.00    -0.014 A  
HETATM   17  C   UNL     1      -7.031  13.516  69.019  1.00  0.00    -0.091 A  
HETATM   18  N   UNL     1      -6.633  12.315  69.619  1.00  0.00    -0.310 NA 
HETATM   19  C   UNL     1      -7.290  13.563  67.646  1.00  0.00    -0.180 A  
HETATM   20  H1  UNL     1      -6.363  11.518  69.043  1.00  0.00     0.000 HD 
HETATM   21  C   UNL     1      -7.783  14.728  67.049  1.00  0.00    -0.038 A  
HETATM   22  H2  UNL     1      -7.370  12.016  70.258  1.00  0.00     0.000 HD 
ENDBRANCH  11  14
ENDBRANCH   9  11
ENDBRANCH   6   9
ENDBRANCH   2   3
TORSDOF 4
ENDMDL
MODEL      129
REMARK 921   NORMALIZED FREE ENERGY PREDICTED BY IDOCK:   -4.14 KCAL/MOL
REMARK 922        TOTAL FREE ENERGY PREDICTED BY IDOCK:   -5.45 KCAL/MOL
REMARK 923 INTER-LIGAND FREE ENERGY PREDICTED BY IDOCK:   -5.20 KCAL/MOL
REMARK 924 INTRA-LIGAND FREE ENERGY PREDICTED BY IDOCK:   -0.25 KCAL/MOL
REMARK 927      BINDING AFFINITY PREDICTED BY RF-SCORE:    0.00 PKD
ROOT
HETATM    1  C   UNL     1     -12.346  12.369  63.708  1.00  0.00    -0.528 C  
HETATM    2  O   UNL     1     -12.666  12.581  65.079  1.00  0.00    -0.649 OA 
ENDROOT
BRANCH   2   3
HETATM    3  C   UNL     1     -11.617  12.574  65.943  1.00  0.00    -0.405 A  
HETATM    4  C   UNL     1     -11.889  12.340  67.276  1.00  0.00    -0.260 A  
HETATM    5  N   UNL     1     -10.949  12.266  68.239  1.00  0.00    -0.218 NA 
HETATM    6  C   UNL     1      -9.693  12.437  67.830  1.00  0.00    -0.204 A  
HETATM    7  C   UNL     1     -10.277  12.726  65.651  1.00  0.00    -0.279 A  
HETATM    8  N   UNL     1      -9.289  12.685  66.579  1.00  0.00    -0.239 NA 
BRANCH   6   9
HETATM    9  N   UNL     1      -8.716  12.417  68.814  1.00  0.00    -0.376 N  
HETATM   10  H   UNL     1      -8.589  13.194  69.462  1.00  0.00     0.000 HD 
BRANCH   9  11
HETATM   11  S   UNL     1      -7.762  11.052  68.878  1.00  0.00    -0.132 S  
HETATM   12  O   UNL     1      -7.035  11.009  70.130  1.00  0.00    -0.159 OA 
HETATM   13  O   UNL     1      -7.052  10.993  67.615  1.00  0.00    -0.083 OA 
BRANCH  11  14
HETATM   14  C   UNL     1      -8.903   9.680  68.886  1.00  0.00    -0.136 A  
HETATM   15  C   UNL     1      -8.983   8.837  67.775  1.00  0.00    -0.140 A  
HETATM   16  C   UNL     1      -9.856   7.745  67.798  1.00  0.00    -0.200 A  
HETATM   17  C   UNL     1     -10.676   7.508  68.906  1.00  0.00    -0.115 A  
HETATM   18  N   UNL     1     -11.479   6.362  68.956  1.00  0.00    -0.591 NA 
HETATM   19  C   UNL     1     -10.503   8.295  70.049  1.00  0.00    -0.231 A  
HETATM   20  H1  UNL     1     -12.077   6.189  69.764  1.00  0.00     0.000 HD 
HETATM   21  C   UNL     1      -9.628   9.385  70.043  1.00  0.00    -0.256 A  
HETATM   22  H2  UNL     1     -10.884   5.546  68.816  1.00  0.00     0.000 HD 
ENDBRANCH  11  14
ENDBRANCH   9  11
ENDBRANCH   6   9
ENDBRANCH   2   3
TORSDOF 4
ENDMDL
MODEL      130
REMARK 921   NORMALIZED FREE ENERGY PREDICTED BY IDOCK:   -4.14 KCAL/MOL
REMARK 922        TOTAL FREE ENERGY PREDICTED BY IDOCK:   -5.45 KCAL/MOL
REMARK 923 INTER-LIGAND FREE ENERGY PREDICTED BY IDOCK:   -5.38 KCAL/MOL
REMARK 924 INTRA-LIGAND FREE ENERGY PREDICTED BY IDOCK:   -0.07 KCAL/MOL
REMARK 927      BINDING AFFINITY PREDICTED BY RF-SCORE:    0.00 PKD
ROOT
HETATM    1  C   UNL     1      -6.038  14.754  70.377  1.00  0.00    -0.160 C  
HETATM    2  O   UNL     1      -5.487  15.339  69.202  1.00  0.00    -0.094 OA 
ENDROOT
BRANCH   2   3
HETATM    3  C   UNL     1      -6.194  16.365  68.661  1.00  0.00    -0.130 A  
HETATM    4  C   UNL     1      -6.438  16.327  67.303  1.00  0.00    -0.188 A  
HETATM    5  N   UNL     1      -7.156  17.252  66.635  1.00  0.00    -0.216 NA 
HETATM    6  C   UNL     1      -7.639  18.248  67.376  1.00  0.00    -0.214 A  
HETATM    7  C   UNL     1      -6.757  17.445  69.312  1.00  0.00    -0.222 A  
HETATM    8  N   UNL     1      -7.468  18.418  68.692  1.00  0.00    -0.291 NA 
BRANCH   6   9
HETATM    9  N   UNL     1      -8.335  19.238  66.700  1.00  0.00    -0.291 N  
HETATM   10  H   UNL     1      -7.863  19.916  66.102  1.00  0.00     0.000 HD 
BRANCH   9  11
HETATM   11  S   UNL     1      -9.987  19.258  66.917  1.00  0.00    -0.388 S  
HETATM   12  O   UNL     1     -10.645  19.707  65.708  1.00  0.00    -0.522 OA 
HETATM   13  O   UNL     1     -10.222  19.939  68.176  1.00  0.00    -0.425 OA 
BRANCH  11  14
HETATM   14  C   UNL     1     -10.450  17.553  67.166  1.00  0.00    -0.312 A  
HETATM   15  C   UNL     1     -10.391  16.654  66.099  1.00  0.00    -0.340 A  
HETATM   16  C   UNL     1     -10.725  15.312  66.306  1.00  0.00    -0.315 A  
HETATM   17  C   UNL     1     -11.154  14.868  67.561  1.00  0.00    -0.317 A  
HETATM   18  N   UNL     1     -11.399  13.507  67.780  1.00  0.00    -0.281 NA 
HETATM   19  C   UNL     1     -11.102  15.755  68.641  1.00  0.00    -0.327 A  
HETATM   20  H1  UNL     1     -11.711  13.182  68.695  1.00  0.00     0.000 HD 
HETATM   21  C   UNL     1     -10.761  17.097  68.450  1.00  0.00    -0.347 A  
HETATM   22  H2  UNL     1     -10.562  12.984  67.522  1.00  0.00     0.000 HD 
ENDBRANCH  11  14
ENDBRANCH   9  11
ENDBRANCH   6   9
ENDBRANCH   2   3
TORSDOF 4
ENDMDL
MODEL      131
REMARK 921   NORMALIZED FREE ENERGY PREDICTED BY IDOCK:   -4.13 KCAL/MOL
REMARK 922        TOTAL FREE ENERGY PREDICTED BY IDOCK:   -5.45 KCAL/MOL
REMARK 923 INTER-LIGAND FREE ENERGY PREDICTED BY IDOCK:   -5.92 KCAL/MOL
REMARK 924 INTRA-LIGAND FREE ENERGY PREDICTED BY IDOCK:    0.47 KCAL/MOL
REMARK 927      BINDING AFFINITY PREDICTED BY RF-SCORE:    0.00 PKD
ROOT
HETATM    1  C   UNL     1      -9.562   8.734  69.187  1.00  0.00    -0.162 C  
HETATM    2  O   UNL     1     -10.279   9.938  69.435  1.00  0.00    -0.189 OA 
ENDROOT
BRANCH   2   3
HETATM    3  C   UNL     1     -10.645  10.651  68.338  1.00  0.00    -0.199 A  
HETATM    4  C   UNL     1      -9.717  10.789  67.327  1.00  0.00    -0.161 A  
HETATM    5  N   UNL     1      -9.950  11.433  66.165  1.00  0.00    -0.219 NA 
HETATM    6  C   UNL     1     -11.169  11.954  66.033  1.00  0.00    -0.324 A  
HETATM    7  C   UNL     1     -11.870  11.229  68.072  1.00  0.00    -0.170 A  
HETATM    8  N   UNL     1     -12.157  11.909  66.934  1.00  0.00    -0.505 NA 
BRANCH   6   9
HETATM    9  N   UNL     1     -11.412  12.666  64.869  1.00  0.00    -0.311 N  
HETATM   10  H   UNL     1     -11.091  12.336  63.959  1.00  0.00     0.000 HD 
BRANCH   9  11
HETATM   11  S   UNL     1     -12.259  14.091  65.039  1.00  0.00    -0.444 S  
HETATM   12  O   UNL     1     -13.477  13.862  65.788  1.00  0.00    -0.464 OA 
HETATM   13  O   UNL     1     -12.312  14.691  63.720  1.00  0.00    -0.720 OA 
BRANCH  11  14
HETATM   14  C   UNL     1     -11.218  15.142  66.036  1.00  0.00    -0.275 A  
HETATM   15  C   UNL     1     -11.200  14.985  67.424  1.00  0.00    -0.337 A  
HETATM   16  C   UNL     1     -10.359  15.790  68.199  1.00  0.00    -0.242 A  
HETATM   17  C   UNL     1      -9.563  16.775  67.604  1.00  0.00    -0.244 A  
HETATM   18  N   UNL     1      -8.659  17.513  68.378  1.00  0.00    -0.269 NA 
HETATM   19  C   UNL     1      -9.512  16.842  66.208  1.00  0.00    -0.298 A  
HETATM   20  H1  UNL     1      -8.079  18.230  67.944  1.00  0.00     0.000 HD 
HETATM   21  C   UNL     1     -10.341  16.038  65.421  1.00  0.00    -0.386 A  
HETATM   22  H2  UNL     1      -8.050  16.860  68.869  1.00  0.00     0.000 HD 
ENDBRANCH  11  14
ENDBRANCH   9  11
ENDBRANCH   6   9
ENDBRANCH   2   3
TORSDOF 4
ENDMDL
MODEL      132
REMARK 921   NORMALIZED FREE ENERGY PREDICTED BY IDOCK:   -4.13 KCAL/MOL
REMARK 922        TOTAL FREE ENERGY PREDICTED BY IDOCK:   -5.45 KCAL/MOL
REMARK 923 INTER-LIGAND FREE ENERGY PREDICTED BY IDOCK:   -5.05 KCAL/MOL
REMARK 924 INTRA-LIGAND FREE ENERGY PREDICTED BY IDOCK:   -0.40 KCAL/MOL
REMARK 927      BINDING AFFINITY PREDICTED BY RF-SCORE:    0.00 PKD
ROOT
HETATM    1  C   UNL     1     -14.126  15.297  72.255  1.00  0.00    -0.554 C  
HETATM    2  O   UNL     1     -12.774  14.878  72.102  1.00  0.00    -0.300 OA 
ENDROOT
BRANCH   2   3
HETATM    3  C   UNL     1     -12.440  14.378  70.883  1.00  0.00    -0.354 A  
HETATM    4  C   UNL     1     -12.370  13.007  70.752  1.00  0.00    -0.310 A  
HETATM    5  N   UNL     1     -12.090  12.368  69.598  1.00  0.00    -0.249 NA 
HETATM    6  C   UNL     1     -11.873  13.155  68.545  1.00  0.00    -0.342 A  
HETATM    7  C   UNL     1     -12.203  15.077  69.717  1.00  0.00    -0.285 A  
HETATM    8  N   UNL     1     -11.893  14.493  68.533  1.00  0.00    -0.330 NA 
BRANCH   6   9
HETATM    9  N   UNL     1     -11.531  12.521  67.361  1.00  0.00    -0.319 N  
HETATM   10  H   UNL     1     -12.231  12.270  66.663  1.00  0.00     0.000 HD 
BRANCH   9  11
HETATM   11  S   UNL     1      -9.912  12.192  67.142  1.00  0.00    -0.201 S  
HETATM   12  O   UNL     1      -9.111  13.006  68.032  1.00  0.00    -0.196 OA 
HETATM   13  O   UNL     1      -9.682  12.226  65.711  1.00  0.00    -0.247 OA 
BRANCH  11  14
HETATM   14  C   UNL     1      -9.703  10.495  67.652  1.00  0.00    -0.165 A  
HETATM   15  C   UNL     1      -8.986  10.202  68.814  1.00  0.00    -0.147 A  
HETATM   16  C   UNL     1      -8.851   8.873  69.226  1.00  0.00    -0.139 A  
HETATM   17  C   UNL     1      -9.395   7.830  68.469  1.00  0.00    -0.147 A  
HETATM   18  N   UNL     1      -9.332   6.512  68.937  1.00  0.00    -0.132 NA 
HETATM   19  C   UNL     1     -10.200   8.148  67.371  1.00  0.00    -0.327 A  
HETATM   20  H1  UNL     1      -9.729   5.752  68.385  1.00  0.00     0.000 HD 
HETATM   21  C   UNL     1     -10.351   9.474  66.953  1.00  0.00    -0.307 A  
HETATM   22  H2  UNL     1      -9.745   6.483  69.869  1.00  0.00     0.000 HD 
ENDBRANCH  11  14
ENDBRANCH   9  11
ENDBRANCH   6   9
ENDBRANCH   2   3
TORSDOF 4
ENDMDL
MODEL      133
REMARK 921   NORMALIZED FREE ENERGY PREDICTED BY IDOCK:   -4.10 KCAL/MOL
REMARK 922        TOTAL FREE ENERGY PREDICTED BY IDOCK:   -5.41 KCAL/MOL
REMARK 923 INTER-LIGAND FREE ENERGY PREDICTED BY IDOCK:   -5.04 KCAL/MOL
REMARK 924 INTRA-LIGAND FREE ENERGY PREDICTED BY IDOCK:   -0.37 KCAL/MOL
REMARK 927      BINDING AFFINITY PREDICTED BY RF-SCORE:    0.00 PKD
ROOT
HETATM    1  C   UNL     1      -5.872   9.561  67.896  1.00  0.00    -0.041 C  
HETATM    2  O   UNL     1      -7.245   9.615  67.529  1.00  0.00    -0.088 OA 
ENDROOT
BRANCH   2   3
HETATM    3  C   UNL     1      -7.872  10.802  67.742  1.00  0.00    -0.109 A  
HETATM    4  C   UNL     1      -7.115  11.951  67.645  1.00  0.00    -0.112 A  
HETATM    5  N   UNL     1      -7.606  13.198  67.791  1.00  0.00    -0.139 NA 
HETATM    6  C   UNL     1      -8.912  13.274  68.046  1.00  0.00    -0.191 A  
HETATM    7  C   UNL     1      -9.211  11.020  68.001  1.00  0.00    -0.159 A  
HETATM    8  N   UNL     1      -9.758  12.247  68.181  1.00  0.00    -0.209 NA 
BRANCH   6   9
HETATM    9  N   UNL     1      -9.427  14.544  68.253  1.00  0.00    -0.201 N  
HETATM   10  H   UNL     1      -9.195  15.090  69.082  1.00  0.00     0.000 HD 
BRANCH   9  11
HETATM   11  S   UNL     1     -10.445  15.129  67.070  1.00  0.00    -0.287 S  
HETATM   12  O   UNL     1     -11.821  14.820  67.398  1.00  0.00    -0.377 OA 
HETATM   13  O   UNL     1      -9.880  14.705  65.804  1.00  0.00    -0.317 OA 
BRANCH  11  14
HETATM   14  C   UNL     1     -10.274  16.904  67.136  1.00  0.00    -0.297 A  
HETATM   15  C   UNL     1      -9.811  17.513  68.305  1.00  0.00    -0.319 A  
HETATM   16  C   UNL     1      -9.649  18.902  68.342  1.00  0.00    -0.420 A  
HETATM   17  C   UNL     1      -9.980  19.690  67.234  1.00  0.00    -0.395 A  
HETATM   18  N   UNL     1      -9.730  21.068  67.250  1.00  0.00    -0.590 NA 
HETATM   19  C   UNL     1     -10.337  19.055  66.041  1.00  0.00    -0.512 A  
HETATM   20  H1  UNL     1      -9.970  21.643  66.443  1.00  0.00     0.000 HD 
HETATM   21  C   UNL     1     -10.494  17.667  65.987  1.00  0.00    -0.278 A  
HETATM   22  H2  UNL     1      -8.743  21.212  67.465  1.00  0.00     0.000 HD 
ENDBRANCH  11  14
ENDBRANCH   9  11
ENDBRANCH   6   9
ENDBRANCH   2   3
TORSDOF 4
ENDMDL
MODEL      134
REMARK 921   NORMALIZED FREE ENERGY PREDICTED BY IDOCK:   -4.10 KCAL/MOL
REMARK 922        TOTAL FREE ENERGY PREDICTED BY IDOCK:   -5.41 KCAL/MOL
REMARK 923 INTER-LIGAND FREE ENERGY PREDICTED BY IDOCK:   -5.20 KCAL/MOL
REMARK 924 INTRA-LIGAND FREE ENERGY PREDICTED BY IDOCK:   -0.20 KCAL/MOL
REMARK 927      BINDING AFFINITY PREDICTED BY RF-SCORE:    0.00 PKD
ROOT
HETATM    1  C   UNL     1     -12.810   6.979  71.629  1.00  0.00    -0.364 C  
HETATM    2  O   UNL     1     -12.806   8.280  72.205  1.00  0.00    -0.331 OA 
ENDROOT
BRANCH   2   3
HETATM    3  C   UNL     1     -12.283   9.271  71.434  1.00  0.00    -0.349 A  
HETATM    4  C   UNL     1     -10.990   9.112  70.980  1.00  0.00    -0.305 A  
HETATM    5  N   UNL     1     -10.355   9.990  70.177  1.00  0.00    -0.274 NA 
HETATM    6  C   UNL     1     -11.062  11.064  69.829  1.00  0.00    -0.235 A  
HETATM    7  C   UNL     1     -12.906  10.421  70.995  1.00  0.00    -0.401 A  
HETATM    8  N   UNL     1     -12.312  11.352  70.207  1.00  0.00    -0.311 NA 
BRANCH   6   9
HETATM    9  N   UNL     1     -10.409  12.005  69.048  1.00  0.00    -0.420 N  
HETATM   10  H   UNL     1      -9.868  12.765  69.460  1.00  0.00     0.000 HD 
BRANCH   9  11
HETATM   11  S   UNL     1     -10.559  11.825  67.398  1.00  0.00    -0.233 S  
HETATM   12  O   UNL     1      -9.880  12.906  66.714  1.00  0.00    -0.229 OA 
HETATM   13  O   UNL     1     -11.962  11.564  67.144  1.00  0.00    -0.581 OA 
BRANCH  11  14
HETATM   14  C   UNL     1      -9.681  10.322  67.006  1.00  0.00    -0.176 A  
HETATM   15  C   UNL     1     -10.392   9.140  66.787  1.00  0.00    -0.308 A  
HETATM   16  C   UNL     1      -9.702   7.971  66.449  1.00  0.00    -0.255 A  
HETATM   17  C   UNL     1      -8.306   7.964  66.365  1.00  0.00    -0.129 A  
HETATM   18  N   UNL     1      -7.632   6.813  65.940  1.00  0.00    -0.084 NA 
HETATM   19  C   UNL     1      -7.621   9.177  66.481  1.00  0.00    -0.093 A  
HETATM   20  H1  UNL     1      -6.614   6.807  65.878  1.00  0.00     0.000 HD 
HETATM   21  C   UNL     1      -8.299  10.355  66.809  1.00  0.00    -0.126 A  
HETATM   22  H2  UNL     1      -8.010   6.536  65.034  1.00  0.00     0.000 HD 
ENDBRANCH  11  14
ENDBRANCH   9  11
ENDBRANCH   6   9
ENDBRANCH   2   3
TORSDOF 4
ENDMDL
MODEL      135
REMARK 921   NORMALIZED FREE ENERGY PREDICTED BY IDOCK:   -4.06 KCAL/MOL
REMARK 922        TOTAL FREE ENERGY PREDICTED BY IDOCK:   -5.36 KCAL/MOL
REMARK 923 INTER-LIGAND FREE ENERGY PREDICTED BY IDOCK:   -5.42 KCAL/MOL
REMARK 924 INTRA-LIGAND FREE ENERGY PREDICTED BY IDOCK:    0.05 KCAL/MOL
REMARK 927      BINDING AFFINITY PREDICTED BY RF-SCORE:    0.00 PKD
ROOT
HETATM    1  C   UNL     1      -7.858  11.507  67.659  1.00  0.00    -0.125 C  
HETATM    2  O   UNL     1      -9.196  11.808  68.041  1.00  0.00    -0.168 OA 
ENDROOT
BRANCH   2   3
HETATM    3  C   UNL     1      -9.598  13.091  67.841  1.00  0.00    -0.215 A  
HETATM    4  C   UNL     1      -8.859  14.092  68.436  1.00  0.00    -0.187 A  
HETATM    5  N   UNL     1      -9.114  15.409  68.296  1.00  0.00    -0.184 NA 
HETATM    6  C   UNL     1     -10.157  15.712  67.524  1.00  0.00    -0.253 A  
HETATM    7  C   UNL     1     -10.646  13.539  67.062  1.00  0.00    -0.269 A  
HETATM    8  N   UNL     1     -10.966  14.847  66.902  1.00  0.00    -0.321 NA 
BRANCH   6   9
HETATM    9  N   UNL     1     -10.469  17.058  67.410  1.00  0.00    -0.329 N  
HETATM   10  H   UNL     1     -11.222  17.484  67.950  1.00  0.00     0.000 HD 
BRANCH   9  11
HETATM   11  S   UNL     1      -9.544  17.941  66.341  1.00  0.00    -0.258 S  
HETATM   12  O   UNL     1     -10.354  18.956  65.700  1.00  0.00    -0.545 OA 
HETATM   13  O   UNL     1      -8.814  16.975  65.543  1.00  0.00    -0.319 OA 
BRANCH  11  14
HETATM   14  C   UNL     1      -8.339  18.787  67.347  1.00  0.00    -0.264 A  
HETATM   15  C   UNL     1      -7.882  20.051  66.968  1.00  0.00    -0.345 A  
HETATM   16  C   UNL     1      -6.960  20.724  67.777  1.00  0.00    -0.339 A  
HETATM   17  C   UNL     1      -6.462  20.129  68.941  1.00  0.00    -0.311 A  
HETATM   18  N   UNL     1      -5.610  20.846  69.789  1.00  0.00    -0.453 NA 
HETATM   19  C   UNL     1      -7.011  18.913  69.360  1.00  0.00    -0.210 A  
HETATM   20  H1  UNL     1      -5.247  20.413  70.638  1.00  0.00     0.000 HD 
HETATM   21  C   UNL     1      -7.940  18.234  68.567  1.00  0.00    -0.324 A  
HETATM   22  H2  UNL     1      -6.072  21.719  70.045  1.00  0.00     0.000 HD 
ENDBRANCH  11  14
ENDBRANCH   9  11
ENDBRANCH   6   9
ENDBRANCH   2   3
TORSDOF 4
ENDMDL
MODEL      136
REMARK 921   NORMALIZED FREE ENERGY PREDICTED BY IDOCK:   -4.06 KCAL/MOL
REMARK 922        TOTAL FREE ENERGY PREDICTED BY IDOCK:   -5.35 KCAL/MOL
REMARK 923 INTER-LIGAND FREE ENERGY PREDICTED BY IDOCK:   -5.02 KCAL/MOL
REMARK 924 INTRA-LIGAND FREE ENERGY PREDICTED BY IDOCK:   -0.34 KCAL/MOL
REMARK 927      BINDING AFFINITY PREDICTED BY RF-SCORE:    0.00 PKD
ROOT
HETATM    1  C   UNL     1     -10.646  19.095  66.342  1.00  0.00    -0.435 C  
HETATM    2  O   UNL     1     -10.524  18.826  67.734  1.00  0.00    -0.398 OA 
ENDROOT
BRANCH   2   3
HETATM    3  C   UNL     1     -10.262  17.536  68.070  1.00  0.00    -0.354 A  
HETATM    4  C   UNL     1     -11.101  16.562  67.569  1.00  0.00    -0.078 A  
HETATM    5  N   UNL     1     -10.942  15.240  67.785  1.00  0.00    -0.303 NA 
HETATM    6  C   UNL     1      -9.896  14.903  68.537  1.00  0.00    -0.217 A  
HETATM    7  C   UNL     1      -9.213  17.053  68.827  1.00  0.00    -0.252 A  
HETATM    8  N   UNL     1      -9.015  15.739  69.098  1.00  0.00    -0.242 NA 
BRANCH   6   9
HETATM    9  N   UNL     1      -9.746  13.553  68.815  1.00  0.00    -0.411 N  
HETATM   10  H   UNL     1     -10.320  13.080  69.512  1.00  0.00     0.000 HD 
BRANCH   9  11
HETATM   11  S   UNL     1      -8.575  12.747  67.946  1.00  0.00    -0.192 S  
HETATM   12  O   UNL     1      -7.386  12.570  68.753  1.00  0.00    -0.108 OA 
HETATM   13  O   UNL     1      -8.495  13.412  66.660  1.00  0.00    -0.034 OA 
BRANCH  11  14
HETATM   14  C   UNL     1      -9.249  11.124  67.639  1.00  0.00    -0.151 A  
HETATM   15  C   UNL     1      -9.947  10.460  68.650  1.00  0.00    -0.186 A  
HETATM   16  C   UNL     1     -10.500   9.201  68.396  1.00  0.00    -0.241 A  
HETATM   17  C   UNL     1     -10.331   8.583  67.152  1.00  0.00    -0.307 A  
HETATM   18  N   UNL     1     -10.965   7.365  66.878  1.00  0.00    -0.572 NA 
HETATM   19  C   UNL     1      -9.726   9.308  66.121  1.00  0.00    -0.349 A  
HETATM   20  H1  UNL     1     -10.842   6.915  65.972  1.00  0.00     0.000 HD 
HETATM   21  C   UNL     1      -9.176  10.571  66.359  1.00  0.00    -0.190 A  
HETATM   22  H2  UNL     1     -11.964   7.477  67.049  1.00  0.00     0.000 HD 
ENDBRANCH  11  14
ENDBRANCH   9  11
ENDBRANCH   6   9
ENDBRANCH   2   3
TORSDOF 4
ENDMDL
MODEL      137
REMARK 921   NORMALIZED FREE ENERGY PREDICTED BY IDOCK:   -4.05 KCAL/MOL
REMARK 922        TOTAL FREE ENERGY PREDICTED BY IDOCK:   -5.35 KCAL/MOL
REMARK 923 INTER-LIGAND FREE ENERGY PREDICTED BY IDOCK:   -4.99 KCAL/MOL
REMARK 924 INTRA-LIGAND FREE ENERGY PREDICTED BY IDOCK:   -0.36 KCAL/MOL
REMARK 927      BINDING AFFINITY PREDICTED BY RF-SCORE:    0.00 PKD
ROOT
HETATM    1  C   UNL     1     -10.162  20.158  66.143  1.00  0.00    -0.402 C  
HETATM    2  O   UNL     1      -9.726  19.328  67.214  1.00  0.00    -0.312 OA 
ENDROOT
BRANCH   2   3
HETATM    3  C   UNL     1      -9.636  18.000  66.940  1.00  0.00    -0.295 A  
HETATM    4  C   UNL     1      -8.394  17.498  66.612  1.00  0.00    -0.261 A  
HETATM    5  N   UNL     1      -8.145  16.198  66.354  1.00  0.00    -0.297 NA 
HETATM    6  C   UNL     1      -9.199  15.386  66.433  1.00  0.00    -0.305 A  
HETATM    7  C   UNL     1     -10.640  17.054  66.994  1.00  0.00    -0.226 A  
HETATM    8  N   UNL     1     -10.456  15.738  66.723  1.00  0.00    -0.301 NA 
BRANCH   6   9
HETATM    9  N   UNL     1      -8.975  14.054  66.119  1.00  0.00    -0.461 N  
HETATM   10  H   UNL     1      -9.220  13.667  65.208  1.00  0.00     0.000 HD 
BRANCH   9  11
HETATM   11  S   UNL     1      -8.285  13.121  67.315  1.00  0.00    -0.135 S  
HETATM   12  O   UNL     1      -8.747  13.555  68.617  1.00  0.00    -0.119 OA 
HETATM   13  O   UNL     1      -6.866  13.070  67.020  1.00  0.00    -0.058 OA 
BRANCH  11  14
HETATM   14  C   UNL     1      -8.920  11.474  67.053  1.00  0.00    -0.174 A  
HETATM   15  C   UNL     1      -9.314  11.078  65.774  1.00  0.00    -0.236 A  
HETATM   16  C   UNL     1      -9.782   9.776  65.568  1.00  0.00    -0.382 A  
HETATM   17  C   UNL     1      -9.894   8.879  66.635  1.00  0.00    -0.262 A  
HETATM   18  N   UNL     1     -10.278   7.553  66.403  1.00  0.00    -0.483 NA 
HETATM   19  C   UNL     1      -9.393   9.257  67.884  1.00  0.00    -0.143 A  
HETATM   20  H1  UNL     1     -10.359   6.898  67.181  1.00  0.00     0.000 HD 
HETATM   21  C   UNL     1      -8.914  10.552  68.102  1.00  0.00    -0.138 A  
HETATM   22  H2  UNL     1      -9.645   7.152  65.710  1.00  0.00     0.000 HD 
ENDBRANCH  11  14
ENDBRANCH   9  11
ENDBRANCH   6   9
ENDBRANCH   2   3
TORSDOF 4
ENDMDL
MODEL      138
REMARK 921   NORMALIZED FREE ENERGY PREDICTED BY IDOCK:   -4.05 KCAL/MOL
REMARK 922        TOTAL FREE ENERGY PREDICTED BY IDOCK:   -5.34 KCAL/MOL
REMARK 923 INTER-LIGAND FREE ENERGY PREDICTED BY IDOCK:   -4.99 KCAL/MOL
REMARK 924 INTRA-LIGAND FREE ENERGY PREDICTED BY IDOCK:   -0.35 KCAL/MOL
REMARK 927      BINDING AFFINITY PREDICTED BY RF-SCORE:    0.00 PKD
ROOT
HETATM    1  C   UNL     1      -7.435   8.320  62.659  1.00  0.00    -0.104 C  
HETATM    2  O   UNL     1      -7.333   7.825  63.989  1.00  0.00    -0.085 OA 
ENDROOT
BRANCH   2   3
HETATM    3  C   UNL     1      -8.309   8.220  64.848  1.00  0.00    -0.135 A  
HETATM    4  C   UNL     1      -8.649   7.357  65.870  1.00  0.00    -0.153 A  
HETATM    5  N   UNL     1      -9.569   7.629  66.818  1.00  0.00    -0.195 NA 
HETATM    6  C   UNL     1     -10.161   8.818  66.719  1.00  0.00    -0.288 A  
HETATM    7  C   UNL     1      -8.990   9.421  64.864  1.00  0.00    -0.209 A  
HETATM    8  N   UNL     1      -9.941   9.741  65.776  1.00  0.00    -0.292 NA 
BRANCH   6   9
HETATM    9  N   UNL     1     -11.147   9.096  67.652  1.00  0.00    -0.441 N  
HETATM   10  H   UNL     1     -12.136   8.956  67.447  1.00  0.00     0.000 HD 
BRANCH   9  11
HETATM   11  S   UNL     1     -10.626   9.670  69.127  1.00  0.00    -0.219 S  
HETATM   12  O   UNL     1      -9.179   9.701  69.169  1.00  0.00    -0.153 OA 
HETATM   13  O   UNL     1     -11.373   8.939  70.133  1.00  0.00    -0.217 OA 
BRANCH  11  14
HETATM   14  C   UNL     1     -11.191  11.360  69.201  1.00  0.00    -0.272 A  
HETATM   15  C   UNL     1     -11.894  11.809  70.322  1.00  0.00    -0.382 A  
HETATM   16  C   UNL     1     -12.308  13.143  70.389  1.00  0.00    -0.351 A  
HETATM   17  C   UNL     1     -12.059  14.024  69.331  1.00  0.00    -0.340 A  
HETATM   18  N   UNL     1     -12.398  15.377  69.446  1.00  0.00    -0.592 NA 
HETATM   19  C   UNL     1     -11.262  13.587  68.269  1.00  0.00    -0.305 A  
HETATM   20  H1  UNL     1     -12.216  16.020  68.675  1.00  0.00     0.000 HD 
HETATM   21  C   UNL     1     -10.833  12.258  68.193  1.00  0.00    -0.258 A  
HETATM   22  H2  UNL     1     -11.953  15.749  70.286  1.00  0.00     0.000 HD 
ENDBRANCH  11  14
ENDBRANCH   9  11
ENDBRANCH   6   9
ENDBRANCH   2   3
TORSDOF 4
ENDMDL
MODEL      139
REMARK 921   NORMALIZED FREE ENERGY PREDICTED BY IDOCK:   -4.05 KCAL/MOL
REMARK 922        TOTAL FREE ENERGY PREDICTED BY IDOCK:   -5.34 KCAL/MOL
REMARK 923 INTER-LIGAND FREE ENERGY PREDICTED BY IDOCK:   -5.15 KCAL/MOL
REMARK 924 INTRA-LIGAND FREE ENERGY PREDICTED BY IDOCK:   -0.19 KCAL/MOL
REMARK 927      BINDING AFFINITY PREDICTED BY RF-SCORE:    0.00 PKD
ROOT
HETATM    1  C   UNL     1     -13.472  11.066  71.906  1.00  0.00    -0.195 C  
HETATM    2  O   UNL     1     -12.302  10.509  71.317  1.00  0.00    -0.355 OA 
ENDROOT
BRANCH   2   3
HETATM    3  C   UNL     1     -11.787  11.188  70.259  1.00  0.00    -0.366 A  
HETATM    4  C   UNL     1     -10.806  10.564  69.516  1.00  0.00    -0.256 A  
HETATM    5  N   UNL     1     -10.231  11.097  68.419  1.00  0.00    -0.181 NA 
HETATM    6  C   UNL     1     -10.670  12.306  68.071  1.00  0.00    -0.218 A  
HETATM    7  C   UNL     1     -12.157  12.431  69.788  1.00  0.00    -0.223 A  
HETATM    8  N   UNL     1     -11.599  13.029  68.706  1.00  0.00    -0.288 NA 
BRANCH   6   9
HETATM    9  N   UNL     1     -10.055  12.894  66.977  1.00  0.00    -0.242 N  
HETATM   10  H   UNL     1      -9.193  13.431  67.069  1.00  0.00     0.000 HD 
BRANCH   9  11
HETATM   11  S   UNL     1     -10.803  12.676  65.504  1.00  0.00    -0.287 S  
HETATM   12  O   UNL     1     -10.762  13.902  64.736  1.00  0.00    -0.382 OA 
HETATM   13  O   UNL     1     -12.069  12.028  65.785  1.00  0.00    -0.536 OA 
BRANCH  11  14
HETATM   14  C   UNL     1      -9.800  11.480  64.639  1.00  0.00    -0.246 A  
HETATM   15  C   UNL     1      -8.952  10.634  65.359  1.00  0.00    -0.208 A  
HETATM   16  C   UNL     1      -8.191   9.678  64.679  1.00  0.00    -0.149 A  
HETATM   17  C   UNL     1      -8.241   9.583  63.284  1.00  0.00    -0.162 A  
HETATM   18  N   UNL     1      -7.545   8.564  62.622  1.00  0.00    -0.108 NA 
HETATM   19  C   UNL     1      -9.174  10.361  62.592  1.00  0.00    -0.322 A  
HETATM   20  H1  UNL     1      -7.582   8.495  61.606  1.00  0.00     0.000 HD 
HETATM   21  C   UNL     1      -9.948  11.315  63.260  1.00  0.00    -0.428 A  
HETATM   22  H2  UNL     1      -7.835   7.669  63.017  1.00  0.00     0.000 HD 
ENDBRANCH  11  14
ENDBRANCH   9  11
ENDBRANCH   6   9
ENDBRANCH   2   3
TORSDOF 4
ENDMDL
MODEL      140
REMARK 921   NORMALIZED FREE ENERGY PREDICTED BY IDOCK:   -4.03 KCAL/MOL
REMARK 922        TOTAL FREE ENERGY PREDICTED BY IDOCK:   -5.32 KCAL/MOL
REMARK 923 INTER-LIGAND FREE ENERGY PREDICTED BY IDOCK:   -5.14 KCAL/MOL
REMARK 924 INTRA-LIGAND FREE ENERGY PREDICTED BY IDOCK:   -0.19 KCAL/MOL
REMARK 927      BINDING AFFINITY PREDICTED BY RF-SCORE:    0.00 PKD
ROOT
HETATM    1  C   UNL     1      -8.378   2.475  63.783  1.00  0.00    -0.082 C  
HETATM    2  O   UNL     1      -7.762   3.628  64.347  1.00  0.00    -0.078 OA 
ENDROOT
BRANCH   2   3
HETATM    3  C   UNL     1      -8.374   4.156  65.439  1.00  0.00    -0.109 A  
HETATM    4  C   UNL     1      -9.655   4.644  65.279  1.00  0.00    -0.151 A  
HETATM    5  N   UNL     1     -10.400   5.160  66.278  1.00  0.00    -0.260 NA 
HETATM    6  C   UNL     1      -9.818   5.181  67.476  1.00  0.00    -0.162 A  
HETATM    7  C   UNL     1      -7.892   4.228  66.731  1.00  0.00    -0.097 A  
HETATM    8  N   UNL     1      -8.584   4.758  67.770  1.00  0.00    -0.103 NA 
BRANCH   6   9
HETATM    9  N   UNL     1     -10.547   5.756  68.506  1.00  0.00    -0.232 N  
HETATM   10  H   UNL     1     -11.286   5.248  68.991  1.00  0.00     0.000 HD 
BRANCH   9  11
HETATM   11  S   UNL     1     -10.147   7.323  68.906  1.00  0.00    -0.185 S  
HETATM   12  O   UNL     1     -10.411   8.207  67.790  1.00  0.00    -0.214 OA 
HETATM   13  O   UNL     1      -8.825   7.265  69.498  1.00  0.00    -0.137 OA 
BRANCH  11  14
HETATM   14  C   UNL     1     -11.272   7.778  70.214  1.00  0.00    -0.206 A  
HETATM   15  C   UNL     1     -11.380   9.115  70.603  1.00  0.00    -0.323 A  
HETATM   16  C   UNL     1     -12.286   9.470  71.607  1.00  0.00    -0.480 A  
HETATM   17  C   UNL     1     -13.058   8.498  72.252  1.00  0.00    -0.334 A  
HETATM   18  N   UNL     1     -14.025   8.875  73.191  1.00  0.00    -1.215 NA 
HETATM   19  C   UNL     1     -13.016   7.184  71.775  1.00  0.00    -0.367 A  
HETATM   20  H1  UNL     1     -14.589   8.166  73.661  1.00  0.00     0.000 HD 
HETATM   21  C   UNL     1     -12.122   6.816  70.765  1.00  0.00    -0.402 A  
HETATM   22  H2  UNL     1     -14.655   9.547  72.752  1.00  0.00     0.000 HD 
ENDBRANCH  11  14
ENDBRANCH   9  11
ENDBRANCH   6   9
ENDBRANCH   2   3
TORSDOF 4
ENDMDL
MODEL      141
REMARK 921   NORMALIZED FREE ENERGY PREDICTED BY IDOCK:   -4.02 KCAL/MOL
REMARK 922        TOTAL FREE ENERGY PREDICTED BY IDOCK:   -5.31 KCAL/MOL
REMARK 923 INTER-LIGAND FREE ENERGY PREDICTED BY IDOCK:   -5.02 KCAL/MOL
REMARK 924 INTRA-LIGAND FREE ENERGY PREDICTED BY IDOCK:   -0.29 KCAL/MOL
REMARK 927      BINDING AFFINITY PREDICTED BY RF-SCORE:    0.00 PKD
ROOT
HETATM    1  C   UNL     1      -9.746   8.570  66.209  1.00  0.00    -0.229 C  
HETATM    2  O   UNL     1      -9.334   9.098  67.465  1.00  0.00    -0.133 OA 
ENDROOT
BRANCH   2   3
HETATM    3  C   UNL     1      -9.099  10.436  67.500  1.00  0.00    -0.134 A  
HETATM    4  C   UNL     1      -9.943  11.252  66.776  1.00  0.00    -0.206 A  
HETATM    5  N   UNL     1      -9.857  12.597  66.747  1.00  0.00    -0.230 NA 
HETATM    6  C   UNL     1      -8.878  13.126  67.479  1.00  0.00    -0.199 A  
HETATM    7  C   UNL     1      -8.133  11.109  68.221  1.00  0.00    -0.131 A  
HETATM    8  N   UNL     1      -7.982  12.456  68.213  1.00  0.00    -0.154 NA 
BRANCH   6   9
HETATM    9  N   UNL     1      -8.739  14.503  67.421  1.00  0.00    -0.187 N  
HETATM   10  H   UNL     1      -8.483  14.983  66.558  1.00  0.00     0.000 HD 
BRANCH   9  11
HETATM   11  S   UNL     1      -9.013  15.333  68.839  1.00  0.00    -0.222 S  
HETATM   12  O   UNL     1      -7.839  15.280  69.685  1.00  0.00    -0.220 OA 
HETATM   13  O   UNL     1     -10.295  14.873  69.336  1.00  0.00    -0.235 OA 
BRANCH  11  14
HETATM   14  C   UNL     1      -9.235  17.036  68.355  1.00  0.00    -0.259 A  
HETATM   15  C   UNL     1      -8.152  17.917  68.401  1.00  0.00    -0.302 A  
HETATM   16  C   UNL     1      -8.323  19.243  67.991  1.00  0.00    -0.350 A  
HETATM   17  C   UNL     1      -9.574  19.706  67.569  1.00  0.00    -0.336 A  
HETATM   18  N   UNL     1      -9.714  21.009  67.076  1.00  0.00    -0.610 NA 
HETATM   19  C   UNL     1     -10.616  18.785  67.425  1.00  0.00    -0.505 A  
HETATM   20  H1  UNL     1     -10.625  21.346  66.768  1.00  0.00     0.000 HD 
HETATM   21  C   UNL     1     -10.457  17.454  67.823  1.00  0.00    -0.376 A  
HETATM   22  H2  UNL     1      -9.049  21.136  66.313  1.00  0.00     0.000 HD 
ENDBRANCH  11  14
ENDBRANCH   9  11
ENDBRANCH   6   9
ENDBRANCH   2   3
TORSDOF 4
ENDMDL
MODEL      142
REMARK 921   NORMALIZED FREE ENERGY PREDICTED BY IDOCK:   -4.02 KCAL/MOL
REMARK 922        TOTAL FREE ENERGY PREDICTED BY IDOCK:   -5.30 KCAL/MOL
REMARK 923 INTER-LIGAND FREE ENERGY PREDICTED BY IDOCK:   -5.21 KCAL/MOL
REMARK 924 INTRA-LIGAND FREE ENERGY PREDICTED BY IDOCK:   -0.09 KCAL/MOL
REMARK 927      BINDING AFFINITY PREDICTED BY RF-SCORE:    0.00 PKD
ROOT
HETATM    1  C   UNL     1      -7.116  17.151  66.640  1.00  0.00    -0.248 C  
HETATM    2  O   UNL     1      -6.878  16.521  67.894  1.00  0.00    -0.129 OA 
ENDROOT
BRANCH   2   3
HETATM    3  C   UNL     1      -7.388  15.270  68.038  1.00  0.00    -0.124 A  
HETATM    4  C   UNL     1      -8.757  15.149  68.165  1.00  0.00    -0.167 A  
HETATM    5  N   UNL     1      -9.407  13.973  68.276  1.00  0.00    -0.205 NA 
HETATM    6  C   UNL     1      -8.636  12.887  68.258  1.00  0.00    -0.170 A  
HETATM    7  C   UNL     1      -6.707  14.070  68.025  1.00  0.00    -0.144 A  
HETATM    8  N   UNL     1      -7.302  12.858  68.156  1.00  0.00    -0.107 NA 
BRANCH   6   9
HETATM    9  N   UNL     1      -9.279  11.670  68.423  1.00  0.00    -0.186 N  
HETATM   10  H   UNL     1      -9.675  11.388  69.320  1.00  0.00     0.000 HD 
BRANCH   9  11
HETATM   11  S   UNL     1      -9.371  10.695  67.076  1.00  0.00    -0.156 S  
HETATM   12  O   UNL     1     -10.108   9.486  67.383  1.00  0.00    -0.181 OA 
HETATM   13  O   UNL     1      -8.026  10.617  66.540  1.00  0.00    -0.126 OA 
BRANCH  11  14
HETATM   14  C   UNL     1     -10.340  11.615  65.893  1.00  0.00    -0.248 A  
HETATM   15  C   UNL     1     -11.572  12.151  66.272  1.00  0.00    -0.424 A  
HETATM   16  C   UNL     1     -12.313  12.898  65.351  1.00  0.00    -0.538 A  
HETATM   17  C   UNL     1     -11.852  13.082  64.043  1.00  0.00    -0.445 A  
HETATM   18  N   UNL     1     -12.557  13.905  63.157  1.00  0.00    -0.976 NA 
HETATM   19  C   UNL     1     -10.569  12.632  63.715  1.00  0.00    -0.432 A  
HETATM   20  H1  UNL     1     -12.221  14.040  62.204  1.00  0.00     0.000 HD 
HETATM   21  C   UNL     1      -9.814  11.892  64.629  1.00  0.00    -0.207 A  
HETATM   22  H2  UNL     1     -12.670  14.821  63.591  1.00  0.00     0.000 HD 
ENDBRANCH  11  14
ENDBRANCH   9  11
ENDBRANCH   6   9
ENDBRANCH   2   3
TORSDOF 4
ENDMDL
MODEL      143
REMARK 921   NORMALIZED FREE ENERGY PREDICTED BY IDOCK:   -4.01 KCAL/MOL
REMARK 922        TOTAL FREE ENERGY PREDICTED BY IDOCK:   -5.30 KCAL/MOL
REMARK 923 INTER-LIGAND FREE ENERGY PREDICTED BY IDOCK:   -5.26 KCAL/MOL
REMARK 924 INTRA-LIGAND FREE ENERGY PREDICTED BY IDOCK:   -0.04 KCAL/MOL
REMARK 927      BINDING AFFINITY PREDICTED BY RF-SCORE:    0.00 PKD
ROOT
HETATM    1  C   UNL     1     -13.492  13.575  72.314  1.00  0.00    -0.571 C  
HETATM    2  O   UNL     1     -12.369  14.438  72.171  1.00  0.00    -0.302 OA 
ENDROOT
BRANCH   2   3
HETATM    3  C   UNL     1     -12.038  14.779  70.897  1.00  0.00    -0.324 A  
HETATM    4  C   UNL     1     -11.432  16.003  70.701  1.00  0.00    -0.402 A  
HETATM    5  N   UNL     1     -11.014  16.458  69.502  1.00  0.00    -0.323 NA 
HETATM    6  C   UNL     1     -11.223  15.638  68.473  1.00  0.00    -0.342 A  
HETATM    7  C   UNL     1     -12.188  14.024  69.751  1.00  0.00    -0.341 A  
HETATM    8  N   UNL     1     -11.810  14.437  68.516  1.00  0.00    -0.338 NA 
BRANCH   6   9
HETATM    9  N   UNL     1     -10.848  16.110  67.224  1.00  0.00    -0.281 N  
HETATM   10  H   UNL     1     -11.519  16.204  66.461  1.00  0.00     0.000 HD 
BRANCH   9  11
HETATM   11  S   UNL     1      -9.243  16.514  67.039  1.00  0.00    -0.226 S  
HETATM   12  O   UNL     1      -8.982  17.810  67.631  1.00  0.00    -0.245 OA 
HETATM   13  O   UNL     1      -8.920  16.266  65.647  1.00  0.00    -0.403 OA 
BRANCH  11  14
HETATM   14  C   UNL     1      -8.339  15.308  67.995  1.00  0.00    -0.146 A  
HETATM   15  C   UNL     1      -7.619  15.714  69.120  1.00  0.00    -0.206 A  
HETATM   16  C   UNL     1      -6.938  14.760  69.884  1.00  0.00    -0.128 A  
HETATM   17  C   UNL     1      -6.940  13.412  69.513  1.00  0.00     0.139 A  
HETATM   18  N   UNL     1      -6.331  12.454  70.333  1.00  0.00    -0.486 NA 
HETATM   19  C   UNL     1      -7.754  13.010  68.449  1.00  0.00    -0.137 A  
HETATM   20  H1  UNL     1      -6.332  11.471  70.063  1.00  0.00     0.000 HD 
HETATM   21  C   UNL     1      -8.447  13.951  67.682  1.00  0.00    -0.193 A  
HETATM   22  H2  UNL     1      -6.731  12.531  71.268  1.00  0.00     0.000 HD 
ENDBRANCH  11  14
ENDBRANCH   9  11
ENDBRANCH   6   9
ENDBRANCH   2   3
TORSDOF 4
ENDMDL
MODEL      144
REMARK 921   NORMALIZED FREE ENERGY PREDICTED BY IDOCK:   -4.01 KCAL/MOL
REMARK 922        TOTAL FREE ENERGY PREDICTED BY IDOCK:   -5.29 KCAL/MOL
REMARK 923 INTER-LIGAND FREE ENERGY PREDICTED BY IDOCK:   -4.99 KCAL/MOL
REMARK 924 INTRA-LIGAND FREE ENERGY PREDICTED BY IDOCK:   -0.30 KCAL/MOL
REMARK 927      BINDING AFFINITY PREDICTED BY RF-SCORE:    0.00 PKD
ROOT
HETATM    1  C   UNL     1     -10.326  10.972  65.621  1.00  0.00    -0.251 C  
HETATM    2  O   UNL     1      -9.994   9.641  65.238  1.00  0.00    -0.295 OA 
ENDROOT
BRANCH   2   3
HETATM    3  C   UNL     1      -9.504   8.843  66.222  1.00  0.00    -0.239 A  
HETATM    4  C   UNL     1      -9.826   9.163  67.525  1.00  0.00    -0.177 A  
HETATM    5  N   UNL     1      -9.446   8.443  68.599  1.00  0.00    -0.146 NA 
HETATM    6  C   UNL     1      -8.712   7.363  68.335  1.00  0.00    -0.123 A  
HETATM    7  C   UNL     1      -8.747   7.697  66.086  1.00  0.00    -0.156 A  
HETATM    8  N   UNL     1      -8.314   6.945  67.128  1.00  0.00    -0.120 NA 
BRANCH   6   9
HETATM    9  N   UNL     1      -8.266   6.638  69.429  1.00  0.00    -0.122 N  
HETATM   10  H   UNL     1      -7.326   6.757  69.807  1.00  0.00     0.000 HD 
BRANCH   9  11
HETATM   11  S   UNL     1      -9.351   5.562  70.094  1.00  0.00    -0.151 S  
HETATM   12  O   UNL     1      -8.696   4.747  71.096  1.00  0.00    -0.113 OA 
HETATM   13  O   UNL     1     -10.039   4.941  68.979  1.00  0.00    -0.189 OA 
BRANCH  11  14
HETATM   14  C   UNL     1     -10.555   6.570  70.940  1.00  0.00    -0.230 A  
HETATM   15  C   UNL     1     -11.893   6.538  70.538  1.00  0.00    -0.393 A  
HETATM   16  C   UNL     1     -12.839   7.306  71.224  1.00  0.00    -0.391 A  
HETATM   17  C   UNL     1     -12.455   8.133  72.285  1.00  0.00    -0.301 A  
HETATM   18  N   UNL     1     -13.422   8.827  73.022  1.00  0.00    -0.938 NA 
HETATM   19  C   UNL     1     -11.135   8.069  72.743  1.00  0.00    -0.448 A  
HETATM   20  H1  UNL     1     -13.143   9.430  73.796  1.00  0.00     0.000 HD 
HETATM   21  C   UNL     1     -10.181   7.298  72.072  1.00  0.00    -0.212 A  
HETATM   22  H2  UNL     1     -14.105   8.154  73.370  1.00  0.00     0.000 HD 
ENDBRANCH  11  14
ENDBRANCH   9  11
ENDBRANCH   6   9
ENDBRANCH   2   3
TORSDOF 4
ENDMDL
MODEL      145
REMARK 921   NORMALIZED FREE ENERGY PREDICTED BY IDOCK:   -3.99 KCAL/MOL
REMARK 922        TOTAL FREE ENERGY PREDICTED BY IDOCK:   -5.28 KCAL/MOL
REMARK 923 INTER-LIGAND FREE ENERGY PREDICTED BY IDOCK:   -5.16 KCAL/MOL
REMARK 924 INTRA-LIGAND FREE ENERGY PREDICTED BY IDOCK:   -0.12 KCAL/MOL
REMARK 927      BINDING AFFINITY PREDICTED BY RF-SCORE:    0.00 PKD
ROOT
HETATM    1  C   UNL     1     -13.781  13.670  72.436  1.00  0.00    -0.595 C  
HETATM    2  O   UNL     1     -12.804  14.702  72.353  1.00  0.00    -0.324 OA 
ENDROOT
BRANCH   2   3
HETATM    3  C   UNL     1     -12.433  15.071  71.099  1.00  0.00    -0.334 A  
HETATM    4  C   UNL     1     -11.388  15.964  70.979  1.00  0.00    -0.389 A  
HETATM    5  N   UNL     1     -10.886  16.390  69.802  1.00  0.00    -0.347 NA 
HETATM    6  C   UNL     1     -11.470  15.890  68.714  1.00  0.00    -0.393 A  
HETATM    7  C   UNL     1     -12.944  14.624  69.897  1.00  0.00     0.182 A  
HETATM    8  N   UNL     1     -12.497  15.033  68.684  1.00  0.00     0.111 NA 
BRANCH   6   9
HETATM    9  N   UNL     1     -11.004  16.355  67.495  1.00  0.00    -0.242 N  
HETATM   10  H   UNL     1     -11.419  17.165  67.034  1.00  0.00     0.000 HD 
BRANCH   9  11
HETATM   11  S   UNL     1      -9.729  15.518  66.824  1.00  0.00    -0.250 S  
HETATM   12  O   UNL     1      -8.506  15.813  67.540  1.00  0.00    -0.158 OA 
HETATM   13  O   UNL     1      -9.811  15.735  65.393  1.00  0.00    -0.355 OA 
BRANCH  11  14
HETATM   14  C   UNL     1     -10.098  13.795  67.101  1.00  0.00    -0.241 A  
HETATM   15  C   UNL     1      -9.582  13.146  68.225  1.00  0.00    -0.218 A  
HETATM   16  C   UNL     1      -9.899  11.804  68.455  1.00  0.00    -0.199 A  
HETATM   17  C   UNL     1     -10.698  11.093  67.552  1.00  0.00    -0.236 A  
HETATM   18  N   UNL     1     -11.083   9.778  67.837  1.00  0.00    -0.504 NA 
HETATM   19  C   UNL     1     -11.294  11.786  66.494  1.00  0.00    -0.370 A  
HETATM   20  H1  UNL     1     -11.665   9.259  67.180  1.00  0.00     0.000 HD 
HETATM   21  C   UNL     1     -10.992  13.131  66.258  1.00  0.00    -0.295 A  
HETATM   22  H2  UNL     1     -11.540   9.767  68.749  1.00  0.00     0.000 HD 
ENDBRANCH  11  14
ENDBRANCH   9  11
ENDBRANCH   6   9
ENDBRANCH   2   3
TORSDOF 4
ENDMDL
MODEL      146
REMARK 921   NORMALIZED FREE ENERGY PREDICTED BY IDOCK:   -3.98 KCAL/MOL
REMARK 922        TOTAL FREE ENERGY PREDICTED BY IDOCK:   -5.26 KCAL/MOL
REMARK 923 INTER-LIGAND FREE ENERGY PREDICTED BY IDOCK:   -4.92 KCAL/MOL
REMARK 924 INTRA-LIGAND FREE ENERGY PREDICTED BY IDOCK:   -0.34 KCAL/MOL
REMARK 927      BINDING AFFINITY PREDICTED BY RF-SCORE:    0.00 PKD
ROOT
HETATM    1  C   UNL     1      -8.871   5.370  70.292  1.00  0.00    -0.128 C  
HETATM    2  O   UNL     1      -9.983   6.201  70.604  1.00  0.00    -0.182 OA 
ENDROOT
BRANCH   2   3
HETATM    3  C   UNL     1     -10.014   7.412  69.988  1.00  0.00    -0.185 A  
HETATM    4  C   UNL     1      -9.697   8.522  70.744  1.00  0.00    -0.183 A  
HETATM    5  N   UNL     1      -9.648   9.779  70.260  1.00  0.00    -0.247 NA 
HETATM    6  C   UNL     1      -9.933   9.908  68.965  1.00  0.00    -0.187 A  
HETATM    7  C   UNL     1     -10.281   7.681  68.661  1.00  0.00    -0.199 A  
HETATM    8  N   UNL     1     -10.271   8.925  68.122  1.00  0.00    -0.193 NA 
BRANCH   6   9
HETATM    9  N   UNL     1      -9.940  11.199  68.461  1.00  0.00    -0.193 N  
HETATM   10  H   UNL     1      -9.083  11.664  68.160  1.00  0.00     0.000 HD 
BRANCH   9  11
HETATM   11  S   UNL     1     -11.426  11.948  68.372  1.00  0.00    -0.325 S  
HETATM   12  O   UNL     1     -12.276  11.501  69.455  1.00  0.00    -0.289 OA 
HETATM   13  O   UNL     1     -11.863  11.818  66.995  1.00  0.00    -0.599 OA 
BRANCH  11  14
HETATM   14  C   UNL     1     -11.097  13.681  68.641  1.00  0.00    -0.272 A  
HETATM   15  C   UNL     1      -9.792  14.166  68.523  1.00  0.00    -0.230 A  
HETATM   16  C   UNL     1      -9.544  15.531  68.705  1.00  0.00    -0.203 A  
HETATM   17  C   UNL     1     -10.581  16.408  69.040  1.00  0.00    -0.308 A  
HETATM   18  N   UNL     1     -10.338  17.784  69.131  1.00  0.00    -0.397 NA 
HETATM   19  C   UNL     1     -11.893  15.924  69.046  1.00  0.00    -0.328 A  
HETATM   20  H1  UNL     1     -11.094  18.424  69.375  1.00  0.00     0.000 HD 
HETATM   21  C   UNL     1     -12.157  14.564  68.857  1.00  0.00    -0.272 A  
HETATM   22  H2  UNL     1      -9.924  18.095  68.252  1.00  0.00     0.000 HD 
ENDBRANCH  11  14
ENDBRANCH   9  11
ENDBRANCH   6   9
ENDBRANCH   2   3
TORSDOF 4
ENDMDL
MODEL      147
REMARK 921   NORMALIZED FREE ENERGY PREDICTED BY IDOCK:   -3.97 KCAL/MOL
REMARK 922        TOTAL FREE ENERGY PREDICTED BY IDOCK:   -5.25 KCAL/MOL
REMARK 923 INTER-LIGAND FREE ENERGY PREDICTED BY IDOCK:   -5.03 KCAL/MOL
REMARK 924 INTRA-LIGAND FREE ENERGY PREDICTED BY IDOCK:   -0.22 KCAL/MOL
REMARK 927      BINDING AFFINITY PREDICTED BY RF-SCORE:    0.00 PKD
ROOT
HETATM    1  C   UNL     1      -7.860   7.529  64.542  1.00  0.00    -0.130 C  
HETATM    2  O   UNL     1      -8.662   8.693  64.374  1.00  0.00    -0.109 OA 
ENDROOT
BRANCH   2   3
HETATM    3  C   UNL     1      -8.976   9.370  65.510  1.00  0.00    -0.204 A  
HETATM    4  C   UNL     1      -9.671   8.688  66.488  1.00  0.00    -0.255 A  
HETATM    5  N   UNL     1     -10.017   9.216  67.679  1.00  0.00    -0.182 NA 
HETATM    6  C   UNL     1      -9.643  10.479  67.878  1.00  0.00    -0.150 A  
HETATM    7  C   UNL     1      -8.643  10.667  65.844  1.00  0.00    -0.172 A  
HETATM    8  N   UNL     1      -8.983  11.259  67.015  1.00  0.00    -0.151 NA 
BRANCH   6   9
HETATM    9  N   UNL     1     -10.035  11.057  69.075  1.00  0.00    -0.311 N  
HETATM   10  H   UNL     1      -9.431  11.055  69.897  1.00  0.00     0.000 HD 
BRANCH   9  11
HETATM   11  S   UNL     1     -11.547  11.756  69.097  1.00  0.00    -0.336 S  
HETATM   12  O   UNL     1     -12.258  11.372  70.299  1.00  0.00    -0.332 OA 
HETATM   13  O   UNL     1     -12.127  11.506  67.791  1.00  0.00    -0.626 OA 
BRANCH  11  14
HETATM   14  C   UNL     1     -11.254  13.513  69.198  1.00  0.00    -0.260 A  
HETATM   15  C   UNL     1     -11.881  14.265  70.195  1.00  0.00    -0.379 A  
HETATM   16  C   UNL     1     -11.623  15.636  70.289  1.00  0.00    -0.370 A  
HETATM   17  C   UNL     1     -10.775  16.270  69.374  1.00  0.00    -0.318 A  
HETATM   18  N   UNL     1     -10.455  17.623  69.532  1.00  0.00    -0.286 NA 
HETATM   19  C   UNL     1     -10.074  15.484  68.454  1.00  0.00    -0.214 A  
HETATM   20  H1  UNL     1      -9.836  18.085  68.866  1.00  0.00     0.000 HD 
HETATM   21  C   UNL     1     -10.315  14.110  68.355  1.00  0.00    -0.249 A  
HETATM   22  H2  UNL     1     -10.074  17.756  70.469  1.00  0.00     0.000 HD 
ENDBRANCH  11  14
ENDBRANCH   9  11
ENDBRANCH   6   9
ENDBRANCH   2   3
TORSDOF 4
ENDMDL
MODEL      148
REMARK 921   NORMALIZED FREE ENERGY PREDICTED BY IDOCK:   -3.93 KCAL/MOL
REMARK 922        TOTAL FREE ENERGY PREDICTED BY IDOCK:   -5.20 KCAL/MOL
REMARK 923 INTER-LIGAND FREE ENERGY PREDICTED BY IDOCK:   -4.95 KCAL/MOL
REMARK 924 INTRA-LIGAND FREE ENERGY PREDICTED BY IDOCK:   -0.24 KCAL/MOL
REMARK 927      BINDING AFFINITY PREDICTED BY RF-SCORE:    0.00 PKD
ROOT
HETATM    1  C   UNL     1     -13.140  11.900  71.515  1.00  0.00    -0.275 C  
HETATM    2  O   UNL     1     -12.681  10.904  70.608  1.00  0.00    -0.333 OA 
ENDROOT
BRANCH   2   3
HETATM    3  C   UNL     1     -11.953   9.893  71.151  1.00  0.00    -0.384 A  
HETATM    4  C   UNL     1     -10.624   9.797  70.793  1.00  0.00    -0.301 A  
HETATM    5  N   UNL     1      -9.772   8.873  71.279  1.00  0.00    -0.262 NA 
HETATM    6  C   UNL     1     -10.294   8.018  72.158  1.00  0.00    -0.254 A  
HETATM    7  C   UNL     1     -12.365   8.953  72.075  1.00  0.00    -0.390 A  
HETATM    8  N   UNL     1     -11.562   7.986  72.582  1.00  0.00    -0.405 NA 
BRANCH   6   9
HETATM    9  N   UNL     1      -9.448   7.027  72.631  1.00  0.00    -0.141 N  
HETATM   10  H   UNL     1      -8.805   7.191  73.405  1.00  0.00     0.000 HD 
BRANCH   9  11
HETATM   11  S   UNL     1      -9.541   5.550  71.863  1.00  0.00    -0.158 S  
HETATM   12  O   UNL     1     -10.779   4.884  72.209  1.00  0.00    -0.207 OA 
HETATM   13  O   UNL     1      -8.268   4.895  72.090  1.00  0.00    -0.111 OA 
BRANCH  11  14
HETATM   14  C   UNL     1      -9.617   5.929  70.121  1.00  0.00    -0.162 A  
HETATM   15  C   UNL     1      -8.437   6.152  69.408  1.00  0.00    -0.120 A  
HETATM   16  C   UNL     1      -8.499   6.418  68.036  1.00  0.00    -0.118 A  
HETATM   17  C   UNL     1      -9.731   6.499  67.378  1.00  0.00    -0.126 A  
HETATM   18  N   UNL     1      -9.779   6.676  65.990  1.00  0.00    -0.396 NA 
HETATM   19  C   UNL     1     -10.891   6.165  68.084  1.00  0.00    -0.389 A  
HETATM   20  H1  UNL     1     -10.677   6.734  65.510  1.00  0.00     0.000 HD 
HETATM   21  C   UNL     1     -10.843   5.889  69.454  1.00  0.00    -0.422 A  
HETATM   22  H2  UNL     1      -9.229   5.936  65.554  1.00  0.00     0.000 HD 
ENDBRANCH  11  14
ENDBRANCH   9  11
ENDBRANCH   6   9
ENDBRANCH   2   3
TORSDOF 4
ENDMDL
MODEL      149
REMARK 921   NORMALIZED FREE ENERGY PREDICTED BY IDOCK:   -3.93 KCAL/MOL
REMARK 922        TOTAL FREE ENERGY PREDICTED BY IDOCK:   -5.19 KCAL/MOL
REMARK 923 INTER-LIGAND FREE ENERGY PREDICTED BY IDOCK:   -4.90 KCAL/MOL
REMARK 924 INTRA-LIGAND FREE ENERGY PREDICTED BY IDOCK:   -0.29 KCAL/MOL
REMARK 927      BINDING AFFINITY PREDICTED BY RF-SCORE:    0.00 PKD
ROOT
HETATM    1  C   UNL     1      -5.950   7.897  66.831  1.00  0.00    -0.052 C  
HETATM    2  O   UNL     1      -6.292   9.112  66.171  1.00  0.00    -0.062 OA 
ENDROOT
BRANCH   2   3
HETATM    3  C   UNL     1      -7.460   9.689  66.555  1.00  0.00    -0.094 A  
HETATM    4  C   UNL     1      -8.185  10.365  65.594  1.00  0.00    -0.158 A  
HETATM    5  N   UNL     1      -9.378  10.952  65.818  1.00  0.00    -0.195 NA 
HETATM    6  C   UNL     1      -9.845  10.848  67.061  1.00  0.00    -0.183 A  
HETATM    7  C   UNL     1      -8.059   9.648  67.798  1.00  0.00    -0.113 A  
HETATM    8  N   UNL     1      -9.244  10.239  68.090  1.00  0.00    -0.135 NA 
BRANCH   6   9
HETATM    9  N   UNL     1     -11.044  11.491  67.325  1.00  0.00    -0.277 N  
HETATM   10  H   UNL     1     -11.924  10.980  67.400  1.00  0.00     0.000 HD 
BRANCH   9  11
HETATM   11  S   UNL     1     -10.969  13.145  67.514  1.00  0.00    -0.270 S  
HETATM   12  O   UNL     1     -11.792  13.799  66.518  1.00  0.00    -0.362 OA 
HETATM   13  O   UNL     1      -9.562  13.475  67.635  1.00  0.00    -0.210 OA 
BRANCH  11  14
HETATM   14  C   UNL     1     -11.708  13.472  69.104  1.00  0.00    -0.327 A  
HETATM   15  C   UNL     1     -11.988  12.412  69.971  1.00  0.00    -0.372 A  
HETATM   16  C   UNL     1     -12.539  12.676  71.229  1.00  0.00    -0.339 A  
HETATM   17  C   UNL     1     -12.847  13.985  71.615  1.00  0.00    -0.352 A  
HETATM   18  N   UNL     1     -13.313  14.247  72.909  1.00  0.00    -0.623 NA 
HETATM   19  C   UNL     1     -12.460  15.039  70.781  1.00  0.00    -0.411 A  
HETATM   20  H1  UNL     1     -13.537  15.201  73.191  1.00  0.00     0.000 HD 
HETATM   21  C   UNL     1     -11.900  14.790  69.524  1.00  0.00    -0.366 A  
HETATM   22  H2  UNL     1     -12.643  13.863  73.575  1.00  0.00     0.000 HD 
ENDBRANCH  11  14
ENDBRANCH   9  11
ENDBRANCH   6   9
ENDBRANCH   2   3
TORSDOF 4
ENDMDL
MODEL      150
REMARK 921   NORMALIZED FREE ENERGY PREDICTED BY IDOCK:   -3.91 KCAL/MOL
REMARK 922        TOTAL FREE ENERGY PREDICTED BY IDOCK:   -5.18 KCAL/MOL
REMARK 923 INTER-LIGAND FREE ENERGY PREDICTED BY IDOCK:   -4.97 KCAL/MOL
REMARK 924 INTRA-LIGAND FREE ENERGY PREDICTED BY IDOCK:   -0.21 KCAL/MOL
REMARK 927      BINDING AFFINITY PREDICTED BY RF-SCORE:    0.00 PKD
ROOT
HETATM    1  C   UNL     1      -7.679   8.326  62.578  1.00  0.00    -0.127 C  
HETATM    2  O   UNL     1      -7.822   8.244  63.992  1.00  0.00    -0.132 OA 
ENDROOT
BRANCH   2   3
HETATM    3  C   UNL     1      -8.647   9.162  64.561  1.00  0.00    -0.175 A  
HETATM    4  C   UNL     1      -9.202   8.850  65.785  1.00  0.00    -0.221 A  
HETATM    5  N   UNL     1     -10.005   9.676  66.486  1.00  0.00    -0.230 NA 
HETATM    6  C   UNL     1     -10.252  10.855  65.918  1.00  0.00    -0.257 A  
HETATM    7  C   UNL     1      -8.975  10.416  64.087  1.00  0.00    -0.229 A  
HETATM    8  N   UNL     1      -9.796  11.280  64.734  1.00  0.00    -0.252 NA 
BRANCH   6   9
HETATM    9  N   UNL     1     -11.118  11.698  66.597  1.00  0.00    -0.300 N  
HETATM   10  H   UNL     1     -12.094  11.802  66.320  1.00  0.00     0.000 HD 
BRANCH   9  11
HETATM   11  S   UNL     1     -10.476  12.529  67.890  1.00  0.00    -0.223 S  
HETATM   12  O   UNL     1      -9.149  12.036  68.192  1.00  0.00    -0.181 OA 
HETATM   13  O   UNL     1     -11.504  12.543  68.913  1.00  0.00    -0.263 OA 
BRANCH  11  14
HETATM   14  C   UNL     1     -10.296  14.212  67.326  1.00  0.00    -0.267 A  
HETATM   15  C   UNL     1      -9.699  14.470  66.090  1.00  0.00    -0.340 A  
HETATM   16  C   UNL     1      -9.588  15.789  65.638  1.00  0.00    -0.299 A  
HETATM   17  C   UNL     1     -10.035  16.855  66.426  1.00  0.00    -0.309 A  
HETATM   18  N   UNL     1     -10.001  18.162  65.926  1.00  0.00    -0.564 NA 
HETATM   19  C   UNL     1     -10.727  16.572  67.608  1.00  0.00    -0.311 A  
HETATM   20  H1  UNL     1     -10.327  18.940  66.500  1.00  0.00     0.000 HD 
HETATM   21  C   UNL     1     -10.853  15.257  68.067  1.00  0.00    -0.288 A  
HETATM   22  H2  UNL     1     -10.509  18.181  65.042  1.00  0.00     0.000 HD 
ENDBRANCH  11  14
ENDBRANCH   9  11
ENDBRANCH   6   9
ENDBRANCH   2   3
TORSDOF 4
ENDMDL
MODEL      151
REMARK 921   NORMALIZED FREE ENERGY PREDICTED BY IDOCK:   -3.90 KCAL/MOL
REMARK 922        TOTAL FREE ENERGY PREDICTED BY IDOCK:   -5.16 KCAL/MOL
REMARK 923 INTER-LIGAND FREE ENERGY PREDICTED BY IDOCK:   -4.76 KCAL/MOL
REMARK 924 INTRA-LIGAND FREE ENERGY PREDICTED BY IDOCK:   -0.40 KCAL/MOL
REMARK 927      BINDING AFFINITY PREDICTED BY RF-SCORE:    0.00 PKD
ROOT
HETATM    1  C   UNL     1      -7.629   7.001  73.264  1.00  0.00    -0.079 C  
HETATM    2  O   UNL     1      -9.052   7.011  73.297  1.00  0.00    -0.126 OA 
ENDROOT
BRANCH   2   3
HETATM    3  C   UNL     1      -9.668   7.546  72.211  1.00  0.00    -0.160 A  
HETATM    4  C   UNL     1      -9.022   7.447  70.996  1.00  0.00    -0.151 A  
HETATM    5  N   UNL     1      -9.528   7.896  69.829  1.00  0.00    -0.163 NA 
HETATM    6  C   UNL     1     -10.730   8.465  69.906  1.00  0.00    -0.227 A  
HETATM    7  C   UNL     1     -10.909   8.149  72.151  1.00  0.00    -0.303 A  
HETATM    8  N   UNL     1     -11.459   8.641  71.014  1.00  0.00    -0.273 NA 
BRANCH   6   9
HETATM    9  N   UNL     1     -11.245   8.980  68.727  1.00  0.00    -0.384 N  
HETATM   10  H   UNL     1     -11.710   8.389  68.038  1.00  0.00     0.000 HD 
BRANCH   9  11
HETATM   11  S   UNL     1     -11.061  10.621  68.497  1.00  0.00    -0.279 S  
HETATM   12  O   UNL     1     -10.098  11.153  69.438  1.00  0.00    -0.111 OA 
HETATM   13  O   UNL     1     -12.400  11.172  68.427  1.00  0.00    -0.556 OA 
BRANCH  11  14
HETATM   14  C   UNL     1     -10.354  10.792  66.867  1.00  0.00    -0.241 A  
HETATM   15  C   UNL     1      -9.761   9.689  66.249  1.00  0.00    -0.303 A  
HETATM   16  C   UNL     1      -9.236   9.820  64.959  1.00  0.00    -0.307 A  
HETATM   17  C   UNL     1      -9.264  11.052  64.297  1.00  0.00    -0.152 A  
HETATM   18  N   UNL     1      -8.818  11.151  62.974  1.00  0.00    -0.441 NA 
HETATM   19  C   UNL     1      -9.957  12.114  64.886  1.00  0.00    -0.235 A  
HETATM   20  H1  UNL     1      -8.838  12.049  62.491  1.00  0.00     0.000 HD 
HETATM   21  C   UNL     1     -10.495  11.994  66.171  1.00  0.00    -0.271 A  
HETATM   22  H2  UNL     1      -9.329  10.471  62.411  1.00  0.00     0.000 HD 
ENDBRANCH  11  14
ENDBRANCH   9  11
ENDBRANCH   6   9
ENDBRANCH   2   3
TORSDOF 4
ENDMDL
MODEL      152
REMARK 921   NORMALIZED FREE ENERGY PREDICTED BY IDOCK:   -3.89 KCAL/MOL
REMARK 922        TOTAL FREE ENERGY PREDICTED BY IDOCK:   -5.15 KCAL/MOL
REMARK 923 INTER-LIGAND FREE ENERGY PREDICTED BY IDOCK:   -4.90 KCAL/MOL
REMARK 924 INTRA-LIGAND FREE ENERGY PREDICTED BY IDOCK:   -0.25 KCAL/MOL
REMARK 927      BINDING AFFINITY PREDICTED BY RF-SCORE:    0.00 PKD
ROOT
HETATM    1  C   UNL     1     -10.511  13.344  68.098  1.00  0.00    -0.245 C  
HETATM    2  O   UNL     1     -11.391  12.225  68.053  1.00  0.00    -0.250 OA 
ENDROOT
BRANCH   2   3
HETATM    3  C   UNL     1     -11.320  11.369  69.105  1.00  0.00    -0.288 A  
HETATM    4  C   UNL     1     -10.173  10.612  69.237  1.00  0.00    -0.213 A  
HETATM    5  N   UNL     1      -9.945   9.751  70.249  1.00  0.00    -0.261 NA 
HETATM    6  C   UNL     1     -10.919   9.658  71.153  1.00  0.00    -0.360 A  
HETATM    7  C   UNL     1     -12.246  11.184  70.112  1.00  0.00    -0.337 A  
HETATM    8  N   UNL     1     -12.083  10.316  71.141  1.00  0.00    -0.371 NA 
BRANCH   6   9
HETATM    9  N   UNL     1     -10.727   8.739  72.173  1.00  0.00    -0.343 N  
HETATM   10  H   UNL     1     -10.233   8.982  73.031  1.00  0.00     0.000 HD 
BRANCH   9  11
HETATM   11  S   UNL     1     -11.350   7.214  71.919  1.00  0.00    -0.270 S  
HETATM   12  O   UNL     1     -12.699   7.305  71.402  1.00  0.00    -0.362 OA 
HETATM   13  O   UNL     1     -11.076   6.458  73.126  1.00  0.00    -0.240 OA 
BRANCH  11  14
HETATM   14  C   UNL     1     -10.341   6.502  70.631  1.00  0.00    -0.201 A  
HETATM   15  C   UNL     1      -8.970   6.328  70.839  1.00  0.00    -0.147 A  
HETATM   16  C   UNL     1      -8.189   5.741  69.839  1.00  0.00    -0.115 A  
HETATM   17  C   UNL     1      -8.757   5.359  68.619  1.00  0.00    -0.097 A  
HETATM   18  N   UNL     1      -7.985   4.691  67.661  1.00  0.00    -0.092 NA 
HETATM   19  C   UNL     1     -10.145   5.440  68.471  1.00  0.00    -0.242 A  
HETATM   20  H1  UNL     1      -8.399   4.412  66.772  1.00  0.00     0.000 HD 
HETATM   21  C   UNL     1     -10.940   6.016  69.467  1.00  0.00    -0.467 A  
HETATM   22  H2  UNL     1      -7.576   3.865  68.098  1.00  0.00     0.000 HD 
ENDBRANCH  11  14
ENDBRANCH   9  11
ENDBRANCH   6   9
ENDBRANCH   2   3
TORSDOF 4
ENDMDL
MODEL      153
REMARK 921   NORMALIZED FREE ENERGY PREDICTED BY IDOCK:   -3.89 KCAL/MOL
REMARK 922        TOTAL FREE ENERGY PREDICTED BY IDOCK:   -5.15 KCAL/MOL
REMARK 923 INTER-LIGAND FREE ENERGY PREDICTED BY IDOCK:   -4.81 KCAL/MOL
REMARK 924 INTRA-LIGAND FREE ENERGY PREDICTED BY IDOCK:   -0.34 KCAL/MOL
REMARK 927      BINDING AFFINITY PREDICTED BY RF-SCORE:    0.00 PKD
ROOT
HETATM    1  C   UNL     1      -7.960  18.067  68.521  1.00  0.00    -0.303 C  
HETATM    2  O   UNL     1      -9.145  18.120  67.734  1.00  0.00    -0.257 OA 
ENDROOT
BRANCH   2   3
HETATM    3  C   UNL     1      -9.738  16.926  67.469  1.00  0.00    -0.249 A  
HETATM    4  C   UNL     1      -9.033  16.019  66.705  1.00  0.00    -0.260 A  
HETATM    5  N   UNL     1      -9.475  14.784  66.394  1.00  0.00    -0.287 NA 
HETATM    6  C   UNL     1     -10.675  14.465  66.877  1.00  0.00    -0.292 A  
HETATM    7  C   UNL     1     -10.962  16.469  67.914  1.00  0.00    -0.288 A  
HETATM    8  N   UNL     1     -11.470  15.248  67.615  1.00  0.00    -0.316 NA 
BRANCH   6   9
HETATM    9  N   UNL     1     -11.171  13.219  66.525  1.00  0.00    -0.298 N  
HETATM   10  H   UNL     1     -11.673  13.068  65.651  1.00  0.00     0.000 HD 
BRANCH   9  11
HETATM   11  S   UNL     1     -10.899  11.984  67.609  1.00  0.00    -0.244 S  
HETATM   12  O   UNL     1     -12.125  11.253  67.851  1.00  0.00    -0.634 OA 
HETATM   13  O   UNL     1     -10.164  12.568  68.714  1.00  0.00    -0.188 OA 
BRANCH  11  14
HETATM   14  C   UNL     1      -9.777  10.870  66.783  1.00  0.00    -0.190 A  
HETATM   15  C   UNL     1     -10.240   9.636  66.319  1.00  0.00    -0.286 A  
HETATM   16  C   UNL     1      -9.364   8.779  65.645  1.00  0.00    -0.219 A  
HETATM   17  C   UNL     1      -8.021   9.128  65.462  1.00  0.00    -0.104 A  
HETATM   18  N   UNL     1      -7.176   8.304  64.708  1.00  0.00    -0.079 NA 
HETATM   19  C   UNL     1      -7.604  10.409  65.835  1.00  0.00    -0.146 A  
HETATM   20  H1  UNL     1      -6.198   8.558  64.574  1.00  0.00     0.000 HD 
HETATM   21  C   UNL     1      -8.471  11.279  66.502  1.00  0.00    -0.171 A  
HETATM   22  H2  UNL     1      -7.600   8.163  63.791  1.00  0.00     0.000 HD 
ENDBRANCH  11  14
ENDBRANCH   9  11
ENDBRANCH   6   9
ENDBRANCH   2   3
TORSDOF 4
ENDMDL
MODEL      154
REMARK 921   NORMALIZED FREE ENERGY PREDICTED BY IDOCK:   -3.87 KCAL/MOL
REMARK 922        TOTAL FREE ENERGY PREDICTED BY IDOCK:   -5.13 KCAL/MOL
REMARK 923 INTER-LIGAND FREE ENERGY PREDICTED BY IDOCK:   -4.75 KCAL/MOL
REMARK 924 INTRA-LIGAND FREE ENERGY PREDICTED BY IDOCK:   -0.38 KCAL/MOL
REMARK 927      BINDING AFFINITY PREDICTED BY RF-SCORE:    0.00 PKD
ROOT
HETATM    1  C   UNL     1      -9.633   5.098  66.462  1.00  0.00    -0.158 C  
HETATM    2  O   UNL     1      -9.438   5.692  67.740  1.00  0.00    -0.112 OA 
ENDROOT
BRANCH   2   3
HETATM    3  C   UNL     1      -9.530   7.047  67.787  1.00  0.00    -0.124 A  
HETATM    4  C   UNL     1     -10.096   7.687  66.703  1.00  0.00    -0.208 A  
HETATM    5  N   UNL     1     -10.289   9.019  66.625  1.00  0.00    -0.251 NA 
HETATM    6  C   UNL     1      -9.890   9.720  67.685  1.00  0.00    -0.165 A  
HETATM    7  C   UNL     1      -9.168   7.887  68.821  1.00  0.00    -0.143 A  
HETATM    8  N   UNL     1      -9.314   9.234  68.791  1.00  0.00    -0.138 NA 
BRANCH   6   9
HETATM    9  N   UNL     1     -10.030  11.097  67.603  1.00  0.00    -0.172 N  
HETATM   10  H   UNL     1      -9.238  11.708  67.406  1.00  0.00     0.000 HD 
BRANCH   9  11
HETATM   11  S   UNL     1     -11.566  11.697  67.843  1.00  0.00    -0.272 S  
HETATM   12  O   UNL     1     -12.253  10.922  68.855  1.00  0.00    -0.494 OA 
HETATM   13  O   UNL     1     -12.147  11.862  66.525  1.00  0.00    -0.568 OA 
BRANCH  11  14
HETATM   14  C   UNL     1     -11.332  13.337  68.506  1.00  0.00    -0.284 A  
HETATM   15  C   UNL     1     -10.265  14.120  68.060  1.00  0.00    -0.232 A  
HETATM   16  C   UNL     1     -10.104  15.417  68.560  1.00  0.00    -0.213 A  
HETATM   17  C   UNL     1     -10.978  15.924  69.527  1.00  0.00    -0.311 A  
HETATM   18  N   UNL     1     -10.862  17.253  69.953  1.00  0.00    -0.191 NA 
HETATM   19  C   UNL     1     -12.101  15.169  69.879  1.00  0.00    -0.373 A  
HETATM   20  H1  UNL     1     -11.499  17.623  70.658  1.00  0.00     0.000 HD 
HETATM   21  C   UNL     1     -12.279  13.875  69.380  1.00  0.00    -0.338 A  
HETATM   22  H2  UNL     1     -10.903  17.858  69.133  1.00  0.00     0.000 HD 
ENDBRANCH  11  14
ENDBRANCH   9  11
ENDBRANCH   6   9
ENDBRANCH   2   3
TORSDOF 4
ENDMDL
MODEL      155
REMARK 921   NORMALIZED FREE ENERGY PREDICTED BY IDOCK:   -3.87 KCAL/MOL
REMARK 922        TOTAL FREE ENERGY PREDICTED BY IDOCK:   -5.12 KCAL/MOL
REMARK 923 INTER-LIGAND FREE ENERGY PREDICTED BY IDOCK:   -4.72 KCAL/MOL
REMARK 924 INTRA-LIGAND FREE ENERGY PREDICTED BY IDOCK:   -0.40 KCAL/MOL
REMARK 927      BINDING AFFINITY PREDICTED BY RF-SCORE:    0.00 PKD
ROOT
HETATM    1  C   UNL     1     -12.175   8.636  71.645  1.00  0.00    -0.333 C  
HETATM    2  O   UNL     1     -10.935   8.317  71.023  1.00  0.00    -0.235 OA 
ENDROOT
BRANCH   2   3
HETATM    3  C   UNL     1     -10.581   9.094  69.966  1.00  0.00    -0.227 A  
HETATM    4  C   UNL     1     -10.473   8.485  68.733  1.00  0.00    -0.184 A  
HETATM    5  N   UNL     1     -10.169   9.134  67.591  1.00  0.00    -0.221 NA 
HETATM    6  C   UNL     1      -9.968  10.445  67.712  1.00  0.00    -0.175 A  
HETATM    7  C   UNL     1     -10.356  10.456  69.953  1.00  0.00    -0.182 A  
HETATM    8  N   UNL     1     -10.024  11.159  68.842  1.00  0.00    -0.197 NA 
BRANCH   6   9
HETATM    9  N   UNL     1      -9.602  11.122  66.559  1.00  0.00    -0.192 N  
HETATM   10  H   UNL     1      -8.675  11.020  66.146  1.00  0.00     0.000 HD 
BRANCH   9  11
HETATM   11  S   UNL     1     -10.761  12.111  65.885  1.00  0.00    -0.277 S  
HETATM   12  O   UNL     1     -12.077  11.732  66.356  1.00  0.00    -0.467 OA 
HETATM   13  O   UNL     1     -10.477  12.158  64.464  1.00  0.00    -0.274 OA 
BRANCH  11  14
HETATM   14  C   UNL     1     -10.422  13.741  66.527  1.00  0.00    -0.282 A  
HETATM   15  C   UNL     1      -9.100  14.155  66.705  1.00  0.00    -0.266 A  
HETATM   16  C   UNL     1      -8.839  15.445  67.180  1.00  0.00    -0.234 A  
HETATM   17  C   UNL     1      -9.886  16.311  67.512  1.00  0.00    -0.238 A  
HETATM   18  N   UNL     1      -9.614  17.628  67.900  1.00  0.00    -0.275 NA 
HETATM   19  C   UNL     1     -11.197  15.919  67.224  1.00  0.00    -0.094 A  
HETATM   20  H1  UNL     1     -10.377  18.260  68.142  1.00  0.00     0.000 HD 
HETATM   21  C   UNL     1     -11.472  14.636  66.742  1.00  0.00    -0.371 A  
HETATM   22  H2  UNL     1      -9.052  18.068  67.171  1.00  0.00     0.000 HD 
ENDBRANCH  11  14
ENDBRANCH   9  11
ENDBRANCH   6   9
ENDBRANCH   2   3
TORSDOF 4
ENDMDL
MODEL      156
REMARK 921   NORMALIZED FREE ENERGY PREDICTED BY IDOCK:   -3.87 KCAL/MOL
REMARK 922        TOTAL FREE ENERGY PREDICTED BY IDOCK:   -5.12 KCAL/MOL
REMARK 923 INTER-LIGAND FREE ENERGY PREDICTED BY IDOCK:   -4.72 KCAL/MOL
REMARK 924 INTRA-LIGAND FREE ENERGY PREDICTED BY IDOCK:   -0.40 KCAL/MOL
REMARK 927      BINDING AFFINITY PREDICTED BY RF-SCORE:    0.00 PKD
ROOT
HETATM    1  C   UNL     1     -10.068   4.419  72.839  1.00  0.00    -0.163 C  
HETATM    2  O   UNL     1     -10.264   4.313  71.433  1.00  0.00    -0.152 OA 
ENDROOT
BRANCH   2   3
HETATM    3  C   UNL     1     -10.002   5.432  70.709  1.00  0.00    -0.204 A  
HETATM    4  C   UNL     1      -9.040   5.346  69.724  1.00  0.00    -0.128 A  
HETATM    5  N   UNL     1      -8.702   6.360  68.903  1.00  0.00    -0.126 NA 
HETATM    6  C   UNL     1      -9.366   7.499  69.094  1.00  0.00    -0.147 A  
HETATM    7  C   UNL     1     -10.620   6.663  70.798  1.00  0.00    -0.226 A  
HETATM    8  N   UNL     1     -10.308   7.727  70.017  1.00  0.00    -0.215 NA 
BRANCH   6   9
HETATM    9  N   UNL     1      -8.997   8.570  68.296  1.00  0.00    -0.139 N  
HETATM   10  H   UNL     1      -8.306   9.256  68.601  1.00  0.00     0.000 HD 
BRANCH   9  11
HETATM   11  S   UNL     1      -9.743   8.675  66.810  1.00  0.00    -0.256 S  
HETATM   12  O   UNL     1     -10.803   7.693  66.713  1.00  0.00    -0.274 OA 
HETATM   13  O   UNL     1      -8.680   8.705  65.824  1.00  0.00    -0.161 OA 
BRANCH  11  14
HETATM   14  C   UNL     1     -10.513  10.284  66.781  1.00  0.00    -0.214 A  
HETATM   15  C   UNL     1     -10.582  10.999  65.583  1.00  0.00    -0.263 A  
HETATM   16  C   UNL     1     -11.214  12.246  65.558  1.00  0.00    -0.376 A  
HETATM   17  C   UNL     1     -11.744  12.803  66.728  1.00  0.00    -0.392 A  
HETATM   18  N   UNL     1     -12.452  14.009  66.675  1.00  0.00    -0.523 NA 
HETATM   19  C   UNL     1     -11.761  12.028  67.891  1.00  0.00    -0.393 A  
HETATM   20  H1  UNL     1     -12.838  14.415  67.527  1.00  0.00     0.000 HD 
HETATM   21  C   UNL     1     -11.142  10.775  67.927  1.00  0.00    -0.369 A  
HETATM   22  H2  UNL     1     -13.206  13.909  65.996  1.00  0.00     0.000 HD 
ENDBRANCH  11  14
ENDBRANCH   9  11
ENDBRANCH   6   9
ENDBRANCH   2   3
TORSDOF 4
ENDMDL
MODEL      157
REMARK 921   NORMALIZED FREE ENERGY PREDICTED BY IDOCK:   -3.86 KCAL/MOL
REMARK 922        TOTAL FREE ENERGY PREDICTED BY IDOCK:   -5.11 KCAL/MOL
REMARK 923 INTER-LIGAND FREE ENERGY PREDICTED BY IDOCK:   -5.47 KCAL/MOL
REMARK 924 INTRA-LIGAND FREE ENERGY PREDICTED BY IDOCK:    0.35 KCAL/MOL
REMARK 927      BINDING AFFINITY PREDICTED BY RF-SCORE:    0.00 PKD
ROOT
HETATM    1  C   UNL     1     -10.784  19.310  66.903  1.00  0.00    -0.444 C  
HETATM    2  O   UNL     1     -10.156  18.961  68.131  1.00  0.00    -0.351 OA 
ENDROOT
BRANCH   2   3
HETATM    3  C   UNL     1      -9.979  17.632  68.352  1.00  0.00    -0.356 A  
HETATM    4  C   UNL     1     -10.946  16.770  67.877  1.00  0.00    -0.260 A  
HETATM    5  N   UNL     1     -10.886  15.428  67.987  1.00  0.00    -0.282 NA 
HETATM    6  C   UNL     1      -9.806  14.950  68.603  1.00  0.00    -0.225 A  
HETATM    7  C   UNL     1      -8.909  17.009  68.963  1.00  0.00    -0.130 A  
HETATM    8  N   UNL     1      -8.804  15.666  69.124  1.00  0.00    -0.235 NA 
BRANCH   6   9
HETATM    9  N   UNL     1      -9.751  13.575  68.774  1.00  0.00    -0.411 N  
HETATM   10  H   UNL     1     -10.446  13.073  69.325  1.00  0.00     0.000 HD 
BRANCH   9  11
HETATM   11  S   UNL     1      -8.485  12.790  68.027  1.00  0.00    -0.185 S  
HETATM   12  O   UNL     1      -8.139  11.590  68.761  1.00  0.00    -0.145 OA 
HETATM   13  O   UNL     1      -7.481  13.801  67.761  1.00  0.00    -0.129 OA 
BRANCH  11  14
HETATM   14  C   UNL     1      -9.120  12.271  66.443  1.00  0.00    -0.158 A  
HETATM   15  C   UNL     1      -8.711  11.053  65.896  1.00  0.00    -0.182 A  
HETATM   16  C   UNL     1      -9.236  10.636  64.668  1.00  0.00    -0.262 A  
HETATM   17  C   UNL     1     -10.137  11.443  63.964  1.00  0.00    -0.320 A  
HETATM   18  N   UNL     1     -10.724  10.977  62.782  1.00  0.00    -0.727 NA 
HETATM   19  C   UNL     1     -10.617  12.604  64.577  1.00  0.00    -0.369 A  
HETATM   20  H1  UNL     1     -11.381  11.564  62.269  1.00  0.00     0.000 HD 
HETATM   21  C   UNL     1     -10.108  13.028  65.808  1.00  0.00    -0.294 A  
HETATM   22  H2  UNL     1     -11.176  10.084  62.978  1.00  0.00     0.000 HD 
ENDBRANCH  11  14
ENDBRANCH   9  11
ENDBRANCH   6   9
ENDBRANCH   2   3
TORSDOF 4
ENDMDL
MODEL      158
REMARK 921   NORMALIZED FREE ENERGY PREDICTED BY IDOCK:   -3.86 KCAL/MOL
REMARK 922        TOTAL FREE ENERGY PREDICTED BY IDOCK:   -5.11 KCAL/MOL
REMARK 923 INTER-LIGAND FREE ENERGY PREDICTED BY IDOCK:   -4.76 KCAL/MOL
REMARK 924 INTRA-LIGAND FREE ENERGY PREDICTED BY IDOCK:   -0.35 KCAL/MOL
REMARK 927      BINDING AFFINITY PREDICTED BY RF-SCORE:    0.00 PKD
ROOT
HETATM    1  C   UNL     1      -8.017  18.177  67.097  1.00  0.00    -0.220 C  
HETATM    2  O   UNL     1      -8.046  17.576  68.387  1.00  0.00    -0.248 OA 
ENDROOT
BRANCH   2   3
HETATM    3  C   UNL     1      -8.436  16.275  68.428  1.00  0.00    -0.195 A  
HETATM    4  C   UNL     1      -9.666  15.994  68.987  1.00  0.00    -0.244 A  
HETATM    5  N   UNL     1     -10.200  14.758  69.062  1.00  0.00    -0.237 NA 
HETATM    6  C   UNL     1      -9.454  13.778  68.552  1.00  0.00    -0.162 A  
HETATM    7  C   UNL     1      -7.769  15.173  67.930  1.00  0.00    -0.135 A  
HETATM    8  N   UNL     1      -8.243  13.905  67.998  1.00  0.00    -0.149 NA 
BRANCH   6   9
HETATM    9  N   UNL     1      -9.962  12.494  68.667  1.00  0.00    -0.390 N  
HETATM   10  H   UNL     1      -9.695  11.876  69.433  1.00  0.00     0.000 HD 
BRANCH   9  11
HETATM   11  S   UNL     1     -11.033  12.015  67.483  1.00  0.00    -0.270 S  
HETATM   12  O   UNL     1     -11.029  12.966  66.391  1.00  0.00    -0.277 OA 
HETATM   13  O   UNL     1     -12.270  11.688  68.165  1.00  0.00    -0.537 OA 
BRANCH  11  14
HETATM   14  C   UNL     1     -10.380  10.482  66.848  1.00  0.00    -0.239 A  
HETATM   15  C   UNL     1      -9.917  10.417  65.532  1.00  0.00    -0.348 A  
HETATM   16  C   UNL     1      -9.377   9.221  65.048  1.00  0.00    -0.196 A  
HETATM   17  C   UNL     1      -9.329   8.079  65.855  1.00  0.00    -0.024 A  
HETATM   18  N   UNL     1      -8.705   6.915  65.391  1.00  0.00    -0.347 NA 
HETATM   19  C   UNL     1      -9.695   8.193  67.199  1.00  0.00    -0.259 A  
HETATM   20  H1  UNL     1      -8.670   6.082  65.979  1.00  0.00     0.000 HD 
HETATM   21  C   UNL     1     -10.228   9.385  67.699  1.00  0.00    -0.281 A  
HETATM   22  H2  UNL     1      -7.754   7.150  65.110  1.00  0.00     0.000 HD 
ENDBRANCH  11  14
ENDBRANCH   9  11
ENDBRANCH   6   9
ENDBRANCH   2   3
TORSDOF 4
ENDMDL
MODEL      159
REMARK 921   NORMALIZED FREE ENERGY PREDICTED BY IDOCK:   -3.86 KCAL/MOL
REMARK 922        TOTAL FREE ENERGY PREDICTED BY IDOCK:   -5.11 KCAL/MOL
REMARK 923 INTER-LIGAND FREE ENERGY PREDICTED BY IDOCK:   -5.06 KCAL/MOL
REMARK 924 INTRA-LIGAND FREE ENERGY PREDICTED BY IDOCK:   -0.05 KCAL/MOL
REMARK 927      BINDING AFFINITY PREDICTED BY RF-SCORE:    0.00 PKD
ROOT
HETATM    1  C   UNL     1     -10.805  12.426  63.335  1.00  0.00    -0.367 C  
HETATM    2  O   UNL     1     -10.100  11.198  63.188  1.00  0.00    -0.336 OA 
ENDROOT
BRANCH   2   3
HETATM    3  C   UNL     1      -9.696  10.602  64.341  1.00  0.00    -0.311 A  
HETATM    4  C   UNL     1     -10.146  11.138  65.530  1.00  0.00    -0.257 A  
HETATM    5  N   UNL     1      -9.861  10.632  66.746  1.00  0.00    -0.192 NA 
HETATM    6  C   UNL     1      -9.091   9.545  66.749  1.00  0.00    -0.146 A  
HETATM    7  C   UNL     1      -8.914   9.474  64.483  1.00  0.00    -0.212 A  
HETATM    8  N   UNL     1      -8.573   8.932  65.678  1.00  0.00    -0.156 NA 
BRANCH   6   9
HETATM    9  N   UNL     1      -8.742   9.039  67.992  1.00  0.00    -0.129 N  
HETATM   10  H   UNL     1      -7.917   9.367  68.494  1.00  0.00     0.000 HD 
BRANCH   9  11
HETATM   11  S   UNL     1      -9.747   7.867  68.620  1.00  0.00    -0.162 S  
HETATM   12  O   UNL     1      -8.976   6.900  69.374  1.00  0.00    -0.138 OA 
HETATM   13  O   UNL     1     -10.598   7.436  67.528  1.00  0.00    -0.247 OA 
BRANCH  11  14
HETATM   14  C   UNL     1     -10.799   8.721  69.780  1.00  0.00    -0.193 A  
HETATM   15  C   UNL     1     -11.372   9.945  69.427  1.00  0.00    -0.143 A  
HETATM   16  C   UNL     1     -12.221  10.595  70.329  1.00  0.00    -0.417 A  
HETATM   17  C   UNL     1     -12.474  10.053  71.593  1.00  0.00    -0.418 A  
HETATM   18  N   UNL     1     -13.394  10.665  72.452  1.00  0.00    -0.524 NA 
HETATM   19  C   UNL     1     -11.980   8.778  71.886  1.00  0.00    -0.435 A  
HETATM   20  H1  UNL     1     -13.578  10.270  73.373  1.00  0.00     0.000 HD 
HETATM   21  C   UNL     1     -11.137   8.112  70.991  1.00  0.00    -0.281 A  
HETATM   22  H2  UNL     1     -14.282  10.757  71.958  1.00  0.00     0.000 HD 
ENDBRANCH  11  14
ENDBRANCH   9  11
ENDBRANCH   6   9
ENDBRANCH   2   3
TORSDOF 4
ENDMDL
MODEL      160
REMARK 921   NORMALIZED FREE ENERGY PREDICTED BY IDOCK:   -3.86 KCAL/MOL
REMARK 922        TOTAL FREE ENERGY PREDICTED BY IDOCK:   -5.11 KCAL/MOL
REMARK 923 INTER-LIGAND FREE ENERGY PREDICTED BY IDOCK:   -4.81 KCAL/MOL
REMARK 924 INTRA-LIGAND FREE ENERGY PREDICTED BY IDOCK:   -0.30 KCAL/MOL
REMARK 927      BINDING AFFINITY PREDICTED BY RF-SCORE:    0.00 PKD
ROOT
HETATM    1  C   UNL     1      -6.038   6.281  66.888  1.00  0.00    -0.025 C  
HETATM    2  O   UNL     1      -5.996   7.618  66.404  1.00  0.00    -0.038 OA 
ENDROOT
BRANCH   2   3
HETATM    3  C   UNL     1      -6.964   8.451  66.869  1.00  0.00    -0.074 A  
HETATM    4  C   UNL     1      -7.084   9.688  66.270  1.00  0.00    -0.093 A  
HETATM    5  N   UNL     1      -8.020  10.602  66.598  1.00  0.00    -0.128 NA 
HETATM    6  C   UNL     1      -8.858  10.241  67.569  1.00  0.00    -0.128 A  
HETATM    7  C   UNL     1      -7.897   8.200  67.854  1.00  0.00    -0.122 A  
HETATM    8  N   UNL     1      -8.846   9.086  68.244  1.00  0.00    -0.133 NA 
BRANCH   6   9
HETATM    9  N   UNL     1      -9.794  11.187  67.958  1.00  0.00    -0.170 N  
HETATM   10  H   UNL     1      -9.619  11.833  68.726  1.00  0.00     0.000 HD 
BRANCH   9  11
HETATM   11  S   UNL     1     -11.222  11.208  67.099  1.00  0.00    -0.174 S  
HETATM   12  O   UNL     1     -12.350  11.248  68.006  1.00  0.00    -0.432 OA 
HETATM   13  O   UNL     1     -11.115  10.154  66.109  1.00  0.00     0.210 OA 
BRANCH  11  14
HETATM   14  C   UNL     1     -11.211  12.751  66.204  1.00  0.00    -0.298 A  
HETATM   15  C   UNL     1     -11.742  12.809  64.913  1.00  0.00    -0.394 A  
HETATM   16  C   UNL     1     -11.759  14.028  64.227  1.00  0.00    -0.388 A  
HETATM   17  C   UNL     1     -11.218  15.182  64.805  1.00  0.00    -0.388 A  
HETATM   18  N   UNL     1     -11.322  16.413  64.148  1.00  0.00    -1.422 NA 
HETATM   19  C   UNL     1     -10.792  15.129  66.136  1.00  0.00    -0.330 A  
HETATM   20  H1  UNL     1     -10.928  17.255  64.569  1.00  0.00     0.000 HD 
HETATM   21  C   UNL     1     -10.778  13.919  66.836  1.00  0.00    -0.284 A  
HETATM   22  H2  UNL     1     -12.306  16.587  63.944  1.00  0.00     0.000 HD 
ENDBRANCH  11  14
ENDBRANCH   9  11
ENDBRANCH   6   9
ENDBRANCH   2   3
TORSDOF 4
ENDMDL
MODEL      161
REMARK 921   NORMALIZED FREE ENERGY PREDICTED BY IDOCK:   -3.85 KCAL/MOL
REMARK 922        TOTAL FREE ENERGY PREDICTED BY IDOCK:   -5.10 KCAL/MOL
REMARK 923 INTER-LIGAND FREE ENERGY PREDICTED BY IDOCK:   -4.80 KCAL/MOL
REMARK 924 INTRA-LIGAND FREE ENERGY PREDICTED BY IDOCK:   -0.30 KCAL/MOL
REMARK 927      BINDING AFFINITY PREDICTED BY RF-SCORE:    0.00 PKD
ROOT
HETATM    1  C   UNL     1     -10.835  20.239  65.719  1.00  0.00     0.086 C  
HETATM    2  O   UNL     1     -10.219  20.472  66.980  1.00  0.00    -0.376 OA 
ENDROOT
BRANCH   2   3
HETATM    3  C   UNL     1      -9.700  19.380  67.600  1.00  0.00    -0.331 A  
HETATM    4  C   UNL     1     -10.523  18.284  67.760  1.00  0.00    -0.410 A  
HETATM    5  N   UNL     1     -10.136  17.120  68.320  1.00  0.00    -0.295 NA 
HETATM    6  C   UNL     1      -8.869  17.074  68.730  1.00  0.00    -0.244 A  
HETATM    7  C   UNL     1      -8.411  19.198  68.061  1.00  0.00    -0.305 A  
HETATM    8  N   UNL     1      -7.970  18.061  68.653  1.00  0.00    -0.308 NA 
BRANCH   6   9
HETATM    9  N   UNL     1      -8.466  15.904  69.356  1.00  0.00    -0.242 N  
HETATM   10  H   UNL     1      -8.582  15.764  70.360  1.00  0.00     0.000 HD 
BRANCH   9  11
HETATM   11  S   UNL     1      -7.782  14.742  68.378  1.00  0.00    -0.131 S  
HETATM   12  O   UNL     1      -6.567  14.234  68.980  1.00  0.00    -0.093 OA 
HETATM   13  O   UNL     1      -7.759  15.300  67.040  1.00  0.00    -0.208 OA 
BRANCH  11  14
HETATM   14  C   UNL     1      -8.956  13.399  68.350  1.00  0.00    -0.136 A  
HETATM   15  C   UNL     1     -10.293  13.639  68.673  1.00  0.00    -0.223 A  
HETATM   16  C   UNL     1     -11.216  12.589  68.620  1.00  0.00    -0.319 A  
HETATM   17  C   UNL     1     -10.808  11.294  68.283  1.00  0.00    -0.205 A  
HETATM   18  N   UNL     1     -11.753  10.271  68.145  1.00  0.00    -0.714 NA 
HETATM   19  C   UNL     1      -9.491  11.096  67.858  1.00  0.00    -0.178 A  
HETATM   20  H1  UNL     1     -11.456   9.327  67.900  1.00  0.00     0.000 HD 
HETATM   21  C   UNL     1      -8.560  12.138  67.898  1.00  0.00    -0.167 A  
HETATM   22  H2  UNL     1     -12.457  10.573  67.471  1.00  0.00     0.000 HD 
ENDBRANCH  11  14
ENDBRANCH   9  11
ENDBRANCH   6   9
ENDBRANCH   2   3
TORSDOF 4
ENDMDL
MODEL      162
REMARK 921   NORMALIZED FREE ENERGY PREDICTED BY IDOCK:   -3.85 KCAL/MOL
REMARK 922        TOTAL FREE ENERGY PREDICTED BY IDOCK:   -5.10 KCAL/MOL
REMARK 923 INTER-LIGAND FREE ENERGY PREDICTED BY IDOCK:   -4.77 KCAL/MOL
REMARK 924 INTRA-LIGAND FREE ENERGY PREDICTED BY IDOCK:   -0.32 KCAL/MOL
REMARK 927      BINDING AFFINITY PREDICTED BY RF-SCORE:    0.00 PKD
ROOT
HETATM    1  C   UNL     1     -13.353  11.373  71.907  1.00  0.00    -0.304 C  
HETATM    2  O   UNL     1     -13.415   9.989  72.232  1.00  0.00    -0.417 OA 
ENDROOT
BRANCH   2   3
HETATM    3  C   UNL     1     -12.440   9.208  71.698  1.00  0.00    -0.359 A  
HETATM    4  C   UNL     1     -12.691   7.855  71.594  1.00  0.00    -0.330 A  
HETATM    5  N   UNL     1     -11.835   6.964  71.052  1.00  0.00    -0.346 NA 
HETATM    6  C   UNL     1     -10.687   7.471  70.604  1.00  0.00    -0.230 A  
HETATM    7  C   UNL     1     -11.219   9.604  71.190  1.00  0.00    -0.384 A  
HETATM    8  N   UNL     1     -10.308   8.753  70.655  1.00  0.00    -0.199 NA 
BRANCH   6   9
HETATM    9  N   UNL     1      -9.772   6.565  70.091  1.00  0.00    -0.166 N  
HETATM   10  H   UNL     1      -9.093   6.092  70.686  1.00  0.00     0.000 HD 
BRANCH   9  11
HETATM   11  S   UNL     1      -9.843   6.294  68.449  1.00  0.00    -0.136 S  
HETATM   12  O   UNL     1     -11.217   6.100  68.034  1.00  0.00    -0.310 OA 
HETATM   13  O   UNL     1      -8.841   5.286  68.161  1.00  0.00    -0.105 OA 
BRANCH  11  14
HETATM   14  C   UNL     1      -9.275   7.808  67.695  1.00  0.00    -0.136 A  
HETATM   15  C   UNL     1      -7.914   8.121  67.706  1.00  0.00    -0.127 A  
HETATM   16  C   UNL     1      -7.470   9.294  67.088  1.00  0.00    -0.091 A  
HETATM   17  C   UNL     1      -8.377  10.175  66.490  1.00  0.00    -0.124 A  
HETATM   18  N   UNL     1      -7.914  11.299  65.796  1.00  0.00    -0.372 NA 
HETATM   19  C   UNL     1      -9.719   9.793  66.393  1.00  0.00    -0.275 A  
HETATM   20  H1  UNL     1      -8.575  11.942  65.360  1.00  0.00     0.000 HD 
HETATM   21  C   UNL     1     -10.175   8.619  66.999  1.00  0.00    -0.360 A  
HETATM   22  H2  UNL     1      -7.252  10.987  65.085  1.00  0.00     0.000 HD 
ENDBRANCH  11  14
ENDBRANCH   9  11
ENDBRANCH   6   9
ENDBRANCH   2   3
TORSDOF 4
ENDMDL
MODEL      163
REMARK 921   NORMALIZED FREE ENERGY PREDICTED BY IDOCK:   -3.83 KCAL/MOL
REMARK 922        TOTAL FREE ENERGY PREDICTED BY IDOCK:   -5.07 KCAL/MOL
REMARK 923 INTER-LIGAND FREE ENERGY PREDICTED BY IDOCK:   -4.69 KCAL/MOL
REMARK 924 INTRA-LIGAND FREE ENERGY PREDICTED BY IDOCK:   -0.38 KCAL/MOL
REMARK 927      BINDING AFFINITY PREDICTED BY RF-SCORE:    0.00 PKD
ROOT
HETATM    1  C   UNL     1      -8.169  13.468  67.380  1.00  0.00    -0.181 C  
HETATM    2  O   UNL     1      -9.499  13.155  66.981  1.00  0.00    -0.225 OA 
ENDROOT
BRANCH   2   3
HETATM    3  C   UNL     1      -9.884  11.863  67.152  1.00  0.00    -0.194 A  
HETATM    4  C   UNL     1      -9.620  10.977  66.127  1.00  0.00    -0.207 A  
HETATM    5  N   UNL     1      -9.908   9.661  66.170  1.00  0.00    -0.247 NA 
HETATM    6  C   UNL     1     -10.485   9.236  67.293  1.00  0.00    -0.264 A  
HETATM    7  C   UNL     1     -10.476  11.294  68.261  1.00  0.00    -0.196 A  
HETATM    8  N   UNL     1     -10.810   9.983  68.354  1.00  0.00    -0.237 NA 
BRANCH   6   9
HETATM    9  N   UNL     1     -10.837   7.896  67.336  1.00  0.00    -0.521 N  
HETATM   10  H   UNL     1     -11.758   7.572  67.041  1.00  0.00     0.000 HD 
BRANCH   9  11
HETATM   11  S   UNL     1      -9.673   6.845  67.897  1.00  0.00    -0.124 S  
HETATM   12  O   UNL     1      -8.416   7.541  68.078  1.00  0.00    -0.123 OA 
HETATM   13  O   UNL     1      -9.745   5.670  67.050  1.00  0.00    -0.127 OA 
BRANCH  11  14
HETATM   14  C   UNL     1     -10.232   6.341  69.515  1.00  0.00    -0.194 A  
HETATM   15  C   UNL     1      -9.449   5.474  70.282  1.00  0.00    -0.211 A  
HETATM   16  C   UNL     1      -9.877   5.107  71.562  1.00  0.00    -0.234 A  
HETATM   17  C   UNL     1     -11.096   5.569  72.068  1.00  0.00    -0.184 A  
HETATM   18  N   UNL     1     -11.472   5.269  73.383  1.00  0.00    -0.497 NA 
HETATM   19  C   UNL     1     -11.811   6.520  71.333  1.00  0.00    -0.384 A  
HETATM   20  H1  UNL     1     -12.361   5.605  73.753  1.00  0.00     0.000 HD 
HETATM   21  C   UNL     1     -11.391   6.902  70.056  1.00  0.00    -0.343 A  
HETATM   22  H2  UNL     1     -10.727   5.576  74.008  1.00  0.00     0.000 HD 
ENDBRANCH  11  14
ENDBRANCH   9  11
ENDBRANCH   6   9
ENDBRANCH   2   3
TORSDOF 4
ENDMDL
MODEL      164
REMARK 921   NORMALIZED FREE ENERGY PREDICTED BY IDOCK:   -3.81 KCAL/MOL
REMARK 922        TOTAL FREE ENERGY PREDICTED BY IDOCK:   -5.05 KCAL/MOL
REMARK 923 INTER-LIGAND FREE ENERGY PREDICTED BY IDOCK:   -4.68 KCAL/MOL
REMARK 924 INTRA-LIGAND FREE ENERGY PREDICTED BY IDOCK:   -0.37 KCAL/MOL
REMARK 927      BINDING AFFINITY PREDICTED BY RF-SCORE:    0.00 PKD
ROOT
HETATM    1  C   UNL     1     -12.952  12.752  71.421  1.00  0.00    -0.266 C  
HETATM    2  O   UNL     1     -13.449  11.538  71.975  1.00  0.00    -0.405 OA 
ENDROOT
BRANCH   2   3
HETATM    3  C   UNL     1     -12.685  10.433  71.770  1.00  0.00    -0.421 A  
HETATM    4  C   UNL     1     -11.591  10.558  70.938  1.00  0.00    -0.292 A  
HETATM    5  N   UNL     1     -10.723   9.562  70.673  1.00  0.00    -0.284 NA 
HETATM    6  C   UNL     1     -10.980   8.401  71.274  1.00  0.00    -0.252 A  
HETATM    7  C   UNL     1     -12.834   9.182  72.335  1.00  0.00    -0.367 A  
HETATM    8  N   UNL     1     -12.008   8.136  72.088  1.00  0.00    -0.337 NA 
BRANCH   6   9
HETATM    9  N   UNL     1     -10.129   7.349  70.973  1.00  0.00    -0.191 N  
HETATM   10  H   UNL     1      -9.277   7.176  71.506  1.00  0.00     0.000 HD 
BRANCH   9  11
HETATM   11  S   UNL     1     -10.577   6.382  69.692  1.00  0.00    -0.286 S  
HETATM   12  O   UNL     1     -12.008   6.459  69.483  1.00  0.00    -0.128 OA 
HETATM   13  O   UNL     1      -9.936   5.099  69.909  1.00  0.00    -0.202 OA 
BRANCH  11  14
HETATM   14  C   UNL     1      -9.796   7.106  68.260  1.00  0.00    -0.151 A  
HETATM   15  C   UNL     1     -10.545   7.903  67.390  1.00  0.00    -0.342 A  
HETATM   16  C   UNL     1      -9.922   8.493  66.286  1.00  0.00    -0.251 A  
HETATM   17  C   UNL     1      -8.567   8.266  66.023  1.00  0.00    -0.149 A  
HETATM   18  N   UNL     1      -7.933   8.933  64.968  1.00  0.00    -0.118 NA 
HETATM   19  C   UNL     1      -7.811   7.557  66.962  1.00  0.00    -0.116 A  
HETATM   20  H1  UNL     1      -6.945   8.767  64.776  1.00  0.00     0.000 HD 
HETATM   21  C   UNL     1      -8.419   6.968  68.074  1.00  0.00    -0.125 A  
HETATM   22  H2  UNL     1      -8.072   9.935  65.092  1.00  0.00     0.000 HD 
ENDBRANCH  11  14
ENDBRANCH   9  11
ENDBRANCH   6   9
ENDBRANCH   2   3
TORSDOF 4
ENDMDL
MODEL      165
REMARK 921   NORMALIZED FREE ENERGY PREDICTED BY IDOCK:   -3.80 KCAL/MOL
REMARK 922        TOTAL FREE ENERGY PREDICTED BY IDOCK:   -5.04 KCAL/MOL
REMARK 923 INTER-LIGAND FREE ENERGY PREDICTED BY IDOCK:   -5.04 KCAL/MOL
REMARK 924 INTRA-LIGAND FREE ENERGY PREDICTED BY IDOCK:   -0.01 KCAL/MOL
REMARK 927      BINDING AFFINITY PREDICTED BY RF-SCORE:    0.00 PKD
ROOT
HETATM    1  C   UNL     1      -6.500  17.683  69.046  1.00  0.00    -0.228 C  
HETATM    2  O   UNL     1      -7.258  18.301  68.012  1.00  0.00    -0.226 OA 
ENDROOT
BRANCH   2   3
HETATM    3  C   UNL     1      -8.306  17.582  67.531  1.00  0.00    -0.215 A  
HETATM    4  C   UNL     1      -8.135  16.931  66.326  1.00  0.00    -0.316 A  
HETATM    5  N   UNL     1      -9.070  16.152  65.746  1.00  0.00    -0.412 NA 
HETATM    6  C   UNL     1     -10.215  16.035  66.416  1.00  0.00    -0.305 A  
HETATM    7  C   UNL     1      -9.534  17.372  68.125  1.00  0.00    -0.288 A  
HETATM    8  N   UNL     1     -10.521  16.620  67.579  1.00  0.00    -0.312 NA 
BRANCH   6   9
HETATM    9  N   UNL     1     -11.209  15.281  65.811  1.00  0.00    -0.294 N  
HETATM   10  H   UNL     1     -11.588  15.525  64.896  1.00  0.00     0.000 HD 
BRANCH   9  11
HETATM   11  S   UNL     1     -11.750  13.955  66.662  1.00  0.00    -0.417 S  
HETATM   12  O   UNL     1     -12.684  13.192  65.859  1.00  0.00    -0.421 OA 
HETATM   13  O   UNL     1     -12.138  14.444  67.971  1.00  0.00    -0.320 OA 
BRANCH  11  14
HETATM   14  C   UNL     1     -10.309  12.932  66.906  1.00  0.00    -0.243 A  
HETATM   15  C   UNL     1      -9.875  12.088  65.881  1.00  0.00    -0.259 A  
HETATM   16  C   UNL     1      -8.727  11.311  66.066  1.00  0.00    -0.165 A  
HETATM   17  C   UNL     1      -8.030  11.341  67.278  1.00  0.00    -0.141 A  
HETATM   18  N   UNL     1      -6.833  10.629  67.421  1.00  0.00    -0.075 NA 
HETATM   19  C   UNL     1      -8.414  12.270  68.250  1.00  0.00    -0.173 A  
HETATM   20  H1  UNL     1      -6.324  10.651  68.304  1.00  0.00     0.000 HD 
HETATM   21  C   UNL     1      -9.555  13.060  68.075  1.00  0.00    -0.224 A  
HETATM   22  H2  UNL     1      -6.198  10.917  66.676  1.00  0.00     0.000 HD 
ENDBRANCH  11  14
ENDBRANCH   9  11
ENDBRANCH   6   9
ENDBRANCH   2   3
TORSDOF 4
ENDMDL
MODEL      166
REMARK 921   NORMALIZED FREE ENERGY PREDICTED BY IDOCK:   -3.79 KCAL/MOL
REMARK 922        TOTAL FREE ENERGY PREDICTED BY IDOCK:   -5.03 KCAL/MOL
REMARK 923 INTER-LIGAND FREE ENERGY PREDICTED BY IDOCK:   -5.23 KCAL/MOL
REMARK 924 INTRA-LIGAND FREE ENERGY PREDICTED BY IDOCK:    0.20 KCAL/MOL
REMARK 927      BINDING AFFINITY PREDICTED BY RF-SCORE:    0.00 PKD
ROOT
HETATM    1  C   UNL     1     -10.040  17.515  65.813  1.00  0.00    -0.105 C  
HETATM    2  O   UNL     1      -9.195  17.254  66.927  1.00  0.00    -0.239 OA 
ENDROOT
BRANCH   2   3
HETATM    3  C   UNL     1      -9.253  15.996  67.438  1.00  0.00    -0.208 A  
HETATM    4  C   UNL     1     -10.454  15.324  67.343  1.00  0.00    -0.270 A  
HETATM    5  N   UNL     1     -10.651  14.059  67.768  1.00  0.00    -0.241 NA 
HETATM    6  C   UNL     1      -9.588  13.464  68.309  1.00  0.00    -0.220 A  
HETATM    7  C   UNL     1      -8.232  15.265  68.010  1.00  0.00    -0.141 A  
HETATM    8  N   UNL     1      -8.375  14.000  68.478  1.00  0.00    -0.156 NA 
BRANCH   6   9
HETATM    9  N   UNL     1      -9.783  12.183  68.801  1.00  0.00    -0.405 N  
HETATM   10  H   UNL     1      -9.006  11.542  68.957  1.00  0.00     0.000 HD 
BRANCH   9  11
HETATM   11  S   UNL     1     -11.359  11.749  69.125  1.00  0.00    -0.297 S  
HETATM   12  O   UNL     1     -12.109  11.633  67.892  1.00  0.00    -0.613 OA 
HETATM   13  O   UNL     1     -11.815  12.634  70.180  1.00  0.00    -0.318 OA 
BRANCH  11  14
HETATM   14  C   UNL     1     -11.262  10.116  69.837  1.00  0.00    -0.287 A  
HETATM   15  C   UNL     1     -10.356   9.187  69.320  1.00  0.00    -0.223 A  
HETATM   16  C   UNL     1     -10.261   7.918  69.901  1.00  0.00    -0.210 A  
HETATM   17  C   UNL     1     -11.089   7.557  70.969  1.00  0.00    -0.257 A  
HETATM   18  N   UNL     1     -10.924   6.318  71.601  1.00  0.00    -0.251 NA 
HETATM   19  C   UNL     1     -11.910   8.533  71.541  1.00  0.00    -0.353 A  
HETATM   20  H1  UNL     1     -11.528   6.054  72.379  1.00  0.00     0.000 HD 
HETATM   21  C   UNL     1     -12.008   9.808  70.976  1.00  0.00    -0.440 A  
HETATM   22  H2  UNL     1      -9.954   6.240  71.905  1.00  0.00     0.000 HD 
ENDBRANCH  11  14
ENDBRANCH   9  11
ENDBRANCH   6   9
ENDBRANCH   2   3
TORSDOF 4
ENDMDL
MODEL      167
REMARK 921   NORMALIZED FREE ENERGY PREDICTED BY IDOCK:   -3.78 KCAL/MOL
REMARK 922        TOTAL FREE ENERGY PREDICTED BY IDOCK:   -5.01 KCAL/MOL
REMARK 923 INTER-LIGAND FREE ENERGY PREDICTED BY IDOCK:   -4.77 KCAL/MOL
REMARK 924 INTRA-LIGAND FREE ENERGY PREDICTED BY IDOCK:   -0.24 KCAL/MOL
REMARK 927      BINDING AFFINITY PREDICTED BY RF-SCORE:    0.00 PKD
ROOT
HETATM    1  C   UNL     1      -7.505  19.678  66.621  1.00  0.00    -0.253 C  
HETATM    2  O   UNL     1      -8.545  19.523  67.579  1.00  0.00    -0.292 OA 
ENDROOT
BRANCH   2   3
HETATM    3  C   UNL     1      -8.795  18.251  67.987  1.00  0.00    -0.280 A  
HETATM    4  C   UNL     1     -10.097  17.800  67.913  1.00  0.00    -0.342 A  
HETATM    5  N   UNL     1     -10.488  16.553  68.244  1.00  0.00    -0.297 NA 
HETATM    6  C   UNL     1      -9.520  15.741  68.666  1.00  0.00    -0.208 A  
HETATM    7  C   UNL     1      -7.889  17.309  68.431  1.00  0.00    -0.254 A  
HETATM    8  N   UNL     1      -8.225  16.049  68.801  1.00  0.00    -0.196 NA 
BRANCH   6   9
HETATM    9  N   UNL     1      -9.909  14.471  69.061  1.00  0.00    -0.348 N  
HETATM   10  H   UNL     1     -10.231  14.278  70.010  1.00  0.00     0.000 HD 
BRANCH   9  11
HETATM   11  S   UNL     1      -9.821  13.278  67.902  1.00  0.00    -0.240 S  
HETATM   12  O   UNL     1      -8.448  13.085  67.486  1.00  0.00    -0.167 OA 
HETATM   13  O   UNL     1     -10.847  13.587  66.924  1.00  0.00    -0.279 OA 
BRANCH  11  14
HETATM   14  C   UNL     1     -10.336  11.781  68.726  1.00  0.00    -0.179 A  
HETATM   15  C   UNL     1      -9.379  10.936  69.292  1.00  0.00    -0.027 A  
HETATM   16  C   UNL     1      -9.789   9.780  69.964  1.00  0.00    -0.295 A  
HETATM   17  C   UNL     1     -11.144   9.442  70.043  1.00  0.00    -0.221 A  
HETATM   18  N   UNL     1     -11.550   8.332  70.793  1.00  0.00    -0.362 NA 
HETATM   19  C   UNL     1     -12.092  10.353  69.567  1.00  0.00    -0.125 A  
HETATM   20  H1  UNL     1     -12.538   8.085  70.852  1.00  0.00     0.000 HD 
HETATM   21  C   UNL     1     -11.696  11.517  68.901  1.00  0.00    -0.403 A  
HETATM   22  H2  UNL     1     -11.188   8.436  71.741  1.00  0.00     0.000 HD 
ENDBRANCH  11  14
ENDBRANCH   9  11
ENDBRANCH   6   9
ENDBRANCH   2   3
TORSDOF 4
ENDMDL
MODEL      168
REMARK 921   NORMALIZED FREE ENERGY PREDICTED BY IDOCK:   -3.77 KCAL/MOL
REMARK 922        TOTAL FREE ENERGY PREDICTED BY IDOCK:   -5.00 KCAL/MOL
REMARK 923 INTER-LIGAND FREE ENERGY PREDICTED BY IDOCK:   -4.75 KCAL/MOL
REMARK 924 INTRA-LIGAND FREE ENERGY PREDICTED BY IDOCK:   -0.25 KCAL/MOL
REMARK 927      BINDING AFFINITY PREDICTED BY RF-SCORE:    0.00 PKD
ROOT
HETATM    1  C   UNL     1      -5.546  17.681  67.008  1.00  0.00    -0.141 C  
HETATM    2  O   UNL     1      -5.949  16.316  66.979  1.00  0.00    -0.290 OA 
ENDROOT
BRANCH   2   3
HETATM    3  C   UNL     1      -7.274  16.090  66.780  1.00  0.00    -0.107 A  
HETATM    4  C   UNL     1      -7.769  14.849  67.124  1.00  0.00    -0.142 A  
HETATM    5  N   UNL     1      -9.065  14.494  67.020  1.00  0.00    -0.227 NA 
HETATM    6  C   UNL     1      -9.882  15.435  66.549  1.00  0.00    -0.272 A  
HETATM    7  C   UNL     1      -8.225  16.975  66.313  1.00  0.00    -0.287 A  
HETATM    8  N   UNL     1      -9.537  16.669  66.164  1.00  0.00    -0.350 NA 
BRANCH   6   9
HETATM    9  N   UNL     1     -11.210  15.074  66.384  1.00  0.00    -0.335 N  
HETATM   10  H   UNL     1     -11.877  15.110  67.154  1.00  0.00     0.000 HD 
BRANCH   9  11
HETATM   11  S   UNL     1     -11.655  14.576  64.857  1.00  0.00    -0.419 S  
HETATM   12  O   UNL     1     -11.040  15.423  63.856  1.00  0.00     0.340 OA 
HETATM   13  O   UNL     1     -13.095  14.407  64.890  1.00  0.00    -0.593 OA 
BRANCH  11  14
HETATM   14  C   UNL     1     -10.954  12.946  64.670  1.00  0.00    -0.332 A  
HETATM   15  C   UNL     1     -10.063  12.690  63.625  1.00  0.00    -0.074 A  
HETATM   16  C   UNL     1      -9.493  11.419  63.500  1.00  0.00    -0.255 A  
HETATM   17  C   UNL     1      -9.832  10.392  64.388  1.00  0.00    -0.328 A  
HETATM   18  N   UNL     1      -9.188   9.151  64.309  1.00  0.00    -0.401 NA 
HETATM   19  C   UNL     1     -10.639  10.696  65.488  1.00  0.00    -0.180 A  
HETATM   20  H1  UNL     1      -9.435   8.403  64.956  1.00  0.00     0.000 HD 
HETATM   21  C   UNL     1     -11.209  11.965  65.630  1.00  0.00    -0.360 A  
HETATM   22  H2  UNL     1      -8.182   9.308  64.367  1.00  0.00     0.000 HD 
ENDBRANCH  11  14
ENDBRANCH   9  11
ENDBRANCH   6   9
ENDBRANCH   2   3
TORSDOF 4
ENDMDL
MODEL      169
REMARK 921   NORMALIZED FREE ENERGY PREDICTED BY IDOCK:   -3.76 KCAL/MOL
REMARK 922        TOTAL FREE ENERGY PREDICTED BY IDOCK:   -4.99 KCAL/MOL
REMARK 923 INTER-LIGAND FREE ENERGY PREDICTED BY IDOCK:   -5.09 KCAL/MOL
REMARK 924 INTRA-LIGAND FREE ENERGY PREDICTED BY IDOCK:    0.10 KCAL/MOL
REMARK 927      BINDING AFFINITY PREDICTED BY RF-SCORE:    0.00 PKD
ROOT
HETATM    1  C   UNL     1      -6.598  12.664  68.500  1.00  0.00    -0.081 C  
HETATM    2  O   UNL     1      -7.921  12.790  67.990  1.00  0.00    -0.136 OA 
ENDROOT
BRANCH   2   3
HETATM    3  C   UNL     1      -8.641  11.640  67.910  1.00  0.00    -0.150 A  
HETATM    4  C   UNL     1      -7.956  10.448  68.028  1.00  0.00    -0.105 A  
HETATM    5  N   UNL     1      -8.540   9.233  68.007  1.00  0.00    -0.121 NA 
HETATM    6  C   UNL     1      -9.864   9.235  67.861  1.00  0.00    -0.167 A  
HETATM    7  C   UNL     1     -10.007  11.503  67.771  1.00  0.00    -0.183 A  
HETATM    8  N   UNL     1     -10.648  10.309  67.720  1.00  0.00    -0.230 NA 
BRANCH   6   9
HETATM    9  N   UNL     1     -10.478   7.994  67.784  1.00  0.00    -0.326 N  
HETATM   10  H   UNL     1     -10.995   7.700  66.955  1.00  0.00     0.000 HD 
BRANCH   9  11
HETATM   11  S   UNL     1     -10.323   7.011  69.120  1.00  0.00    -0.207 S  
HETATM   12  O   UNL     1      -9.010   7.170  69.708  1.00  0.00    -0.142 OA 
HETATM   13  O   UNL     1     -10.791   5.700  68.714  1.00  0.00    -0.239 OA 
BRANCH  11  14
HETATM   14  C   UNL     1     -11.507   7.631  70.301  1.00  0.00    -0.127 A  
HETATM   15  C   UNL     1     -12.659   6.893  70.584  1.00  0.00    -0.099 A  
HETATM   16  C   UNL     1     -13.569   7.368  71.533  1.00  0.00    -0.454 A  
HETATM   17  C   UNL     1     -13.358   8.592  72.176  1.00  0.00    -0.396 A  
HETATM   18  N   UNL     1     -14.227   9.015  73.189  1.00  0.00    -1.190 NA 
HETATM   19  C   UNL     1     -12.149   9.263  71.962  1.00  0.00    -0.406 A  
HETATM   20  H1  UNL     1     -14.073   9.908  73.658  1.00  0.00     0.000 HD 
HETATM   21  C   UNL     1     -11.227   8.794  71.022  1.00  0.00    -0.329 A  
HETATM   22  H2  UNL     1     -14.274   8.283  73.898  1.00  0.00     0.000 HD 
ENDBRANCH  11  14
ENDBRANCH   9  11
ENDBRANCH   6   9
ENDBRANCH   2   3
TORSDOF 4
ENDMDL
MODEL      170
REMARK 921   NORMALIZED FREE ENERGY PREDICTED BY IDOCK:   -3.73 KCAL/MOL
REMARK 922        TOTAL FREE ENERGY PREDICTED BY IDOCK:   -4.95 KCAL/MOL
REMARK 923 INTER-LIGAND FREE ENERGY PREDICTED BY IDOCK:   -4.62 KCAL/MOL
REMARK 924 INTRA-LIGAND FREE ENERGY PREDICTED BY IDOCK:   -0.34 KCAL/MOL
REMARK 927      BINDING AFFINITY PREDICTED BY RF-SCORE:    0.00 PKD
ROOT
HETATM    1  C   UNL     1      -8.652   7.125  68.222  1.00  0.00    -0.122 C  
HETATM    2  O   UNL     1      -8.428   7.538  66.878  1.00  0.00    -0.118 OA 
ENDROOT
BRANCH   2   3
HETATM    3  C   UNL     1      -8.748   8.827  66.590  1.00  0.00    -0.125 A  
HETATM    4  C   UNL     1      -7.726   9.755  66.593  1.00  0.00    -0.102 A  
HETATM    5  N   UNL     1      -7.885  11.058  66.289  1.00  0.00    -0.158 NA 
HETATM    6  C   UNL     1      -9.126  11.427  65.973  1.00  0.00    -0.208 A  
HETATM    7  C   UNL     1      -9.982   9.336  66.238  1.00  0.00    -0.286 A  
HETATM    8  N   UNL     1     -10.208  10.641  65.945  1.00  0.00    -0.256 NA 
BRANCH   6   9
HETATM    9  N   UNL     1      -9.321  12.774  65.709  1.00  0.00    -0.458 N  
HETATM   10  H   UNL     1      -9.010  13.202  64.837  1.00  0.00     0.000 HD 
BRANCH   9  11
HETATM   11  S   UNL     1     -10.092  13.654  66.895  1.00  0.00    -0.265 S  
HETATM   12  O   UNL     1      -9.631  13.240  68.204  1.00  0.00    -0.217 OA 
HETATM   13  O   UNL     1     -11.505  13.620  66.571  1.00  0.00    -0.314 OA 
BRANCH  11  14
HETATM   14  C   UNL     1      -9.554  15.339  66.657  1.00  0.00    -0.257 A  
HETATM   15  C   UNL     1     -10.496  16.340  66.413  1.00  0.00    -0.297 A  
HETATM   16  C   UNL     1     -10.072  17.664  66.257  1.00  0.00    -0.344 A  
HETATM   17  C   UNL     1      -8.713  17.990  66.307  1.00  0.00    -0.168 A  
HETATM   18  N   UNL     1      -8.307  19.329  66.240  1.00  0.00    -0.322 NA 
HETATM   19  C   UNL     1      -7.797  16.995  66.659  1.00  0.00    -0.299 A  
HETATM   20  H1  UNL     1      -7.316  19.567  66.276  1.00  0.00     0.000 HD 
HETATM   21  C   UNL     1      -8.208  15.669  66.826  1.00  0.00    -0.300 A  
HETATM   22  H2  UNL     1      -8.790  19.847  66.974  1.00  0.00     0.000 HD 
ENDBRANCH  11  14
ENDBRANCH   9  11
ENDBRANCH   6   9
ENDBRANCH   2   3
TORSDOF 4
ENDMDL
MODEL      171
REMARK 921   NORMALIZED FREE ENERGY PREDICTED BY IDOCK:   -3.72 KCAL/MOL
REMARK 922        TOTAL FREE ENERGY PREDICTED BY IDOCK:   -4.94 KCAL/MOL
REMARK 923 INTER-LIGAND FREE ENERGY PREDICTED BY IDOCK:   -4.62 KCAL/MOL
REMARK 924 INTRA-LIGAND FREE ENERGY PREDICTED BY IDOCK:   -0.32 KCAL/MOL
REMARK 927      BINDING AFFINITY PREDICTED BY RF-SCORE:    0.00 PKD
ROOT
HETATM    1  C   UNL     1     -10.384  15.644  65.394  1.00  0.00    -0.393 C  
HETATM    2  O   UNL     1     -11.640  15.229  65.920  1.00  0.00    -0.177 OA 
ENDROOT
BRANCH   2   3
HETATM    3  C   UNL     1     -11.655  14.022  66.544  1.00  0.00    -0.374 A  
HETATM    4  C   UNL     1     -11.872  14.009  67.906  1.00  0.00    -0.376 A  
HETATM    5  N   UNL     1     -11.951  12.888  68.651  1.00  0.00    -0.297 NA 
HETATM    6  C   UNL     1     -11.803  11.744  67.985  1.00  0.00    -0.234 A  
HETATM    7  C   UNL     1     -11.526  12.771  65.974  1.00  0.00    -0.350 A  
HETATM    8  N   UNL     1     -11.572  11.610  66.674  1.00  0.00    -0.506 NA 
BRANCH   6   9
HETATM    9  N   UNL     1     -11.828  10.583  68.740  1.00  0.00    -0.516 N  
HETATM   10  H   UNL     1     -12.703  10.127  68.998  1.00  0.00     0.000 HD 
BRANCH   9  11
HETATM   11  S   UNL     1     -10.348   9.972  69.203  1.00  0.00    -0.231 S  
HETATM   12  O   UNL     1     -10.485   9.203  70.423  1.00  0.00    -0.196 OA 
HETATM   13  O   UNL     1      -9.414  11.078  69.134  1.00  0.00    -0.156 OA 
BRANCH  11  14
HETATM   14  C   UNL     1      -9.885   8.831  67.912  1.00  0.00    -0.169 A  
HETATM   15  C   UNL     1      -8.558   8.774  67.480  1.00  0.00    -0.127 A  
HETATM   16  C   UNL     1      -8.193   7.856  66.489  1.00  0.00    -0.113 A  
HETATM   17  C   UNL     1      -9.148   7.021  65.901  1.00  0.00    -0.009 A  
HETATM   18  N   UNL     1      -8.757   6.045  64.977  1.00  0.00    -0.342 NA 
HETATM   19  C   UNL     1     -10.446   7.016  66.422  1.00  0.00     0.121 A  
HETATM   20  H1  UNL     1      -9.453   5.436  64.548  1.00  0.00     0.000 HD 
HETATM   21  C   UNL     1     -10.822   7.921  67.418  1.00  0.00    -0.172 A  
HETATM   22  H2  UNL     1      -8.042   5.461  65.409  1.00  0.00     0.000 HD 
ENDBRANCH  11  14
ENDBRANCH   9  11
ENDBRANCH   6   9
ENDBRANCH   2   3
TORSDOF 4
ENDMDL
MODEL      172
REMARK 921   NORMALIZED FREE ENERGY PREDICTED BY IDOCK:   -3.72 KCAL/MOL
REMARK 922        TOTAL FREE ENERGY PREDICTED BY IDOCK:   -4.94 KCAL/MOL
REMARK 923 INTER-LIGAND FREE ENERGY PREDICTED BY IDOCK:   -4.65 KCAL/MOL
REMARK 924 INTRA-LIGAND FREE ENERGY PREDICTED BY IDOCK:   -0.29 KCAL/MOL
REMARK 927      BINDING AFFINITY PREDICTED BY RF-SCORE:    0.00 PKD
ROOT
HETATM    1  C   UNL     1      -6.657   4.498  74.132  1.00  0.00    -0.062 C  
HETATM    2  O   UNL     1      -6.795   5.867  74.497  1.00  0.00    -0.076 OA 
ENDROOT
BRANCH   2   3
HETATM    3  C   UNL     1      -7.894   6.505  74.015  1.00  0.00    -0.095 A  
HETATM    4  C   UNL     1      -7.718   7.763  73.478  1.00  0.00    -0.140 A  
HETATM    5  N   UNL     1      -8.706   8.498  72.928  1.00  0.00    -0.376 NA 
HETATM    6  C   UNL     1      -9.911   7.931  72.929  1.00  0.00    -0.294 A  
HETATM    7  C   UNL     1      -9.188   6.029  73.946  1.00  0.00    -0.129 A  
HETATM    8  N   UNL     1     -10.226   6.730  73.427  1.00  0.00    -0.238 NA 
BRANCH   6   9
HETATM    9  N   UNL     1     -10.951   8.691  72.417  1.00  0.00    -0.321 N  
HETATM   10  H   UNL     1     -11.443   9.381  72.984  1.00  0.00     0.000 HD 
BRANCH   9  11
HETATM   11  S   UNL     1     -11.350   8.416  70.822  1.00  0.00    -0.246 S  
HETATM   12  O   UNL     1     -12.639   7.760  70.736  1.00  0.00    -0.087 OA 
HETATM   13  O   UNL     1     -10.181   7.817  70.209  1.00  0.00    -0.195 OA 
BRANCH  11  14
HETATM   14  C   UNL     1     -11.535  10.035  70.096  1.00  0.00    -0.277 A  
HETATM   15  C   UNL     1     -11.160  10.246  68.767  1.00  0.00    -0.276 A  
HETATM   16  C   UNL     1     -11.335  11.509  68.193  1.00  0.00    -0.367 A  
HETATM   17  C   UNL     1     -11.847  12.572  68.945  1.00  0.00    -0.301 A  
HETATM   18  N   UNL     1     -12.102  13.807  68.336  1.00  0.00    -0.436 NA 
HETATM   19  C   UNL     1     -12.316  12.315  70.236  1.00  0.00    -0.267 A  
HETATM   20  H1  UNL     1     -12.475  14.582  68.884  1.00  0.00     0.000 HD 
HETATM   21  C   UNL     1     -12.156  11.055  70.820  1.00  0.00    -0.467 A  
HETATM   22  H2  UNL     1     -12.719  13.651  67.539  1.00  0.00     0.000 HD 
ENDBRANCH  11  14
ENDBRANCH   9  11
ENDBRANCH   6   9
ENDBRANCH   2   3
TORSDOF 4
ENDMDL
MODEL      173
REMARK 921   NORMALIZED FREE ENERGY PREDICTED BY IDOCK:   -3.72 KCAL/MOL
REMARK 922        TOTAL FREE ENERGY PREDICTED BY IDOCK:   -4.94 KCAL/MOL
REMARK 923 INTER-LIGAND FREE ENERGY PREDICTED BY IDOCK:   -4.64 KCAL/MOL
REMARK 924 INTRA-LIGAND FREE ENERGY PREDICTED BY IDOCK:   -0.29 KCAL/MOL
REMARK 927      BINDING AFFINITY PREDICTED BY RF-SCORE:    0.00 PKD
ROOT
HETATM    1  C   UNL     1      -7.750   3.075  67.432  1.00  0.00    -0.073 C  
HETATM    2  O   UNL     1      -8.862   3.359  68.274  1.00  0.00    -0.099 OA 
ENDROOT
BRANCH   2   3
HETATM    3  C   UNL     1      -9.388   4.607  68.164  1.00  0.00    -0.135 A  
HETATM    4  C   UNL     1      -9.183   5.285  66.981  1.00  0.00    -0.116 A  
HETATM    5  N   UNL     1      -9.677   6.511  66.714  1.00  0.00    -0.159 NA 
HETATM    6  C   UNL     1     -10.402   7.062  67.686  1.00  0.00    -0.211 A  
HETATM    7  C   UNL     1     -10.162   5.285  69.085  1.00  0.00    -0.210 A  
HETATM    8  N   UNL     1     -10.666   6.527  68.883  1.00  0.00    -0.245 NA 
BRANCH   6   9
HETATM    9  N   UNL     1     -10.874   8.344  67.452  1.00  0.00    -0.485 N  
HETATM   10  H   UNL     1     -11.871   8.549  67.401  1.00  0.00     0.000 HD 
BRANCH   9  11
HETATM   11  S   UNL     1      -9.721   9.532  67.261  1.00  0.00    -0.177 S  
HETATM   12  O   UNL     1      -9.257   9.562  65.889  1.00  0.00    -0.174 OA 
HETATM   13  O   UNL     1      -8.778   9.360  68.349  1.00  0.00    -0.123 OA 
BRANCH  11  14
HETATM   14  C   UNL     1     -10.573  11.070  67.562  1.00  0.00    -0.227 A  
HETATM   15  C   UNL     1     -10.669  11.567  68.864  1.00  0.00    -0.245 A  
HETATM   16  C   UNL     1     -11.311  12.789  69.091  1.00  0.00    -0.337 A  
HETATM   17  C   UNL     1     -11.891  13.499  68.034  1.00  0.00    -0.365 A  
HETATM   18  N   UNL     1     -12.452  14.762  68.259  1.00  0.00    -0.459 NA 
HETATM   19  C   UNL     1     -11.691  13.042  66.728  1.00  0.00    -0.440 A  
HETATM   20  H1  UNL     1     -12.874  15.281  67.489  1.00  0.00     0.000 HD 
HETATM   21  C   UNL     1     -11.043  11.827  66.486  1.00  0.00    -0.364 A  
HETATM   22  H2  UNL     1     -11.745  15.354  68.696  1.00  0.00     0.000 HD 
ENDBRANCH  11  14
ENDBRANCH   9  11
ENDBRANCH   6   9
ENDBRANCH   2   3
TORSDOF 4
ENDMDL
MODEL      174
REMARK 921   NORMALIZED FREE ENERGY PREDICTED BY IDOCK:   -3.71 KCAL/MOL
REMARK 922        TOTAL FREE ENERGY PREDICTED BY IDOCK:   -4.93 KCAL/MOL
REMARK 923 INTER-LIGAND FREE ENERGY PREDICTED BY IDOCK:   -4.62 KCAL/MOL
REMARK 924 INTRA-LIGAND FREE ENERGY PREDICTED BY IDOCK:   -0.31 KCAL/MOL
REMARK 927      BINDING AFFINITY PREDICTED BY RF-SCORE:    0.00 PKD
ROOT
HETATM    1  C   UNL     1     -12.238  15.500  64.438  1.00  0.00    -0.079 C  
HETATM    2  O   UNL     1     -10.903  15.421  64.925  1.00  0.00    -0.421 OA 
ENDROOT
BRANCH   2   3
HETATM    3  C   UNL     1     -10.562  14.259  65.541  1.00  0.00    -0.340 A  
HETATM    4  C   UNL     1     -10.179  14.326  66.865  1.00  0.00    -0.266 A  
HETATM    5  N   UNL     1      -9.851  13.255  67.615  1.00  0.00    -0.224 NA 
HETATM    6  C   UNL     1      -9.914  12.078  66.993  1.00  0.00    -0.204 A  
HETATM    7  C   UNL     1     -10.593  12.981  65.019  1.00  0.00    -0.319 A  
HETATM    8  N   UNL     1     -10.252  11.869  65.716  1.00  0.00    -0.234 NA 
BRANCH   6   9
HETATM    9  N   UNL     1      -9.530  10.969  67.731  1.00  0.00    -0.160 N  
HETATM   10  H   UNL     1      -8.581  10.864  68.090  1.00  0.00     0.000 HD 
BRANCH   9  11
HETATM   11  S   UNL     1     -10.705   9.819  68.001  1.00  0.00    -0.227 S  
HETATM   12  O   UNL     1     -10.747   8.880  66.899  1.00  0.00    -0.230 OA 
HETATM   13  O   UNL     1     -11.899  10.543  68.392  1.00  0.00    -0.380 OA 
BRANCH  11  14
HETATM   14  C   UNL     1     -10.160   8.917  69.440  1.00  0.00    -0.202 A  
HETATM   15  C   UNL     1      -9.482   7.706  69.285  1.00  0.00    -0.158 A  
HETATM   16  C   UNL     1      -9.030   7.017  70.415  1.00  0.00    -0.155 A  
HETATM   17  C   UNL     1      -9.281   7.509  71.700  1.00  0.00    -0.134 A  
HETATM   18  N   UNL     1      -8.747   6.860  72.820  1.00  0.00    -0.120 NA 
HETATM   19  C   UNL     1      -9.864   8.774  71.832  1.00  0.00    -0.395 A  
HETATM   20  H1  UNL     1      -8.929   7.219  73.757  1.00  0.00     0.000 HD 
HETATM   21  C   UNL     1     -10.312   9.477  70.711  1.00  0.00    -0.377 A  
HETATM   22  H2  UNL     1      -7.737   6.785  72.696  1.00  0.00     0.000 HD 
ENDBRANCH  11  14
ENDBRANCH   9  11
ENDBRANCH   6   9
ENDBRANCH   2   3
TORSDOF 4
ENDMDL
MODEL      175
REMARK 921   NORMALIZED FREE ENERGY PREDICTED BY IDOCK:   -3.69 KCAL/MOL
REMARK 922        TOTAL FREE ENERGY PREDICTED BY IDOCK:   -4.90 KCAL/MOL
REMARK 923 INTER-LIGAND FREE ENERGY PREDICTED BY IDOCK:   -4.61 KCAL/MOL
REMARK 924 INTRA-LIGAND FREE ENERGY PREDICTED BY IDOCK:   -0.29 KCAL/MOL
REMARK 927      BINDING AFFINITY PREDICTED BY RF-SCORE:    0.00 PKD
ROOT
HETATM    1  C   UNL     1      -6.663   5.144  71.785  1.00  0.00    -0.048 C  
HETATM    2  O   UNL     1      -7.522   5.974  72.558  1.00  0.00    -0.095 OA 
ENDROOT
BRANCH   2   3
HETATM    3  C   UNL     1      -8.169   6.958  71.879  1.00  0.00    -0.104 A  
HETATM    4  C   UNL     1      -7.749   8.257  72.081  1.00  0.00    -0.124 A  
HETATM    5  N   UNL     1      -8.269   9.328  71.449  1.00  0.00    -0.310 NA 
HETATM    6  C   UNL     1      -9.250   9.066  70.586  1.00  0.00    -0.231 A  
HETATM    7  C   UNL     1      -9.186   6.823  70.955  1.00  0.00    -0.157 A  
HETATM    8  N   UNL     1      -9.764   7.863  70.306  1.00  0.00    -0.182 NA 
BRANCH   6   9
HETATM    9  N   UNL     1      -9.834  10.159  69.966  1.00  0.00    -0.404 N  
HETATM   10  H   UNL     1     -10.684  10.592  70.326  1.00  0.00     0.000 HD 
BRANCH   9  11
HETATM   11  S   UNL     1      -9.068  10.728  68.599  1.00  0.00    -0.178 S  
HETATM   12  O   UNL     1      -8.784   9.634  67.694  1.00  0.00    -0.125 OA 
HETATM   13  O   UNL     1      -8.000  11.593  69.063  1.00  0.00    -0.064 OA 
BRANCH  11  14
HETATM   14  C   UNL     1     -10.263  11.781  67.794  1.00  0.00    -0.191 A  
HETATM   15  C   UNL     1     -10.746  11.440  66.528  1.00  0.00    -0.325 A  
HETATM   16  C   UNL     1     -11.705  12.251  65.914  1.00  0.00    -0.451 A  
HETATM   17  C   UNL     1     -12.159  13.419  66.536  1.00  0.00    -0.388 A  
HETATM   18  N   UNL     1     -13.183  14.175  65.954  1.00  0.00    -0.552 NA 
HETATM   19  C   UNL     1     -11.746  13.685  67.845  1.00  0.00    -0.395 A  
HETATM   20  H1  UNL     1     -13.514  15.027  66.407  1.00  0.00     0.000 HD 
HETATM   21  C   UNL     1     -10.795  12.878  68.475  1.00  0.00    -0.283 A  
HETATM   22  H2  UNL     1     -13.984  13.563  65.796  1.00  0.00     0.000 HD 
ENDBRANCH  11  14
ENDBRANCH   9  11
ENDBRANCH   6   9
ENDBRANCH   2   3
TORSDOF 4
ENDMDL
MODEL      176
REMARK 921   NORMALIZED FREE ENERGY PREDICTED BY IDOCK:   -3.67 KCAL/MOL
REMARK 922        TOTAL FREE ENERGY PREDICTED BY IDOCK:   -4.88 KCAL/MOL
REMARK 923 INTER-LIGAND FREE ENERGY PREDICTED BY IDOCK:   -4.59 KCAL/MOL
REMARK 924 INTRA-LIGAND FREE ENERGY PREDICTED BY IDOCK:   -0.29 KCAL/MOL
REMARK 927      BINDING AFFINITY PREDICTED BY RF-SCORE:    0.00 PKD
ROOT
HETATM    1  C   UNL     1      -6.234   4.689  73.088  1.00  0.00    -0.036 C  
HETATM    2  O   UNL     1      -6.818   5.771  73.804  1.00  0.00    -0.078 OA 
ENDROOT
BRANCH   2   3
HETATM    3  C   UNL     1      -7.397   6.741  73.049  1.00  0.00    -0.079 A  
HETATM    4  C   UNL     1      -7.180   6.706  71.687  1.00  0.00    -0.085 A  
HETATM    5  N   UNL     1      -7.719   7.576  70.809  1.00  0.00    -0.082 NA 
HETATM    6  C   UNL     1      -8.504   8.513  71.340  1.00  0.00    -0.172 A  
HETATM    7  C   UNL     1      -8.235   7.756  73.468  1.00  0.00    -0.183 A  
HETATM    8  N   UNL     1      -8.788   8.674  72.637  1.00  0.00    -0.396 NA 
BRANCH   6   9
HETATM    9  N   UNL     1      -9.026   9.450  70.462  1.00  0.00    -0.252 N  
HETATM   10  H   UNL     1      -8.562  10.341  70.287  1.00  0.00     0.000 HD 
BRANCH   9  11
HETATM   11  S   UNL     1     -10.454   9.038  69.708  1.00  0.00    -0.223 S  
HETATM   12  O   UNL     1     -11.426   8.596  70.685  1.00  0.00    -0.269 OA 
HETATM   13  O   UNL     1     -10.093   8.182  68.594  1.00  0.00    -0.186 OA 
BRANCH  11  14
HETATM   14  C   UNL     1     -11.070  10.558  69.004  1.00  0.00    -0.249 A  
HETATM   15  C   UNL     1     -11.555  11.564  69.842  1.00  0.00    -0.387 A  
HETATM   16  C   UNL     1     -12.008  12.766  69.287  1.00  0.00    -0.300 A  
HETATM   17  C   UNL     1     -12.016  12.956  67.901  1.00  0.00    -0.282 A  
HETATM   18  N   UNL     1     -12.386  14.194  67.362  1.00  0.00    -0.562 NA 
HETATM   19  C   UNL     1     -11.427  11.983  67.088  1.00  0.00    -0.401 A  
HETATM   20  H1  UNL     1     -12.391  14.333  66.352  1.00  0.00     0.000 HD 
HETATM   21  C   UNL     1     -10.962  10.781  67.629  1.00  0.00    -0.365 A  
HETATM   22  H2  UNL     1     -11.801  14.915  67.783  1.00  0.00     0.000 HD 
ENDBRANCH  11  14
ENDBRANCH   9  11
ENDBRANCH   6   9
ENDBRANCH   2   3
TORSDOF 4
ENDMDL
MODEL      177
REMARK 921   NORMALIZED FREE ENERGY PREDICTED BY IDOCK:   -3.64 KCAL/MOL
REMARK 922        TOTAL FREE ENERGY PREDICTED BY IDOCK:   -4.84 KCAL/MOL
REMARK 923 INTER-LIGAND FREE ENERGY PREDICTED BY IDOCK:   -4.79 KCAL/MOL
REMARK 924 INTRA-LIGAND FREE ENERGY PREDICTED BY IDOCK:   -0.06 KCAL/MOL
REMARK 927      BINDING AFFINITY PREDICTED BY RF-SCORE:    0.00 PKD
ROOT
HETATM    1  C   UNL     1     -12.041  13.857  70.201  1.00  0.00    -0.349 C  
HETATM    2  O   UNL     1     -12.279  14.204  68.841  1.00  0.00    -0.328 OA 
ENDROOT
BRANCH   2   3
HETATM    3  C   UNL     1     -11.530  15.225  68.347  1.00  0.00    -0.345 A  
HETATM    4  C   UNL     1     -10.992  15.071  67.086  1.00  0.00    -0.329 A  
HETATM    5  N   UNL     1     -10.262  16.011  66.452  1.00  0.00    -0.291 NA 
HETATM    6  C   UNL     1     -10.075  17.144  67.128  1.00  0.00    -0.295 A  
HETATM    7  C   UNL     1     -11.268  16.446  68.934  1.00  0.00    -0.304 A  
HETATM    8  N   UNL     1     -10.522  17.421  68.358  1.00  0.00    -0.377 NA 
BRANCH   6   9
HETATM    9  N   UNL     1      -9.283  18.103  66.517  1.00  0.00    -0.286 N  
HETATM   10  H   UNL     1      -9.623  18.664  65.737  1.00  0.00     0.000 HD 
BRANCH   9  11
HETATM   11  S   UNL     1      -7.743  18.287  67.128  1.00  0.00    -0.225 S  
HETATM   12  O   UNL     1      -7.732  19.309  68.155  1.00  0.00    -0.276 OA 
HETATM   13  O   UNL     1      -6.862  18.392  65.981  1.00  0.00    -0.230 OA 
BRANCH  11  14
HETATM   14  C   UNL     1      -7.363  16.737  67.925  1.00  0.00    -0.159 A  
HETATM   15  C   UNL     1      -6.958  15.643  67.156  1.00  0.00    -0.169 A  
HETATM   16  C   UNL     1      -6.631  14.439  67.788  1.00  0.00    -0.189 A  
HETATM   17  C   UNL     1      -6.741  14.306  69.176  1.00  0.00    -0.118 A  
HETATM   18  N   UNL     1      -6.326  13.127  69.806  1.00  0.00    -0.260 NA 
HETATM   19  C   UNL     1      -7.042  15.440  69.936  1.00  0.00    -0.073 A  
HETATM   20  H1  UNL     1      -6.406  13.030  70.818  1.00  0.00     0.000 HD 
HETATM   21  C   UNL     1      -7.362  16.653  69.319  1.00  0.00    -0.184 A  
HETATM   22  H2  UNL     1      -5.358  12.945  69.541  1.00  0.00     0.000 HD 
ENDBRANCH  11  14
ENDBRANCH   9  11
ENDBRANCH   6   9
ENDBRANCH   2   3
TORSDOF 4
ENDMDL
MODEL      178
REMARK 921   NORMALIZED FREE ENERGY PREDICTED BY IDOCK:   -3.64 KCAL/MOL
REMARK 922        TOTAL FREE ENERGY PREDICTED BY IDOCK:   -4.84 KCAL/MOL
REMARK 923 INTER-LIGAND FREE ENERGY PREDICTED BY IDOCK:   -4.64 KCAL/MOL
REMARK 924 INTRA-LIGAND FREE ENERGY PREDICTED BY IDOCK:   -0.19 KCAL/MOL
REMARK 927      BINDING AFFINITY PREDICTED BY RF-SCORE:    0.00 PKD
ROOT
HETATM    1  C   UNL     1     -12.107  15.680  64.299  1.00  0.00    -0.063 C  
HETATM    2  O   UNL     1     -10.788  15.514  64.808  1.00  0.00    -0.430 OA 
ENDROOT
BRANCH   2   3
HETATM    3  C   UNL     1     -10.651  14.627  65.828  1.00  0.00    -0.320 A  
HETATM    4  C   UNL     1     -10.821  15.100  67.113  1.00  0.00    -0.320 A  
HETATM    5  N   UNL     1     -10.754  14.331  68.219  1.00  0.00    -0.241 NA 
HETATM    6  C   UNL     1     -10.504  13.040  68.006  1.00  0.00    -0.228 A  
HETATM    7  C   UNL     1     -10.404  13.271  65.746  1.00  0.00    -0.288 A  
HETATM    8  N   UNL     1     -10.302  12.452  66.822  1.00  0.00    -0.220 NA 
BRANCH   6   9
HETATM    9  N   UNL     1     -10.378  12.243  69.133  1.00  0.00    -0.426 N  
HETATM   10  H   UNL     1      -9.651  12.406  69.829  1.00  0.00     0.000 HD 
BRANCH   9  11
HETATM   11  S   UNL     1     -11.481  11.003  69.287  1.00  0.00    -0.330 S  
HETATM   12  O   UNL     1     -12.583  11.198  68.367  1.00  0.00    -0.107 OA 
HETATM   13  O   UNL     1     -11.730  10.856  70.708  1.00  0.00    -0.328 OA 
BRANCH  11  14
HETATM   14  C   UNL     1     -10.614   9.534  68.766  1.00  0.00    -0.214 A  
HETATM   15  C   UNL     1     -10.723   9.096  67.444  1.00  0.00    -0.247 A  
HETATM   16  C   UNL     1     -10.017   7.961  67.032  1.00  0.00    -0.322 A  
HETATM   17  C   UNL     1      -9.233   7.238  67.938  1.00  0.00    -0.131 A  
HETATM   18  N   UNL     1      -8.461   6.158  67.495  1.00  0.00    -0.109 NA 
HETATM   19  C   UNL     1      -9.050   7.752  69.225  1.00  0.00    -0.145 A  
HETATM   20  H1  UNL     1      -7.889   5.631  68.155  1.00  0.00     0.000 HD 
HETATM   21  C   UNL     1      -9.743   8.891  69.647  1.00  0.00    -0.175 A  
HETATM   22  H2  UNL     1      -7.861   6.481  66.737  1.00  0.00     0.000 HD 
ENDBRANCH  11  14
ENDBRANCH   9  11
ENDBRANCH   6   9
ENDBRANCH   2   3
TORSDOF 4
ENDMDL
MODEL      179
REMARK 921   NORMALIZED FREE ENERGY PREDICTED BY IDOCK:   -3.62 KCAL/MOL
REMARK 922        TOTAL FREE ENERGY PREDICTED BY IDOCK:   -4.81 KCAL/MOL
REMARK 923 INTER-LIGAND FREE ENERGY PREDICTED BY IDOCK:   -4.51 KCAL/MOL
REMARK 924 INTRA-LIGAND FREE ENERGY PREDICTED BY IDOCK:   -0.30 KCAL/MOL
REMARK 927      BINDING AFFINITY PREDICTED BY RF-SCORE:    0.00 PKD
ROOT
HETATM    1  C   UNL     1      -8.909   4.100  74.299  1.00  0.00    -0.094 C  
HETATM    2  O   UNL     1      -9.961   5.025  74.550  1.00  0.00    -0.177 OA 
ENDROOT
BRANCH   2   3
HETATM    3  C   UNL     1     -10.416   5.716  73.472  1.00  0.00    -0.254 A  
HETATM    4  C   UNL     1     -10.733   7.046  73.654  1.00  0.00    -0.273 A  
HETATM    5  N   UNL     1     -11.159   7.865  72.671  1.00  0.00    -0.359 NA 
HETATM    6  C   UNL     1     -11.265   7.308  71.465  1.00  0.00    -0.245 A  
HETATM    7  C   UNL     1     -10.562   5.265  72.176  1.00  0.00    -0.221 A  
HETATM    8  N   UNL     1     -11.008   6.033  71.151  1.00  0.00    -0.276 NA 
BRANCH   6   9
HETATM    9  N   UNL     1     -11.752   8.119  70.452  1.00  0.00    -0.474 N  
HETATM   10  H   UNL     1     -12.748   8.182  70.244  1.00  0.00     0.000 HD 
BRANCH   9  11
HETATM   11  S   UNL     1     -10.617   8.985  69.591  1.00  0.00    -0.215 S  
HETATM   12  O   UNL     1      -9.434   9.198  70.398  1.00  0.00    -0.190 OA 
HETATM   13  O   UNL     1     -11.322  10.111  69.012  1.00  0.00    -0.211 OA 
BRANCH  11  14
HETATM   14  C   UNL     1     -10.145   7.926  68.235  1.00  0.00    -0.194 A  
HETATM   15  C   UNL     1     -11.008   6.912  67.813  1.00  0.00    -0.280 A  
HETATM   16  C   UNL     1     -10.647   6.104  66.730  1.00  0.00    -0.351 A  
HETATM   17  C   UNL     1      -9.417   6.277  66.088  1.00  0.00    -0.055 A  
HETATM   18  N   UNL     1      -9.105   5.524  64.949  1.00  0.00    -0.361 NA 
HETATM   19  C   UNL     1      -8.617   7.364  66.452  1.00  0.00    -0.138 A  
HETATM   20  H1  UNL     1      -8.208   5.650  64.480  1.00  0.00     0.000 HD 
HETATM   21  C   UNL     1      -8.969   8.185  67.527  1.00  0.00    -0.143 A  
HETATM   22  H2  UNL     1      -9.847   5.657  64.263  1.00  0.00     0.000 HD 
ENDBRANCH  11  14
ENDBRANCH   9  11
ENDBRANCH   6   9
ENDBRANCH   2   3
TORSDOF 4
ENDMDL
MODEL      180
REMARK 921   NORMALIZED FREE ENERGY PREDICTED BY IDOCK:   -3.61 KCAL/MOL
REMARK 922        TOTAL FREE ENERGY PREDICTED BY IDOCK:   -4.81 KCAL/MOL
REMARK 923 INTER-LIGAND FREE ENERGY PREDICTED BY IDOCK:   -4.54 KCAL/MOL
REMARK 924 INTRA-LIGAND FREE ENERGY PREDICTED BY IDOCK:   -0.27 KCAL/MOL
REMARK 927      BINDING AFFINITY PREDICTED BY RF-SCORE:    0.00 PKD
ROOT
HETATM    1  C   UNL     1     -10.361  19.415  65.988  1.00  0.00    -0.497 C  
HETATM    2  O   UNL     1      -9.881  18.578  67.035  1.00  0.00    -0.301 OA 
ENDROOT
BRANCH   2   3
HETATM    3  C   UNL     1      -9.950  17.240  66.807  1.00  0.00    -0.301 A  
HETATM    4  C   UNL     1      -9.129  16.422  67.555  1.00  0.00    -0.193 A  
HETATM    5  N   UNL     1      -9.115  15.076  67.466  1.00  0.00    -0.181 NA 
HETATM    6  C   UNL     1      -9.967  14.550  66.587  1.00  0.00    -0.270 A  
HETATM    7  C   UNL     1     -10.789  16.570  65.940  1.00  0.00    -0.095 A  
HETATM    8  N   UNL     1     -10.805  15.222  65.790  1.00  0.00    -0.346 NA 
BRANCH   6   9
HETATM    9  N   UNL     1      -9.931  13.172  66.442  1.00  0.00    -0.276 N  
HETATM   10  H   UNL     1      -9.411  12.723  65.689  1.00  0.00     0.000 HD 
BRANCH   9  11
HETATM   11  S   UNL     1     -10.785  12.290  67.569  1.00  0.00    -0.232 S  
HETATM   12  O   UNL     1     -11.688  11.373  66.906  1.00  0.00    -0.507 OA 
HETATM   13  O   UNL     1     -11.291  13.248  68.534  1.00  0.00    -0.247 OA 
BRANCH  11  14
HETATM   14  C   UNL     1      -9.565  11.305  68.420  1.00  0.00    -0.195 A  
HETATM   15  C   UNL     1      -9.975  10.319  69.321  1.00  0.00    -0.244 A  
HETATM   16  C   UNL     1      -9.016   9.528  69.962  1.00  0.00    -0.249 A  
HETATM   17  C   UNL     1      -7.651   9.738  69.739  1.00  0.00    -0.137 A  
HETATM   18  N   UNL     1      -6.704   8.883  70.316  1.00  0.00    -0.040 NA 
HETATM   19  C   UNL     1      -7.265  10.653  68.755  1.00  0.00    -0.087 A  
HETATM   20  H1  UNL     1      -5.708   9.036  70.154  1.00  0.00     0.000 HD 
HETATM   21  C   UNL     1      -8.213  11.444  68.100  1.00  0.00    -0.143 A  
HETATM   22  H2  UNL     1      -6.930   7.926  70.048  1.00  0.00     0.000 HD 
ENDBRANCH  11  14
ENDBRANCH   9  11
ENDBRANCH   6   9
ENDBRANCH   2   3
TORSDOF 4
ENDMDL
MODEL      181
REMARK 921   NORMALIZED FREE ENERGY PREDICTED BY IDOCK:   -3.56 KCAL/MOL
REMARK 922        TOTAL FREE ENERGY PREDICTED BY IDOCK:   -4.74 KCAL/MOL
REMARK 923 INTER-LIGAND FREE ENERGY PREDICTED BY IDOCK:   -4.39 KCAL/MOL
REMARK 924 INTRA-LIGAND FREE ENERGY PREDICTED BY IDOCK:   -0.34 KCAL/MOL
REMARK 927      BINDING AFFINITY PREDICTED BY RF-SCORE:    0.00 PKD
ROOT
HETATM    1  C   UNL     1      -5.797   7.456  62.918  1.00  0.00    -0.050 C  
HETATM    2  O   UNL     1      -5.974   8.682  63.620  1.00  0.00    -0.071 OA 
ENDROOT
BRANCH   2   3
HETATM    3  C   UNL     1      -7.254   9.121  63.739  1.00  0.00    -0.096 A  
HETATM    4  C   UNL     1      -7.640   9.645  64.955  1.00  0.00    -0.116 A  
HETATM    5  N   UNL     1      -8.862  10.154  65.209  1.00  0.00    -0.167 NA 
HETATM    6  C   UNL     1      -9.719  10.124  64.189  1.00  0.00    -0.233 A  
HETATM    7  C   UNL     1      -8.232   9.157  62.765  1.00  0.00    -0.175 A  
HETATM    8  N   UNL     1      -9.486   9.634  62.967  1.00  0.00     0.016 NA 
BRANCH   6   9
HETATM    9  N   UNL     1     -10.998  10.594  64.444  1.00  0.00    -0.041 N  
HETATM   10  H   UNL     1     -11.755   9.969  64.720  1.00  0.00     0.000 HD 
BRANCH   9  11
HETATM   11  S   UNL     1     -11.229  12.235  64.275  1.00  0.00    -0.381 S  
HETATM   12  O   UNL     1     -12.630  12.522  64.047  1.00  0.00    -0.607 OA 
HETATM   13  O   UNL     1     -10.225  12.691  63.333  1.00  0.00    -0.370 OA 
BRANCH  11  14
HETATM   14  C   UNL     1     -10.800  12.937  65.858  1.00  0.00    -0.272 A  
HETATM   15  C   UNL     1      -9.618  13.670  65.995  1.00  0.00    -0.186 A  
HETATM   16  C   UNL     1      -9.301  14.244  67.230  1.00  0.00    -0.215 A  
HETATM   17  C   UNL     1     -10.135  14.063  68.339  1.00  0.00    -0.236 A  
HETATM   18  N   UNL     1      -9.855  14.716  69.545  1.00  0.00    -0.428 NA 
HETATM   19  C   UNL     1     -11.363  13.421  68.156  1.00  0.00    -0.321 A  
HETATM   20  H1  UNL     1     -10.462  14.584  70.353  1.00  0.00     0.000 HD 
HETATM   21  C   UNL     1     -11.697  12.850  66.924  1.00  0.00    -0.445 A  
HETATM   22  H2  UNL     1      -9.780  15.716  69.358  1.00  0.00     0.000 HD 
ENDBRANCH  11  14
ENDBRANCH   9  11
ENDBRANCH   6   9
ENDBRANCH   2   3
TORSDOF 4
ENDMDL
MODEL      182
REMARK 921   NORMALIZED FREE ENERGY PREDICTED BY IDOCK:   -3.55 KCAL/MOL
REMARK 922        TOTAL FREE ENERGY PREDICTED BY IDOCK:   -4.73 KCAL/MOL
REMARK 923 INTER-LIGAND FREE ENERGY PREDICTED BY IDOCK:   -4.77 KCAL/MOL
REMARK 924 INTRA-LIGAND FREE ENERGY PREDICTED BY IDOCK:    0.04 KCAL/MOL
REMARK 927      BINDING AFFINITY PREDICTED BY RF-SCORE:    0.00 PKD
ROOT
HETATM    1  C   UNL     1     -10.389   7.660  69.706  1.00  0.00    -0.223 C  
HETATM    2  O   UNL     1     -10.816   8.986  69.998  1.00  0.00    -0.229 OA 
ENDROOT
BRANCH   2   3
HETATM    3  C   UNL     1     -10.904   9.831  68.937  1.00  0.00    -0.192 A  
HETATM    4  C   UNL     1     -10.034   9.628  67.885  1.00  0.00    -0.166 A  
HETATM    5  N   UNL     1     -10.030  10.360  66.753  1.00  0.00    -0.198 NA 
HETATM    6  C   UNL     1     -10.942  11.330  66.693  1.00  0.00    -0.268 A  
HETATM    7  C   UNL     1     -11.802  10.861  68.746  1.00  0.00    -0.235 A  
HETATM    8  N   UNL     1     -11.832  11.646  67.640  1.00  0.00    -0.615 NA 
BRANCH   6   9
HETATM    9  N   UNL     1     -10.920  12.128  65.560  1.00  0.00    -0.291 N  
HETATM   10  H   UNL     1     -10.880  11.730  64.622  1.00  0.00     0.000 HD 
BRANCH   9  11
HETATM   11  S   UNL     1     -10.963  13.774  65.816  1.00  0.00    -0.283 S  
HETATM   12  O   UNL     1     -12.242  14.160  66.373  1.00  0.00    -0.444 OA 
HETATM   13  O   UNL     1     -10.481  14.387  64.593  1.00  0.00    -0.412 OA 
BRANCH  11  14
HETATM   14  C   UNL     1      -9.728  14.089  67.065  1.00  0.00    -0.256 A  
HETATM   15  C   UNL     1     -10.096  14.702  68.265  1.00  0.00    -0.228 A  
HETATM   16  C   UNL     1      -9.130  14.919  69.254  1.00  0.00    -0.097 A  
HETATM   17  C   UNL     1      -7.795  14.562  69.040  1.00  0.00    -0.106 A  
HETATM   18  N   UNL     1      -6.855  14.701  70.069  1.00  0.00    -0.304 NA 
HETATM   19  C   UNL     1      -7.468  13.852  67.881  1.00  0.00    -0.155 A  
HETATM   20  H1  UNL     1      -5.882  14.440  69.914  1.00  0.00     0.000 HD 
HETATM   21  C   UNL     1      -8.424  13.621  66.888  1.00  0.00    -0.073 A  
HETATM   22  H2  UNL     1      -7.197  14.195  70.886  1.00  0.00     0.000 HD 
ENDBRANCH  11  14
ENDBRANCH   9  11
ENDBRANCH   6   9
ENDBRANCH   2   3
TORSDOF 4
ENDMDL
MODEL      183
REMARK 921   NORMALIZED FREE ENERGY PREDICTED BY IDOCK:   -3.52 KCAL/MOL
REMARK 922        TOTAL FREE ENERGY PREDICTED BY IDOCK:   -4.70 KCAL/MOL
REMARK 923 INTER-LIGAND FREE ENERGY PREDICTED BY IDOCK:   -4.46 KCAL/MOL
REMARK 924 INTRA-LIGAND FREE ENERGY PREDICTED BY IDOCK:   -0.24 KCAL/MOL
REMARK 927      BINDING AFFINITY PREDICTED BY RF-SCORE:    0.00 PKD
ROOT
HETATM    1  C   UNL     1     -10.285  17.208  67.035  1.00  0.00    -0.313 C  
HETATM    2  O   UNL     1     -10.920  16.604  68.156  1.00  0.00    -0.352 OA 
ENDROOT
BRANCH   2   3
HETATM    3  C   UNL     1     -11.059  15.253  68.105  1.00  0.00    -0.308 A  
HETATM    4  C   UNL     1     -10.671  14.614  66.945  1.00  0.00    -0.294 A  
HETATM    5  N   UNL     1     -10.714  13.279  66.764  1.00  0.00    -0.275 NA 
HETATM    6  C   UNL     1     -11.169  12.573  67.799  1.00  0.00    -0.269 A  
HETATM    7  C   UNL     1     -11.503  14.407  69.102  1.00  0.00    -0.294 A  
HETATM    8  N   UNL     1     -11.592  13.061  68.970  1.00  0.00    -0.299 NA 
BRANCH   6   9
HETATM    9  N   UNL     1     -11.271  11.204  67.614  1.00  0.00    -0.288 N  
HETATM   10  H   UNL     1     -12.174  10.738  67.524  1.00  0.00     0.000 HD 
BRANCH   9  11
HETATM   11  S   UNL     1      -9.836  10.359  67.547  1.00  0.00    -0.178 S  
HETATM   12  O   UNL     1      -8.716  11.265  67.693  1.00  0.00    -0.128 OA 
HETATM   13  O   UNL     1      -9.931   9.491  66.389  1.00  0.00    -0.236 OA 
BRANCH  11  14
HETATM   14  C   UNL     1      -9.846   9.299  68.982  1.00  0.00    -0.166 A  
HETATM   15  C   UNL     1      -8.657   8.704  69.413  1.00  0.00    -0.127 A  
HETATM   16  C   UNL     1      -8.664   7.899  70.556  1.00  0.00    -0.136 A  
HETATM   17  C   UNL     1      -9.853   7.652  71.251  1.00  0.00    -0.171 A  
HETATM   18  N   UNL     1      -9.833   6.919  72.443  1.00  0.00    -0.157 NA 
HETATM   19  C   UNL     1     -11.008   8.341  70.869  1.00  0.00    -0.275 A  
HETATM   20  H1  UNL     1     -10.699   6.739  72.950  1.00  0.00     0.000 HD 
HETATM   21  C   UNL     1     -11.014   9.157  69.734  1.00  0.00    -0.195 A  
HETATM   22  H2  UNL     1      -9.173   7.363  73.082  1.00  0.00     0.000 HD 
ENDBRANCH  11  14
ENDBRANCH   9  11
ENDBRANCH   6   9
ENDBRANCH   2   3
TORSDOF 4
ENDMDL
MODEL      184
REMARK 921   NORMALIZED FREE ENERGY PREDICTED BY IDOCK:   -3.52 KCAL/MOL
REMARK 922        TOTAL FREE ENERGY PREDICTED BY IDOCK:   -4.69 KCAL/MOL
REMARK 923 INTER-LIGAND FREE ENERGY PREDICTED BY IDOCK:   -4.36 KCAL/MOL
REMARK 924 INTRA-LIGAND FREE ENERGY PREDICTED BY IDOCK:   -0.33 KCAL/MOL
REMARK 927      BINDING AFFINITY PREDICTED BY RF-SCORE:    0.00 PKD
ROOT
HETATM    1  C   UNL     1      -8.593   6.102  66.373  1.00  0.00    -0.131 C  
HETATM    2  O   UNL     1      -7.817   6.722  67.394  1.00  0.00    -0.107 OA 
ENDROOT
BRANCH   2   3
HETATM    3  C   UNL     1      -8.318   7.878  67.902  1.00  0.00    -0.126 A  
HETATM    4  C   UNL     1      -7.914   9.061  67.318  1.00  0.00    -0.099 A  
HETATM    5  N   UNL     1      -8.356  10.280  67.690  1.00  0.00    -0.114 NA 
HETATM    6  C   UNL     1      -9.236  10.291  68.689  1.00  0.00    -0.159 A  
HETATM    7  C   UNL     1      -9.238   8.029  68.921  1.00  0.00    -0.147 A  
HETATM    8  N   UNL     1      -9.701   9.227  69.354  1.00  0.00    -0.167 NA 
BRANCH   6   9
HETATM    9  N   UNL     1      -9.663  11.537  69.122  1.00  0.00    -0.412 N  
HETATM   10  H   UNL     1      -9.168  12.052  69.850  1.00  0.00     0.000 HD 
BRANCH   9  11
HETATM   11  S   UNL     1     -11.027  12.147  68.385  1.00  0.00    -0.252 S  
HETATM   12  O   UNL     1     -12.040  12.444  69.376  1.00  0.00    -0.265 OA 
HETATM   13  O   UNL     1     -11.322  11.257  67.279  1.00  0.00    -0.371 OA 
BRANCH  11  14
HETATM   14  C   UNL     1     -10.522  13.701  67.668  1.00  0.00    -0.238 A  
HETATM   15  C   UNL     1      -9.188  13.894  67.300  1.00  0.00    -0.235 A  
HETATM   16  C   UNL     1      -8.803  15.102  66.710  1.00  0.00    -0.302 A  
HETATM   17  C   UNL     1      -9.730  16.132  66.518  1.00  0.00    -0.263 A  
HETATM   18  N   UNL     1      -9.354  17.301  65.846  1.00  0.00    -0.524 NA 
HETATM   19  C   UNL     1     -11.078  15.881  66.791  1.00  0.00    -0.064 A  
HETATM   20  H1  UNL     1     -10.030  18.052  65.705  1.00  0.00     0.000 HD 
HETATM   21  C   UNL     1     -11.479  14.674  67.372  1.00  0.00    -0.384 A  
HETATM   22  H2  UNL     1      -8.970  17.040  64.938  1.00  0.00     0.000 HD 
ENDBRANCH  11  14
ENDBRANCH   9  11
ENDBRANCH   6   9
ENDBRANCH   2   3
TORSDOF 4
ENDMDL
MODEL      185
REMARK 921   NORMALIZED FREE ENERGY PREDICTED BY IDOCK:   -3.51 KCAL/MOL
REMARK 922        TOTAL FREE ENERGY PREDICTED BY IDOCK:   -4.69 KCAL/MOL
REMARK 923 INTER-LIGAND FREE ENERGY PREDICTED BY IDOCK:   -4.33 KCAL/MOL
REMARK 924 INTRA-LIGAND FREE ENERGY PREDICTED BY IDOCK:   -0.36 KCAL/MOL
REMARK 927      BINDING AFFINITY PREDICTED BY RF-SCORE:    0.00 PKD
ROOT
HETATM    1  C   UNL     1      -7.378   8.877  63.782  1.00  0.00    -0.101 C  
HETATM    2  O   UNL     1      -6.530   8.776  64.920  1.00  0.00    -0.064 OA 
ENDROOT
BRANCH   2   3
HETATM    3  C   UNL     1      -7.145   8.494  66.098  1.00  0.00    -0.077 A  
HETATM    4  C   UNL     1      -6.355   8.071  67.147  1.00  0.00    -0.056 A  
HETATM    5  N   UNL     1      -6.818   7.793  68.382  1.00  0.00    -0.065 NA 
HETATM    6  C   UNL     1      -8.130   7.950  68.552  1.00  0.00    -0.123 A  
HETATM    7  C   UNL     1      -8.484   8.624  66.408  1.00  0.00    -0.112 A  
HETATM    8  N   UNL     1      -9.013   8.337  67.624  1.00  0.00    -0.135 NA 
BRANCH   6   9
HETATM    9  N   UNL     1      -8.635   7.619  69.799  1.00  0.00    -0.134 N  
HETATM   10  H   UNL     1      -8.963   6.677  70.015  1.00  0.00     0.000 HD 
BRANCH   9  11
HETATM   11  S   UNL     1      -8.676   8.844  70.928  1.00  0.00    -0.225 S  
HETATM   12  O   UNL     1      -8.285  10.098  70.319  1.00  0.00    -0.107 OA 
HETATM   13  O   UNL     1      -7.971   8.345  72.093  1.00  0.00    -0.131 OA 
BRANCH  11  14
HETATM   14  C   UNL     1     -10.391   8.997  71.396  1.00  0.00    -0.326 A  
HETATM   15  C   UNL     1     -10.923   8.150  72.371  1.00  0.00    -0.414 A  
HETATM   16  C   UNL     1     -12.259   8.295  72.756  1.00  0.00    -0.166 A  
HETATM   17  C   UNL     1     -13.079   9.253  72.150  1.00  0.00    -0.443 A  
HETATM   18  N   UNL     1     -14.388   9.450  72.606  1.00  0.00    -0.722 NA 
HETATM   19  C   UNL     1     -12.502  10.162  71.258  1.00  0.00    -0.510 A  
HETATM   20  H1  UNL     1     -14.986  10.149  72.165  1.00  0.00     0.000 HD 
HETATM   21  C   UNL     1     -11.164  10.035  70.870  1.00  0.00    -0.415 A  
HETATM   22  H2  UNL     1     -14.354   9.641  73.607  1.00  0.00     0.000 HD 
ENDBRANCH  11  14
ENDBRANCH   9  11
ENDBRANCH   6   9
ENDBRANCH   2   3
TORSDOF 4
ENDMDL
MODEL      186
REMARK 921   NORMALIZED FREE ENERGY PREDICTED BY IDOCK:   -3.51 KCAL/MOL
REMARK 922        TOTAL FREE ENERGY PREDICTED BY IDOCK:   -4.68 KCAL/MOL
REMARK 923 INTER-LIGAND FREE ENERGY PREDICTED BY IDOCK:   -4.34 KCAL/MOL
REMARK 924 INTRA-LIGAND FREE ENERGY PREDICTED BY IDOCK:   -0.34 KCAL/MOL
REMARK 927      BINDING AFFINITY PREDICTED BY RF-SCORE:    0.00 PKD
ROOT
HETATM    1  C   UNL     1      -8.467   6.221  66.604  1.00  0.00    -0.114 C  
HETATM    2  O   UNL     1      -7.667   6.527  67.740  1.00  0.00    -0.103 OA 
ENDROOT
BRANCH   2   3
HETATM    3  C   UNL     1      -8.298   7.174  68.756  1.00  0.00    -0.126 A  
HETATM    4  C   UNL     1      -8.553   8.520  68.595  1.00  0.00    -0.135 A  
HETATM    5  N   UNL     1      -9.203   9.282  69.497  1.00  0.00    -0.157 NA 
HETATM    6  C   UNL     1      -9.605   8.650  70.599  1.00  0.00    -0.186 A  
HETATM    7  C   UNL     1      -8.772   6.639  69.936  1.00  0.00    -0.141 A  
HETATM    8  N   UNL     1      -9.412   7.359  70.892  1.00  0.00    -0.166 NA 
BRANCH   6   9
HETATM    9  N   UNL     1     -10.228   9.426  71.563  1.00  0.00    -0.259 N  
HETATM   10  H   UNL     1      -9.700   9.909  72.290  1.00  0.00     0.000 HD 
BRANCH   9  11
HETATM   11  S   UNL     1     -11.889   9.527  71.468  1.00  0.00    -0.416 S  
HETATM   12  O   UNL     1     -12.488   9.104  72.716  1.00  0.00    -0.183 OA 
HETATM   13  O   UNL     1     -12.263   8.887  70.222  1.00  0.00     0.163 OA 
BRANCH  11  14
HETATM   14  C   UNL     1     -12.245  11.265  71.276  1.00  0.00    -0.170 A  
HETATM   15  C   UNL     1     -11.840  11.933  70.118  1.00  0.00    -0.390 A  
HETATM   16  C   UNL     1     -12.149  13.287  69.958  1.00  0.00    -0.385 A  
HETATM   17  C   UNL     1     -12.826  13.990  70.961  1.00  0.00    -0.340 A  
HETATM   18  N   UNL     1     -13.208  15.320  70.753  1.00  0.00    -0.647 NA 
HETATM   19  C   UNL     1     -13.317  13.281  72.061  1.00  0.00    -0.582 A  
HETATM   20  H1  UNL     1     -13.702  15.833  71.483  1.00  0.00     0.000 HD 
HETATM   21  C   UNL     1     -13.024  11.925  72.229  1.00  0.00    -0.009 A  
HETATM   22  H2  UNL     1     -13.763  15.365  69.898  1.00  0.00     0.000 HD 
ENDBRANCH  11  14
ENDBRANCH   9  11
ENDBRANCH   6   9
ENDBRANCH   2   3
TORSDOF 4
ENDMDL
MODEL      187
REMARK 921   NORMALIZED FREE ENERGY PREDICTED BY IDOCK:   -3.49 KCAL/MOL
REMARK 922        TOTAL FREE ENERGY PREDICTED BY IDOCK:   -4.66 KCAL/MOL
REMARK 923 INTER-LIGAND FREE ENERGY PREDICTED BY IDOCK:   -4.71 KCAL/MOL
REMARK 924 INTRA-LIGAND FREE ENERGY PREDICTED BY IDOCK:    0.05 KCAL/MOL
REMARK 927      BINDING AFFINITY PREDICTED BY RF-SCORE:    0.00 PKD
ROOT
HETATM    1  C   UNL     1      -9.432   6.534  66.706  1.00  0.00    -0.158 C  
HETATM    2  O   UNL     1      -8.737   6.755  67.929  1.00  0.00    -0.121 OA 
ENDROOT
BRANCH   2   3
HETATM    3  C   UNL     1      -9.413   7.447  68.882  1.00  0.00    -0.144 A  
HETATM    4  C   UNL     1      -8.948   8.704  69.210  1.00  0.00    -0.145 A  
HETATM    5  N   UNL     1      -9.538   9.521  70.106  1.00  0.00    -0.233 NA 
HETATM    6  C   UNL     1     -10.636   9.038  70.687  1.00  0.00    -0.236 A  
HETATM    7  C   UNL     1     -10.562   7.070  69.549  1.00  0.00    -0.234 A  
HETATM    8  N   UNL     1     -11.186   7.837  70.477  1.00  0.00    -0.266 NA 
BRANCH   6   9
HETATM    9  N   UNL     1     -11.227   9.840  71.651  1.00  0.00    -0.245 N  
HETATM   10  H   UNL     1     -10.778  10.023  72.548  1.00  0.00     0.000 HD 
BRANCH   9  11
HETATM   11  S   UNL     1     -12.711  10.490  71.261  1.00  0.00    -0.462 S  
HETATM   12  O   UNL     1     -13.321  11.082  72.433  1.00  0.00    -0.257 OA 
HETATM   13  O   UNL     1     -13.413   9.470  70.505  1.00  0.00     0.079 OA 
BRANCH  11  14
HETATM   14  C   UNL     1     -12.361  11.817  70.122  1.00  0.00    -0.195 A  
HETATM   15  C   UNL     1     -12.189  13.118  70.603  1.00  0.00    -0.402 A  
HETATM   16  C   UNL     1     -11.884  14.150  69.710  1.00  0.00    -0.381 A  
HETATM   17  C   UNL     1     -11.784  13.902  68.337  1.00  0.00    -0.356 A  
HETATM   18  N   UNL     1     -11.390  14.923  67.463  1.00  0.00    -0.333 NA 
HETATM   19  C   UNL     1     -11.851  12.579  67.888  1.00  0.00    -0.383 A  
HETATM   20  H1  UNL     1     -11.317  14.742  66.462  1.00  0.00     0.000 HD 
HETATM   21  C   UNL     1     -12.146  11.536  68.770  1.00  0.00    -0.234 A  
HETATM   22  H2  UNL     1     -10.499  15.297  67.789  1.00  0.00     0.000 HD 
ENDBRANCH  11  14
ENDBRANCH   9  11
ENDBRANCH   6   9
ENDBRANCH   2   3
TORSDOF 4
ENDMDL
MODEL      188
REMARK 921   NORMALIZED FREE ENERGY PREDICTED BY IDOCK:   -3.48 KCAL/MOL
REMARK 922        TOTAL FREE ENERGY PREDICTED BY IDOCK:   -4.64 KCAL/MOL
REMARK 923 INTER-LIGAND FREE ENERGY PREDICTED BY IDOCK:   -4.30 KCAL/MOL
REMARK 924 INTRA-LIGAND FREE ENERGY PREDICTED BY IDOCK:   -0.34 KCAL/MOL
REMARK 927      BINDING AFFINITY PREDICTED BY RF-SCORE:    0.00 PKD
ROOT
HETATM    1  C   UNL     1     -11.051  14.257  64.703  1.00  0.00    -0.363 C  
HETATM    2  O   UNL     1     -10.372  13.006  64.728  1.00  0.00    -0.327 OA 
ENDROOT
BRANCH   2   3
HETATM    3  C   UNL     1     -10.158  12.469  65.958  1.00  0.00    -0.253 A  
HETATM    4  C   UNL     1      -9.736  11.157  66.018  1.00  0.00    -0.226 A  
HETATM    5  N   UNL     1      -9.448  10.504  67.161  1.00  0.00    -0.158 NA 
HETATM    6  C   UNL     1      -9.597  11.213  68.280  1.00  0.00    -0.185 A  
HETATM    7  C   UNL     1     -10.264  13.092  67.186  1.00  0.00    -0.243 A  
HETATM    8  N   UNL     1     -10.011  12.481  68.370  1.00  0.00    -0.226 NA 
BRANCH   6   9
HETATM    9  N   UNL     1      -9.357  10.544  69.470  1.00  0.00    -0.400 N  
HETATM   10  H   UNL     1      -8.466  10.622  69.961  1.00  0.00     0.000 HD 
BRANCH   9  11
HETATM   11  S   UNL     1     -10.604   9.606  70.054  1.00  0.00    -0.281 S  
HETATM   12  O   UNL     1     -11.831   9.909  69.346  1.00  0.00     0.032 OA 
HETATM   13  O   UNL     1     -10.547   9.710  71.499  1.00  0.00    -0.266 OA 
BRANCH  11  14
HETATM   14  C   UNL     1     -10.162   7.926  69.645  1.00  0.00    -0.207 A  
HETATM   15  C   UNL     1     -11.089   6.899  69.834  1.00  0.00    -0.333 A  
HETATM   16  C   UNL     1     -10.749   5.589  69.484  1.00  0.00    -0.332 A  
HETATM   17  C   UNL     1      -9.478   5.290  68.980  1.00  0.00    -0.135 A  
HETATM   18  N   UNL     1      -9.179   3.992  68.548  1.00  0.00    -0.138 NA 
HETATM   19  C   UNL     1      -8.605   6.344  68.696  1.00  0.00    -0.123 A  
HETATM   20  H1  UNL     1      -8.253   3.774  68.181  1.00  0.00     0.000 HD 
HETATM   21  C   UNL     1      -8.935   7.660  69.033  1.00  0.00    -0.137 A  
HETATM   22  H2  UNL     1      -9.874   3.717  67.854  1.00  0.00     0.000 HD 
ENDBRANCH  11  14
ENDBRANCH   9  11
ENDBRANCH   6   9
ENDBRANCH   2   3
TORSDOF 4
ENDMDL
MODEL      189
REMARK 921   NORMALIZED FREE ENERGY PREDICTED BY IDOCK:   -3.47 KCAL/MOL
REMARK 922        TOTAL FREE ENERGY PREDICTED BY IDOCK:   -4.63 KCAL/MOL
REMARK 923 INTER-LIGAND FREE ENERGY PREDICTED BY IDOCK:   -4.24 KCAL/MOL
REMARK 924 INTRA-LIGAND FREE ENERGY PREDICTED BY IDOCK:   -0.38 KCAL/MOL
REMARK 927      BINDING AFFINITY PREDICTED BY RF-SCORE:    0.00 PKD
ROOT
HETATM    1  C   UNL     1     -12.758  14.977  70.430  1.00  0.00    -0.325 C  
HETATM    2  O   UNL     1     -12.435  13.631  70.764  1.00  0.00    -0.343 OA 
ENDROOT
BRANCH   2   3
HETATM    3  C   UNL     1     -12.066  12.833  69.728  1.00  0.00    -0.237 A  
HETATM    4  C   UNL     1     -12.020  13.398  68.470  1.00  0.00    -0.328 A  
HETATM    5  N   UNL     1     -11.635  12.742  67.357  1.00  0.00    -0.336 NA 
HETATM    6  C   UNL     1     -11.289  11.468  67.533  1.00  0.00    -0.299 A  
HETATM    7  C   UNL     1     -11.675  11.510  69.774  1.00  0.00    -0.353 A  
HETATM    8  N   UNL     1     -11.301  10.791  68.687  1.00  0.00    -0.273 NA 
BRANCH   6   9
HETATM    9  N   UNL     1     -10.941  10.760  66.393  1.00  0.00    -0.109 N  
HETATM   10  H   UNL     1     -11.531  10.017  66.020  1.00  0.00     0.000 HD 
BRANCH   9  11
HETATM   11  S   UNL     1      -9.505  11.192  65.666  1.00  0.00    -0.230 S  
HETATM   12  O   UNL     1      -8.598  11.753  66.645  1.00  0.00    -0.178 OA 
HETATM   13  O   UNL     1      -9.862  11.946  64.481  1.00  0.00    -0.242 OA 
BRANCH  11  14
HETATM   14  C   UNL     1      -8.785   9.661  65.099  1.00  0.00    -0.166 A  
HETATM   15  C   UNL     1      -8.900   8.509  65.880  1.00  0.00    -0.219 A  
HETATM   16  C   UNL     1      -8.360   7.304  65.417  1.00  0.00    -0.127 A  
HETATM   17  C   UNL     1      -7.676   7.249  64.198  1.00  0.00    -0.120 A  
HETATM   18  N   UNL     1      -7.219   6.022  63.703  1.00  0.00    -0.055 NA 
HETATM   19  C   UNL     1      -7.666   8.384  63.382  1.00  0.00    -0.141 A  
HETATM   20  H1  UNL     1      -6.720   5.980  62.814  1.00  0.00     0.000 HD 
HETATM   21  C   UNL     1      -8.209   9.592  63.828  1.00  0.00    -0.162 A  
HETATM   22  H2  UNL     1      -8.010   5.379  63.657  1.00  0.00     0.000 HD 
ENDBRANCH  11  14
ENDBRANCH   9  11
ENDBRANCH   6   9
ENDBRANCH   2   3
TORSDOF 4
ENDMDL
MODEL      190
REMARK 921   NORMALIZED FREE ENERGY PREDICTED BY IDOCK:   -3.45 KCAL/MOL
REMARK 922        TOTAL FREE ENERGY PREDICTED BY IDOCK:   -4.61 KCAL/MOL
REMARK 923 INTER-LIGAND FREE ENERGY PREDICTED BY IDOCK:   -4.22 KCAL/MOL
REMARK 924 INTRA-LIGAND FREE ENERGY PREDICTED BY IDOCK:   -0.39 KCAL/MOL
REMARK 927      BINDING AFFINITY PREDICTED BY RF-SCORE:    0.00 PKD
ROOT
HETATM    1  C   UNL     1     -10.143  16.080  68.578  1.00  0.00    -0.233 C  
HETATM    2  O   UNL     1     -10.757  15.483  69.716  1.00  0.00    -0.250 OA 
ENDROOT
BRANCH   2   3
HETATM    3  C   UNL     1     -11.065  14.164  69.603  1.00  0.00    -0.141 A  
HETATM    4  C   UNL     1     -10.500  13.463  68.558  1.00  0.00    -0.252 A  
HETATM    5  N   UNL     1     -10.682  12.145  68.343  1.00  0.00    -0.220 NA 
HETATM    6  C   UNL     1     -11.467  11.523  69.222  1.00  0.00    -0.305 A  
HETATM    7  C   UNL     1     -11.849  13.402  70.445  1.00  0.00    -0.208 A  
HETATM    8  N   UNL     1     -12.088  12.079  70.268  1.00  0.00    -0.340 NA 
BRANCH   6   9
HETATM    9  N   UNL     1     -11.710  10.178  68.989  1.00  0.00    -0.501 N  
HETATM   10  H   UNL     1     -12.562   9.857  68.529  1.00  0.00     0.000 HD 
BRANCH   9  11
HETATM   11  S   UNL     1     -10.533   9.116  69.501  1.00  0.00    -0.222 S  
HETATM   12  O   UNL     1     -11.122   7.830  69.813  1.00  0.00    -0.204 OA 
HETATM   13  O   UNL     1      -9.753   9.825  70.497  1.00  0.00    -0.249 OA 
BRANCH  11  14
HETATM   14  C   UNL     1      -9.466   8.878  68.091  1.00  0.00    -0.143 A  
HETATM   15  C   UNL     1      -8.111   8.597  68.286  1.00  0.00    -0.118 A  
HETATM   16  C   UNL     1      -7.285   8.381  67.178  1.00  0.00    -0.084 A  
HETATM   17  C   UNL     1      -7.792   8.480  65.878  1.00  0.00    -0.099 A  
HETATM   18  N   UNL     1      -6.979   8.173  64.780  1.00  0.00    -0.073 NA 
HETATM   19  C   UNL     1      -9.168   8.653  65.706  1.00  0.00    -0.245 A  
HETATM   20  H1  UNL     1      -7.347   8.245  63.832  1.00  0.00     0.000 HD 
HETATM   21  C   UNL     1     -10.008   8.862  66.804  1.00  0.00    -0.338 A  
HETATM   22  H2  UNL     1      -6.605   7.233  64.910  1.00  0.00     0.000 HD 
ENDBRANCH  11  14
ENDBRANCH   9  11
ENDBRANCH   6   9
ENDBRANCH   2   3
TORSDOF 4
ENDMDL
MODEL      191
REMARK 921   NORMALIZED FREE ENERGY PREDICTED BY IDOCK:   -3.42 KCAL/MOL
REMARK 922        TOTAL FREE ENERGY PREDICTED BY IDOCK:   -4.57 KCAL/MOL
REMARK 923 INTER-LIGAND FREE ENERGY PREDICTED BY IDOCK:   -4.27 KCAL/MOL
REMARK 924 INTRA-LIGAND FREE ENERGY PREDICTED BY IDOCK:   -0.30 KCAL/MOL
REMARK 927      BINDING AFFINITY PREDICTED BY RF-SCORE:    0.00 PKD
ROOT
HETATM    1  C   UNL     1     -10.233   6.666  74.183  1.00  0.00    -0.363 C  
HETATM    2  O   UNL     1     -11.121   7.058  73.143  1.00  0.00    -0.279 OA 
ENDROOT
BRANCH   2   3
HETATM    3  C   UNL     1     -10.683   6.845  71.874  1.00  0.00    -0.218 A  
HETATM    4  C   UNL     1      -9.394   7.231  71.570  1.00  0.00    -0.148 A  
HETATM    5  N   UNL     1      -8.811   7.049  70.368  1.00  0.00    -0.154 NA 
HETATM    6  C   UNL     1      -9.568   6.455  69.447  1.00  0.00    -0.142 A  
HETATM    7  C   UNL     1     -11.357   6.235  70.835  1.00  0.00    -0.325 A  
HETATM    8  N   UNL     1     -10.833   6.045  69.599  1.00  0.00    -0.334 NA 
BRANCH   6   9
HETATM    9  N   UNL     1      -9.006   6.305  68.189  1.00  0.00    -0.116 N  
HETATM   10  H   UNL     1      -8.226   5.671  68.020  1.00  0.00     0.000 HD 
BRANCH   9  11
HETATM   11  S   UNL     1      -9.678   7.219  66.968  1.00  0.00    -0.195 S  
HETATM   12  O   UNL     1     -11.050   6.817  66.740  1.00  0.00    -0.338 OA 
HETATM   13  O   UNL     1      -8.720   7.208  65.880  1.00  0.00    -0.149 OA 
BRANCH  11  14
HETATM   14  C   UNL     1      -9.717   8.889  67.596  1.00  0.00    -0.161 A  
HETATM   15  C   UNL     1      -8.525   9.601  67.749  1.00  0.00    -0.125 A  
HETATM   16  C   UNL     1      -8.563  10.920  68.212  1.00  0.00    -0.139 A  
HETATM   17  C   UNL     1      -9.777  11.522  68.559  1.00  0.00    -0.189 A  
HETATM   18  N   UNL     1      -9.813  12.870  68.936  1.00  0.00    -0.420 NA 
HETATM   19  C   UNL     1     -10.965  10.833  68.297  1.00  0.00    -0.307 A  
HETATM   20  H1  UNL     1     -10.698  13.309  69.189  1.00  0.00     0.000 HD 
HETATM   21  C   UNL     1     -10.943   9.517  67.826  1.00  0.00    -0.165 A  
HETATM   22  H2  UNL     1      -9.381  13.421  68.195  1.00  0.00     0.000 HD 
ENDBRANCH  11  14
ENDBRANCH   9  11
ENDBRANCH   6   9
ENDBRANCH   2   3
TORSDOF 4
ENDMDL
MODEL      192
REMARK 921   NORMALIZED FREE ENERGY PREDICTED BY IDOCK:   -3.40 KCAL/MOL
REMARK 922        TOTAL FREE ENERGY PREDICTED BY IDOCK:   -4.54 KCAL/MOL
REMARK 923 INTER-LIGAND FREE ENERGY PREDICTED BY IDOCK:   -4.91 KCAL/MOL
REMARK 924 INTRA-LIGAND FREE ENERGY PREDICTED BY IDOCK:    0.37 KCAL/MOL
REMARK 927      BINDING AFFINITY PREDICTED BY RF-SCORE:    0.00 PKD
ROOT
HETATM    1  C   UNL     1      -9.142  15.711  66.592  1.00  0.00    -0.282 C  
HETATM    2  O   UNL     1     -10.536  15.430  66.648  1.00  0.00    -0.296 OA 
ENDROOT
BRANCH   2   3
HETATM    3  C   UNL     1     -10.874  14.148  66.943  1.00  0.00    -0.296 A  
HETATM    4  C   UNL     1     -10.086  13.472  67.852  1.00  0.00    -0.248 A  
HETATM    5  N   UNL     1     -10.320  12.212  68.269  1.00  0.00    -0.207 NA 
HETATM    6  C   UNL     1     -11.392  11.622  67.741  1.00  0.00    -0.288 A  
HETATM    7  C   UNL     1     -11.956  13.428  66.478  1.00  0.00    -0.400 A  
HETATM    8  N   UNL     1     -12.230  12.150  66.843  1.00  0.00    -0.429 NA 
BRANCH   6   9
HETATM    9  N   UNL     1     -11.621  10.308  68.117  1.00  0.00    -0.480 N  
HETATM   10  H   UNL     1     -12.501  10.014  68.539  1.00  0.00     0.000 HD 
BRANCH   9  11
HETATM   11  S   UNL     1     -10.376   9.234  67.840  1.00  0.00    -0.234 S  
HETATM   12  O   UNL     1     -10.907   7.919  67.547  1.00  0.00    -0.205 OA 
HETATM   13  O   UNL     1      -9.433   9.419  68.926  1.00  0.00    -0.150 OA 
BRANCH  11  14
HETATM   14  C   UNL     1      -9.571   9.818  66.359  1.00  0.00    -0.200 A  
HETATM   15  C   UNL     1      -8.177   9.887  66.309  1.00  0.00    -0.114 A  
HETATM   16  C   UNL     1      -7.549  10.316  65.135  1.00  0.00    -0.133 A  
HETATM   17  C   UNL     1      -8.301  10.712  64.024  1.00  0.00    -0.020 A  
HETATM   18  N   UNL     1      -7.663  11.054  62.826  1.00  0.00    -0.390 NA 
HETATM   19  C   UNL     1      -9.688  10.533  64.056  1.00  0.00    -0.383 A  
HETATM   20  H1  UNL     1      -8.211  11.342  62.016  1.00  0.00     0.000 HD 
HETATM   21  C   UNL     1     -10.328  10.097  65.219  1.00  0.00    -0.154 A  
HETATM   22  H2  UNL     1      -7.064  10.276  62.549  1.00  0.00     0.000 HD 
ENDBRANCH  11  14
ENDBRANCH   9  11
ENDBRANCH   6   9
ENDBRANCH   2   3
TORSDOF 4
ENDMDL
MODEL      193
REMARK 921   NORMALIZED FREE ENERGY PREDICTED BY IDOCK:   -3.39 KCAL/MOL
REMARK 922        TOTAL FREE ENERGY PREDICTED BY IDOCK:   -4.54 KCAL/MOL
REMARK 923 INTER-LIGAND FREE ENERGY PREDICTED BY IDOCK:   -4.25 KCAL/MOL
REMARK 924 INTRA-LIGAND FREE ENERGY PREDICTED BY IDOCK:   -0.29 KCAL/MOL
REMARK 927      BINDING AFFINITY PREDICTED BY RF-SCORE:    0.00 PKD
ROOT
HETATM    1  C   UNL     1      -7.603   8.287  62.539  1.00  0.00    -0.112 C  
HETATM    2  O   UNL     1      -7.409   7.739  63.839  1.00  0.00    -0.083 OA 
ENDROOT
BRANCH   2   3
HETATM    3  C   UNL     1      -8.358   8.046  64.762  1.00  0.00    -0.077 A  
HETATM    4  C   UNL     1      -8.455   7.233  65.872  1.00  0.00    -0.144 A  
HETATM    5  N   UNL     1      -9.320   7.435  66.887  1.00  0.00    -0.149 NA 
HETATM    6  C   UNL     1     -10.112   8.499  66.763  1.00  0.00    -0.299 A  
HETATM    7  C   UNL     1      -9.228   9.117  64.760  1.00  0.00    -0.018 A  
HETATM    8  N   UNL     1     -10.136   9.359  65.738  1.00  0.00    -0.219 NA 
BRANCH   6   9
HETATM    9  N   UNL     1     -11.044   8.695  67.769  1.00  0.00    -0.408 N  
HETATM   10  H   UNL     1     -11.942   8.211  67.773  1.00  0.00     0.000 HD 
BRANCH   9  11
HETATM   11  S   UNL     1     -10.617   9.764  68.974  1.00  0.00    -0.222 S  
HETATM   12  O   UNL     1     -11.660  10.751  69.159  1.00  0.00    -0.277 OA 
HETATM   13  O   UNL     1      -9.258  10.180  68.683  1.00  0.00    -0.145 OA 
BRANCH  11  14
HETATM   14  C   UNL     1     -10.544   8.789  70.466  1.00  0.00    -0.215 A  
HETATM   15  C   UNL     1      -9.676   9.161  71.496  1.00  0.00    -0.313 A  
HETATM   16  C   UNL     1      -9.645   8.412  72.676  1.00  0.00    -0.337 A  
HETATM   17  C   UNL     1     -10.445   7.273  72.823  1.00  0.00    -0.260 A  
HETATM   18  N   UNL     1     -10.472   6.583  74.040  1.00  0.00    -0.417 NA 
HETATM   19  C   UNL     1     -11.383   6.981  71.828  1.00  0.00    -0.291 A  
HETATM   20  H1  UNL     1     -11.055   5.753  74.148  1.00  0.00     0.000 HD 
HETATM   21  C   UNL     1     -11.432   7.727  70.647  1.00  0.00    -0.259 A  
HETATM   22  H2  UNL     1     -10.715   7.244  74.778  1.00  0.00     0.000 HD 
ENDBRANCH  11  14
ENDBRANCH   9  11
ENDBRANCH   6   9
ENDBRANCH   2   3
TORSDOF 4
ENDMDL
MODEL      194
REMARK 921   NORMALIZED FREE ENERGY PREDICTED BY IDOCK:   -3.39 KCAL/MOL
REMARK 922        TOTAL FREE ENERGY PREDICTED BY IDOCK:   -4.53 KCAL/MOL
REMARK 923 INTER-LIGAND FREE ENERGY PREDICTED BY IDOCK:   -4.42 KCAL/MOL
REMARK 924 INTRA-LIGAND FREE ENERGY PREDICTED BY IDOCK:   -0.12 KCAL/MOL
REMARK 927      BINDING AFFINITY PREDICTED BY RF-SCORE:    0.00 PKD
ROOT
HETATM    1  C   UNL     1     -10.143   9.603  67.202  1.00  0.00    -0.218 C  
HETATM    2  O   UNL     1     -10.699  10.786  66.638  1.00  0.00    -0.249 OA 
ENDROOT
BRANCH   2   3
HETATM    3  C   UNL     1      -9.927  11.902  66.716  1.00  0.00    -0.195 A  
HETATM    4  C   UNL     1     -10.385  13.041  66.086  1.00  0.00    -0.278 A  
HETATM    5  N   UNL     1      -9.749  14.230  66.111  1.00  0.00    -0.308 NA 
HETATM    6  C   UNL     1      -8.608  14.256  66.799  1.00  0.00    -0.084 A  
HETATM    7  C   UNL     1      -8.739  12.066  67.400  1.00  0.00    -0.170 A  
HETATM    8  N   UNL     1      -8.042  13.228  67.441  1.00  0.00    -0.178 NA 
BRANCH   6   9
HETATM    9  N   UNL     1      -7.911  15.454  66.792  1.00  0.00    -0.296 N  
HETATM   10  H   UNL     1      -7.369  15.757  65.984  1.00  0.00     0.000 HD 
BRANCH   9  11
HETATM   11  S   UNL     1      -8.009  16.372  68.180  1.00  0.00    -0.165 S  
HETATM   12  O   UNL     1      -7.976  17.781  67.849  1.00  0.00    -0.223 OA 
HETATM   13  O   UNL     1      -7.043  15.813  69.105  1.00  0.00    -0.150 OA 
BRANCH  11  14
HETATM   14  C   UNL     1      -9.623  16.029  68.859  1.00  0.00    -0.236 A  
HETATM   15  C   UNL     1      -9.735  15.359  70.079  1.00  0.00    -0.049 A  
HETATM   16  C   UNL     1     -11.001  15.120  70.622  1.00  0.00    -0.260 A  
HETATM   17  C   UNL     1     -12.158  15.512  69.940  1.00  0.00    -0.355 A  
HETATM   18  N   UNL     1     -13.415  15.348  70.534  1.00  0.00    -0.793 NA 
HETATM   19  C   UNL     1     -12.024  16.276  68.777  1.00  0.00     0.136 A  
HETATM   20  H1  UNL     1     -14.259  15.634  70.037  1.00  0.00     0.000 HD 
HETATM   21  C   UNL     1     -10.764  16.530  68.227  1.00  0.00    -0.345 A  
HETATM   22  H2  UNL     1     -13.404  15.813  71.442  1.00  0.00     0.000 HD 
ENDBRANCH  11  14
ENDBRANCH   9  11
ENDBRANCH   6   9
ENDBRANCH   2   3
TORSDOF 4
ENDMDL
MODEL      195
REMARK 921   NORMALIZED FREE ENERGY PREDICTED BY IDOCK:   -3.38 KCAL/MOL
REMARK 922        TOTAL FREE ENERGY PREDICTED BY IDOCK:   -4.52 KCAL/MOL
REMARK 923 INTER-LIGAND FREE ENERGY PREDICTED BY IDOCK:   -4.21 KCAL/MOL
REMARK 924 INTRA-LIGAND FREE ENERGY PREDICTED BY IDOCK:   -0.31 KCAL/MOL
REMARK 927      BINDING AFFINITY PREDICTED BY RF-SCORE:    0.00 PKD
ROOT
HETATM    1  C   UNL     1     -12.356  14.523  64.229  1.00  0.00    -0.369 C  
HETATM    2  O   UNL     1     -12.810  13.509  65.118  1.00  0.00    -0.681 OA 
ENDROOT
BRANCH   2   3
HETATM    3  C   UNL     1     -11.870  12.625  65.544  1.00  0.00    -0.431 A  
HETATM    4  C   UNL     1     -11.906  12.244  66.870  1.00  0.00    -0.264 A  
HETATM    5  N   UNL     1     -11.064  11.348  67.425  1.00  0.00    -0.272 NA 
HETATM    6  C   UNL     1     -10.157  10.827  66.601  1.00  0.00    -0.218 A  
HETATM    7  C   UNL     1     -10.888  12.006  64.798  1.00  0.00    -0.306 A  
HETATM    8  N   UNL     1      -9.998  11.116  65.304  1.00  0.00    -0.245 NA 
BRANCH   6   9
HETATM    9  N   UNL     1      -9.248   9.945  67.163  1.00  0.00    -0.138 N  
HETATM   10  H   UNL     1      -8.476  10.266  67.746  1.00  0.00     0.000 HD 
BRANCH   9  11
HETATM   11  S   UNL     1      -9.488   8.329  66.834  1.00  0.00    -0.203 S  
HETATM   12  O   UNL     1      -8.892   7.984  65.560  1.00  0.00    -0.148 OA 
HETATM   13  O   UNL     1     -10.894   8.070  67.079  1.00  0.00    -0.283 OA 
BRANCH  11  14
HETATM   14  C   UNL     1      -8.581   7.451  68.094  1.00  0.00    -0.123 A  
HETATM   15  C   UNL     1      -9.101   7.358  69.387  1.00  0.00    -0.139 A  
HETATM   16  C   UNL     1      -8.401   6.642  70.363  1.00  0.00    -0.127 A  
HETATM   17  C   UNL     1      -7.168   6.050  70.070  1.00  0.00    -0.073 A  
HETATM   18  N   UNL     1      -6.520   5.261  71.028  1.00  0.00    -0.033 NA 
HETATM   19  C   UNL     1      -6.717   6.060  68.747  1.00  0.00    -0.064 A  
HETATM   20  H1  UNL     1      -5.621   4.829  70.815  1.00  0.00     0.000 HD 
HETATM   21  C   UNL     1      -7.411   6.764  67.758  1.00  0.00    -0.098 A  
HETATM   22  H2  UNL     1      -7.164   4.531  71.331  1.00  0.00     0.000 HD 
ENDBRANCH  11  14
ENDBRANCH   9  11
ENDBRANCH   6   9
ENDBRANCH   2   3
TORSDOF 4
ENDMDL
MODEL      196
REMARK 921   NORMALIZED FREE ENERGY PREDICTED BY IDOCK:   -3.36 KCAL/MOL
REMARK 922        TOTAL FREE ENERGY PREDICTED BY IDOCK:   -4.50 KCAL/MOL
REMARK 923 INTER-LIGAND FREE ENERGY PREDICTED BY IDOCK:   -4.58 KCAL/MOL
REMARK 924 INTRA-LIGAND FREE ENERGY PREDICTED BY IDOCK:    0.08 KCAL/MOL
REMARK 927      BINDING AFFINITY PREDICTED BY RF-SCORE:    0.00 PKD
ROOT
HETATM    1  C   UNL     1      -5.206  11.664  66.918  1.00  0.00    -0.119 C  
HETATM    2  O   UNL     1      -5.402  13.074  66.912  1.00  0.00    -0.231 OA 
ENDROOT
BRANCH   2   3
HETATM    3  C   UNL     1      -6.536  13.520  67.514  1.00  0.00    -0.100 A  
HETATM    4  C   UNL     1      -6.952  14.803  67.222  1.00  0.00     0.021 A  
HETATM    5  N   UNL     1      -8.075  15.366  67.712  1.00  0.00    -0.133 NA 
HETATM    6  C   UNL     1      -8.795  14.596  68.526  1.00  0.00    -0.182 A  
HETATM    7  C   UNL     1      -7.374  12.827  68.363  1.00  0.00    -0.118 A  
HETATM    8  N   UNL     1      -8.503  13.346  68.906  1.00  0.00     0.124 NA 
BRANCH   6   9
HETATM    9  N   UNL     1      -9.925  15.174  69.083  1.00  0.00    -0.229 N  
HETATM   10  H   UNL     1      -9.889  16.074  69.561  1.00  0.00     0.000 HD 
BRANCH   9  11
HETATM   11  S   UNL     1     -11.345  14.316  68.928  1.00  0.00    -0.292 S  
HETATM   12  O   UNL     1     -12.476  15.158  69.254  1.00  0.00    -0.126 OA 
HETATM   13  O   UNL     1     -11.139  13.062  69.626  1.00  0.00    -0.080 OA 
BRANCH  11  14
HETATM   14  C   UNL     1     -11.468  13.919  67.193  1.00  0.00    -0.347 A  
HETATM   15  C   UNL     1     -11.292  14.922  66.237  1.00  0.00    -0.306 A  
HETATM   16  C   UNL     1     -11.360  14.600  64.877  1.00  0.00    -0.403 A  
HETATM   17  C   UNL     1     -11.637  13.293  64.465  1.00  0.00    -0.369 A  
HETATM   18  N   UNL     1     -11.613  12.964  63.104  1.00  0.00    -0.816 NA 
HETATM   19  C   UNL     1     -11.702  12.284  65.431  1.00  0.00    -0.424 A  
HETATM   20  H1  UNL     1     -11.815  12.011  62.803  1.00  0.00     0.000 HD 
HETATM   21  C   UNL     1     -11.627  12.590  66.793  1.00  0.00    -0.446 A  
HETATM   22  H2  UNL     1     -10.706  13.236  62.724  1.00  0.00     0.000 HD 
ENDBRANCH  11  14
ENDBRANCH   9  11
ENDBRANCH   6   9
ENDBRANCH   2   3
TORSDOF 4
ENDMDL
MODEL      197
REMARK 921   NORMALIZED FREE ENERGY PREDICTED BY IDOCK:   -3.35 KCAL/MOL
REMARK 922        TOTAL FREE ENERGY PREDICTED BY IDOCK:   -4.49 KCAL/MOL
REMARK 923 INTER-LIGAND FREE ENERGY PREDICTED BY IDOCK:   -4.90 KCAL/MOL
REMARK 924 INTRA-LIGAND FREE ENERGY PREDICTED BY IDOCK:    0.41 KCAL/MOL
REMARK 927      BINDING AFFINITY PREDICTED BY RF-SCORE:    0.00 PKD
ROOT
HETATM    1  C   UNL     1     -12.775  14.430  70.417  1.00  0.00    -0.304 C  
HETATM    2  O   UNL     1     -12.909  13.422  71.412  1.00  0.00    -0.347 OA 
ENDROOT
BRANCH   2   3
HETATM    3  C   UNL     1     -12.526  12.170  71.048  1.00  0.00    -0.269 A  
HETATM    4  C   UNL     1     -13.159  11.105  71.656  1.00  0.00    -0.424 A  
HETATM    5  N   UNL     1     -12.912   9.812  71.368  1.00  0.00    -0.370 NA 
HETATM    6  C   UNL     1     -11.989   9.598  70.431  1.00  0.00    -0.106 A  
HETATM    7  C   UNL     1     -11.598  11.812  70.090  1.00  0.00    -0.195 A  
HETATM    8  N   UNL     1     -11.290  10.530  69.774  1.00  0.00    -0.278 NA 
BRANCH   6   9
HETATM    9  N   UNL     1     -11.683   8.274  70.158  1.00  0.00    -0.452 N  
HETATM   10  H   UNL     1     -11.656   7.913  69.204  1.00  0.00     0.000 HD 
BRANCH   9  11
HETATM   11  S   UNL     1     -11.359   7.305  71.474  1.00  0.00    -0.261 S  
HETATM   12  O   UNL     1     -11.295   5.916  71.069  1.00  0.00    -0.263 OA 
HETATM   13  O   UNL     1     -12.274   7.722  72.519  1.00  0.00    -0.253 OA 
BRANCH  11  14
HETATM   14  C   UNL     1      -9.724   7.772  72.013  1.00  0.00    -0.173 A  
HETATM   15  C   UNL     1      -8.778   8.192  71.075  1.00  0.00    -0.156 A  
HETATM   16  C   UNL     1      -7.507   8.586  71.505  1.00  0.00    -0.123 A  
HETATM   17  C   UNL     1      -7.160   8.530  72.859  1.00  0.00    -0.017 A  
HETATM   18  N   UNL     1      -5.918   9.012  73.288  1.00  0.00    -0.271 NA 
HETATM   19  C   UNL     1      -8.152   8.213  73.792  1.00  0.00    -0.285 A  
HETATM   20  H1  UNL     1      -5.665   8.971  74.276  1.00  0.00     0.000 HD 
HETATM   21  C   UNL     1      -9.429   7.825  73.377  1.00  0.00    -0.349 A  
HETATM   22  H2  UNL     1      -5.820   9.976  72.971  1.00  0.00     0.000 HD 
ENDBRANCH  11  14
ENDBRANCH   9  11
ENDBRANCH   6   9
ENDBRANCH   2   3
TORSDOF 4
ENDMDL
MODEL      198
REMARK 921   NORMALIZED FREE ENERGY PREDICTED BY IDOCK:   -3.34 KCAL/MOL
REMARK 922        TOTAL FREE ENERGY PREDICTED BY IDOCK:   -4.47 KCAL/MOL
REMARK 923 INTER-LIGAND FREE ENERGY PREDICTED BY IDOCK:   -4.23 KCAL/MOL
REMARK 924 INTRA-LIGAND FREE ENERGY PREDICTED BY IDOCK:   -0.23 KCAL/MOL
REMARK 927      BINDING AFFINITY PREDICTED BY RF-SCORE:    0.00 PKD
ROOT
HETATM    1  C   UNL     1      -9.861  10.678  66.962  1.00  0.00    -0.185 C  
HETATM    2  O   UNL     1      -8.730   9.814  66.968  1.00  0.00    -0.133 OA 
ENDROOT
BRANCH   2   3
HETATM    3  C   UNL     1      -8.389   9.287  68.173  1.00  0.00    -0.120 A  
HETATM    4  C   UNL     1      -8.702  10.017  69.301  1.00  0.00    -0.177 A  
HETATM    5  N   UNL     1      -8.462   9.604  70.562  1.00  0.00    -0.196 NA 
HETATM    6  C   UNL     1      -7.883   8.409  70.675  1.00  0.00    -0.092 A  
HETATM    7  C   UNL     1      -7.801   8.065  68.428  1.00  0.00    -0.122 A  
HETATM    8  N   UNL     1      -7.513   7.606  69.671  1.00  0.00    -0.089 NA 
BRANCH   6   9
HETATM    9  N   UNL     1      -7.579   7.990  71.960  1.00  0.00    -0.084 N  
HETATM   10  H   UNL     1      -6.860   8.448  72.520  1.00  0.00     0.000 HD 
BRANCH   9  11
HETATM   11  S   UNL     1      -8.454   6.696  72.540  1.00  0.00    -0.123 S  
HETATM   12  O   UNL     1      -8.378   6.649  73.986  1.00  0.00    -0.122 OA 
HETATM   13  O   UNL     1      -8.056   5.549  71.747  1.00  0.00    -0.114 OA 
BRANCH  11  14
HETATM   14  C   UNL     1     -10.151   7.046  72.114  1.00  0.00    -0.181 A  
HETATM   15  C   UNL     1     -10.833   8.076  72.768  1.00  0.00    -0.438 A  
HETATM   16  C   UNL     1     -12.153   8.367  72.409  1.00  0.00    -0.443 A  
HETATM   17  C   UNL     1     -12.810   7.615  71.429  1.00  0.00    -0.319 A  
HETATM   18  N   UNL     1     -14.099   7.971  71.014  1.00  0.00    -0.632 NA 
HETATM   19  C   UNL     1     -12.079   6.663  70.712  1.00  0.00    -0.364 A  
HETATM   20  H1  UNL     1     -14.578   7.423  70.300  1.00  0.00     0.000 HD 
HETATM   21  C   UNL     1     -10.756   6.368  71.054  1.00  0.00    -0.301 A  
HETATM   22  H2  UNL     1     -14.081   8.946  70.714  1.00  0.00     0.000 HD 
ENDBRANCH  11  14
ENDBRANCH   9  11
ENDBRANCH   6   9
ENDBRANCH   2   3
TORSDOF 4
ENDMDL
MODEL      199
REMARK 921   NORMALIZED FREE ENERGY PREDICTED BY IDOCK:   -3.31 KCAL/MOL
REMARK 922        TOTAL FREE ENERGY PREDICTED BY IDOCK:   -4.44 KCAL/MOL
REMARK 923 INTER-LIGAND FREE ENERGY PREDICTED BY IDOCK:   -4.33 KCAL/MOL
REMARK 924 INTRA-LIGAND FREE ENERGY PREDICTED BY IDOCK:   -0.11 KCAL/MOL
REMARK 927      BINDING AFFINITY PREDICTED BY RF-SCORE:    0.00 PKD
ROOT
HETATM    1  C   UNL     1      -8.758  16.325  67.268  1.00  0.00    -0.182 C  
HETATM    2  O   UNL     1      -9.825  15.740  68.006  1.00  0.00    -0.215 OA 
ENDROOT
BRANCH   2   3
HETATM    3  C   UNL     1      -9.977  14.396  67.869  1.00  0.00    -0.228 A  
HETATM    4  C   UNL     1      -8.835  13.621  67.871  1.00  0.00    -0.188 A  
HETATM    5  N   UNL     1      -8.833  12.275  67.784  1.00  0.00    -0.165 NA 
HETATM    6  C   UNL     1     -10.033  11.704  67.689  1.00  0.00    -0.188 A  
HETATM    7  C   UNL     1     -11.154  13.681  67.774  1.00  0.00    -0.272 A  
HETATM    8  N   UNL     1     -11.214  12.332  67.659  1.00  0.00    -0.271 NA 
BRANCH   6   9
HETATM    9  N   UNL     1     -10.050  10.326  67.545  1.00  0.00    -0.189 N  
HETATM   10  H   UNL     1     -10.461   9.715  68.251  1.00  0.00     0.000 HD 
BRANCH   9  11
HETATM   11  S   UNL     1      -9.362   9.721  66.153  1.00  0.00    -0.207 S  
HETATM   12  O   UNL     1      -7.945  10.018  66.126  1.00  0.00    -0.107 OA 
HETATM   13  O   UNL     1     -10.219  10.141  65.061  1.00  0.00    -0.309 OA 
BRANCH  11  14
HETATM   14  C   UNL     1      -9.525   7.949  66.277  1.00  0.00    -0.151 A  
HETATM   15  C   UNL     1     -10.652   7.397  66.890  1.00  0.00    -0.375 A  
HETATM   16  C   UNL     1     -10.791   6.007  66.958  1.00  0.00    -0.413 A  
HETATM   17  C   UNL     1      -9.797   5.164  66.451  1.00  0.00    -0.193 A  
HETATM   18  N   UNL     1      -9.987   3.777  66.443  1.00  0.00    -0.410 NA 
HETATM   19  C   UNL     1      -8.731   5.731  65.745  1.00  0.00    -0.152 A  
HETATM   20  H1  UNL     1      -9.262   3.161  66.073  1.00  0.00     0.000 HD 
HETATM   21  C   UNL     1      -8.585   7.119  65.662  1.00  0.00    -0.119 A  
HETATM   22  H2  UNL     1     -10.859   3.575  65.955  1.00  0.00     0.000 HD 
ENDBRANCH  11  14
ENDBRANCH   9  11
ENDBRANCH   6   9
ENDBRANCH   2   3
TORSDOF 4
ENDMDL
MODEL      200
REMARK 921   NORMALIZED FREE ENERGY PREDICTED BY IDOCK:   -3.29 KCAL/MOL
REMARK 922        TOTAL FREE ENERGY PREDICTED BY IDOCK:   -4.41 KCAL/MOL
REMARK 923 INTER-LIGAND FREE ENERGY PREDICTED BY IDOCK:   -5.17 KCAL/MOL
REMARK 924 INTRA-LIGAND FREE ENERGY PREDICTED BY IDOCK:    0.76 KCAL/MOL
REMARK 927      BINDING AFFINITY PREDICTED BY RF-SCORE:    0.00 PKD
ROOT
HETATM    1  C   UNL     1      -6.675   9.605  67.379  1.00  0.00    -0.071 C  
HETATM    2  O   UNL     1      -7.419   8.598  66.701  1.00  0.00    -0.087 OA 
ENDROOT
BRANCH   2   3
HETATM    3  C   UNL     1      -8.523   8.138  67.346  1.00  0.00    -0.126 A  
HETATM    4  C   UNL     1      -8.344   7.560  68.586  1.00  0.00    -0.129 A  
HETATM    5  N   UNL     1      -9.347   7.095  69.358  1.00  0.00    -0.148 NA 
HETATM    6  C   UNL     1     -10.571   7.222  68.847  1.00  0.00    -0.191 A  
HETATM    7  C   UNL     1      -9.839   8.215  66.936  1.00  0.00    -0.247 A  
HETATM    8  N   UNL     1     -10.887   7.745  67.657  1.00  0.00    -0.141 NA 
BRANCH   6   9
HETATM    9  N   UNL     1     -11.611   6.702  69.602  1.00  0.00    -0.628 N  
HETATM   10  H   UNL     1     -12.299   6.064  69.202  1.00  0.00     0.000 HD 
BRANCH   9  11
HETATM   11  S   UNL     1     -11.674   7.178  71.197  1.00  0.00    -0.330 S  
HETATM   12  O   UNL     1     -10.388   6.975  71.831  1.00  0.00    -0.193 OA 
HETATM   13  O   UNL     1     -12.869   6.572  71.753  1.00  0.00    -0.293 OA 
BRANCH  11  14
HETATM   14  C   UNL     1     -11.968   8.937  71.153  1.00  0.00    -0.293 A  
HETATM   15  C   UNL     1     -11.231   9.742  70.282  1.00  0.00    -0.347 A  
HETATM   16  C   UNL     1     -11.486  11.116  70.229  1.00  0.00    -0.329 A  
HETATM   17  C   UNL     1     -12.444  11.699  71.065  1.00  0.00    -0.334 A  
HETATM   18  N   UNL     1     -12.754  13.059  70.940  1.00  0.00    -0.266 NA 
HETATM   19  C   UNL     1     -13.245  10.865  71.850  1.00  0.00    -0.508 A  
HETATM   20  H1  UNL     1     -13.453  13.484  71.549  1.00  0.00     0.000 HD 
HETATM   21  C   UNL     1     -13.008   9.488  71.906  1.00  0.00    -0.514 A  
HETATM   22  H2  UNL     1     -13.019  13.240  69.972  1.00  0.00     0.000 HD 
ENDBRANCH  11  14
ENDBRANCH   9  11
ENDBRANCH   6   9
ENDBRANCH   2   3
TORSDOF 4
ENDMDL
MODEL      201
REMARK 921   NORMALIZED FREE ENERGY PREDICTED BY IDOCK:   -3.28 KCAL/MOL
REMARK 922        TOTAL FREE ENERGY PREDICTED BY IDOCK:   -4.40 KCAL/MOL
REMARK 923 INTER-LIGAND FREE ENERGY PREDICTED BY IDOCK:   -4.00 KCAL/MOL
REMARK 924 INTRA-LIGAND FREE ENERGY PREDICTED BY IDOCK:   -0.39 KCAL/MOL
REMARK 927      BINDING AFFINITY PREDICTED BY RF-SCORE:    0.00 PKD
ROOT
HETATM    1  C   UNL     1     -11.131  14.869  64.620  1.00  0.00    -0.323 C  
HETATM    2  O   UNL     1     -10.493  13.598  64.666  1.00  0.00    -0.411 OA 
ENDROOT
BRANCH   2   3
HETATM    3  C   UNL     1     -10.378  13.033  65.897  1.00  0.00    -0.288 A  
HETATM    4  C   UNL     1      -9.626  11.881  66.003  1.00  0.00    -0.235 A  
HETATM    5  N   UNL     1      -9.392  11.233  67.162  1.00  0.00    -0.162 NA 
HETATM    6  C   UNL     1      -9.944  11.777  68.246  1.00  0.00    -0.200 A  
HETATM    7  C   UNL     1     -10.886  13.497  67.093  1.00  0.00    -0.284 A  
HETATM    8  N   UNL     1     -10.705  12.877  68.285  1.00  0.00    -0.236 NA 
BRANCH   6   9
HETATM    9  N   UNL     1      -9.759  11.097  69.439  1.00  0.00    -0.418 N  
HETATM   10  H   UNL     1      -8.915  11.213  70.000  1.00  0.00     0.000 HD 
BRANCH   9  11
HETATM   11  S   UNL     1     -10.994  10.081  69.907  1.00  0.00    -0.311 S  
HETATM   12  O   UNL     1     -11.836   9.761  68.773  1.00  0.00     0.315 OA 
HETATM   13  O   UNL     1     -11.568  10.664  71.104  1.00  0.00    -0.270 OA 
BRANCH  11  14
HETATM   14  C   UNL     1     -10.193   8.568  70.411  1.00  0.00    -0.195 A  
HETATM   15  C   UNL     1      -9.087   8.098  69.699  1.00  0.00    -0.151 A  
HETATM   16  C   UNL     1      -8.444   6.928  70.116  1.00  0.00    -0.140 A  
HETATM   17  C   UNL     1      -8.918   6.204  71.215  1.00  0.00    -0.139 A  
HETATM   18  N   UNL     1      -8.215   5.085  71.678  1.00  0.00    -0.113 NA 
HETATM   19  C   UNL     1      -9.956   6.746  71.979  1.00  0.00    -0.183 A  
HETATM   20  H1  UNL     1      -8.560   4.557  72.480  1.00  0.00     0.000 HD 
HETATM   21  C   UNL     1     -10.603   7.920  71.578  1.00  0.00    -0.262 A  
HETATM   22  H2  UNL     1      -7.253   5.367  71.869  1.00  0.00     0.000 HD 
ENDBRANCH  11  14
ENDBRANCH   9  11
ENDBRANCH   6   9
ENDBRANCH   2   3
TORSDOF 4
ENDMDL
MODEL      202
REMARK 921   NORMALIZED FREE ENERGY PREDICTED BY IDOCK:   -3.27 KCAL/MOL
REMARK 922        TOTAL FREE ENERGY PREDICTED BY IDOCK:   -4.39 KCAL/MOL
REMARK 923 INTER-LIGAND FREE ENERGY PREDICTED BY IDOCK:   -3.97 KCAL/MOL
REMARK 924 INTRA-LIGAND FREE ENERGY PREDICTED BY IDOCK:   -0.41 KCAL/MOL
REMARK 927      BINDING AFFINITY PREDICTED BY RF-SCORE:    0.00 PKD
ROOT
HETATM    1  C   UNL     1     -12.284  14.302  69.169  1.00  0.00    -0.237 C  
HETATM    2  O   UNL     1     -12.012  13.275  70.115  1.00  0.00    -0.330 OA 
ENDROOT
BRANCH   2   3
HETATM    3  C   UNL     1     -11.743  12.047  69.600  1.00  0.00    -0.335 A  
HETATM    4  C   UNL     1     -11.682  11.929  68.226  1.00  0.00    -0.321 A  
HETATM    5  N   UNL     1     -11.388  10.786  67.575  1.00  0.00    -0.456 NA 
HETATM    6  C   UNL     1     -11.149   9.729  68.351  1.00  0.00    -0.088 A  
HETATM    7  C   UNL     1     -11.468  10.881  70.286  1.00  0.00    -0.302 A  
HETATM    8  N   UNL     1     -11.189   9.696  69.688  1.00  0.00    -0.189 NA 
BRANCH   6   9
HETATM    9  N   UNL     1     -10.897   8.531  67.700  1.00  0.00    -0.494 N  
HETATM   10  H   UNL     1     -11.624   7.829  67.564  1.00  0.00     0.000 HD 
BRANCH   9  11
HETATM   11  S   UNL     1      -9.340   8.303  67.154  1.00  0.00    -0.160 S  
HETATM   12  O   UNL     1      -8.412   9.084  67.945  1.00  0.00    -0.120 OA 
HETATM   13  O   UNL     1      -9.388   8.462  65.713  1.00  0.00    -0.168 OA 
BRANCH  11  14
HETATM   14  C   UNL     1      -8.978   6.583  67.465  1.00  0.00    -0.110 A  
HETATM   15  C   UNL     1      -8.069   5.906  66.649  1.00  0.00    -0.102 A  
HETATM   16  C   UNL     1      -7.766   4.567  66.916  1.00  0.00    -0.094 A  
HETATM   17  C   UNL     1      -8.390   3.888  67.967  1.00  0.00    -0.092 A  
HETATM   18  N   UNL     1      -8.013   2.577  68.281  1.00  0.00    -0.057 NA 
HETATM   19  C   UNL     1      -9.212   4.610  68.837  1.00  0.00    -0.181 A  
HETATM   20  H1  UNL     1      -8.468   2.081  69.048  1.00  0.00     0.000 HD 
HETATM   21  C   UNL     1      -9.517   5.952  68.588  1.00  0.00    -0.137 A  
HETATM   22  H2  UNL     1      -7.006   2.562  68.441  1.00  0.00     0.000 HD 
ENDBRANCH  11  14
ENDBRANCH   9  11
ENDBRANCH   6   9
ENDBRANCH   2   3
TORSDOF 4
ENDMDL
MODEL      203
REMARK 921   NORMALIZED FREE ENERGY PREDICTED BY IDOCK:   -3.26 KCAL/MOL
REMARK 922        TOTAL FREE ENERGY PREDICTED BY IDOCK:   -4.37 KCAL/MOL
REMARK 923 INTER-LIGAND FREE ENERGY PREDICTED BY IDOCK:   -4.31 KCAL/MOL
REMARK 924 INTRA-LIGAND FREE ENERGY PREDICTED BY IDOCK:   -0.06 KCAL/MOL
REMARK 927      BINDING AFFINITY PREDICTED BY RF-SCORE:    0.00 PKD
ROOT
HETATM    1  C   UNL     1      -7.185   7.748  66.802  1.00  0.00    -0.088 C  
HETATM    2  O   UNL     1      -6.699   8.645  67.794  1.00  0.00    -0.064 OA 
ENDROOT
BRANCH   2   3
HETATM    3  C   UNL     1      -7.427   9.778  67.981  1.00  0.00    -0.082 A  
HETATM    4  C   UNL     1      -8.567   9.685  68.753  1.00  0.00    -0.125 A  
HETATM    5  N   UNL     1      -9.364  10.729  69.056  1.00  0.00    -0.181 NA 
HETATM    6  C   UNL     1      -8.987  11.904  68.553  1.00  0.00    -0.115 A  
HETATM    7  C   UNL     1      -7.144  11.051  67.529  1.00  0.00    -0.091 A  
HETATM    8  N   UNL     1      -7.919  12.134  67.780  1.00  0.00    -0.139 NA 
BRANCH   6   9
HETATM    9  N   UNL     1      -9.822  12.981  68.809  1.00  0.00    -0.421 N  
HETATM   10  H   UNL     1      -9.577  13.702  69.487  1.00  0.00     0.000 HD 
BRANCH   9  11
HETATM   11  S   UNL     1     -11.246  13.031  67.945  1.00  0.00    -0.289 S  
HETATM   12  O   UNL     1     -11.701  14.399  67.810  1.00  0.00    -0.342 OA 
HETATM   13  O   UNL     1     -12.111  12.025  68.532  1.00  0.00    -0.367 OA 
BRANCH  11  14
HETATM   14  C   UNL     1     -10.827  12.452  66.310  1.00  0.00    -0.266 A  
HETATM   15  C   UNL     1     -10.317  13.347  65.367  1.00  0.00    -0.321 A  
HETATM   16  C   UNL     1      -9.961  12.883  64.097  1.00  0.00    -0.087 A  
HETATM   17  C   UNL     1     -10.144  11.540  63.749  1.00  0.00    -0.366 A  
HETATM   18  N   UNL     1      -9.701  11.068  62.507  1.00  0.00    -0.592 NA 
HETATM   19  C   UNL     1     -10.551  10.640  64.738  1.00  0.00    -0.184 A  
HETATM   20  H1  UNL     1      -9.834  10.089  62.253  1.00  0.00     0.000 HD 
HETATM   21  C   UNL     1     -10.902  11.089  66.015  1.00  0.00    -0.189 A  
HETATM   22  H2  UNL     1      -8.711  11.293  62.413  1.00  0.00     0.000 HD 
ENDBRANCH  11  14
ENDBRANCH   9  11
ENDBRANCH   6   9
ENDBRANCH   2   3
TORSDOF 4
ENDMDL
MODEL      204
REMARK 921   NORMALIZED FREE ENERGY PREDICTED BY IDOCK:   -3.24 KCAL/MOL
REMARK 922        TOTAL FREE ENERGY PREDICTED BY IDOCK:   -4.34 KCAL/MOL
REMARK 923 INTER-LIGAND FREE ENERGY PREDICTED BY IDOCK:   -4.13 KCAL/MOL
REMARK 924 INTRA-LIGAND FREE ENERGY PREDICTED BY IDOCK:   -0.21 KCAL/MOL
REMARK 927      BINDING AFFINITY PREDICTED BY RF-SCORE:    0.00 PKD
ROOT
HETATM    1  C   UNL     1     -13.081  10.326  71.628  1.00  0.00    -0.449 C  
HETATM    2  O   UNL     1     -12.234   9.189  71.759  1.00  0.00    -0.325 OA 
ENDROOT
BRANCH   2   3
HETATM    3  C   UNL     1     -11.224   9.092  70.855  1.00  0.00    -0.295 A  
HETATM    4  C   UNL     1     -10.937  10.208  70.096  1.00  0.00    -0.316 A  
HETATM    5  N   UNL     1      -9.940  10.273  69.190  1.00  0.00    -0.211 NA 
HETATM    6  C   UNL     1      -9.216   9.163  69.053  1.00  0.00    -0.143 A  
HETATM    7  C   UNL     1     -10.395   8.014  70.622  1.00  0.00    -0.202 A  
HETATM    8  N   UNL     1      -9.393   8.011  69.708  1.00  0.00    -0.159 NA 
BRANCH   6   9
HETATM    9  N   UNL     1      -8.221   9.192  68.089  1.00  0.00    -0.115 N  
HETATM   10  H   UNL     1      -7.270   9.492  68.305  1.00  0.00     0.000 HD 
BRANCH   9  11
HETATM   11  S   UNL     1      -8.663   8.707  66.557  1.00  0.00    -0.133 S  
HETATM   12  O   UNL     1      -7.572   8.923  65.630  1.00  0.00    -0.085 OA 
HETATM   13  O   UNL     1      -9.965   9.294  66.307  1.00  0.00    -0.269 OA 
BRANCH  11  14
HETATM   14  C   UNL     1      -8.912   6.944  66.674  1.00  0.00    -0.145 A  
HETATM   15  C   UNL     1      -7.821   6.103  66.904  1.00  0.00    -0.104 A  
HETATM   16  C   UNL     1      -8.025   4.725  67.026  1.00  0.00    -0.103 A  
HETATM   17  C   UNL     1      -9.304   4.176  66.884  1.00  0.00    -0.174 A  
HETATM   18  N   UNL     1      -9.510   2.807  67.097  1.00  0.00    -0.396 NA 
HETATM   19  C   UNL     1     -10.395   5.041  66.764  1.00  0.00    -0.290 A  
HETATM   20  H1  UNL     1     -10.443   2.407  66.994  1.00  0.00     0.000 HD 
HETATM   21  C   UNL     1     -10.207   6.421  66.650  1.00  0.00    -0.216 A  
HETATM   22  H2  UNL     1      -9.160   2.570  68.025  1.00  0.00     0.000 HD 
ENDBRANCH  11  14
ENDBRANCH   9  11
ENDBRANCH   6   9
ENDBRANCH   2   3
TORSDOF 4
ENDMDL
MODEL      205
REMARK 921   NORMALIZED FREE ENERGY PREDICTED BY IDOCK:   -3.24 KCAL/MOL
REMARK 922        TOTAL FREE ENERGY PREDICTED BY IDOCK:   -4.34 KCAL/MOL
REMARK 923 INTER-LIGAND FREE ENERGY PREDICTED BY IDOCK:   -3.95 KCAL/MOL
REMARK 924 INTRA-LIGAND FREE ENERGY PREDICTED BY IDOCK:   -0.39 KCAL/MOL
REMARK 927      BINDING AFFINITY PREDICTED BY RF-SCORE:    0.00 PKD
ROOT
HETATM    1  C   UNL     1      -9.494   5.219  72.817  1.00  0.00    -0.142 C  
HETATM    2  O   UNL     1      -9.853   5.011  71.456  1.00  0.00    -0.164 OA 
ENDROOT
BRANCH   2   3
HETATM    3  C   UNL     1      -9.839   6.113  70.661  1.00  0.00    -0.179 A  
HETATM    4  C   UNL     1     -10.933   6.329  69.849  1.00  0.00    -0.370 A  
HETATM    5  N   UNL     1     -11.077   7.397  69.038  1.00  0.00     0.009 NA 
HETATM    6  C   UNL     1     -10.071   8.271  69.057  1.00  0.00    -0.202 A  
HETATM    7  C   UNL     1      -8.873   7.097  70.592  1.00  0.00    -0.149 A  
HETATM    8  N   UNL     1      -8.950   8.180  69.780  1.00  0.00    -0.143 NA 
BRANCH   6   9
HETATM    9  N   UNL     1     -10.175   9.349  68.192  1.00  0.00    -0.190 N  
HETATM   10  H   UNL     1      -9.799   9.317  67.244  1.00  0.00     0.000 HD 
BRANCH   9  11
HETATM   11  S   UNL     1     -10.948  10.700  68.786  1.00  0.00    -0.267 S  
HETATM   12  O   UNL     1     -11.076  10.611  70.225  1.00  0.00    -0.292 OA 
HETATM   13  O   UNL     1     -12.121  10.894  67.956  1.00  0.00    -0.563 OA 
BRANCH  11  14
HETATM   14  C   UNL     1      -9.849  12.063  68.440  1.00  0.00    -0.204 A  
HETATM   15  C   UNL     1      -8.492  11.820  68.216  1.00  0.00    -0.161 A  
HETATM   16  C   UNL     1      -7.640  12.887  67.914  1.00  0.00    -0.138 A  
HETATM   17  C   UNL     1      -8.124  14.199  67.871  1.00  0.00    -0.154 A  
HETATM   18  N   UNL     1      -7.283  15.248  67.481  1.00  0.00    -0.181 NA 
HETATM   19  C   UNL     1      -9.501  14.409  67.990  1.00  0.00    -0.209 A  
HETATM   20  H1  UNL     1      -7.635  16.204  67.449  1.00  0.00     0.000 HD 
HETATM   21  C   UNL     1     -10.366  13.350  68.282  1.00  0.00    -0.251 A  
HETATM   22  H2  UNL     1      -6.888  15.020  66.568  1.00  0.00     0.000 HD 
ENDBRANCH  11  14
ENDBRANCH   9  11
ENDBRANCH   6   9
ENDBRANCH   2   3
TORSDOF 4
ENDMDL
MODEL      206
REMARK 921   NORMALIZED FREE ENERGY PREDICTED BY IDOCK:   -3.22 KCAL/MOL
REMARK 922        TOTAL FREE ENERGY PREDICTED BY IDOCK:   -4.32 KCAL/MOL
REMARK 923 INTER-LIGAND FREE ENERGY PREDICTED BY IDOCK:   -3.97 KCAL/MOL
REMARK 924 INTRA-LIGAND FREE ENERGY PREDICTED BY IDOCK:   -0.35 KCAL/MOL
REMARK 927      BINDING AFFINITY PREDICTED BY RF-SCORE:    0.00 PKD
ROOT
HETATM    1  C   UNL     1      -7.311   3.134  65.291  1.00  0.00    -0.071 C  
HETATM    2  O   UNL     1      -6.349   3.576  66.242  1.00  0.00    -0.031 OA 
ENDROOT
BRANCH   2   3
HETATM    3  C   UNL     1      -6.822   4.357  67.249  1.00  0.00    -0.052 A  
HETATM    4  C   UNL     1      -8.172   4.293  67.527  1.00  0.00    -0.099 A  
HETATM    5  N   UNL     1      -8.776   4.978  68.519  1.00  0.00    -0.097 NA 
HETATM    6  C   UNL     1      -7.976   5.753  69.250  1.00  0.00    -0.101 A  
HETATM    7  C   UNL     1      -6.106   5.190  68.084  1.00  0.00    -0.027 A  
HETATM    8  N   UNL     1      -6.660   5.922  69.083  1.00  0.00    -0.049 NA 
BRANCH   6   9
HETATM    9  N   UNL     1      -8.586   6.507  70.241  1.00  0.00    -0.135 N  
HETATM   10  H   UNL     1      -8.780   6.124  71.166  1.00  0.00     0.000 HD 
BRANCH   9  11
HETATM   11  S   UNL     1      -8.983   8.074  69.837  1.00  0.00    -0.145 S  
HETATM   12  O   UNL     1      -9.328   8.156  68.433  1.00  0.00    -0.136 OA 
HETATM   13  O   UNL     1      -7.934   8.912  70.384  1.00  0.00    -0.090 OA 
BRANCH  11  14
HETATM   14  C   UNL     1     -10.463   8.439  70.764  1.00  0.00    -0.197 A  
HETATM   15  C   UNL     1     -11.114   7.419  71.462  1.00  0.00    -0.266 A  
HETATM   16  C   UNL     1     -12.256   7.716  72.212  1.00  0.00    -0.261 A  
HETATM   17  C   UNL     1     -12.775   9.015  72.242  1.00  0.00    -0.387 A  
HETATM   18  N   UNL     1     -13.864   9.319  73.067  1.00  0.00    -1.013 NA 
HETATM   19  C   UNL     1     -12.050  10.041  71.629  1.00  0.00    -0.420 A  
HETATM   20  H1  UNL     1     -14.242  10.266  73.090  1.00  0.00     0.000 HD 
HETATM   21  C   UNL     1     -10.901   9.760  70.883  1.00  0.00    -0.399 A  
HETATM   22  H2  UNL     1     -13.631   9.043  74.021  1.00  0.00     0.000 HD 
ENDBRANCH  11  14
ENDBRANCH   9  11
ENDBRANCH   6   9
ENDBRANCH   2   3
TORSDOF 4
ENDMDL
MODEL      207
REMARK 921   NORMALIZED FREE ENERGY PREDICTED BY IDOCK:   -3.22 KCAL/MOL
REMARK 922        TOTAL FREE ENERGY PREDICTED BY IDOCK:   -4.32 KCAL/MOL
REMARK 923 INTER-LIGAND FREE ENERGY PREDICTED BY IDOCK:   -3.92 KCAL/MOL
REMARK 924 INTRA-LIGAND FREE ENERGY PREDICTED BY IDOCK:   -0.39 KCAL/MOL
REMARK 927      BINDING AFFINITY PREDICTED BY RF-SCORE:    0.00 PKD
ROOT
HETATM    1  C   UNL     1     -13.092  10.664  71.598  1.00  0.00    -0.450 C  
HETATM    2  O   UNL     1     -12.909   9.300  71.961  1.00  0.00    -0.361 OA 
ENDROOT
BRANCH   2   3
HETATM    3  C   UNL     1     -12.086   8.576  71.158  1.00  0.00    -0.252 A  
HETATM    4  C   UNL     1     -12.405   7.250  70.945  1.00  0.00    -0.248 A  
HETATM    5  N   UNL     1     -11.706   6.421  70.144  1.00  0.00    -0.398 NA 
HETATM    6  C   UNL     1     -10.647   6.961  69.543  1.00  0.00    -0.236 A  
HETATM    7  C   UNL     1     -10.971   9.013  70.471  1.00  0.00    -0.252 A  
HETATM    8  N   UNL     1     -10.215   8.221  69.671  1.00  0.00    -0.204 NA 
BRANCH   6   9
HETATM    9  N   UNL     1      -9.884   6.112  68.757  1.00  0.00    -0.132 N  
HETATM   10  H   UNL     1      -9.116   5.565  69.145  1.00  0.00     0.000 HD 
BRANCH   9  11
HETATM   11  S   UNL     1     -10.292   6.035  67.143  1.00  0.00    -0.264 S  
HETATM   12  O   UNL     1     -11.409   6.914  66.868  1.00  0.00    -0.269 OA 
HETATM   13  O   UNL     1     -10.370   4.625  66.812  1.00  0.00    -0.217 OA 
BRANCH  11  14
HETATM   14  C   UNL     1      -8.881   6.688  66.268  1.00  0.00    -0.147 A  
HETATM   15  C   UNL     1      -8.447   6.071  65.092  1.00  0.00    -0.112 A  
HETATM   16  C   UNL     1      -7.360   6.605  64.394  1.00  0.00    -0.087 A  
HETATM   17  C   UNL     1      -6.679   7.727  64.878  1.00  0.00    -0.051 A  
HETATM   18  N   UNL     1      -5.650   8.306  64.125  1.00  0.00    -0.055 NA 
HETATM   19  C   UNL     1      -7.193   8.393  65.994  1.00  0.00    -0.073 A  
HETATM   20  H1  UNL     1      -5.153   9.124  64.478  1.00  0.00     0.000 HD 
HETATM   21  C   UNL     1      -8.285   7.876  66.698  1.00  0.00    -0.119 A  
HETATM   22  H2  UNL     1      -6.015   8.526  63.199  1.00  0.00     0.000 HD 
ENDBRANCH  11  14
ENDBRANCH   9  11
ENDBRANCH   6   9
ENDBRANCH   2   3
TORSDOF 4
ENDMDL
MODEL      208
REMARK 921   NORMALIZED FREE ENERGY PREDICTED BY IDOCK:   -3.20 KCAL/MOL
REMARK 922        TOTAL FREE ENERGY PREDICTED BY IDOCK:   -4.30 KCAL/MOL
REMARK 923 INTER-LIGAND FREE ENERGY PREDICTED BY IDOCK:   -4.33 KCAL/MOL
REMARK 924 INTRA-LIGAND FREE ENERGY PREDICTED BY IDOCK:    0.02 KCAL/MOL
REMARK 927      BINDING AFFINITY PREDICTED BY RF-SCORE:    0.00 PKD
ROOT
HETATM    1  C   UNL     1      -9.846   4.193  66.308  1.00  0.00    -0.192 C  
HETATM    2  O   UNL     1      -9.692   4.764  67.603  1.00  0.00    -0.149 OA 
ENDROOT
BRANCH   2   3
HETATM    3  C   UNL     1      -9.113   5.992  67.647  1.00  0.00    -0.109 A  
HETATM    4  C   UNL     1      -9.333   6.842  66.583  1.00  0.00    -0.165 A  
HETATM    5  N   UNL     1      -8.857   8.101  66.506  1.00  0.00    -0.141 NA 
HETATM    6  C   UNL     1      -8.131   8.504  67.548  1.00  0.00    -0.107 A  
HETATM    7  C   UNL     1      -8.352   6.535  68.664  1.00  0.00    -0.122 A  
HETATM    8  N   UNL     1      -7.826   7.784  68.633  1.00  0.00    -0.118 NA 
BRANCH   6   9
HETATM    9  N   UNL     1      -7.587   9.777  67.465  1.00  0.00    -0.091 N  
HETATM   10  H   UNL     1      -6.766   9.975  66.894  1.00  0.00     0.000 HD 
BRANCH   9  11
HETATM   11  S   UNL     1      -8.351  10.964  68.349  1.00  0.00    -0.142 S  
HETATM   12  O   UNL     1      -7.453  12.078  68.572  1.00  0.00    -0.107 OA 
HETATM   13  O   UNL     1      -8.980  10.294  69.470  1.00  0.00    -0.197 OA 
BRANCH  11  14
HETATM   14  C   UNL     1      -9.671  11.555  67.303  1.00  0.00    -0.182 A  
HETATM   15  C   UNL     1      -9.663  11.255  65.939  1.00  0.00    -0.258 A  
HETATM   16  C   UNL     1     -10.715  11.694  65.129  1.00  0.00    -0.351 A  
HETATM   17  C   UNL     1     -11.756  12.462  65.662  1.00  0.00    -0.414 A  
HETATM   18  N   UNL     1     -12.848  12.819  64.863  1.00  0.00    -0.825 NA 
HETATM   19  C   UNL     1     -11.803  12.659  67.046  1.00  0.00    -0.415 A  
HETATM   20  H1  UNL     1     -13.607  13.379  65.251  1.00  0.00     0.000 HD 
HETATM   21  C   UNL     1     -10.763  12.218  67.869  1.00  0.00    -0.243 A  
HETATM   22  H2  UNL     1     -13.247  11.969  64.465  1.00  0.00     0.000 HD 
ENDBRANCH  11  14
ENDBRANCH   9  11
ENDBRANCH   6   9
ENDBRANCH   2   3
TORSDOF 4
ENDMDL
MODEL      209
REMARK 921   NORMALIZED FREE ENERGY PREDICTED BY IDOCK:   -3.19 KCAL/MOL
REMARK 922        TOTAL FREE ENERGY PREDICTED BY IDOCK:   -4.28 KCAL/MOL
REMARK 923 INTER-LIGAND FREE ENERGY PREDICTED BY IDOCK:   -4.57 KCAL/MOL
REMARK 924 INTRA-LIGAND FREE ENERGY PREDICTED BY IDOCK:    0.28 KCAL/MOL
REMARK 927      BINDING AFFINITY PREDICTED BY RF-SCORE:    0.00 PKD
ROOT
HETATM    1  C   UNL     1      -8.241   8.865  62.647  1.00  0.00    -0.190 C  
HETATM    2  O   UNL     1      -7.891   8.886  64.026  1.00  0.00    -0.122 OA 
ENDROOT
BRANCH   2   3
HETATM    3  C   UNL     1      -8.800   9.454  64.862  1.00  0.00    -0.202 A  
HETATM    4  C   UNL     1      -8.697   9.168  66.208  1.00  0.00    -0.140 A  
HETATM    5  N   UNL     1      -9.500   9.687  67.158  1.00  0.00    -0.145 NA 
HETATM    6  C   UNL     1     -10.440  10.523  66.720  1.00  0.00    -0.242 A  
HETATM    7  C   UNL     1      -9.809  10.340  64.542  1.00  0.00    -0.315 A  
HETATM    8  N   UNL     1     -10.663  10.876  65.449  1.00  0.00    -0.175 NA 
BRANCH   6   9
HETATM    9  N   UNL     1     -11.311  11.027  67.674  1.00  0.00    -0.302 N  
HETATM   10  H   UNL     1     -11.722  10.433  68.394  1.00  0.00     0.000 HD 
BRANCH   9  11
HETATM   11  S   UNL     1     -11.648  12.656  67.578  1.00  0.00    -0.368 S  
HETATM   12  O   UNL     1     -12.278  13.109  68.801  1.00  0.00    -0.255 OA 
HETATM   13  O   UNL     1     -12.299  12.861  66.299  1.00  0.00    -0.477 OA 
BRANCH  11  14
HETATM   14  C   UNL     1     -10.058  13.461  67.476  1.00  0.00    -0.227 A  
HETATM   15  C   UNL     1      -9.897  14.576  66.652  1.00  0.00    -0.282 A  
HETATM   16  C   UNL     1      -8.658  15.222  66.599  1.00  0.00    -0.305 A  
HETATM   17  C   UNL     1      -7.569  14.742  67.334  1.00  0.00    -0.202 A  
HETATM   18  N   UNL     1      -6.360  15.448  67.344  1.00  0.00    -0.303 NA 
HETATM   19  C   UNL     1      -7.778  13.694  68.235  1.00  0.00    -0.140 A  
HETATM   20  H1  UNL     1      -5.565  15.099  67.880  1.00  0.00     0.000 HD 
HETATM   21  C   UNL     1      -9.014  13.045  68.305  1.00  0.00    -0.177 A  
HETATM   22  H2  UNL     1      -6.549  16.406  67.638  1.00  0.00     0.000 HD 
ENDBRANCH  11  14
ENDBRANCH   9  11
ENDBRANCH   6   9
ENDBRANCH   2   3
TORSDOF 4
ENDMDL
MODEL      210
REMARK 921   NORMALIZED FREE ENERGY PREDICTED BY IDOCK:   -3.18 KCAL/MOL
REMARK 922        TOTAL FREE ENERGY PREDICTED BY IDOCK:   -4.28 KCAL/MOL
REMARK 923 INTER-LIGAND FREE ENERGY PREDICTED BY IDOCK:   -4.01 KCAL/MOL
REMARK 924 INTRA-LIGAND FREE ENERGY PREDICTED BY IDOCK:   -0.26 KCAL/MOL
REMARK 927      BINDING AFFINITY PREDICTED BY RF-SCORE:    0.00 PKD
ROOT
HETATM    1  C   UNL     1     -13.392  11.377  71.971  1.00  0.00    -0.283 C  
HETATM    2  O   UNL     1     -13.448   9.969  72.170  1.00  0.00    -0.428 OA 
ENDROOT
BRANCH   2   3
HETATM    3  C   UNL     1     -12.521   9.235  71.499  1.00  0.00    -0.355 A  
HETATM    4  C   UNL     1     -11.388   9.887  71.057  1.00  0.00    -0.386 A  
HETATM    5  N   UNL     1     -10.368   9.283  70.413  1.00  0.00    -0.221 NA 
HETATM    6  C   UNL     1     -10.511   7.974  70.213  1.00  0.00    -0.222 A  
HETATM    7  C   UNL     1     -12.541   7.881  71.234  1.00  0.00    -0.245 A  
HETATM    8  N   UNL     1     -11.558   7.223  70.571  1.00  0.00    -0.282 NA 
BRANCH   6   9
HETATM    9  N   UNL     1      -9.499   7.345  69.505  1.00  0.00    -0.156 N  
HETATM   10  H   UNL     1      -9.500   7.302  68.487  1.00  0.00     0.000 HD 
BRANCH   9  11
HETATM   11  S   UNL     1      -8.280   6.662  70.413  1.00  0.00    -0.126 S  
HETATM   12  O   UNL     1      -7.674   7.661  71.268  1.00  0.00    -0.082 OA 
HETATM   13  O   UNL     1      -7.465   5.898  69.488  1.00  0.00    -0.073 OA 
BRANCH  11  14
HETATM   14  C   UNL     1      -9.089   5.480  71.477  1.00  0.00    -0.139 A  
HETATM   15  C   UNL     1      -9.527   4.261  70.954  1.00  0.00    -0.239 A  
HETATM   16  C   UNL     1     -10.133   3.325  71.798  1.00  0.00    -0.125 A  
HETATM   17  C   UNL     1     -10.339   3.611  73.152  1.00  0.00    -0.165 A  
HETATM   18  N   UNL     1     -10.864   2.633  74.006  1.00  0.00    -0.184 NA 
HETATM   19  C   UNL     1      -9.797   4.787  73.679  1.00  0.00    -0.167 A  
HETATM   20  H1  UNL     1     -11.014   2.841  74.993  1.00  0.00     0.000 HD 
HETATM   21  C   UNL     1      -9.181   5.728  72.848  1.00  0.00    -0.134 A  
HETATM   22  H2  UNL     1     -10.279   1.800  73.938  1.00  0.00     0.000 HD 
ENDBRANCH  11  14
ENDBRANCH   9  11
ENDBRANCH   6   9
ENDBRANCH   2   3
TORSDOF 4
ENDMDL
MODEL      211
REMARK 921   NORMALIZED FREE ENERGY PREDICTED BY IDOCK:   -3.17 KCAL/MOL
REMARK 922        TOTAL FREE ENERGY PREDICTED BY IDOCK:   -4.26 KCAL/MOL
REMARK 923 INTER-LIGAND FREE ENERGY PREDICTED BY IDOCK:   -3.97 KCAL/MOL
REMARK 924 INTRA-LIGAND FREE ENERGY PREDICTED BY IDOCK:   -0.29 KCAL/MOL
REMARK 927      BINDING AFFINITY PREDICTED BY RF-SCORE:    0.00 PKD
ROOT
HETATM    1  C   UNL     1      -7.843  14.200  67.338  1.00  0.00    -0.177 C  
HETATM    2  O   UNL     1      -6.881  13.151  67.355  1.00  0.00    -0.163 OA 
ENDROOT
BRANCH   2   3
HETATM    3  C   UNL     1      -7.342  11.926  67.720  1.00  0.00    -0.109 A  
HETATM    4  C   UNL     1      -7.794  11.089  66.720  1.00  0.00    -0.149 A  
HETATM    5  N   UNL     1      -8.243   9.834  66.926  1.00  0.00    -0.117 NA 
HETATM    6  C   UNL     1      -8.231   9.421  68.193  1.00  0.00    -0.118 A  
HETATM    7  C   UNL     1      -7.375  11.374  68.985  1.00  0.00    -0.108 A  
HETATM    8  N   UNL     1      -7.836  10.129  69.258  1.00  0.00    -0.120 NA 
BRANCH   6   9
HETATM    9  N   UNL     1      -8.737   8.154  68.433  1.00  0.00    -0.134 N  
HETATM   10  H   UNL     1      -8.140   7.327  68.437  1.00  0.00     0.000 HD 
BRANCH   9  11
HETATM   11  S   UNL     1     -10.377   8.056  68.714  1.00  0.00    -0.184 S  
HETATM   12  O   UNL     1     -10.975   7.063  67.846  1.00  0.00    -0.196 OA 
HETATM   13  O   UNL     1     -10.870   9.420  68.716  1.00  0.00    -0.199 OA 
BRANCH  11  14
HETATM   14  C   UNL     1     -10.533   7.455  70.387  1.00  0.00    -0.221 A  
HETATM   15  C   UNL     1     -10.591   6.080  70.628  1.00  0.00    -0.322 A  
HETATM   16  C   UNL     1     -10.682   5.613  71.943  1.00  0.00    -0.299 A  
HETATM   17  C   UNL     1     -10.753   6.507  73.017  1.00  0.00    -0.263 A  
HETATM   18  N   UNL     1     -10.753   6.029  74.332  1.00  0.00    -0.365 NA 
HETATM   19  C   UNL     1     -10.584   7.872  72.765  1.00  0.00    -0.418 A  
HETATM   20  H1  UNL     1     -10.804   6.680  75.116  1.00  0.00     0.000 HD 
HETATM   21  C   UNL     1     -10.483   8.352  71.456  1.00  0.00    -0.305 A  
HETATM   22  H2  UNL     1      -9.931   5.438  74.459  1.00  0.00     0.000 HD 
ENDBRANCH  11  14
ENDBRANCH   9  11
ENDBRANCH   6   9
ENDBRANCH   2   3
TORSDOF 4
ENDMDL
MODEL      212
REMARK 921   NORMALIZED FREE ENERGY PREDICTED BY IDOCK:   -3.16 KCAL/MOL
REMARK 922        TOTAL FREE ENERGY PREDICTED BY IDOCK:   -4.25 KCAL/MOL
REMARK 923 INTER-LIGAND FREE ENERGY PREDICTED BY IDOCK:   -3.98 KCAL/MOL
REMARK 924 INTRA-LIGAND FREE ENERGY PREDICTED BY IDOCK:   -0.27 KCAL/MOL
REMARK 927      BINDING AFFINITY PREDICTED BY RF-SCORE:    0.00 PKD
ROOT
HETATM    1  C   UNL     1      -9.479   4.196  65.113  1.00  0.00    -0.173 C  
HETATM    2  O   UNL     1      -9.337   4.829  66.380  1.00  0.00    -0.130 OA 
ENDROOT
BRANCH   2   3
HETATM    3  C   UNL     1      -9.510   6.177  66.396  1.00  0.00    -0.144 A  
HETATM    4  C   UNL     1      -8.590   6.947  65.714  1.00  0.00    -0.131 A  
HETATM    5  N   UNL     1      -8.655   8.290  65.609  1.00  0.00    -0.161 NA 
HETATM    6  C   UNL     1      -9.690   8.864  66.220  1.00  0.00    -0.275 A  
HETATM    7  C   UNL     1     -10.537   6.894  66.977  1.00  0.00    -0.333 A  
HETATM    8  N   UNL     1     -10.642   8.245  66.926  1.00  0.00    -0.299 NA 
BRANCH   6   9
HETATM    9  N   UNL     1      -9.746  10.248  66.169  1.00  0.00    -0.199 N  
HETATM   10  H   UNL     1     -10.440  10.739  65.606  1.00  0.00     0.000 HD 
BRANCH   9  11
HETATM   11  S   UNL     1      -8.614  11.066  67.079  1.00  0.00    -0.144 S  
HETATM   12  O   UNL     1      -7.336  11.074  66.398  1.00  0.00    -0.142 OA 
HETATM   13  O   UNL     1      -8.723  10.543  68.427  1.00  0.00    -0.125 OA 
BRANCH  11  14
HETATM   14  C   UNL     1      -9.189  12.754  67.140  1.00  0.00    -0.219 A  
HETATM   15  C   UNL     1     -10.005  13.247  66.119  1.00  0.00    -0.295 A  
HETATM   16  C   UNL     1     -10.479  14.561  66.186  1.00  0.00    -0.303 A  
HETATM   17  C   UNL     1     -10.114  15.399  67.245  1.00  0.00    -0.238 A  
HETATM   18  N   UNL     1     -10.665  16.682  67.349  1.00  0.00    -0.293 NA 
HETATM   19  C   UNL     1      -9.388  14.857  68.310  1.00  0.00    -0.195 A  
HETATM   20  H1  UNL     1     -10.399  17.293  68.121  1.00  0.00     0.000 HD 
HETATM   21  C   UNL     1      -8.916  13.542  68.260  1.00  0.00    -0.180 A  
HETATM   22  H2  UNL     1     -11.681  16.597  67.342  1.00  0.00     0.000 HD 
ENDBRANCH  11  14
ENDBRANCH   9  11
ENDBRANCH   6   9
ENDBRANCH   2   3
TORSDOF 4
ENDMDL
MODEL      213
REMARK 921   NORMALIZED FREE ENERGY PREDICTED BY IDOCK:   -3.16 KCAL/MOL
REMARK 922        TOTAL FREE ENERGY PREDICTED BY IDOCK:   -4.25 KCAL/MOL
REMARK 923 INTER-LIGAND FREE ENERGY PREDICTED BY IDOCK:   -4.04 KCAL/MOL
REMARK 924 INTRA-LIGAND FREE ENERGY PREDICTED BY IDOCK:   -0.21 KCAL/MOL
REMARK 927      BINDING AFFINITY PREDICTED BY RF-SCORE:    0.00 PKD
ROOT
HETATM    1  C   UNL     1      -6.670   9.864  67.058  1.00  0.00    -0.075 C  
HETATM    2  O   UNL     1      -7.794   9.156  66.545  1.00  0.00    -0.099 OA 
ENDROOT
BRANCH   2   3
HETATM    3  C   UNL     1      -8.852   9.027  67.387  1.00  0.00    -0.118 A  
HETATM    4  C   UNL     1      -8.733   8.130  68.429  1.00  0.00    -0.134 A  
HETATM    5  N   UNL     1      -9.682   7.924  69.365  1.00  0.00    -0.168 NA 
HETATM    6  C   UNL     1     -10.788   8.656  69.231  1.00  0.00    -0.065 A  
HETATM    7  C   UNL     1     -10.042   9.726  67.368  1.00  0.00    -0.208 A  
HETATM    8  N   UNL     1     -11.042   9.546  68.265  1.00  0.00    -0.071 NA 
BRANCH   6   9
HETATM    9  N   UNL     1     -11.797   8.421  70.151  1.00  0.00    -0.397 N  
HETATM   10  H   UNL     1     -12.691   8.012  69.878  1.00  0.00     0.000 HD 
BRANCH   9  11
HETATM   11  S   UNL     1     -11.470   8.843  71.730  1.00  0.00    -0.372 S  
HETATM   12  O   UNL     1     -12.679   9.291  72.389  1.00  0.00    -0.370 OA 
HETATM   13  O   UNL     1     -10.299   9.698  71.686  1.00  0.00    -0.097 OA 
BRANCH  11  14
HETATM   14  C   UNL     1     -10.966   7.329  72.528  1.00  0.00    -0.282 A  
HETATM   15  C   UNL     1      -9.974   7.360  73.511  1.00  0.00    -0.377 A  
HETATM   16  C   UNL     1      -9.604   6.175  74.155  1.00  0.00    -0.197 A  
HETATM   17  C   UNL     1     -10.189   4.955  73.801  1.00  0.00    -0.205 A  
HETATM   18  N   UNL     1      -9.877   3.791  74.514  1.00  0.00    -0.128 NA 
HETATM   19  C   UNL     1     -11.254   4.960  72.895  1.00  0.00    -0.318 A  
HETATM   20  H1  UNL     1     -10.304   2.901  74.256  1.00  0.00     0.000 HD 
HETATM   21  C   UNL     1     -11.641   6.139  72.250  1.00  0.00    -0.362 A  
HETATM   22  H2  UNL     1     -10.061   3.961  75.503  1.00  0.00     0.000 HD 
ENDBRANCH  11  14
ENDBRANCH   9  11
ENDBRANCH   6   9
ENDBRANCH   2   3
TORSDOF 4
ENDMDL
MODEL      214
REMARK 921   NORMALIZED FREE ENERGY PREDICTED BY IDOCK:   -3.15 KCAL/MOL
REMARK 922        TOTAL FREE ENERGY PREDICTED BY IDOCK:   -4.23 KCAL/MOL
REMARK 923 INTER-LIGAND FREE ENERGY PREDICTED BY IDOCK:   -3.88 KCAL/MOL
REMARK 924 INTRA-LIGAND FREE ENERGY PREDICTED BY IDOCK:   -0.36 KCAL/MOL
REMARK 927      BINDING AFFINITY PREDICTED BY RF-SCORE:    0.00 PKD
ROOT
HETATM    1  C   UNL     1     -10.512  11.253  63.613  1.00  0.00    -0.405 C  
HETATM    2  O   UNL     1      -9.314  10.594  64.007  1.00  0.00    -0.222 OA 
ENDROOT
BRANCH   2   3
HETATM    3  C   UNL     1      -9.376   9.889  65.167  1.00  0.00    -0.258 A  
HETATM    4  C   UNL     1      -8.591   8.759  65.270  1.00  0.00    -0.187 A  
HETATM    5  N   UNL     1      -8.519   7.983  66.371  1.00  0.00    -0.129 NA 
HETATM    6  C   UNL     1      -9.274   8.373  67.398  1.00  0.00    -0.140 A  
HETATM    7  C   UNL     1     -10.102  10.186  66.303  1.00  0.00    -0.238 A  
HETATM    8  N   UNL     1     -10.090   9.432  67.430  1.00  0.00    -0.200 NA 
BRANCH   6   9
HETATM    9  N   UNL     1      -9.255   7.560  68.520  1.00  0.00    -0.143 N  
HETATM   10  H   UNL     1      -8.473   7.563  69.174  1.00  0.00     0.000 HD 
BRANCH   9  11
HETATM   11  S   UNL     1     -10.582   6.577  68.741  1.00  0.00    -0.270 S  
HETATM   12  O   UNL     1     -11.171   6.237  67.462  1.00  0.00    -0.328 OA 
HETATM   13  O   UNL     1     -11.384   7.205  69.773  1.00  0.00    -0.215 OA 
BRANCH  11  14
HETATM   14  C   UNL     1      -9.940   5.067  69.443  1.00  0.00    -0.220 A  
HETATM   15  C   UNL     1      -9.715   4.982  70.819  1.00  0.00    -0.263 A  
HETATM   16  C   UNL     1      -9.241   3.787  71.368  1.00  0.00    -0.193 A  
HETATM   17  C   UNL     1      -8.954   2.688  70.551  1.00  0.00    -0.098 A  
HETATM   18  N   UNL     1      -8.566   1.469  71.120  1.00  0.00    -0.049 NA 
HETATM   19  C   UNL     1      -9.287   2.756  69.195  1.00  0.00    -0.206 A  
HETATM   20  H1  UNL     1      -8.357   0.668  70.525  1.00  0.00     0.000 HD 
HETATM   21  C   UNL     1      -9.771   3.941  68.634  1.00  0.00    -0.114 A  
HETATM   22  H2  UNL     1      -9.276   1.190  71.797  1.00  0.00     0.000 HD 
ENDBRANCH  11  14
ENDBRANCH   9  11
ENDBRANCH   6   9
ENDBRANCH   2   3
TORSDOF 4
ENDMDL
MODEL      215
REMARK 921   NORMALIZED FREE ENERGY PREDICTED BY IDOCK:   -3.11 KCAL/MOL
REMARK 922        TOTAL FREE ENERGY PREDICTED BY IDOCK:   -4.19 KCAL/MOL
REMARK 923 INTER-LIGAND FREE ENERGY PREDICTED BY IDOCK:   -3.92 KCAL/MOL
REMARK 924 INTRA-LIGAND FREE ENERGY PREDICTED BY IDOCK:   -0.27 KCAL/MOL
REMARK 927      BINDING AFFINITY PREDICTED BY RF-SCORE:    0.00 PKD
ROOT
HETATM    1  C   UNL     1     -13.405   9.919  71.996  1.00  0.00    -0.432 C  
HETATM    2  O   UNL     1     -12.912   8.888  72.845  1.00  0.00    -0.330 OA 
ENDROOT
BRANCH   2   3
HETATM    3  C   UNL     1     -11.794   8.247  72.415  1.00  0.00    -0.396 A  
HETATM    4  C   UNL     1     -11.466   8.360  71.080  1.00  0.00    -0.268 A  
HETATM    5  N   UNL     1     -10.368   7.813  70.519  1.00  0.00    -0.203 NA 
HETATM    6  C   UNL     1      -9.582   7.127  71.348  1.00  0.00    -0.161 A  
HETATM    7  C   UNL     1     -10.893   7.518  73.165  1.00  0.00    -0.395 A  
HETATM    8  N   UNL     1      -9.786   6.924  72.655  1.00  0.00    -0.149 NA 
BRANCH   6   9
HETATM    9  N   UNL     1      -8.476   6.512  70.782  1.00  0.00    -0.133 N  
HETATM   10  H   UNL     1      -7.558   6.955  70.775  1.00  0.00     0.000 HD 
BRANCH   9  11
HETATM   11  S   UNL     1      -8.732   5.007  70.113  1.00  0.00    -0.111 S  
HETATM   12  O   UNL     1     -10.059   4.532  70.444  1.00  0.00    -0.224 OA 
HETATM   13  O   UNL     1      -7.565   4.213  70.444  1.00  0.00    -0.045 OA 
BRANCH  11  14
HETATM   14  C   UNL     1      -8.690   5.263  68.347  1.00  0.00    -0.098 A  
HETATM   15  C   UNL     1      -7.912   4.427  67.543  1.00  0.00    -0.096 A  
HETATM   16  C   UNL     1      -7.906   4.612  66.157  1.00  0.00    -0.095 A  
HETATM   17  C   UNL     1      -8.642   5.647  65.570  1.00  0.00    -0.151 A  
HETATM   18  N   UNL     1      -8.701   5.767  64.177  1.00  0.00    -0.349 NA 
HETATM   19  C   UNL     1      -9.498   6.402  66.378  1.00  0.00    -0.169 A  
HETATM   20  H1  UNL     1      -9.238   6.521  63.749  1.00  0.00     0.000 HD 
HETATM   21  C   UNL     1      -9.521   6.222  67.764  1.00  0.00    -0.118 A  
HETATM   22  H2  UNL     1      -9.028   4.881  63.792  1.00  0.00     0.000 HD 
ENDBRANCH  11  14
ENDBRANCH   9  11
ENDBRANCH   6   9
ENDBRANCH   2   3
TORSDOF 4
ENDMDL
MODEL      216
REMARK 921   NORMALIZED FREE ENERGY PREDICTED BY IDOCK:   -3.11 KCAL/MOL
REMARK 922        TOTAL FREE ENERGY PREDICTED BY IDOCK:   -4.18 KCAL/MOL
REMARK 923 INTER-LIGAND FREE ENERGY PREDICTED BY IDOCK:   -3.92 KCAL/MOL
REMARK 924 INTRA-LIGAND FREE ENERGY PREDICTED BY IDOCK:   -0.26 KCAL/MOL
REMARK 927      BINDING AFFINITY PREDICTED BY RF-SCORE:    0.00 PKD
ROOT
HETATM    1  C   UNL     1     -12.280  15.178  64.154  1.00  0.00    -0.161 C  
HETATM    2  O   UNL     1     -11.393  14.856  65.220  1.00  0.00    -0.344 OA 
ENDROOT
BRANCH   2   3
HETATM    3  C   UNL     1     -11.155  13.533  65.416  1.00  0.00    -0.293 A  
HETATM    4  C   UNL     1     -10.250  12.915  64.578  1.00  0.00    -0.310 A  
HETATM    5  N   UNL     1      -9.885  11.621  64.677  1.00  0.00    -0.243 NA 
HETATM    6  C   UNL     1     -10.464  10.935  65.663  1.00  0.00    -0.208 A  
HETATM    7  C   UNL     1     -11.675  12.714  66.399  1.00  0.00    -0.405 A  
HETATM    8  N   UNL     1     -11.365  11.401  66.535  1.00  0.00    -0.352 NA 
BRANCH   6   9
HETATM    9  N   UNL     1     -10.143   9.590  65.749  1.00  0.00    -0.310 N  
HETATM   10  H   UNL     1     -10.656   8.879  65.228  1.00  0.00     0.000 HD 
BRANCH   9  11
HETATM   11  S   UNL     1      -8.871   9.198  66.752  1.00  0.00    -0.130 S  
HETATM   12  O   UNL     1      -8.911  10.008  67.951  1.00  0.00    -0.131 OA 
HETATM   13  O   UNL     1      -7.685   9.184  65.917  1.00  0.00    -0.093 OA 
BRANCH  11  14
HETATM   14  C   UNL     1      -9.164   7.509  67.248  1.00  0.00    -0.131 A  
HETATM   15  C   UNL     1      -9.113   6.488  66.297  1.00  0.00    -0.168 A  
HETATM   16  C   UNL     1      -9.313   5.162  66.696  1.00  0.00    -0.137 A  
HETATM   17  C   UNL     1      -9.600   4.852  68.030  1.00  0.00    -0.146 A  
HETATM   18  N   UNL     1      -9.710   3.516  68.434  1.00  0.00    -0.071 NA 
HETATM   19  C   UNL     1      -9.539   5.873  68.983  1.00  0.00    -0.157 A  
HETATM   20  H1  UNL     1      -9.919   3.290  69.406  1.00  0.00     0.000 HD 
HETATM   21  C   UNL     1      -9.331   7.201  68.600  1.00  0.00    -0.134 A  
HETATM   22  H2  UNL     1      -8.854   3.029  68.167  1.00  0.00     0.000 HD 
ENDBRANCH  11  14
ENDBRANCH   9  11
ENDBRANCH   6   9
ENDBRANCH   2   3
TORSDOF 4
ENDMDL
MODEL      217
REMARK 921   NORMALIZED FREE ENERGY PREDICTED BY IDOCK:   -3.10 KCAL/MOL
REMARK 922        TOTAL FREE ENERGY PREDICTED BY IDOCK:   -4.17 KCAL/MOL
REMARK 923 INTER-LIGAND FREE ENERGY PREDICTED BY IDOCK:   -4.40 KCAL/MOL
REMARK 924 INTRA-LIGAND FREE ENERGY PREDICTED BY IDOCK:    0.23 KCAL/MOL
REMARK 927      BINDING AFFINITY PREDICTED BY RF-SCORE:    0.00 PKD
ROOT
HETATM    1  C   UNL     1     -11.014  15.691  66.007  1.00  0.00    -0.213 C  
HETATM    2  O   UNL     1     -10.481  15.698  67.326  1.00  0.00    -0.279 OA 
ENDROOT
BRANCH   2   3
HETATM    3  C   UNL     1     -10.264  14.479  67.888  1.00  0.00    -0.231 A  
HETATM    4  C   UNL     1     -11.245  13.973  68.715  1.00  0.00    -0.271 A  
HETATM    5  N   UNL     1     -11.186  12.764  69.309  1.00  0.00    -0.224 NA 
HETATM    6  C   UNL     1     -10.091  12.050  69.052  1.00  0.00     0.092 A  
HETATM    7  C   UNL     1      -9.186  13.638  67.697  1.00  0.00    -0.213 A  
HETATM    8  N   UNL     1      -9.059  12.423  68.285  1.00  0.00    -0.197 NA 
BRANCH   6   9
HETATM    9  N   UNL     1      -9.986  10.827  69.695  1.00  0.00    -0.442 N  
HETATM   10  H   UNL     1      -9.165  10.577  70.246  1.00  0.00     0.000 HD 
BRANCH   9  11
HETATM   11  S   UNL     1     -11.276   9.788  69.518  1.00  0.00    -0.084 S  
HETATM   12  O   UNL     1     -11.268   9.201  68.194  1.00  0.00     0.072 OA 
HETATM   13  O   UNL     1     -12.443  10.505  69.994  1.00  0.00    -0.278 OA 
BRANCH  11  14
HETATM   14  C   UNL     1     -10.981   8.467  70.680  1.00  0.00    -0.243 A  
HETATM   15  C   UNL     1     -10.968   8.738  72.050  1.00  0.00    -0.438 A  
HETATM   16  C   UNL     1     -10.767   7.694  72.959  1.00  0.00    -0.449 A  
HETATM   17  C   UNL     1     -10.541   6.388  72.510  1.00  0.00    -0.214 A  
HETATM   18  N   UNL     1     -10.431   5.337  73.428  1.00  0.00    -0.211 NA 
HETATM   19  C   UNL     1     -10.666   6.118  71.143  1.00  0.00    -0.312 A  
HETATM   20  H1  UNL     1     -10.267   4.385  73.101  1.00  0.00     0.000 HD 
HETATM   21  C   UNL     1     -10.876   7.150  70.225  1.00  0.00    -0.271 A  
HETATM   22  H2  UNL     1     -11.264   5.336  74.016  1.00  0.00     0.000 HD 
ENDBRANCH  11  14
ENDBRANCH   9  11
ENDBRANCH   6   9
ENDBRANCH   2   3
TORSDOF 4
ENDMDL
MODEL      218
REMARK 921   NORMALIZED FREE ENERGY PREDICTED BY IDOCK:   -3.08 KCAL/MOL
REMARK 922        TOTAL FREE ENERGY PREDICTED BY IDOCK:   -4.14 KCAL/MOL
REMARK 923 INTER-LIGAND FREE ENERGY PREDICTED BY IDOCK:   -3.84 KCAL/MOL
REMARK 924 INTRA-LIGAND FREE ENERGY PREDICTED BY IDOCK:   -0.31 KCAL/MOL
REMARK 927      BINDING AFFINITY PREDICTED BY RF-SCORE:    0.00 PKD
ROOT
HETATM    1  C   UNL     1      -6.366   7.711  63.729  1.00  0.00    -0.054 C  
HETATM    2  O   UNL     1      -7.581   7.593  64.461  1.00  0.00    -0.097 OA 
ENDROOT
BRANCH   2   3
HETATM    3  C   UNL     1      -8.081   8.746  64.977  1.00  0.00    -0.144 A  
HETATM    4  C   UNL     1      -7.209   9.803  65.141  1.00  0.00    -0.122 A  
HETATM    5  N   UNL     1      -7.568  11.018  65.602  1.00  0.00     0.031 NA 
HETATM    6  C   UNL     1      -8.858  11.158  65.908  1.00  0.00    -0.186 A  
HETATM    7  C   UNL     1      -9.388   9.025  65.322  1.00  0.00    -0.088 A  
HETATM    8  N   UNL     1      -9.805  10.218  65.814  1.00  0.00    -0.240 NA 
BRANCH   6   9
HETATM    9  N   UNL     1      -9.238  12.382  66.434  1.00  0.00    -0.322 N  
HETATM   10  H   UNL     1      -9.804  13.044  65.903  1.00  0.00     0.000 HD 
BRANCH   9  11
HETATM   11  S   UNL     1      -8.718  12.713  67.982  1.00  0.00    -0.196 S  
HETATM   12  O   UNL     1      -7.686  13.728  67.957  1.00  0.00    -0.123 OA 
HETATM   13  O   UNL     1      -8.469  11.429  68.609  1.00  0.00    -0.155 OA 
BRANCH  11  14
HETATM   14  C   UNL     1     -10.131  13.419  68.813  1.00  0.00    -0.085 A  
HETATM   15  C   UNL     1     -10.368  14.793  68.730  1.00  0.00    -0.248 A  
HETATM   16  C   UNL     1     -11.494  15.338  69.357  1.00  0.00    -0.329 A  
HETATM   17  C   UNL     1     -12.363  14.529  70.095  1.00  0.00    -0.342 A  
HETATM   18  N   UNL     1     -13.534  15.069  70.642  1.00  0.00    -0.671 NA 
HETATM   19  C   UNL     1     -12.171  13.144  70.075  1.00  0.00    -0.323 A  
HETATM   20  H1  UNL     1     -14.168  14.479  71.180  1.00  0.00     0.000 HD 
HETATM   21  C   UNL     1     -11.055  12.585  69.445  1.00  0.00    -0.145 A  
HETATM   22  H2  UNL     1     -14.065  15.511  69.892  1.00  0.00     0.000 HD 
ENDBRANCH  11  14
ENDBRANCH   9  11
ENDBRANCH   6   9
ENDBRANCH   2   3
TORSDOF 4
ENDMDL
MODEL      219
REMARK 921   NORMALIZED FREE ENERGY PREDICTED BY IDOCK:   -3.06 KCAL/MOL
REMARK 922        TOTAL FREE ENERGY PREDICTED BY IDOCK:   -4.13 KCAL/MOL
REMARK 923 INTER-LIGAND FREE ENERGY PREDICTED BY IDOCK:   -3.74 KCAL/MOL
REMARK 924 INTRA-LIGAND FREE ENERGY PREDICTED BY IDOCK:   -0.39 KCAL/MOL
REMARK 927      BINDING AFFINITY PREDICTED BY RF-SCORE:    0.00 PKD
ROOT
HETATM    1  C   UNL     1     -11.147   5.493  70.816  1.00  0.00    -0.031 C  
HETATM    2  O   UNL     1     -11.118   6.916  70.804  1.00  0.00    -0.250 OA 
ENDROOT
BRANCH   2   3
HETATM    3  C   UNL     1     -10.239   7.487  69.939  1.00  0.00    -0.210 A  
HETATM    4  C   UNL     1     -10.343   8.846  69.726  1.00  0.00    -0.207 A  
HETATM    5  N   UNL     1      -9.518   9.554  68.928  1.00  0.00    -0.152 NA 
HETATM    6  C   UNL     1      -8.559   8.852  68.327  1.00  0.00    -0.134 A  
HETATM    7  C   UNL     1      -9.199   6.880  69.264  1.00  0.00    -0.139 A  
HETATM    8  N   UNL     1      -8.353   7.534  68.430  1.00  0.00    -0.125 NA 
BRANCH   6   9
HETATM    9  N   UNL     1      -7.733   9.551  67.461  1.00  0.00    -0.095 N  
HETATM   10  H   UNL     1      -6.814   9.887  67.747  1.00  0.00     0.000 HD 
BRANCH   9  11
HETATM   11  S   UNL     1      -8.327   9.813  65.926  1.00  0.00    -0.128 S  
HETATM   12  O   UNL     1      -9.304   8.799  65.589  1.00  0.00    -0.214 OA 
HETATM   13  O   UNL     1      -7.172  10.029  65.076  1.00  0.00    -0.129 OA 
BRANCH  11  14
HETATM   14  C   UNL     1      -9.193  11.370  66.014  1.00  0.00    -0.214 A  
HETATM   15  C   UNL     1     -10.413  11.524  65.352  1.00  0.00    -0.333 A  
HETATM   16  C   UNL     1     -11.104  12.736  65.449  1.00  0.00    -0.317 A  
HETATM   17  C   UNL     1     -10.569  13.808  66.173  1.00  0.00    -0.291 A  
HETATM   18  N   UNL     1     -11.309  14.984  66.339  1.00  0.00    -0.317 NA 
HETATM   19  C   UNL     1      -9.404  13.600  66.917  1.00  0.00    -0.261 A  
HETATM   20  H1  UNL     1     -10.920  15.766  66.866  1.00  0.00     0.000 HD 
HETATM   21  C   UNL     1      -8.708  12.390  66.836  1.00  0.00    -0.191 A  
HETATM   22  H2  UNL     1     -12.213  14.741  66.745  1.00  0.00     0.000 HD 
ENDBRANCH  11  14
ENDBRANCH   9  11
ENDBRANCH   6   9
ENDBRANCH   2   3
TORSDOF 4
ENDMDL
MODEL      220
REMARK 921   NORMALIZED FREE ENERGY PREDICTED BY IDOCK:   -3.05 KCAL/MOL
REMARK 922        TOTAL FREE ENERGY PREDICTED BY IDOCK:   -4.12 KCAL/MOL
REMARK 923 INTER-LIGAND FREE ENERGY PREDICTED BY IDOCK:   -3.76 KCAL/MOL
REMARK 924 INTRA-LIGAND FREE ENERGY PREDICTED BY IDOCK:   -0.35 KCAL/MOL
REMARK 927      BINDING AFFINITY PREDICTED BY RF-SCORE:    0.00 PKD
ROOT
HETATM    1  C   UNL     1      -6.974  10.145  64.993  1.00  0.00    -0.135 C  
HETATM    2  O   UNL     1      -8.260   9.564  64.807  1.00  0.00    -0.127 OA 
ENDROOT
BRANCH   2   3
HETATM    3  C   UNL     1      -8.994   9.370  65.934  1.00  0.00    -0.178 A  
HETATM    4  C   UNL     1      -8.839   8.171  66.599  1.00  0.00    -0.143 A  
HETATM    5  N   UNL     1      -9.470   7.854  67.748  1.00  0.00    -0.143 NA 
HETATM    6  C   UNL     1     -10.286   8.789  68.231  1.00  0.00    -0.207 A  
HETATM    7  C   UNL     1      -9.861  10.254  66.544  1.00  0.00    -0.212 A  
HETATM    8  N   UNL     1     -10.542   9.983  67.685  1.00  0.00    -0.251 NA 
BRANCH   6   9
HETATM    9  N   UNL     1     -10.985   8.462  69.383  1.00  0.00    -0.431 N  
HETATM   10  H   UNL     1     -11.941   8.107  69.350  1.00  0.00     0.000 HD 
BRANCH   9  11
HETATM   11  S   UNL     1     -10.177   8.681  70.823  1.00  0.00    -0.217 S  
HETATM   12  O   UNL     1     -11.090   9.160  71.841  1.00  0.00    -0.364 OA 
HETATM   13  O   UNL     1      -8.977   9.430  70.505  1.00  0.00    -0.235 OA 
BRANCH  11  14
HETATM   14  C   UNL     1      -9.646   7.052  71.318  1.00  0.00    -0.164 A  
HETATM   15  C   UNL     1     -10.176   5.926  70.684  1.00  0.00    -0.268 A  
HETATM   16  C   UNL     1      -9.734   4.652  71.054  1.00  0.00    -0.258 A  
HETATM   17  C   UNL     1      -8.793   4.490  72.077  1.00  0.00    -0.118 A  
HETATM   18  N   UNL     1      -8.291   3.219  72.377  1.00  0.00    -0.078 NA 
HETATM   19  C   UNL     1      -8.195   5.630  72.624  1.00  0.00    -0.113 A  
HETATM   20  H1  UNL     1      -7.606   3.100  73.123  1.00  0.00     0.000 HD 
HETATM   21  C   UNL     1      -8.621   6.909  72.257  1.00  0.00    -0.123 A  
HETATM   22  H2  UNL     1      -7.909   2.814  71.522  1.00  0.00     0.000 HD 
ENDBRANCH  11  14
ENDBRANCH   9  11
ENDBRANCH   6   9
ENDBRANCH   2   3
TORSDOF 4
ENDMDL
MODEL      221
REMARK 921   NORMALIZED FREE ENERGY PREDICTED BY IDOCK:   -3.00 KCAL/MOL
REMARK 922        TOTAL FREE ENERGY PREDICTED BY IDOCK:   -4.05 KCAL/MOL
REMARK 923 INTER-LIGAND FREE ENERGY PREDICTED BY IDOCK:   -3.93 KCAL/MOL
REMARK 924 INTRA-LIGAND FREE ENERGY PREDICTED BY IDOCK:   -0.12 KCAL/MOL
REMARK 927      BINDING AFFINITY PREDICTED BY RF-SCORE:    0.00 PKD
ROOT
HETATM    1  C   UNL     1      -7.827  14.209  67.356  1.00  0.00    -0.177 C  
HETATM    2  O   UNL     1      -6.750  13.281  67.434  1.00  0.00    -0.167 OA 
ENDROOT
BRANCH   2   3
HETATM    3  C   UNL     1      -7.091  11.996  67.716  1.00  0.00    -0.108 A  
HETATM    4  C   UNL     1      -7.266  11.134  66.653  1.00  0.00    -0.144 A  
HETATM    5  N   UNL     1      -7.566   9.826  66.780  1.00  0.00    -0.095 NA 
HETATM    6  C   UNL     1      -7.692   9.384  68.031  1.00  0.00    -0.084 A  
HETATM    7  C   UNL     1      -7.242  11.412  68.957  1.00  0.00    -0.118 A  
HETATM    8  N   UNL     1      -7.566  10.109  69.148  1.00  0.00    -0.093 NA 
BRANCH   6   9
HETATM    9  N   UNL     1      -8.052   8.054  68.182  1.00  0.00    -0.127 N  
HETATM   10  H   UNL     1      -7.369   7.335  68.416  1.00  0.00     0.000 HD 
BRANCH   9  11
HETATM   11  S   UNL     1      -9.664   7.697  67.958  1.00  0.00    -0.157 S  
HETATM   12  O   UNL     1      -9.987   6.431  68.583  1.00  0.00    -0.138 OA 
HETATM   13  O   UNL     1      -9.935   7.909  66.550  1.00  0.00    -0.243 OA 
BRANCH  11  14
HETATM   14  C   UNL     1     -10.555   8.963  68.845  1.00  0.00    -0.165 A  
HETATM   15  C   UNL     1     -10.720   8.856  70.228  1.00  0.00    -0.248 A  
HETATM   16  C   UNL     1     -11.392   9.867  70.923  1.00  0.00    -0.446 A  
HETATM   17  C   UNL     1     -11.933  10.964  70.245  1.00  0.00    -0.361 A  
HETATM   18  N   UNL     1     -12.524  12.013  70.960  1.00  0.00    -0.341 NA 
HETATM   19  C   UNL     1     -11.664  11.108  68.880  1.00  0.00    -0.406 A  
HETATM   20  H1  UNL     1     -12.919  12.813  70.465  1.00  0.00     0.000 HD 
HETATM   21  C   UNL     1     -10.986  10.110  68.174  1.00  0.00    -0.313 A  
HETATM   22  H2  UNL     1     -11.849  12.357  71.642  1.00  0.00     0.000 HD 
ENDBRANCH  11  14
ENDBRANCH   9  11
ENDBRANCH   6   9
ENDBRANCH   2   3
TORSDOF 4
ENDMDL
MODEL      222
REMARK 921   NORMALIZED FREE ENERGY PREDICTED BY IDOCK:   -2.97 KCAL/MOL
REMARK 922        TOTAL FREE ENERGY PREDICTED BY IDOCK:   -4.02 KCAL/MOL
REMARK 923 INTER-LIGAND FREE ENERGY PREDICTED BY IDOCK:   -3.73 KCAL/MOL
REMARK 924 INTRA-LIGAND FREE ENERGY PREDICTED BY IDOCK:   -0.29 KCAL/MOL
REMARK 927      BINDING AFFINITY PREDICTED BY RF-SCORE:    0.00 PKD
ROOT
HETATM    1  C   UNL     1     -10.432  12.049  63.511  1.00  0.00    -0.464 C  
HETATM    2  O   UNL     1      -9.352  11.187  63.852  1.00  0.00    -0.215 OA 
ENDROOT
BRANCH   2   3
HETATM    3  C   UNL     1      -9.252  10.848  65.163  1.00  0.00    -0.214 A  
HETATM    4  C   UNL     1      -8.749   9.599  65.463  1.00  0.00    -0.153 A  
HETATM    5  N   UNL     1      -8.556   9.139  66.716  1.00  0.00    -0.125 NA 
HETATM    6  C   UNL     1      -8.890   9.981  67.694  1.00  0.00    -0.121 A  
HETATM    7  C   UNL     1      -9.551  11.623  66.266  1.00  0.00    -0.221 A  
HETATM    8  N   UNL     1      -9.401  11.209  67.548  1.00  0.00    -0.166 NA 
BRANCH   6   9
HETATM    9  N   UNL     1      -8.749   9.509  68.989  1.00  0.00    -0.137 N  
HETATM   10  H   UNL     1      -7.851   9.521  69.472  1.00  0.00     0.000 HD 
BRANCH   9  11
HETATM   11  S   UNL     1     -10.130   8.920  69.713  1.00  0.00    -0.207 S  
HETATM   12  O   UNL     1     -10.849   8.062  68.794  1.00  0.00    -0.097 OA 
HETATM   13  O   UNL     1     -10.788  10.061  70.319  1.00  0.00    -0.272 OA 
BRANCH  11  14
HETATM   14  C   UNL     1      -9.557   7.891  71.054  1.00  0.00    -0.159 A  
HETATM   15  C   UNL     1      -9.209   8.473  72.275  1.00  0.00    -0.343 A  
HETATM   16  C   UNL     1      -8.790   7.659  73.333  1.00  0.00    -0.269 A  
HETATM   17  C   UNL     1      -8.680   6.274  73.170  1.00  0.00    -0.123 A  
HETATM   18  N   UNL     1      -8.347   5.461  74.260  1.00  0.00    -0.108 NA 
HETATM   19  C   UNL     1      -9.136   5.701  71.979  1.00  0.00    -0.145 A  
HETATM   20  H1  UNL     1      -8.267   4.451  74.142  1.00  0.00     0.000 HD 
HETATM   21  C   UNL     1      -9.566   6.501  70.916  1.00  0.00    -0.186 A  
HETATM   22  H2  UNL     1      -9.010   5.645  75.012  1.00  0.00     0.000 HD 
ENDBRANCH  11  14
ENDBRANCH   9  11
ENDBRANCH   6   9
ENDBRANCH   2   3
TORSDOF 4
ENDMDL
MODEL      223
REMARK 921   NORMALIZED FREE ENERGY PREDICTED BY IDOCK:   -2.97 KCAL/MOL
REMARK 922        TOTAL FREE ENERGY PREDICTED BY IDOCK:   -4.01 KCAL/MOL
REMARK 923 INTER-LIGAND FREE ENERGY PREDICTED BY IDOCK:   -3.77 KCAL/MOL
REMARK 924 INTRA-LIGAND FREE ENERGY PREDICTED BY IDOCK:   -0.24 KCAL/MOL
REMARK 927      BINDING AFFINITY PREDICTED BY RF-SCORE:    0.00 PKD
ROOT
HETATM    1  C   UNL     1     -13.254  10.654  71.746  1.00  0.00    -0.421 C  
HETATM    2  O   UNL     1     -12.985   9.435  72.429  1.00  0.00    -0.395 OA 
ENDROOT
BRANCH   2   3
HETATM    3  C   UNL     1     -11.995   8.665  71.906  1.00  0.00    -0.356 A  
HETATM    4  C   UNL     1     -11.279   7.868  72.776  1.00  0.00    -0.405 A  
HETATM    5  N   UNL     1     -10.296   7.025  72.398  1.00  0.00    -0.198 NA 
HETATM    6  C   UNL     1     -10.035   6.997  71.092  1.00  0.00    -0.184 A  
HETATM    7  C   UNL     1     -11.631   8.535  70.581  1.00  0.00    -0.194 A  
HETATM    8  N   UNL     1     -10.636   7.724  70.143  1.00  0.00    -0.232 NA 
BRANCH   6   9
HETATM    9  N   UNL     1      -8.993   6.177  70.689  1.00  0.00    -0.146 N  
HETATM   10  H   UNL     1      -9.062   5.160  70.728  1.00  0.00     0.000 HD 
BRANCH   9  11
HETATM   11  S   UNL     1      -7.621   6.945  70.136  1.00  0.00    -0.101 S  
HETATM   12  O   UNL     1      -6.457   6.116  70.366  1.00  0.00    -0.037 OA 
HETATM   13  O   UNL     1      -7.675   8.296  70.660  1.00  0.00    -0.076 OA 
BRANCH  11  14
HETATM   14  C   UNL     1      -7.834   7.075  68.369  1.00  0.00    -0.122 A  
HETATM   15  C   UNL     1      -7.411   8.227  67.702  1.00  0.00    -0.093 A  
HETATM   16  C   UNL     1      -7.551   8.311  66.313  1.00  0.00    -0.096 A  
HETATM   17  C   UNL     1      -8.143   7.271  65.589  1.00  0.00    -0.133 A  
HETATM   18  N   UNL     1      -8.197   7.327  64.191  1.00  0.00    -0.345 NA 
HETATM   19  C   UNL     1      -8.460   6.084  66.258  1.00  0.00    -0.130 A  
HETATM   20  H1  UNL     1      -8.628   6.568  63.663  1.00  0.00     0.000 HD 
HETATM   21  C   UNL     1      -8.316   5.983  67.645  1.00  0.00    -0.108 A  
HETATM   22  H2  UNL     1      -7.250   7.465  63.839  1.00  0.00     0.000 HD 
ENDBRANCH  11  14
ENDBRANCH   9  11
ENDBRANCH   6   9
ENDBRANCH   2   3
TORSDOF 4
ENDMDL
MODEL      224
REMARK 921   NORMALIZED FREE ENERGY PREDICTED BY IDOCK:   -2.95 KCAL/MOL
REMARK 922        TOTAL FREE ENERGY PREDICTED BY IDOCK:   -3.99 KCAL/MOL
REMARK 923 INTER-LIGAND FREE ENERGY PREDICTED BY IDOCK:   -3.74 KCAL/MOL
REMARK 924 INTRA-LIGAND FREE ENERGY PREDICTED BY IDOCK:   -0.25 KCAL/MOL
REMARK 927      BINDING AFFINITY PREDICTED BY RF-SCORE:    0.00 PKD
ROOT
HETATM    1  C   UNL     1     -10.377  16.785  66.499  1.00  0.00    -0.301 C  
HETATM    2  O   UNL     1      -9.745  16.364  67.704  1.00  0.00    -0.234 OA 
ENDROOT
BRANCH   2   3
HETATM    3  C   UNL     1      -9.647  15.022  67.887  1.00  0.00    -0.203 A  
HETATM    4  C   UNL     1     -10.753  14.253  67.588  1.00  0.00    -0.258 A  
HETATM    5  N   UNL     1     -10.791  12.909  67.684  1.00  0.00    -0.228 NA 
HETATM    6  C   UNL     1      -9.664  12.331  68.099  1.00  0.00    -0.213 A  
HETATM    7  C   UNL     1      -8.544  14.300  68.298  1.00  0.00    -0.176 A  
HETATM    8  N   UNL     1      -8.528  12.951  68.436  1.00  0.00    -0.148 NA 
BRANCH   6   9
HETATM    9  N   UNL     1      -9.698  10.954  68.254  1.00  0.00    -0.159 N  
HETATM   10  H   UNL     1      -9.982  10.518  69.132  1.00  0.00     0.000 HD 
BRANCH   9  11
HETATM   11  S   UNL     1      -9.251  10.050  66.927  1.00  0.00    -0.148 S  
HETATM   12  O   UNL     1      -7.868  10.314  66.586  1.00  0.00    -0.111 OA 
HETATM   13  O   UNL     1     -10.297  10.235  65.940  1.00  0.00    -0.237 OA 
BRANCH  11  14
HETATM   14  C   UNL     1      -9.346   8.350  67.461  1.00  0.00    -0.147 A  
HETATM   15  C   UNL     1      -8.560   7.913  68.529  1.00  0.00    -0.128 A  
HETATM   16  C   UNL     1      -8.661   6.588  68.964  1.00  0.00    -0.128 A  
HETATM   17  C   UNL     1      -9.513   5.686  68.318  1.00  0.00    -0.114 A  
HETATM   18  N   UNL     1      -9.674   4.388  68.816  1.00  0.00    -0.154 NA 
HETATM   19  C   UNL     1     -10.370   6.168  67.324  1.00  0.00    -0.272 A  
HETATM   20  H1  UNL     1     -10.295   3.730  68.345  1.00  0.00     0.000 HD 
HETATM   21  C   UNL     1     -10.286   7.493  66.885  1.00  0.00    -0.379 A  
HETATM   22  H2  UNL     1      -9.955   4.452  69.794  1.00  0.00     0.000 HD 
ENDBRANCH  11  14
ENDBRANCH   9  11
ENDBRANCH   6   9
ENDBRANCH   2   3
TORSDOF 4
ENDMDL
MODEL      225
REMARK 921   NORMALIZED FREE ENERGY PREDICTED BY IDOCK:   -2.92 KCAL/MOL
REMARK 922        TOTAL FREE ENERGY PREDICTED BY IDOCK:   -3.95 KCAL/MOL
REMARK 923 INTER-LIGAND FREE ENERGY PREDICTED BY IDOCK:   -3.79 KCAL/MOL
REMARK 924 INTRA-LIGAND FREE ENERGY PREDICTED BY IDOCK:   -0.16 KCAL/MOL
REMARK 927      BINDING AFFINITY PREDICTED BY RF-SCORE:    0.00 PKD
ROOT
HETATM    1  C   UNL     1      -6.389  11.004  69.537  1.00  0.00    -0.095 C  
HETATM    2  O   UNL     1      -7.517  10.331  70.087  1.00  0.00    -0.165 OA 
ENDROOT
BRANCH   2   3
HETATM    3  C   UNL     1      -7.559   8.987  69.896  1.00  0.00    -0.067 A  
HETATM    4  C   UNL     1      -7.475   8.180  71.013  1.00  0.00    -0.067 A  
HETATM    5  N   UNL     1      -7.542   6.834  70.982  1.00  0.00    -0.084 NA 
HETATM    6  C   UNL     1      -7.700   6.294  69.774  1.00  0.00    -0.105 A  
HETATM    7  C   UNL     1      -7.729   8.303  68.709  1.00  0.00    -0.114 A  
HETATM    8  N   UNL     1      -7.780   6.952  68.612  1.00  0.00    -0.111 NA 
BRANCH   6   9
HETATM    9  N   UNL     1      -7.718   4.909  69.715  1.00  0.00    -0.056 N  
HETATM   10  H   UNL     1      -6.869   4.355  69.823  1.00  0.00     0.000 HD 
BRANCH   9  11
HETATM   11  S   UNL     1      -9.205   4.202  69.459  1.00  0.00    -0.163 S  
HETATM   12  O   UNL     1      -9.246   2.890  70.071  1.00  0.00    -0.115 OA 
HETATM   13  O   UNL     1      -9.491   4.360  68.046  1.00  0.00    -0.140 OA 
BRANCH  11  14
HETATM   14  C   UNL     1     -10.373   5.228  70.334  1.00  0.00    -0.275 A  
HETATM   15  C   UNL     1     -10.462   5.146  71.726  1.00  0.00    -0.268 A  
HETATM   16  C   UNL     1     -11.357   5.975  72.410  1.00  0.00    -0.349 A  
HETATM   17  C   UNL     1     -12.189   6.858  71.714  1.00  0.00    -0.356 A  
HETATM   18  N   UNL     1     -13.016   7.745  72.414  1.00  0.00    -0.516 NA 
HETATM   19  C   UNL     1     -12.009   7.004  70.335  1.00  0.00    -0.256 A  
HETATM   20  H1  UNL     1     -13.623   8.389  71.907  1.00  0.00     0.000 HD 
HETATM   21  C   UNL     1     -11.112   6.188  69.640  1.00  0.00    -0.489 A  
HETATM   22  H2  UNL     1     -12.436   8.287  73.054  1.00  0.00     0.000 HD 
ENDBRANCH  11  14
ENDBRANCH   9  11
ENDBRANCH   6   9
ENDBRANCH   2   3
TORSDOF 4
ENDMDL
MODEL      226
REMARK 921   NORMALIZED FREE ENERGY PREDICTED BY IDOCK:   -2.92 KCAL/MOL
REMARK 922        TOTAL FREE ENERGY PREDICTED BY IDOCK:   -3.95 KCAL/MOL
REMARK 923 INTER-LIGAND FREE ENERGY PREDICTED BY IDOCK:   -3.62 KCAL/MOL
REMARK 924 INTRA-LIGAND FREE ENERGY PREDICTED BY IDOCK:   -0.32 KCAL/MOL
REMARK 927      BINDING AFFINITY PREDICTED BY RF-SCORE:    0.00 PKD
ROOT
HETATM    1  C   UNL     1      -5.910   7.167  67.801  1.00  0.00    -0.029 C  
HETATM    2  O   UNL     1      -7.120   7.576  68.429  1.00  0.00    -0.076 OA 
ENDROOT
BRANCH   2   3
HETATM    3  C   UNL     1      -7.385   8.909  68.400  1.00  0.00    -0.082 A  
HETATM    4  C   UNL     1      -8.552   9.341  68.996  1.00  0.00    -0.134 A  
HETATM    5  N   UNL     1      -8.928  10.633  69.079  1.00  0.00    -0.171 NA 
HETATM    6  C   UNL     1      -8.086  11.512  68.536  1.00  0.00    -0.146 A  
HETATM    7  C   UNL     1      -6.599   9.919  67.884  1.00  0.00    -0.064 A  
HETATM    8  N   UNL     1      -6.934  11.232  67.916  1.00  0.00    -0.071 NA 
BRANCH   6   9
HETATM    9  N   UNL     1      -8.478  12.841  68.564  1.00  0.00    -0.323 N  
HETATM   10  H   UNL     1      -8.027  13.523  69.172  1.00  0.00     0.000 HD 
BRANCH   9  11
HETATM   11  S   UNL     1      -9.729  13.262  67.546  1.00  0.00    -0.231 S  
HETATM   12  O   UNL     1     -11.001  13.073  68.213  1.00  0.00    -0.239 OA 
HETATM   13  O   UNL     1      -9.461  12.606  66.281  1.00  0.00    -0.243 OA 
BRANCH  11  14
HETATM   14  C   UNL     1      -9.538  15.013  67.264  1.00  0.00    -0.207 A  
HETATM   15  C   UNL     1      -9.993  15.577  66.070  1.00  0.00    -0.356 A  
HETATM   16  C   UNL     1      -9.869  16.955  65.866  1.00  0.00    -0.241 A  
HETATM   17  C   UNL     1      -9.262  17.769  66.829  1.00  0.00    -0.273 A  
HETATM   18  N   UNL     1      -9.224  19.158  66.655  1.00  0.00    -0.321 NA 
HETATM   19  C   UNL     1      -8.913  17.205  68.060  1.00  0.00    -0.233 A  
HETATM   20  H1  UNL     1      -8.782  19.751  67.356  1.00  0.00     0.000 HD 
HETATM   21  C   UNL     1      -9.040  15.831  68.281  1.00  0.00    -0.187 A  
HETATM   22  H2  UNL     1     -10.178  19.489  66.508  1.00  0.00     0.000 HD 
ENDBRANCH  11  14
ENDBRANCH   9  11
ENDBRANCH   6   9
ENDBRANCH   2   3
TORSDOF 4
ENDMDL
MODEL      227
REMARK 921   NORMALIZED FREE ENERGY PREDICTED BY IDOCK:   -2.89 KCAL/MOL
REMARK 922        TOTAL FREE ENERGY PREDICTED BY IDOCK:   -3.91 KCAL/MOL
REMARK 923 INTER-LIGAND FREE ENERGY PREDICTED BY IDOCK:   -3.67 KCAL/MOL
REMARK 924 INTRA-LIGAND FREE ENERGY PREDICTED BY IDOCK:   -0.24 KCAL/MOL
REMARK 927      BINDING AFFINITY PREDICTED BY RF-SCORE:    0.00 PKD
ROOT
HETATM    1  C   UNL     1      -6.032   9.230  70.723  1.00  0.00    -0.054 C  
HETATM    2  O   UNL     1      -6.167   9.461  69.325  1.00  0.00    -0.040 OA 
ENDROOT
BRANCH   2   3
HETATM    3  C   UNL     1      -6.590  10.701  68.964  1.00  0.00    -0.062 A  
HETATM    4  C   UNL     1      -7.544  10.787  67.971  1.00  0.00    -0.092 A  
HETATM    5  N   UNL     1      -8.085  11.943  67.537  1.00  0.00    -0.146 NA 
HETATM    6  C   UNL     1      -7.637  13.046  68.135  1.00  0.00    -0.136 A  
HETATM    7  C   UNL     1      -6.218  11.915  69.506  1.00  0.00    -0.117 A  
HETATM    8  N   UNL     1      -6.708  13.110  69.096  1.00  0.00    -0.105 NA 
BRANCH   6   9
HETATM    9  N   UNL     1      -8.141  14.249  67.667  1.00  0.00    -0.164 N  
HETATM   10  H   UNL     1      -7.751  14.714  66.847  1.00  0.00     0.000 HD 
BRANCH   9  11
HETATM   11  S   UNL     1      -9.421  14.893  68.517  1.00  0.00    -0.215 S  
HETATM   12  O   UNL     1      -9.067  15.048  69.913  1.00  0.00    -0.010 OA 
HETATM   13  O   UNL     1     -10.589  14.121  68.139  1.00  0.00    -0.237 OA 
BRANCH  11  14
HETATM   14  C   UNL     1      -9.655  16.531  67.849  1.00  0.00    -0.233 A  
HETATM   15  C   UNL     1     -10.280  17.513  68.622  1.00  0.00    -0.373 A  
HETATM   16  C   UNL     1     -10.433  18.804  68.105  1.00  0.00    -0.372 A  
HETATM   17  C   UNL     1     -10.001  19.113  66.811  1.00  0.00    -0.361 A  
HETATM   18  N   UNL     1     -10.077  20.428  66.338  1.00  0.00    -0.540 NA 
HETATM   19  C   UNL     1      -9.282  18.150  66.097  1.00  0.00    -0.136 A  
HETATM   20  H1  UNL     1      -9.762  20.654  65.395  1.00  0.00     0.000 HD 
HETATM   21  C   UNL     1      -9.113  16.858  66.604  1.00  0.00    -0.280 A  
HETATM   22  H2  UNL     1      -9.586  21.034  66.995  1.00  0.00     0.000 HD 
ENDBRANCH  11  14
ENDBRANCH   9  11
ENDBRANCH   6   9
ENDBRANCH   2   3
TORSDOF 4
ENDMDL
MODEL      228
REMARK 921   NORMALIZED FREE ENERGY PREDICTED BY IDOCK:   -2.89 KCAL/MOL
REMARK 922        TOTAL FREE ENERGY PREDICTED BY IDOCK:   -3.91 KCAL/MOL
REMARK 923 INTER-LIGAND FREE ENERGY PREDICTED BY IDOCK:   -3.69 KCAL/MOL
REMARK 924 INTRA-LIGAND FREE ENERGY PREDICTED BY IDOCK:   -0.22 KCAL/MOL
REMARK 927      BINDING AFFINITY PREDICTED BY RF-SCORE:    0.00 PKD
ROOT
HETATM    1  C   UNL     1      -6.355   3.538  64.637  1.00  0.00    -0.024 C  
HETATM    2  O   UNL     1      -6.209   3.734  66.039  1.00  0.00    -0.030 OA 
ENDROOT
BRANCH   2   3
HETATM    3  C   UNL     1      -6.799   4.847  66.550  1.00  0.00    -0.062 A  
HETATM    4  C   UNL     1      -7.942   4.675  67.304  1.00  0.00    -0.101 A  
HETATM    5  N   UNL     1      -8.612   5.680  67.904  1.00  0.00    -0.102 NA 
HETATM    6  C   UNL     1      -8.100   6.897  67.728  1.00  0.00    -0.114 A  
HETATM    7  C   UNL     1      -6.370   6.155  66.452  1.00  0.00    -0.045 A  
HETATM    8  N   UNL     1      -7.013   7.208  67.013  1.00  0.00    -0.075 NA 
BRANCH   6   9
HETATM    9  N   UNL     1      -8.803   7.949  68.293  1.00  0.00    -0.130 N  
HETATM   10  H   UNL     1      -8.615   8.275  69.241  1.00  0.00     0.000 HD 
BRANCH   9  11
HETATM   11  S   UNL     1      -9.972   8.653  67.337  1.00  0.00    -0.231 S  
HETATM   12  O   UNL     1     -10.973   7.673  66.968  1.00  0.00    -0.277 OA 
HETATM   13  O   UNL     1      -9.265   9.398  66.314  1.00  0.00    -0.157 OA 
BRANCH  11  14
HETATM   14  C   UNL     1     -10.775   9.856  68.382  1.00  0.00    -0.232 A  
HETATM   15  C   UNL     1     -10.935   9.595  69.745  1.00  0.00    -0.266 A  
HETATM   16  C   UNL     1     -11.536  10.555  70.565  1.00  0.00    -0.441 A  
HETATM   17  C   UNL     1     -12.013  11.756  70.030  1.00  0.00    -0.344 A  
HETATM   18  N   UNL     1     -12.531  12.746  70.874  1.00  0.00    -0.345 NA 
HETATM   19  C   UNL     1     -11.747  12.045  68.689  1.00  0.00    -0.380 A  
HETATM   20  H1  UNL     1     -12.879  13.622  70.485  1.00  0.00     0.000 HD 
HETATM   21  C   UNL     1     -11.138  11.099  67.859  1.00  0.00    -0.331 A  
HETATM   22  H2  UNL     1     -11.830  12.964  71.582  1.00  0.00     0.000 HD 
ENDBRANCH  11  14
ENDBRANCH   9  11
ENDBRANCH   6   9
ENDBRANCH   2   3
TORSDOF 4
ENDMDL
MODEL      229
REMARK 921   NORMALIZED FREE ENERGY PREDICTED BY IDOCK:   -2.81 KCAL/MOL
REMARK 922        TOTAL FREE ENERGY PREDICTED BY IDOCK:   -3.81 KCAL/MOL
REMARK 923 INTER-LIGAND FREE ENERGY PREDICTED BY IDOCK:   -3.41 KCAL/MOL
REMARK 924 INTRA-LIGAND FREE ENERGY PREDICTED BY IDOCK:   -0.41 KCAL/MOL
REMARK 927      BINDING AFFINITY PREDICTED BY RF-SCORE:    0.00 PKD
ROOT
HETATM    1  C   UNL     1     -12.017  12.321  70.105  1.00  0.00    -0.298 C  
HETATM    2  O   UNL     1     -11.503  10.996  70.028  1.00  0.00    -0.285 OA 
ENDROOT
BRANCH   2   3
HETATM    3  C   UNL     1     -11.097  10.585  68.798  1.00  0.00    -0.265 A  
HETATM    4  C   UNL     1     -11.212  11.481  67.754  1.00  0.00    -0.279 A  
HETATM    5  N   UNL     1     -10.815  11.229  66.491  1.00  0.00    -0.277 NA 
HETATM    6  C   UNL     1     -10.285  10.024  66.286  1.00  0.00    -0.215 A  
HETATM    7  C   UNL     1     -10.524   9.377  68.453  1.00  0.00    -0.218 A  
HETATM    8  N   UNL     1     -10.128   9.057  67.197  1.00  0.00    -0.221 NA 
BRANCH   6   9
HETATM    9  N   UNL     1      -9.919   9.725  64.982  1.00  0.00    -0.403 N  
HETATM   10  H   UNL     1     -10.564   9.276  64.332  1.00  0.00     0.000 HD 
BRANCH   9  11
HETATM   11  S   UNL     1      -8.368  10.141  64.538  1.00  0.00    -0.172 S  
HETATM   12  O   UNL     1      -7.684  10.775  65.645  1.00  0.00    -0.138 OA 
HETATM   13  O   UNL     1      -8.481  10.818  63.261  1.00  0.00    -0.147 OA 
BRANCH  11  14
HETATM   14  C   UNL     1      -7.537   8.593  64.223  1.00  0.00    -0.120 A  
HETATM   15  C   UNL     1      -8.004   7.421  64.821  1.00  0.00    -0.127 A  
HETATM   16  C   UNL     1      -7.368   6.205  64.547  1.00  0.00    -0.069 A  
HETATM   17  C   UNL     1      -6.248   6.157  63.710  1.00  0.00    -0.029 A  
HETATM   18  N   UNL     1      -5.675   4.925  63.371  1.00  0.00    -0.016 NA 
HETATM   19  C   UNL     1      -5.863   7.320  63.037  1.00  0.00    -0.045 A  
HETATM   20  H1  UNL     1      -4.859   4.889  62.761  1.00  0.00     0.000 HD 
HETATM   21  C   UNL     1      -6.496   8.540  63.294  1.00  0.00    -0.086 A  
HETATM   22  H2  UNL     1      -6.402   4.332  62.971  1.00  0.00     0.000 HD 
ENDBRANCH  11  14
ENDBRANCH   9  11
ENDBRANCH   6   9
ENDBRANCH   2   3
TORSDOF 4
ENDMDL
MODEL      230
REMARK 921   NORMALIZED FREE ENERGY PREDICTED BY IDOCK:   -2.77 KCAL/MOL
REMARK 922        TOTAL FREE ENERGY PREDICTED BY IDOCK:   -3.77 KCAL/MOL
REMARK 923 INTER-LIGAND FREE ENERGY PREDICTED BY IDOCK:   -3.51 KCAL/MOL
REMARK 924 INTRA-LIGAND FREE ENERGY PREDICTED BY IDOCK:   -0.26 KCAL/MOL
REMARK 927      BINDING AFFINITY PREDICTED BY RF-SCORE:    0.00 PKD
ROOT
HETATM    1  C   UNL     1      -6.339   3.842  64.948  1.00  0.00    -0.027 C  
HETATM    2  O   UNL     1      -6.729   4.181  66.274  1.00  0.00    -0.050 OA 
ENDROOT
BRANCH   2   3
HETATM    3  C   UNL     1      -7.399   5.355  66.416  1.00  0.00    -0.082 A  
HETATM    4  C   UNL     1      -8.178   5.778  65.358  1.00  0.00    -0.138 A  
HETATM    5  N   UNL     1      -8.928   6.898  65.369  1.00  0.00     0.107 NA 
HETATM    6  C   UNL     1      -8.880   7.610  66.494  1.00  0.00    -0.147 A  
HETATM    7  C   UNL     1      -7.444   6.177  67.523  1.00  0.00    -0.082 A  
HETATM    8  N   UNL     1      -8.160   7.327  67.585  1.00  0.00    -0.113 NA 
BRANCH   6   9
HETATM    9  N   UNL     1      -9.602   8.793  66.506  1.00  0.00    -0.216 N  
HETATM   10  H   UNL     1     -10.533   8.851  66.918  1.00  0.00     0.000 HD 
BRANCH   9  11
HETATM   11  S   UNL     1      -8.864  10.115  65.812  1.00  0.00    -0.166 S  
HETATM   12  O   UNL     1      -8.984  10.055  64.370  1.00  0.00    -0.193 OA 
HETATM   13  O   UNL     1      -7.558  10.224  66.434  1.00  0.00    -0.107 OA 
BRANCH  11  14
HETATM   14  C   UNL     1      -9.809  11.525  66.360  1.00  0.00    -0.205 A  
HETATM   15  C   UNL     1     -11.152  11.646  65.994  1.00  0.00    -0.325 A  
HETATM   16  C   UNL     1     -11.897  12.737  66.452  1.00  0.00    -0.472 A  
HETATM   17  C   UNL     1     -11.304  13.728  67.241  1.00  0.00    -0.321 A  
HETATM   18  N   UNL     1     -12.080  14.767  67.767  1.00  0.00    -0.559 NA 
HETATM   19  C   UNL     1      -9.992  13.535  67.686  1.00  0.00    -0.229 A  
HETATM   20  H1  UNL     1     -11.648  15.490  68.343  1.00  0.00     0.000 HD 
HETATM   21  C   UNL     1      -9.238  12.444  67.244  1.00  0.00    -0.187 A  
HETATM   22  H2  UNL     1     -12.852  14.357  68.292  1.00  0.00     0.000 HD 
ENDBRANCH  11  14
ENDBRANCH   9  11
ENDBRANCH   6   9
ENDBRANCH   2   3
TORSDOF 4
ENDMDL
MODEL      231
REMARK 921   NORMALIZED FREE ENERGY PREDICTED BY IDOCK:   -2.77 KCAL/MOL
REMARK 922        TOTAL FREE ENERGY PREDICTED BY IDOCK:   -3.77 KCAL/MOL
REMARK 923 INTER-LIGAND FREE ENERGY PREDICTED BY IDOCK:   -3.51 KCAL/MOL
REMARK 924 INTRA-LIGAND FREE ENERGY PREDICTED BY IDOCK:   -0.26 KCAL/MOL
REMARK 927      BINDING AFFINITY PREDICTED BY RF-SCORE:    0.00 PKD
ROOT
HETATM    1  C   UNL     1      -6.149  10.888  67.602  1.00  0.00    -0.047 C  
HETATM    2  O   UNL     1      -7.304  10.321  68.212  1.00  0.00    -0.082 OA 
ENDROOT
BRANCH   2   3
HETATM    3  C   UNL     1      -7.553   9.018  67.919  1.00  0.00    -0.093 A  
HETATM    4  C   UNL     1      -7.168   8.070  68.845  1.00  0.00    -0.075 A  
HETATM    5  N   UNL     1      -7.384   6.746  68.709  1.00  0.00    -0.091 NA 
HETATM    6  C   UNL     1      -8.011   6.378  67.592  1.00  0.00    -0.114 A  
HETATM    7  C   UNL     1      -8.200   8.506  66.812  1.00  0.00    -0.105 A  
HETATM    8  N   UNL     1      -8.424   7.185  66.608  1.00  0.00    -0.116 NA 
BRANCH   6   9
HETATM    9  N   UNL     1      -8.196   5.017  67.408  1.00  0.00    -0.106 N  
HETATM   10  H   UNL     1      -7.422   4.396  67.172  1.00  0.00     0.000 HD 
BRANCH   9  11
HETATM   11  S   UNL     1      -9.752   4.452  67.595  1.00  0.00    -0.112 S  
HETATM   12  O   UNL     1      -9.739   3.026  67.849  1.00  0.00    -0.136 OA 
HETATM   13  O   UNL     1     -10.515   4.991  66.485  1.00  0.00    -0.271 OA 
BRANCH  11  14
HETATM   14  C   UNL     1     -10.368   5.244  69.070  1.00  0.00    -0.176 A  
HETATM   15  C   UNL     1     -11.288   6.290  68.964  1.00  0.00    -0.319 A  
HETATM   16  C   UNL     1     -11.791   6.887  70.124  1.00  0.00    -0.266 A  
HETATM   17  C   UNL     1     -11.356   6.473  71.388  1.00  0.00    -0.294 A  
HETATM   18  N   UNL     1     -11.933   7.015  72.543  1.00  0.00    -0.495 NA 
HETATM   19  C   UNL     1     -10.521   5.356  71.477  1.00  0.00    -0.289 A  
HETATM   20  H1  UNL     1     -11.616   6.714  73.465  1.00  0.00     0.000 HD 
HETATM   21  C   UNL     1     -10.018   4.743  70.326  1.00  0.00    -0.320 A  
HETATM   22  H2  UNL     1     -12.942   6.883  72.491  1.00  0.00     0.000 HD 
ENDBRANCH  11  14
ENDBRANCH   9  11
ENDBRANCH   6   9
ENDBRANCH   2   3
TORSDOF 4
ENDMDL
MODEL      232
REMARK 921   NORMALIZED FREE ENERGY PREDICTED BY IDOCK:   -2.72 KCAL/MOL
REMARK 922        TOTAL FREE ENERGY PREDICTED BY IDOCK:   -3.71 KCAL/MOL
REMARK 923 INTER-LIGAND FREE ENERGY PREDICTED BY IDOCK:   -3.55 KCAL/MOL
REMARK 924 INTRA-LIGAND FREE ENERGY PREDICTED BY IDOCK:   -0.16 KCAL/MOL
REMARK 927      BINDING AFFINITY PREDICTED BY RF-SCORE:    0.00 PKD
ROOT
HETATM    1  C   UNL     1      -5.619   3.457  71.066  1.00  0.00    -0.012 C  
HETATM    2  O   UNL     1      -6.529   4.472  71.474  1.00  0.00    -0.018 OA 
ENDROOT
BRANCH   2   3
HETATM    3  C   UNL     1      -7.036   5.251  70.483  1.00  0.00    -0.061 A  
HETATM    4  C   UNL     1      -6.367   6.419  70.182  1.00  0.00    -0.039 A  
HETATM    5  N   UNL     1      -6.729   7.269  69.200  1.00  0.00    -0.047 NA 
HETATM    6  C   UNL     1      -7.810   6.917  68.506  1.00  0.00    -0.118 A  
HETATM    7  C   UNL     1      -8.134   4.999  69.684  1.00  0.00    -0.078 A  
HETATM    8  N   UNL     1      -8.561   5.826  68.699  1.00  0.00    -0.109 NA 
BRANCH   6   9
HETATM    9  N   UNL     1      -8.230   7.804  67.527  1.00  0.00    -0.123 N  
HETATM   10  H   UNL     1      -7.687   7.967  66.680  1.00  0.00     0.000 HD 
BRANCH   9  11
HETATM   11  S   UNL     1      -9.673   8.587  67.812  1.00  0.00    -0.170 S  
HETATM   12  O   UNL     1      -9.612   9.305  69.068  1.00  0.00    -0.155 OA 
HETATM   13  O   UNL     1     -10.718   7.610  67.576  1.00  0.00    -0.253 OA 
BRANCH  11  14
HETATM   14  C   UNL     1      -9.812   9.805  66.516  1.00  0.00    -0.225 A  
HETATM   15  C   UNL     1      -9.345   9.510  65.233  1.00  0.00    -0.317 A  
HETATM   16  C   UNL     1      -9.484  10.457  64.213  1.00  0.00    -0.349 A  
HETATM   17  C   UNL     1     -10.052  11.709  64.471  1.00  0.00    -0.278 A  
HETATM   18  N   UNL     1     -10.268  12.613  63.425  1.00  0.00    -0.586 NA 
HETATM   19  C   UNL     1     -10.611  11.944  65.731  1.00  0.00    -0.309 A  
HETATM   20  H1  UNL     1     -10.683  13.526  63.612  1.00  0.00     0.000 HD 
HETATM   21  C   UNL     1     -10.487  11.004  66.757  1.00  0.00    -0.300 A  
HETATM   22  H2  UNL     1     -10.826  12.148  62.709  1.00  0.00     0.000 HD 
ENDBRANCH  11  14
ENDBRANCH   9  11
ENDBRANCH   6   9
ENDBRANCH   2   3
TORSDOF 4
ENDMDL
MODEL      233
REMARK 921   NORMALIZED FREE ENERGY PREDICTED BY IDOCK:   -2.72 KCAL/MOL
REMARK 922        TOTAL FREE ENERGY PREDICTED BY IDOCK:   -3.70 KCAL/MOL
REMARK 923 INTER-LIGAND FREE ENERGY PREDICTED BY IDOCK:   -4.28 KCAL/MOL
REMARK 924 INTRA-LIGAND FREE ENERGY PREDICTED BY IDOCK:    0.58 KCAL/MOL
REMARK 927      BINDING AFFINITY PREDICTED BY RF-SCORE:    0.00 PKD
ROOT
HETATM    1  C   UNL     1     -12.354  14.745  64.597  1.00  0.00    -0.333 C  
HETATM    2  O   UNL     1     -11.863  14.580  65.922  1.00  0.00    -0.369 OA 
ENDROOT
BRANCH   2   3
HETATM    3  C   UNL     1     -10.826  13.715  66.070  1.00  0.00    -0.275 A  
HETATM    4  C   UNL     1     -10.167  13.707  67.282  1.00  0.00    -0.246 A  
HETATM    5  N   UNL     1      -9.148  12.879  67.587  1.00  0.00    -0.184 NA 
HETATM    6  C   UNL     1      -8.789  12.033  66.622  1.00  0.00    -0.191 A  
HETATM    7  C   UNL     1     -10.361  12.785  65.161  1.00  0.00    -0.295 A  
HETATM    8  N   UNL     1      -9.326  11.942  65.401  1.00  0.00    -0.108 NA 
BRANCH   6   9
HETATM    9  N   UNL     1      -7.708  11.209  66.896  1.00  0.00    -0.142 N  
HETATM   10  H   UNL     1      -6.918  11.526  67.459  1.00  0.00     0.000 HD 
BRANCH   9  11
HETATM   11  S   UNL     1      -7.771   9.672  66.255  1.00  0.00    -0.102 S  
HETATM   12  O   UNL     1      -6.471   9.040  66.343  1.00  0.00    -0.064 OA 
HETATM   13  O   UNL     1      -8.442   9.794  64.975  1.00  0.00    -0.135 OA 
BRANCH  11  14
HETATM   14  C   UNL     1      -8.872   8.761  67.323  1.00  0.00    -0.132 A  
HETATM   15  C   UNL     1      -8.772   8.905  68.709  1.00  0.00    -0.137 A  
HETATM   16  C   UNL     1      -9.658   8.213  69.541  1.00  0.00    -0.168 A  
HETATM   17  C   UNL     1     -10.618   7.349  69.003  1.00  0.00    -0.192 A  
HETATM   18  N   UNL     1     -11.556   6.731  69.838  1.00  0.00    -0.585 NA 
HETATM   19  C   UNL     1     -10.774   7.301  67.615  1.00  0.00    -0.294 A  
HETATM   20  H1  UNL     1     -12.256   6.102  69.447  1.00  0.00     0.000 HD 
HETATM   21  C   UNL     1      -9.901   7.995  66.771  1.00  0.00    -0.327 A  
HETATM   22  H2  UNL     1     -12.037   7.455  70.372  1.00  0.00     0.000 HD 
ENDBRANCH  11  14
ENDBRANCH   9  11
ENDBRANCH   6   9
ENDBRANCH   2   3
TORSDOF 4
ENDMDL
MODEL      234
REMARK 921   NORMALIZED FREE ENERGY PREDICTED BY IDOCK:   -2.69 KCAL/MOL
REMARK 922        TOTAL FREE ENERGY PREDICTED BY IDOCK:   -3.67 KCAL/MOL
REMARK 923 INTER-LIGAND FREE ENERGY PREDICTED BY IDOCK:   -3.39 KCAL/MOL
REMARK 924 INTRA-LIGAND FREE ENERGY PREDICTED BY IDOCK:   -0.27 KCAL/MOL
REMARK 927      BINDING AFFINITY PREDICTED BY RF-SCORE:    0.00 PKD
ROOT
HETATM    1  C   UNL     1      -8.199   4.408  70.050  1.00  0.00    -0.062 C  
HETATM    2  O   UNL     1      -9.191   5.423  70.156  1.00  0.00    -0.134 OA 
ENDROOT
BRANCH   2   3
HETATM    3  C   UNL     1      -9.148   6.399  69.211  1.00  0.00    -0.136 A  
HETATM    4  C   UNL     1      -8.877   7.685  69.632  1.00  0.00    -0.140 A  
HETATM    5  N   UNL     1      -8.764   8.745  68.807  1.00  0.00    -0.136 NA 
HETATM    6  C   UNL     1      -8.935   8.485  67.511  1.00  0.00    -0.135 A  
HETATM    7  C   UNL     1      -9.295   6.264  67.845  1.00  0.00    -0.114 A  
HETATM    8  N   UNL     1      -9.217   7.295  66.968  1.00  0.00    -0.139 NA 
BRANCH   6   9
HETATM    9  N   UNL     1      -8.876   9.570  66.651  1.00  0.00    -0.133 N  
HETATM   10  H   UNL     1      -8.044   9.775  66.099  1.00  0.00     0.000 HD 
BRANCH   9  11
HETATM   11  S   UNL     1     -10.242  10.521  66.569  1.00  0.00    -0.225 S  
HETATM   12  O   UNL     1     -11.179  10.141  67.605  1.00  0.00    -0.284 OA 
HETATM   13  O   UNL     1     -10.650  10.525  65.178  1.00  0.00    -0.221 OA 
BRANCH  11  14
HETATM   14  C   UNL     1      -9.688  12.175  66.943  1.00  0.00    -0.206 A  
HETATM   15  C   UNL     1     -10.005  13.226  66.078  1.00  0.00    -0.297 A  
HETATM   16  C   UNL     1      -9.595  14.526  66.391  1.00  0.00    -0.324 A  
HETATM   17  C   UNL     1      -8.839  14.780  67.540  1.00  0.00    -0.190 A  
HETATM   18  N   UNL     1      -8.511  16.095  67.890  1.00  0.00    -0.162 NA 
HETATM   19  C   UNL     1      -8.625  13.737  68.447  1.00  0.00    -0.156 A  
HETATM   20  H1  UNL     1      -7.960  16.281  68.728  1.00  0.00     0.000 HD 
HETATM   21  C   UNL     1      -9.037  12.435  68.151  1.00  0.00    -0.200 A  
HETATM   22  H2  UNL     1      -9.373  16.637  67.946  1.00  0.00     0.000 HD 
ENDBRANCH  11  14
ENDBRANCH   9  11
ENDBRANCH   6   9
ENDBRANCH   2   3
TORSDOF 4
ENDMDL
MODEL      235
REMARK 921   NORMALIZED FREE ENERGY PREDICTED BY IDOCK:   -2.59 KCAL/MOL
REMARK 922        TOTAL FREE ENERGY PREDICTED BY IDOCK:   -3.55 KCAL/MOL
REMARK 923 INTER-LIGAND FREE ENERGY PREDICTED BY IDOCK:   -3.33 KCAL/MOL
REMARK 924 INTRA-LIGAND FREE ENERGY PREDICTED BY IDOCK:   -0.22 KCAL/MOL
REMARK 927      BINDING AFFINITY PREDICTED BY RF-SCORE:    0.00 PKD
ROOT
HETATM    1  C   UNL     1      -7.351   5.482  72.396  1.00  0.00    -0.095 C  
HETATM    2  O   UNL     1      -8.438   5.929  71.593  1.00  0.00    -0.126 OA 
ENDROOT
BRANCH   2   3
HETATM    3  C   UNL     1      -8.266   7.124  70.969  1.00  0.00    -0.109 A  
HETATM    4  C   UNL     1      -8.936   8.215  71.483  1.00  0.00    -0.158 A  
HETATM    5  N   UNL     1      -8.832   9.468  70.995  1.00  0.00    -0.218 NA 
HETATM    6  C   UNL     1      -8.020   9.610  69.948  1.00  0.00    -0.167 A  
HETATM    7  C   UNL     1      -7.452   7.408  69.891  1.00  0.00    -0.085 A  
HETATM    8  N   UNL     1      -7.325   8.641  69.342  1.00  0.00    -0.071 NA 
BRANCH   6   9
HETATM    9  N   UNL     1      -7.941  10.880  69.398  1.00  0.00    -0.357 N  
HETATM   10  H   UNL     1      -7.230  11.550  69.691  1.00  0.00     0.000 HD 
BRANCH   9  11
HETATM   11  S   UNL     1      -9.071  11.250  68.231  1.00  0.00    -0.177 S  
HETATM   12  O   UNL     1     -10.407  11.161  68.783  1.00  0.00    -0.191 OA 
HETATM   13  O   UNL     1      -8.710  10.479  67.058  1.00  0.00    -0.130 OA 
BRANCH  11  14
HETATM   14  C   UNL     1      -8.784  12.963  67.823  1.00  0.00    -0.188 A  
HETATM   15  C   UNL     1      -7.685  13.632  68.369  1.00  0.00    -0.138 A  
HETATM   16  C   UNL     1      -7.447  14.966  68.023  1.00  0.00    -0.133 A  
HETATM   17  C   UNL     1      -8.316  15.648  67.165  1.00  0.00    -0.208 A  
HETATM   18  N   UNL     1      -8.019  16.953  66.754  1.00  0.00    -0.209 NA 
HETATM   19  C   UNL     1      -9.345  14.933  66.544  1.00  0.00    -0.308 A  
HETATM   20  H1  UNL     1      -8.652  17.451  66.128  1.00  0.00     0.000 HD 
HETATM   21  C   UNL     1      -9.589  13.597  66.875  1.00  0.00    -0.262 A  
HETATM   22  H2  UNL     1      -7.088  16.954  66.337  1.00  0.00     0.000 HD 
ENDBRANCH  11  14
ENDBRANCH   9  11
ENDBRANCH   6   9
ENDBRANCH   2   3
TORSDOF 4
ENDMDL
MODEL      236
REMARK 921   NORMALIZED FREE ENERGY PREDICTED BY IDOCK:   -2.58 KCAL/MOL
REMARK 922        TOTAL FREE ENERGY PREDICTED BY IDOCK:   -3.53 KCAL/MOL
REMARK 923 INTER-LIGAND FREE ENERGY PREDICTED BY IDOCK:   -3.22 KCAL/MOL
REMARK 924 INTRA-LIGAND FREE ENERGY PREDICTED BY IDOCK:   -0.31 KCAL/MOL
REMARK 927      BINDING AFFINITY PREDICTED BY RF-SCORE:    0.00 PKD
ROOT
HETATM    1  C   UNL     1     -12.892   9.202  71.660  1.00  0.00    -0.363 C  
HETATM    2  O   UNL     1     -12.680   7.827  71.360  1.00  0.00    -0.326 OA 
ENDROOT
BRANCH   2   3
HETATM    3  C   UNL     1     -11.428   7.494  70.949  1.00  0.00    -0.281 A  
HETATM    4  C   UNL     1     -10.365   8.114  71.571  1.00  0.00    -0.209 A  
HETATM    5  N   UNL     1      -9.070   7.856  71.297  1.00  0.00    -0.136 NA 
HETATM    6  C   UNL     1      -8.855   6.937  70.356  1.00  0.00    -0.152 A  
HETATM    7  C   UNL     1     -11.069   6.558  70.000  1.00  0.00    -0.363 A  
HETATM    8  N   UNL     1      -9.786   6.273  69.664  1.00  0.00    -0.160 NA 
BRANCH   6   9
HETATM    9  N   UNL     1      -7.531   6.696  70.022  1.00  0.00    -0.092 N  
HETATM   10  H   UNL     1      -6.910   6.167  70.633  1.00  0.00     0.000 HD 
BRANCH   9  11
HETATM   11  S   UNL     1      -7.014   7.318  68.565  1.00  0.00    -0.081 S  
HETATM   12  O   UNL     1      -7.570   6.554  67.469  1.00  0.00    -0.100 OA 
HETATM   13  O   UNL     1      -5.579   7.490  68.685  1.00  0.00    -0.022 OA 
BRANCH  11  14
HETATM   14  C   UNL     1      -7.717   8.956  68.476  1.00  0.00    -0.098 A  
HETATM   15  C   UNL     1      -7.061  10.027  69.087  1.00  0.00    -0.069 A  
HETATM   16  C   UNL     1      -7.600  11.314  68.987  1.00  0.00    -0.106 A  
HETATM   17  C   UNL     1      -8.807  11.534  68.315  1.00  0.00    -0.166 A  
HETATM   18  N   UNL     1      -9.291  12.837  68.144  1.00  0.00    -0.211 NA 
HETATM   19  C   UNL     1      -9.390  10.471  67.619  1.00  0.00    -0.160 A  
HETATM   20  H1  UNL     1     -10.170  12.998  67.654  1.00  0.00     0.000 HD 
HETATM   21  C   UNL     1      -8.857   9.181  67.702  1.00  0.00    -0.123 A  
HETATM   22  H2  UNL     1      -8.565  13.392  67.693  1.00  0.00     0.000 HD 
ENDBRANCH  11  14
ENDBRANCH   9  11
ENDBRANCH   6   9
ENDBRANCH   2   3
TORSDOF 4
ENDMDL
MODEL      237
REMARK 921   NORMALIZED FREE ENERGY PREDICTED BY IDOCK:   -2.56 KCAL/MOL
REMARK 922        TOTAL FREE ENERGY PREDICTED BY IDOCK:   -3.51 KCAL/MOL
REMARK 923 INTER-LIGAND FREE ENERGY PREDICTED BY IDOCK:   -3.27 KCAL/MOL
REMARK 924 INTRA-LIGAND FREE ENERGY PREDICTED BY IDOCK:   -0.24 KCAL/MOL
REMARK 927      BINDING AFFINITY PREDICTED BY RF-SCORE:    0.00 PKD
ROOT
HETATM    1  C   UNL     1     -13.031   9.381  72.045  1.00  0.00    -0.423 C  
HETATM    2  O   UNL     1     -11.659   9.651  71.779  1.00  0.00    -0.378 OA 
ENDROOT
BRANCH   2   3
HETATM    3  C   UNL     1     -11.310   9.727  70.468  1.00  0.00    -0.314 A  
HETATM    4  C   UNL     1     -11.365  10.967  69.864  1.00  0.00    -0.305 A  
HETATM    5  N   UNL     1     -11.012  11.203  68.584  1.00  0.00    -0.202 NA 
HETATM    6  C   UNL     1     -10.591  10.140  67.899  1.00  0.00    -0.249 A  
HETATM    7  C   UNL     1     -10.850   8.713  69.652  1.00  0.00    -0.157 A  
HETATM    8  N   UNL     1     -10.503   8.884  68.353  1.00  0.00    -0.207 NA 
BRANCH   6   9
HETATM    9  N   UNL     1     -10.274  10.351  66.567  1.00  0.00    -0.226 N  
HETATM   10  H   UNL     1     -10.942  10.165  65.819  1.00  0.00     0.000 HD 
BRANCH   9  11
HETATM   11  S   UNL     1      -8.741  10.925  66.255  1.00  0.00    -0.175 S  
HETATM   12  O   UNL     1      -8.439  12.041  67.127  1.00  0.00    -0.166 OA 
HETATM   13  O   UNL     1      -8.649  11.073  64.815  1.00  0.00    -0.069 OA 
BRANCH  11  14
HETATM   14  C   UNL     1      -7.640   9.594  66.702  1.00  0.00    -0.098 A  
HETATM   15  C   UNL     1      -7.050   9.577  67.968  1.00  0.00    -0.080 A  
HETATM   16  C   UNL     1      -6.211   8.516  68.325  1.00  0.00    -0.051 A  
HETATM   17  C   UNL     1      -5.928   7.491  67.416  1.00  0.00    -0.046 A  
HETATM   18  N   UNL     1      -5.161   6.390  67.813  1.00  0.00    -0.004 NA 
HETATM   19  C   UNL     1      -6.612   7.468  66.197  1.00  0.00    -0.046 A  
HETATM   20  H1  UNL     1      -4.954   5.642  67.151  1.00  0.00     0.000 HD 
HETATM   21  C   UNL     1      -7.460   8.518  65.830  1.00  0.00    -0.077 A  
HETATM   22  H2  UNL     1      -5.596   5.977  68.639  1.00  0.00     0.000 HD 
ENDBRANCH  11  14
ENDBRANCH   9  11
ENDBRANCH   6   9
ENDBRANCH   2   3
TORSDOF 4
ENDMDL
MODEL      238
REMARK 921   NORMALIZED FREE ENERGY PREDICTED BY IDOCK:   -2.55 KCAL/MOL
REMARK 922        TOTAL FREE ENERGY PREDICTED BY IDOCK:   -3.50 KCAL/MOL
REMARK 923 INTER-LIGAND FREE ENERGY PREDICTED BY IDOCK:   -3.20 KCAL/MOL
REMARK 924 INTRA-LIGAND FREE ENERGY PREDICTED BY IDOCK:   -0.30 KCAL/MOL
REMARK 927      BINDING AFFINITY PREDICTED BY RF-SCORE:    0.00 PKD
ROOT
HETATM    1  C   UNL     1     -13.618   9.844  72.084  1.00  0.00    -0.298 C  
HETATM    2  O   UNL     1     -12.860   8.975  72.918  1.00  0.00    -0.305 OA 
ENDROOT
BRANCH   2   3
HETATM    3  C   UNL     1     -11.790   8.373  72.334  1.00  0.00    -0.384 A  
HETATM    4  C   UNL     1     -11.722   8.388  70.956  1.00  0.00    -0.267 A  
HETATM    5  N   UNL     1     -10.704   7.867  70.241  1.00  0.00    -0.233 NA 
HETATM    6  C   UNL     1      -9.727   7.312  70.956  1.00  0.00    -0.169 A  
HETATM    7  C   UNL     1     -10.711   7.775  72.953  1.00  0.00    -0.385 A  
HETATM    8  N   UNL     1      -9.671   7.213  72.289  1.00  0.00    -0.153 NA 
BRANCH   6   9
HETATM    9  N   UNL     1      -8.697   6.723  70.239  1.00  0.00    -0.143 N  
HETATM   10  H   UNL     1      -7.870   7.248  69.955  1.00  0.00     0.000 HD 
BRANCH   9  11
HETATM   11  S   UNL     1      -8.885   5.110  69.867  1.00  0.00    -0.105 S  
HETATM   12  O   UNL     1      -8.084   4.767  68.710  1.00  0.00    -0.082 OA 
HETATM   13  O   UNL     1     -10.313   4.857  69.870  1.00  0.00    -0.265 OA 
BRANCH  11  14
HETATM   14  C   UNL     1      -8.207   4.223  71.259  1.00  0.00    -0.082 A  
HETATM   15  C   UNL     1      -8.886   3.118  71.776  1.00  0.00    -0.130 A  
HETATM   16  C   UNL     1      -8.335   2.407  72.847  1.00  0.00    -0.062 A  
HETATM   17  C   UNL     1      -7.130   2.813  73.430  1.00  0.00    -0.039 A  
HETATM   18  N   UNL     1      -6.543   2.043  74.441  1.00  0.00    -0.020 NA 
HETATM   19  C   UNL     1      -6.412   3.852  72.831  1.00  0.00    -0.032 A  
HETATM   20  H1  UNL     1      -5.664   2.338  74.866  1.00  0.00     0.000 HD 
HETATM   21  C   UNL     1      -6.946   4.566  71.754  1.00  0.00    -0.043 A  
HETATM   22  H2  UNL     1      -6.428   1.091  74.094  1.00  0.00     0.000 HD 
ENDBRANCH  11  14
ENDBRANCH   9  11
ENDBRANCH   6   9
ENDBRANCH   2   3
TORSDOF 4
ENDMDL
MODEL      239
REMARK 921   NORMALIZED FREE ENERGY PREDICTED BY IDOCK:   -2.43 KCAL/MOL
REMARK 922        TOTAL FREE ENERGY PREDICTED BY IDOCK:   -3.34 KCAL/MOL
REMARK 923 INTER-LIGAND FREE ENERGY PREDICTED BY IDOCK:   -3.40 KCAL/MOL
REMARK 924 INTRA-LIGAND FREE ENERGY PREDICTED BY IDOCK:    0.06 KCAL/MOL
REMARK 927      BINDING AFFINITY PREDICTED BY RF-SCORE:    0.00 PKD
ROOT
HETATM    1  C   UNL     1     -13.094   9.236  71.877  1.00  0.00    -0.415 C  
HETATM    2  O   UNL     1     -11.869   8.590  72.205  1.00  0.00    -0.333 OA 
ENDROOT
BRANCH   2   3
HETATM    3  C   UNL     1     -10.948   8.517  71.208  1.00  0.00    -0.256 A  
HETATM    4  C   UNL     1      -9.669   8.124  71.546  1.00  0.00    -0.176 A  
HETATM    5  N   UNL     1      -8.664   7.969  70.661  1.00  0.00    -0.129 NA 
HETATM    6  C   UNL     1      -8.974   8.226  69.390  1.00  0.00    -0.147 A  
HETATM    7  C   UNL     1     -11.139   8.744  69.859  1.00  0.00    -0.123 A  
HETATM    8  N   UNL     1     -10.162   8.629  68.926  1.00  0.00    -0.204 NA 
BRANCH   6   9
HETATM    9  N   UNL     1      -7.941   8.125  68.471  1.00  0.00    -0.124 N  
HETATM   10  H   UNL     1      -7.622   8.928  67.929  1.00  0.00     0.000 HD 
BRANCH   9  11
HETATM   11  S   UNL     1      -7.250   6.618  68.302  1.00  0.00    -0.087 S  
HETATM   12  O   UNL     1      -7.437   5.843  69.511  1.00  0.00    -0.073 OA 
HETATM   13  O   UNL     1      -5.918   6.841  67.773  1.00  0.00    -0.025 OA 
BRANCH  11  14
HETATM   14  C   UNL     1      -8.183   5.814  67.011  1.00  0.00    -0.101 A  
HETATM   15  C   UNL     1      -9.428   5.251  67.303  1.00  0.00    -0.134 A  
HETATM   16  C   UNL     1     -10.169   4.648  66.281  1.00  0.00    -0.306 A  
HETATM   17  C   UNL     1      -9.662   4.571  64.979  1.00  0.00    -0.124 A  
HETATM   18  N   UNL     1     -10.450   4.047  63.947  1.00  0.00    -0.407 NA 
HETATM   19  C   UNL     1      -8.468   5.234  64.684  1.00  0.00    -0.142 A  
HETATM   20  H1  UNL     1     -10.081   3.991  62.998  1.00  0.00     0.000 HD 
HETATM   21  C   UNL     1      -7.720   5.848  65.694  1.00  0.00    -0.097 A  
HETATM   22  H2  UNL     1     -11.329   4.564  63.920  1.00  0.00     0.000 HD 
ENDBRANCH  11  14
ENDBRANCH   9  11
ENDBRANCH   6   9
ENDBRANCH   2   3
TORSDOF 4
ENDMDL
MODEL      240
REMARK 921   NORMALIZED FREE ENERGY PREDICTED BY IDOCK:   -2.41 KCAL/MOL
REMARK 922        TOTAL FREE ENERGY PREDICTED BY IDOCK:   -3.32 KCAL/MOL
REMARK 923 INTER-LIGAND FREE ENERGY PREDICTED BY IDOCK:   -2.97 KCAL/MOL
REMARK 924 INTRA-LIGAND FREE ENERGY PREDICTED BY IDOCK:   -0.35 KCAL/MOL
REMARK 927      BINDING AFFINITY PREDICTED BY RF-SCORE:    0.00 PKD
ROOT
HETATM    1  C   UNL     1     -11.987   9.319  71.727  1.00  0.00    -0.385 C  
HETATM    2  O   UNL     1     -11.616   7.977  72.023  1.00  0.00    -0.279 OA 
ENDROOT
BRANCH   2   3
HETATM    3  C   UNL     1     -10.637   7.444  71.247  1.00  0.00    -0.216 A  
HETATM    4  C   UNL     1     -10.004   8.283  70.352  1.00  0.00    -0.188 A  
HETATM    5  N   UNL     1      -8.991   7.906  69.546  1.00  0.00    -0.142 NA 
HETATM    6  C   UNL     1      -8.613   6.633  69.656  1.00  0.00    -0.133 A  
HETATM    7  C   UNL     1     -10.145   6.155  71.268  1.00  0.00    -0.188 A  
HETATM    8  N   UNL     1      -9.145   5.711  70.466  1.00  0.00    -0.143 NA 
BRANCH   6   9
HETATM    9  N   UNL     1      -7.608   6.212  68.799  1.00  0.00    -0.090 N  
HETATM   10  H   UNL     1      -6.644   6.102  69.112  1.00  0.00     0.000 HD 
BRANCH   9  11
HETATM   11  S   UNL     1      -8.064   5.895  67.228  1.00  0.00    -0.102 S  
HETATM   12  O   UNL     1      -9.506   5.785  67.138  1.00  0.00    -0.113 OA 
HETATM   13  O   UNL     1      -7.217   4.810  66.771  1.00  0.00    -0.077 OA 
BRANCH  11  14
HETATM   14  C   UNL     1      -7.588   7.341  66.298  1.00  0.00    -0.092 A  
HETATM   15  C   UNL     1      -6.407   7.328  65.551  1.00  0.00    -0.038 A  
HETATM   16  C   UNL     1      -6.054   8.453  64.799  1.00  0.00    -0.063 A  
HETATM   17  C   UNL     1      -6.850   9.603  64.815  1.00  0.00    -0.111 A  
HETATM   18  N   UNL     1      -6.535  10.689  63.989  1.00  0.00    -0.362 NA 
HETATM   19  C   UNL     1      -8.080   9.558  65.478  1.00  0.00    -0.116 A  
HETATM   20  H1  UNL     1      -7.115  11.528  64.000  1.00  0.00     0.000 HD 
HETATM   21  C   UNL     1      -8.450   8.437  66.227  1.00  0.00    -0.132 A  
HETATM   22  H2  UNL     1      -6.472  10.354  63.028  1.00  0.00     0.000 HD 
ENDBRANCH  11  14
ENDBRANCH   9  11
ENDBRANCH   6   9
ENDBRANCH   2   3
TORSDOF 4
ENDMDL
MODEL      241
REMARK 921   NORMALIZED FREE ENERGY PREDICTED BY IDOCK:   -2.39 KCAL/MOL
REMARK 922        TOTAL FREE ENERGY PREDICTED BY IDOCK:   -3.30 KCAL/MOL
REMARK 923 INTER-LIGAND FREE ENERGY PREDICTED BY IDOCK:   -3.12 KCAL/MOL
REMARK 924 INTRA-LIGAND FREE ENERGY PREDICTED BY IDOCK:   -0.18 KCAL/MOL
REMARK 927      BINDING AFFINITY PREDICTED BY RF-SCORE:    0.00 PKD
ROOT
HETATM    1  C   UNL     1      -8.076   7.368  66.843  1.00  0.00    -0.120 C  
HETATM    2  O   UNL     1      -7.051   8.312  67.132  1.00  0.00    -0.076 OA 
ENDROOT
BRANCH   2   3
HETATM    3  C   UNL     1      -7.464   9.584  67.373  1.00  0.00    -0.091 A  
HETATM    4  C   UNL     1      -7.851   9.897  68.660  1.00  0.00    -0.086 A  
HETATM    5  N   UNL     1      -8.246  11.124  69.055  1.00  0.00    -0.108 NA 
HETATM    6  C   UNL     1      -8.246  12.060  68.108  1.00  0.00    -0.163 A  
HETATM    7  C   UNL     1      -7.503  10.645  66.490  1.00  0.00    -0.134 A  
HETATM    8  N   UNL     1      -7.912  11.894  66.823  1.00  0.00    -0.129 NA 
BRANCH   6   9
HETATM    9  N   UNL     1      -8.700  13.316  68.481  1.00  0.00    -0.335 N  
HETATM   10  H   UNL     1      -8.105  13.975  68.983  1.00  0.00     0.000 HD 
BRANCH   9  11
HETATM   11  S   UNL     1     -10.269  13.688  68.064  1.00  0.00    -0.255 S  
HETATM   12  O   UNL     1     -10.512  13.349  66.677  1.00  0.00    -0.274 OA 
HETATM   13  O   UNL     1     -10.507  15.036  68.542  1.00  0.00    -0.223 OA 
BRANCH  11  14
HETATM   14  C   UNL     1     -11.289  12.609  69.055  1.00  0.00    -0.292 A  
HETATM   15  C   UNL     1     -11.710  11.383  68.536  1.00  0.00    -0.386 A  
HETATM   16  C   UNL     1     -12.483  10.527  69.327  1.00  0.00     0.275 A  
HETATM   17  C   UNL     1     -12.869  10.901  70.618  1.00  0.00    -0.255 A  
HETATM   18  N   UNL     1     -13.566  10.001  71.434  1.00  0.00    -0.254 NA 
HETATM   19  C   UNL     1     -12.348  12.080  71.159  1.00  0.00    -0.282 A  
HETATM   20  H1  UNL     1     -13.847  10.273  72.375  1.00  0.00     0.000 HD 
HETATM   21  C   UNL     1     -11.567  12.941  70.382  1.00  0.00     0.067 A  
HETATM   22  H2  UNL     1     -13.023   9.139  71.497  1.00  0.00     0.000 HD 
ENDBRANCH  11  14
ENDBRANCH   9  11
ENDBRANCH   6   9
ENDBRANCH   2   3
TORSDOF 4
ENDMDL
MODEL      242
REMARK 921   NORMALIZED FREE ENERGY PREDICTED BY IDOCK:   -2.37 KCAL/MOL
REMARK 922        TOTAL FREE ENERGY PREDICTED BY IDOCK:   -3.27 KCAL/MOL
REMARK 923 INTER-LIGAND FREE ENERGY PREDICTED BY IDOCK:   -2.98 KCAL/MOL
REMARK 924 INTRA-LIGAND FREE ENERGY PREDICTED BY IDOCK:   -0.29 KCAL/MOL
REMARK 927      BINDING AFFINITY PREDICTED BY RF-SCORE:    0.00 PKD
ROOT
HETATM    1  C   UNL     1      -5.579  10.224  70.671  1.00  0.00    -0.083 C  
HETATM    2  O   UNL     1      -6.983  10.438  70.587  1.00  0.00    -0.324 OA 
ENDROOT
BRANCH   2   3
HETATM    3  C   UNL     1      -7.732   9.354  70.254  1.00  0.00    -0.144 A  
HETATM    4  C   UNL     1      -8.327   8.649  71.280  1.00  0.00    -0.168 A  
HETATM    5  N   UNL     1      -9.127   7.579  71.100  1.00  0.00    -0.146 NA 
HETATM    6  C   UNL     1      -9.325   7.216  69.834  1.00  0.00    -0.150 A  
HETATM    7  C   UNL     1      -8.023   8.879  68.991  1.00  0.00    -0.106 A  
HETATM    8  N   UNL     1      -8.800   7.795  68.748  1.00  0.00    -0.135 NA 
BRANCH   6   9
HETATM    9  N   UNL     1     -10.101   6.086  69.630  1.00  0.00    -0.177 N  
HETATM   10  H   UNL     1     -11.120   6.128  69.615  1.00  0.00     0.000 HD 
BRANCH   9  11
HETATM   11  S   UNL     1      -9.277   4.654  69.410  1.00  0.00    -0.133 S  
HETATM   12  O   UNL     1      -9.910   3.592  70.164  1.00  0.00    -0.170 OA 
HETATM   13  O   UNL     1      -7.874   4.960  69.610  1.00  0.00    -0.066 OA 
BRANCH  11  14
HETATM   14  C   UNL     1      -9.471   4.259  67.681  1.00  0.00    -0.175 A  
HETATM   15  C   UNL     1      -8.688   3.256  67.106  1.00  0.00    -0.134 A  
HETATM   16  C   UNL     1      -8.866   2.929  65.758  1.00  0.00    -0.140 A  
HETATM   17  C   UNL     1      -9.792   3.620  64.970  1.00  0.00    -0.146 A  
HETATM   18  N   UNL     1     -10.026   3.224  63.647  1.00  0.00    -0.146 NA 
HETATM   19  C   UNL     1     -10.641   4.543  65.588  1.00  0.00    -0.231 A  
HETATM   20  H1  UNL     1     -10.701   3.728  63.073  1.00  0.00     0.000 HD 
HETATM   21  C   UNL     1     -10.481   4.873  66.937  1.00  0.00    -0.202 A  
HETATM   22  H2  UNL     1     -10.277   2.236  63.647  1.00  0.00     0.000 HD 
ENDBRANCH  11  14
ENDBRANCH   9  11
ENDBRANCH   6   9
ENDBRANCH   2   3
TORSDOF 4
ENDMDL
MODEL      243
REMARK 921   NORMALIZED FREE ENERGY PREDICTED BY IDOCK:   -2.33 KCAL/MOL
REMARK 922        TOTAL FREE ENERGY PREDICTED BY IDOCK:   -3.23 KCAL/MOL
REMARK 923 INTER-LIGAND FREE ENERGY PREDICTED BY IDOCK:   -3.14 KCAL/MOL
REMARK 924 INTRA-LIGAND FREE ENERGY PREDICTED BY IDOCK:   -0.09 KCAL/MOL
REMARK 927      BINDING AFFINITY PREDICTED BY RF-SCORE:    0.00 PKD
ROOT
HETATM    1  C   UNL     1      -6.449  14.443  69.296  1.00  0.00    -0.117 C  
HETATM    2  O   UNL     1      -6.781  13.181  69.866  1.00  0.00     0.042 OA 
ENDROOT
BRANCH   2   3
HETATM    3  C   UNL     1      -7.089  12.193  68.986  1.00  0.00    -0.062 A  
HETATM    4  C   UNL     1      -6.877  10.890  69.387  1.00  0.00    -0.114 A  
HETATM    5  N   UNL     1      -7.172   9.808  68.639  1.00  0.00    -0.072 NA 
HETATM    6  C   UNL     1      -7.698  10.065  67.442  1.00  0.00    -0.095 A  
HETATM    7  C   UNL     1      -7.646  12.320  67.729  1.00  0.00    -0.131 A  
HETATM    8  N   UNL     1      -7.941  11.272  66.921  1.00  0.00    -0.149 NA 
BRANCH   6   9
HETATM    9  N   UNL     1      -7.959   8.968  66.635  1.00  0.00    -0.100 N  
HETATM   10  H   UNL     1      -7.222   8.501  66.107  1.00  0.00     0.000 HD 
BRANCH   9  11
HETATM   11  S   UNL     1      -9.543   8.455  66.576  1.00  0.00    -0.243 S  
HETATM   12  O   UNL     1      -9.600   7.043  66.260  1.00  0.00    -0.137 OA 
HETATM   13  O   UNL     1     -10.251   9.419  65.756  1.00  0.00    -0.231 OA 
BRANCH  11  14
HETATM   14  C   UNL     1     -10.163   8.648  68.238  1.00  0.00    -0.198 A  
HETATM   15  C   UNL     1     -10.002   7.613  69.163  1.00  0.00    -0.181 A  
HETATM   16  C   UNL     1     -10.461   7.781  70.473  1.00  0.00    -0.217 A  
HETATM   17  C   UNL     1     -11.113   8.957  70.858  1.00  0.00    -0.271 A  
HETATM   18  N   UNL     1     -11.488   9.150  72.193  1.00  0.00    -0.276 NA 
HETATM   19  C   UNL     1     -11.167  10.021  69.952  1.00  0.00    -0.327 A  
HETATM   20  H1  UNL     1     -11.963  10.008  72.474  1.00  0.00     0.000 HD 
HETATM   21  C   UNL     1     -10.703   9.871  68.642  1.00  0.00    -0.256 A  
HETATM   22  H2  UNL     1     -10.661   9.034  72.779  1.00  0.00     0.000 HD 
ENDBRANCH  11  14
ENDBRANCH   9  11
ENDBRANCH   6   9
ENDBRANCH   2   3
TORSDOF 4
ENDMDL
MODEL      244
REMARK 921   NORMALIZED FREE ENERGY PREDICTED BY IDOCK:   -2.33 KCAL/MOL
REMARK 922        TOTAL FREE ENERGY PREDICTED BY IDOCK:   -3.23 KCAL/MOL
REMARK 923 INTER-LIGAND FREE ENERGY PREDICTED BY IDOCK:   -3.26 KCAL/MOL
REMARK 924 INTRA-LIGAND FREE ENERGY PREDICTED BY IDOCK:    0.03 KCAL/MOL
REMARK 927      BINDING AFFINITY PREDICTED BY RF-SCORE:    0.00 PKD
ROOT
HETATM    1  C   UNL     1      -5.138   3.267  71.115  1.00  0.00     0.000 C  
HETATM    2  O   UNL     1      -5.834   4.319  71.775  1.00  0.00    -0.011 OA 
ENDROOT
BRANCH   2   3
HETATM    3  C   UNL     1      -6.278   5.329  70.981  1.00  0.00    -0.023 A  
HETATM    4  C   UNL     1      -5.836   6.605  71.264  1.00  0.00    -0.032 A  
HETATM    5  N   UNL     1      -6.160   7.697  70.543  1.00  0.00    -0.030 NA 
HETATM    6  C   UNL     1      -6.961   7.480  69.501  1.00  0.00    -0.060 A  
HETATM    7  C   UNL     1      -7.096   5.240  69.873  1.00  0.00    -0.062 A  
HETATM    8  N   UNL     1      -7.475   6.304  69.123  1.00  0.00    -0.092 NA 
BRANCH   6   9
HETATM    9  N   UNL     1      -7.349   8.597  68.778  1.00  0.00    -0.082 N  
HETATM   10  H   UNL     1      -7.142   8.693  67.784  1.00  0.00     0.000 HD 
BRANCH   9  11
HETATM   11  S   UNL     1      -8.173   9.774  69.623  1.00  0.00    -0.172 S  
HETATM   12  O   UNL     1      -8.767  10.724  68.706  1.00  0.00    -0.150 OA 
HETATM   13  O   UNL     1      -7.275  10.226  70.667  1.00  0.00    -0.306 OA 
BRANCH  11  14
HETATM   14  C   UNL     1      -9.512   8.920  70.436  1.00  0.00    -0.195 A  
HETATM   15  C   UNL     1     -10.377   8.116  69.690  1.00  0.00    -0.221 A  
HETATM   16  C   UNL     1     -11.406   7.424  70.337  1.00  0.00    -0.273 A  
HETATM   17  C   UNL     1     -11.602   7.556  71.715  1.00  0.00    -0.270 A  
HETATM   18  N   UNL     1     -12.577   6.791  72.365  1.00  0.00    -0.515 NA 
HETATM   19  C   UNL     1     -10.662   8.276  72.460  1.00  0.00    -0.411 A  
HETATM   20  H1  UNL     1     -12.719   6.887  73.371  1.00  0.00     0.000 HD 
HETATM   21  C   UNL     1      -9.623   8.966  71.827  1.00  0.00    -0.353 A  
HETATM   22  H2  UNL     1     -12.404   5.807  72.158  1.00  0.00     0.000 HD 
ENDBRANCH  11  14
ENDBRANCH   9  11
ENDBRANCH   6   9
ENDBRANCH   2   3
TORSDOF 4
ENDMDL
MODEL      245
REMARK 921   NORMALIZED FREE ENERGY PREDICTED BY IDOCK:   -2.33 KCAL/MOL
REMARK 922        TOTAL FREE ENERGY PREDICTED BY IDOCK:   -3.22 KCAL/MOL
REMARK 923 INTER-LIGAND FREE ENERGY PREDICTED BY IDOCK:   -2.95 KCAL/MOL
REMARK 924 INTRA-LIGAND FREE ENERGY PREDICTED BY IDOCK:   -0.28 KCAL/MOL
REMARK 927      BINDING AFFINITY PREDICTED BY RF-SCORE:    0.00 PKD
ROOT
HETATM    1  C   UNL     1      -8.177   9.055  70.858  1.00  0.00    -0.185 C  
HETATM    2  O   UNL     1      -8.916   9.453  69.708  1.00  0.00    -0.158 OA 
ENDROOT
BRANCH   2   3
HETATM    3  C   UNL     1      -9.000   8.537  68.708  1.00  0.00    -0.139 A  
HETATM    4  C   UNL     1      -9.723   8.883  67.585  1.00  0.00    -0.161 A  
HETATM    5  N   UNL     1      -9.862   8.094  66.500  1.00  0.00    -0.249 NA 
HETATM    6  C   UNL     1      -9.244   6.916  66.564  1.00  0.00    -0.163 A  
HETATM    7  C   UNL     1      -8.404   7.294  68.644  1.00  0.00    -0.125 A  
HETATM    8  N   UNL     1      -8.526   6.448  67.592  1.00  0.00    -0.117 NA 
BRANCH   6   9
HETATM    9  N   UNL     1      -9.417   6.068  65.481  1.00  0.00    -0.359 N  
HETATM   10  H   UNL     1     -10.320   5.643  65.270  1.00  0.00     0.000 HD 
BRANCH   9  11
HETATM   11  S   UNL     1      -8.070   5.784  64.544  1.00  0.00    -0.122 S  
HETATM   12  O   UNL     1      -8.464   5.395  63.206  1.00  0.00    -0.122 OA 
HETATM   13  O   UNL     1      -7.202   4.928  65.330  1.00  0.00    -0.065 OA 
BRANCH  11  14
HETATM   14  C   UNL     1      -7.246   7.361  64.411  1.00  0.00    -0.078 A  
HETATM   15  C   UNL     1      -6.043   7.575  65.086  1.00  0.00    -0.038 A  
HETATM   16  C   UNL     1      -5.385   8.802  64.954  1.00  0.00    -0.039 A  
HETATM   17  C   UNL     1      -5.938   9.831  64.184  1.00  0.00    -0.111 A  
HETATM   18  N   UNL     1      -5.229  11.021  63.986  1.00  0.00    -0.471 NA 
HETATM   19  C   UNL     1      -7.084   9.562  63.429  1.00  0.00    -0.101 A  
HETATM   20  H1  UNL     1      -5.631  11.771  63.423  1.00  0.00     0.000 HD 
HETATM   21  C   UNL     1      -7.747   8.336  63.545  1.00  0.00    -0.142 A  
HETATM   22  H2  UNL     1      -4.312  10.789  63.603  1.00  0.00     0.000 HD 
ENDBRANCH  11  14
ENDBRANCH   9  11
ENDBRANCH   6   9
ENDBRANCH   2   3
TORSDOF 4
ENDMDL
MODEL      246
REMARK 921   NORMALIZED FREE ENERGY PREDICTED BY IDOCK:   -2.29 KCAL/MOL
REMARK 922        TOTAL FREE ENERGY PREDICTED BY IDOCK:   -3.17 KCAL/MOL
REMARK 923 INTER-LIGAND FREE ENERGY PREDICTED BY IDOCK:   -3.25 KCAL/MOL
REMARK 924 INTRA-LIGAND FREE ENERGY PREDICTED BY IDOCK:    0.08 KCAL/MOL
REMARK 927      BINDING AFFINITY PREDICTED BY RF-SCORE:    0.00 PKD
ROOT
HETATM    1  C   UNL     1      -9.787   7.541  72.907  1.00  0.00    -0.219 C  
HETATM    2  O   UNL     1     -10.274   8.656  72.168  1.00  0.00    -0.306 OA 
ENDROOT
BRANCH   2   3
HETATM    3  C   UNL     1      -9.614   8.939  71.014  1.00  0.00    -0.255 A  
HETATM    4  C   UNL     1     -10.361   9.034  69.858  1.00  0.00    -0.207 A  
HETATM    5  N   UNL     1      -9.851   9.347  68.649  1.00  0.00    -0.159 NA 
HETATM    6  C   UNL     1      -8.537   9.567  68.620  1.00  0.00    -0.119 A  
HETATM    7  C   UNL     1      -8.268   9.199  70.848  1.00  0.00    -0.177 A  
HETATM    8  N   UNL     1      -7.694   9.494  69.656  1.00  0.00    -0.098 NA 
BRANCH   6   9
HETATM    9  N   UNL     1      -7.985   9.838  67.378  1.00  0.00    -0.102 N  
HETATM   10  H   UNL     1      -8.046   9.175  66.606  1.00  0.00     0.000 HD 
BRANCH   9  11
HETATM   11  S   UNL     1      -7.215  11.307  67.217  1.00  0.00    -0.122 S  
HETATM   12  O   UNL     1      -6.552  11.385  65.932  1.00  0.00     0.092 OA 
HETATM   13  O   UNL     1      -6.466  11.508  68.442  1.00  0.00    -0.050 OA 
BRANCH  11  14
HETATM   14  C   UNL     1      -8.519  12.524  67.211  1.00  0.00    -0.185 A  
HETATM   15  C   UNL     1      -9.494  12.492  66.211  1.00  0.00    -0.210 A  
HETATM   16  C   UNL     1     -10.532  13.430  66.228  1.00  0.00    -0.289 A  
HETATM   17  C   UNL     1     -10.585  14.421  67.214  1.00  0.00    -0.279 A  
HETATM   18  N   UNL     1     -11.675  15.297  67.274  1.00  0.00    -0.174 NA 
HETATM   19  C   UNL     1      -9.665  14.370  68.266  1.00  0.00    -0.222 A  
HETATM   20  H1  UNL     1     -11.714  16.019  67.993  1.00  0.00     0.000 HD 
HETATM   21  C   UNL     1      -8.628  13.433  68.266  1.00  0.00    -0.169 A  
HETATM   22  H2  UNL     1     -12.529  14.742  67.329  1.00  0.00     0.000 HD 
ENDBRANCH  11  14
ENDBRANCH   9  11
ENDBRANCH   6   9
ENDBRANCH   2   3
TORSDOF 4
ENDMDL
MODEL      247
REMARK 921   NORMALIZED FREE ENERGY PREDICTED BY IDOCK:   -2.23 KCAL/MOL
REMARK 922        TOTAL FREE ENERGY PREDICTED BY IDOCK:   -3.10 KCAL/MOL
REMARK 923 INTER-LIGAND FREE ENERGY PREDICTED BY IDOCK:   -3.51 KCAL/MOL
REMARK 924 INTRA-LIGAND FREE ENERGY PREDICTED BY IDOCK:    0.41 KCAL/MOL
REMARK 927      BINDING AFFINITY PREDICTED BY RF-SCORE:    0.00 PKD
ROOT
HETATM    1  C   UNL     1      -5.762   9.315  72.017  1.00  0.00    -0.055 C  
HETATM    2  O   UNL     1      -5.415   9.716  70.696  1.00  0.00    -0.039 OA 
ENDROOT
BRANCH   2   3
HETATM    3  C   UNL     1      -5.913  10.913  70.287  1.00  0.00    -0.130 A  
HETATM    4  C   UNL     1      -5.314  12.055  70.777  1.00  0.00    -0.152 A  
HETATM    5  N   UNL     1      -5.673  13.308  70.431  1.00  0.00    -0.159 NA 
HETATM    6  C   UNL     1      -6.677  13.397  69.559  1.00  0.00     0.003 A  
HETATM    7  C   UNL     1      -6.934  11.144  69.387  1.00  0.00    -0.124 A  
HETATM    8  N   UNL     1      -7.356  12.379  69.019  1.00  0.00    -0.028 NA 
BRANCH   6   9
HETATM    9  N   UNL     1      -7.097  14.677  69.231  1.00  0.00    -0.142 N  
HETATM   10  H   UNL     1      -6.621  15.506  69.584  1.00  0.00     0.000 HD 
BRANCH   9  11
HETATM   11  S   UNL     1      -8.422  14.783  68.228  1.00  0.00    -0.158 S  
HETATM   12  O   UNL     1      -9.640  14.573  68.983  1.00  0.00    -0.189 OA 
HETATM   13  O   UNL     1      -8.124  13.958  67.073  1.00  0.00    -0.128 OA 
BRANCH  11  14
HETATM   14  C   UNL     1      -8.445  16.473  67.654  1.00  0.00    -0.173 A  
HETATM   15  C   UNL     1      -7.612  16.860  66.602  1.00  0.00    -0.301 A  
HETATM   16  C   UNL     1      -7.656  18.178  66.135  1.00  0.00    -0.278 A  
HETATM   17  C   UNL     1      -8.497  19.121  66.735  1.00  0.00    -0.303 A  
HETATM   18  N   UNL     1      -8.599  20.412  66.203  1.00  0.00    -0.560 NA 
HETATM   19  C   UNL     1      -9.399  18.690  67.712  1.00  0.00    -0.315 A  
HETATM   20  H1  UNL     1      -9.212  21.101  66.640  1.00  0.00     0.000 HD 
HETATM   21  C   UNL     1      -9.373  17.374  68.181  1.00  0.00    -0.277 A  
HETATM   22  H2  UNL     1      -8.852  20.335  65.219  1.00  0.00     0.000 HD 
ENDBRANCH  11  14
ENDBRANCH   9  11
ENDBRANCH   6   9
ENDBRANCH   2   3
TORSDOF 4
ENDMDL
MODEL      248
REMARK 921   NORMALIZED FREE ENERGY PREDICTED BY IDOCK:   -2.17 KCAL/MOL
REMARK 922        TOTAL FREE ENERGY PREDICTED BY IDOCK:   -3.03 KCAL/MOL
REMARK 923 INTER-LIGAND FREE ENERGY PREDICTED BY IDOCK:   -2.90 KCAL/MOL
REMARK 924 INTRA-LIGAND FREE ENERGY PREDICTED BY IDOCK:   -0.13 KCAL/MOL
REMARK 927      BINDING AFFINITY PREDICTED BY RF-SCORE:    0.00 PKD
ROOT
HETATM    1  C   UNL     1      -9.513   9.074  70.573  1.00  0.00    -0.221 C  
HETATM    2  O   UNL     1     -10.242   8.994  69.353  1.00  0.00    -0.192 OA 
ENDROOT
BRANCH   2   3
HETATM    3  C   UNL     1     -10.257   7.777  68.748  1.00  0.00    -0.201 A  
HETATM    4  C   UNL     1     -10.751   7.710  67.461  1.00  0.00    -0.209 A  
HETATM    5  N   UNL     1     -10.793   6.583  66.722  1.00  0.00    -0.319 NA 
HETATM    6  C   UNL     1     -10.317   5.489  67.317  1.00  0.00    -0.236 A  
HETATM    7  C   UNL     1      -9.789   6.577  69.243  1.00  0.00    -0.148 A  
HETATM    8  N   UNL     1      -9.826   5.407  68.558  1.00  0.00    -0.137 NA 
BRANCH   6   9
HETATM    9  N   UNL     1     -10.400   4.309  66.594  1.00  0.00    -0.283 N  
HETATM   10  H   UNL     1     -11.293   3.853  66.409  1.00  0.00     0.000 HD 
BRANCH   9  11
HETATM   11  S   UNL     1      -8.958   3.678  66.045  1.00  0.00    -0.151 S  
HETATM   12  O   UNL     1      -9.207   2.661  65.045  1.00  0.00    -0.141 OA 
HETATM   13  O   UNL     1      -8.175   3.370  67.225  1.00  0.00    -0.085 OA 
BRANCH  11  14
HETATM   14  C   UNL     1      -8.134   5.031  65.224  1.00  0.00    -0.117 A  
HETATM   15  C   UNL     1      -8.437   5.323  63.892  1.00  0.00    -0.100 A  
HETATM   16  C   UNL     1      -7.810   6.403  63.262  1.00  0.00    -0.107 A  
HETATM   17  C   UNL     1      -6.858   7.172  63.940  1.00  0.00    -0.048 A  
HETATM   18  N   UNL     1      -6.305   8.305  63.331  1.00  0.00    -0.080 NA 
HETATM   19  C   UNL     1      -6.649   6.934  65.302  1.00  0.00    -0.050 A  
HETATM   20  H1  UNL     1      -5.610   8.866  63.824  1.00  0.00     0.000 HD 
HETATM   21  C   UNL     1      -7.275   5.863  65.946  1.00  0.00    -0.075 A  
HETATM   22  H2  UNL     1      -7.066   8.918  63.041  1.00  0.00     0.000 HD 
ENDBRANCH  11  14
ENDBRANCH   9  11
ENDBRANCH   6   9
ENDBRANCH   2   3
TORSDOF 4
ENDMDL
MODEL      249
REMARK 921   NORMALIZED FREE ENERGY PREDICTED BY IDOCK:   -2.09 KCAL/MOL
REMARK 922        TOTAL FREE ENERGY PREDICTED BY IDOCK:   -2.93 KCAL/MOL
REMARK 923 INTER-LIGAND FREE ENERGY PREDICTED BY IDOCK:   -3.47 KCAL/MOL
REMARK 924 INTRA-LIGAND FREE ENERGY PREDICTED BY IDOCK:    0.54 KCAL/MOL
REMARK 927      BINDING AFFINITY PREDICTED BY RF-SCORE:    0.00 PKD
ROOT
HETATM    1  C   UNL     1     -11.078  15.334  65.337  1.00  0.00    -0.347 C  
HETATM    2  O   UNL     1     -11.643  14.321  66.161  1.00  0.00    -0.349 OA 
ENDROOT
BRANCH   2   3
HETATM    3  C   UNL     1     -10.821  13.288  66.484  1.00  0.00    -0.281 A  
HETATM    4  C   UNL     1     -11.388  12.185  67.088  1.00  0.00    -0.331 A  
HETATM    5  N   UNL     1     -10.706  11.073  67.429  1.00  0.00    -0.240 NA 
HETATM    6  C   UNL     1      -9.404  11.088  67.145  1.00  0.00    -0.164 A  
HETATM    7  C   UNL     1      -9.467  13.173  66.238  1.00  0.00    -0.185 A  
HETATM    8  N   UNL     1      -8.724  12.092  66.579  1.00  0.00    -0.175 NA 
BRANCH   6   9
HETATM    9  N   UNL     1      -8.674   9.976  67.536  1.00  0.00    -0.125 N  
HETATM   10  H   UNL     1      -7.742  10.059  67.940  1.00  0.00     0.000 HD 
BRANCH   9  11
HETATM   11  S   UNL     1      -9.406   8.497  67.307  1.00  0.00    -0.155 S  
HETATM   12  O   UNL     1     -10.812   8.675  67.008  1.00  0.00    -0.197 OA 
HETATM   13  O   UNL     1      -8.994   7.664  68.420  1.00  0.00    -0.130 OA 
BRANCH  11  14
HETATM   14  C   UNL     1      -8.641   7.813  65.848  1.00  0.00    -0.153 A  
HETATM   15  C   UNL     1      -8.663   6.433  65.634  1.00  0.00    -0.108 A  
HETATM   16  C   UNL     1      -8.089   5.904  64.474  1.00  0.00    -0.132 A  
HETATM   17  C   UNL     1      -7.460   6.737  63.543  1.00  0.00    -0.080 A  
HETATM   18  N   UNL     1      -6.969   6.209  62.343  1.00  0.00    -0.040 NA 
HETATM   19  C   UNL     1      -7.543   8.122  63.719  1.00  0.00    -0.128 A  
HETATM   20  H1  UNL     1      -6.510   6.817  61.664  1.00  0.00     0.000 HD 
HETATM   21  C   UNL     1      -8.122   8.665  64.870  1.00  0.00    -0.146 A  
HETATM   22  H2  UNL     1      -7.729   5.718  61.873  1.00  0.00     0.000 HD 
ENDBRANCH  11  14
ENDBRANCH   9  11
ENDBRANCH   6   9
ENDBRANCH   2   3
TORSDOF 4
ENDMDL
MODEL      250
REMARK 921   NORMALIZED FREE ENERGY PREDICTED BY IDOCK:   -1.97 KCAL/MOL
REMARK 922        TOTAL FREE ENERGY PREDICTED BY IDOCK:   -2.78 KCAL/MOL
REMARK 923 INTER-LIGAND FREE ENERGY PREDICTED BY IDOCK:   -2.60 KCAL/MOL
REMARK 924 INTRA-LIGAND FREE ENERGY PREDICTED BY IDOCK:   -0.18 KCAL/MOL
REMARK 927      BINDING AFFINITY PREDICTED BY RF-SCORE:    0.00 PKD
ROOT
HETATM    1  C   UNL     1      -7.734   9.545  70.598  1.00  0.00    -0.124 C  
HETATM    2  O   UNL     1      -8.659   8.999  69.663  1.00  0.00    -0.126 OA 
ENDROOT
BRANCH   2   3
HETATM    3  C   UNL     1      -8.842   7.654  69.724  1.00  0.00    -0.140 A  
HETATM    4  C   UNL     1     -10.041   7.151  69.261  1.00  0.00    -0.176 A  
HETATM    5  N   UNL     1     -10.349   5.839  69.222  1.00  0.00    -0.230 NA 
HETATM    6  C   UNL     1      -9.404   5.014  69.671  1.00  0.00    -0.127 A  
HETATM    7  C   UNL     1      -7.948   6.694  70.153  1.00  0.00    -0.112 A  
HETATM    8  N   UNL     1      -8.208   5.363  70.160  1.00  0.00    -0.098 NA 
BRANCH   6   9
HETATM    9  N   UNL     1      -9.720   3.665  69.689  1.00  0.00    -0.149 N  
HETATM   10  H   UNL     1     -10.457   3.293  70.288  1.00  0.00     0.000 HD 
BRANCH   9  11
HETATM   11  S   UNL     1      -8.830   2.685  68.677  1.00  0.00    -0.123 S  
HETATM   12  O   UNL     1      -9.580   1.489  68.353  1.00  0.00    -0.189 OA 
HETATM   13  O   UNL     1      -7.510   2.584  69.269  1.00  0.00    -0.044 OA 
BRANCH  11  14
HETATM   14  C   UNL     1      -8.642   3.614  67.166  1.00  0.00    -0.108 A  
HETATM   15  C   UNL     1      -9.749   3.827  66.340  1.00  0.00    -0.142 A  
HETATM   16  C   UNL     1      -9.603   4.583  65.172  1.00  0.00    -0.167 A  
HETATM   17  C   UNL     1      -8.355   5.096  64.803  1.00  0.00    -0.143 A  
HETATM   18  N   UNL     1      -8.238   5.925  63.681  1.00  0.00    -0.249 NA 
HETATM   19  C   UNL     1      -7.286   4.966  65.695  1.00  0.00    -0.072 A  
HETATM   20  H1  UNL     1      -7.329   6.300  63.412  1.00  0.00     0.000 HD 
HETATM   21  C   UNL     1      -7.420   4.221  66.870  1.00  0.00    -0.081 A  
HETATM   22  H2  UNL     1      -8.888   6.704  63.789  1.00  0.00     0.000 HD 
ENDBRANCH  11  14
ENDBRANCH   9  11
ENDBRANCH   6   9
ENDBRANCH   2   3
TORSDOF 4
ENDMDL
MODEL      251
REMARK 921   NORMALIZED FREE ENERGY PREDICTED BY IDOCK:    3.81 KCAL/MOL
REMARK 922        TOTAL FREE ENERGY PREDICTED BY IDOCK:    4.35 KCAL/MOL
REMARK 923 INTER-LIGAND FREE ENERGY PREDICTED BY IDOCK:    3.38 KCAL/MOL
REMARK 924 INTRA-LIGAND FREE ENERGY PREDICTED BY IDOCK:    0.97 KCAL/MOL
REMARK 927      BINDING AFFINITY PREDICTED BY RF-SCORE:    0.00 PKD
ROOT
HETATM    1  C   UNL     1     -10.183   8.148  73.669  1.00  0.00     0.707 C  
HETATM    2  O   UNL     1     -10.767   9.019  72.707  1.00  0.00     0.312 OA 
ENDROOT
BRANCH   2   3
HETATM    3  C   UNL     1     -10.012   9.288  71.610  1.00  0.00    -0.128 A  
HETATM    4  C   UNL     1     -10.453   8.804  70.395  1.00  0.00    -0.209 A  
HETATM    5  N   UNL     1      -9.831   9.024  69.220  1.00  0.00    -0.175 NA 
HETATM    6  C   UNL     1      -8.722   9.760  69.286  1.00  0.00    -0.164 A  
HETATM    7  C   UNL     1      -8.857  10.041  71.539  1.00  0.00     2.619 A  
HETATM    8  N   UNL     1      -8.174  10.276  70.392  1.00  0.00     0.102 NA 
BRANCH   6   9
HETATM    9  N   UNL     1      -8.038   9.953  68.097  1.00  0.00    -0.104 N  
HETATM   10  H   UNL     1      -7.229   9.386  67.843  1.00  0.00     0.000 HD 
BRANCH   9  11
HETATM   11  S   UNL     1      -8.611  11.162  67.104  1.00  0.00    -0.143 S  
HETATM   12  O   UNL     1     -10.059  11.145  67.081  1.00  0.00    -0.183 OA 
HETATM   13  O   UNL     1      -7.857  11.064  65.869  1.00  0.00    -0.130 OA 
BRANCH  11  14
HETATM   14  C   UNL     1      -8.115  12.688  67.885  1.00  0.00    -0.165 A  
HETATM   15  C   UNL     1      -8.095  12.780  69.278  1.00  0.00     0.697 A  
HETATM   16  C   UNL     1      -7.676  13.968  69.886  1.00  0.00     0.770 A  
HETATM   17  C   UNL     1      -7.313  15.077  69.114  1.00  0.00    -0.164 A  
HETATM   18  N   UNL     1      -6.810  16.229  69.730  1.00  0.00    -0.123 NA 
HETATM   19  C   UNL     1      -7.235  14.931  67.726  1.00  0.00    -0.190 A  
HETATM   20  H1  UNL     1      -6.545  17.037  69.168  1.00  0.00     0.000 HD 
HETATM   21  C   UNL     1      -7.642  13.746  67.106  1.00  0.00     0.051 A  
HETATM   22  H2  UNL     1      -6.012  15.962  70.307  1.00  0.00     0.000 HD 
ENDBRANCH  11  14
ENDBRANCH   9  11
ENDBRANCH   6   9
ENDBRANCH   2   3
TORSDOF 4
ENDMDL
