MODEL        1
REMARK 921   NORMALIZED FREE ENERGY PREDICTED BY IDOCK:   -6.94 KCAL/MOL
REMARK 922        TOTAL FREE ENERGY PREDICTED BY IDOCK:   -8.62 KCAL/MOL
REMARK 923 INTER-LIGAND FREE ENERGY PREDICTED BY IDOCK:   -8.16 KCAL/MOL
REMARK 924 INTRA-LIGAND FREE ENERGY PREDICTED BY IDOCK:   -0.46 KCAL/MOL
REMARK 927      BINDING AFFINITY PREDICTED BY RF-SCORE:    0.00 PKD
ROOT
HETATM    1  C   UNL     1      -9.981  18.424  66.724  1.00  0.00    -0.374 C  
HETATM    2  C   UNL     1     -10.464  17.331  65.861  1.00  0.00    -0.262 A  
HETATM    3  C   UNL     1     -10.391  15.961  65.923  1.00  0.00    -0.383 A  
HETATM    4  C   UNL     1     -11.029  15.528  64.746  1.00  0.00    -0.399 A  
HETATM    5  O   UNL     1     -11.111  17.693  64.720  1.00  0.00    -0.915 OA 
HETATM    6  N   UNL     1     -11.428  16.553  63.991  1.00  0.00    -1.122 NA 
ENDROOT
BRANCH   4   7
HETATM    7  N   UNL     1     -11.110  14.214  64.310  1.00  0.00    -0.598 N  
HETATM    8  H   UNL     1     -10.418  13.835  63.664  1.00  0.00     0.000 HD 
BRANCH   7   9
HETATM    9  S   UNL     1     -12.385  13.255  64.873  1.00  0.00    -0.421 S  
HETATM   10  O   UNL     1     -13.408  14.171  65.337  1.00  0.00    -0.705 OA 
HETATM   11  O   UNL     1     -12.672  12.241  63.882  1.00  0.00    -0.668 OA 
BRANCH   9  12
HETATM   12  C   UNL     1     -11.732  12.456  66.328  1.00  0.00    -0.395 A  
HETATM   13  C   UNL     1     -10.977  11.285  66.191  1.00  0.00    -0.252 A  
HETATM   14  C   UNL     1     -10.427  10.679  67.324  1.00  0.00    -0.293 A  
HETATM   15  C   UNL     1     -10.641  11.212  68.599  1.00  0.00    -0.193 A  
HETATM   16  N   UNL     1      -9.985  10.665  69.707  1.00  0.00    -0.440 NA 
HETATM   17  C   UNL     1     -11.321  12.429  68.709  1.00  0.00    -0.339 A  
HETATM   18  H2  UNL     1      -8.983  10.668  69.522  1.00  0.00     0.000 HD 
HETATM   19  H1  UNL     1     -10.141  11.054  70.638  1.00  0.00     0.000 HD 
HETATM   20  C   UNL     1     -11.888  13.043  67.584  1.00  0.00    -0.401 A  
ENDBRANCH   9  12
ENDBRANCH   7   9
ENDBRANCH   4   7
TORSDOF 3
ENDMDL
MODEL        2
REMARK 921   NORMALIZED FREE ENERGY PREDICTED BY IDOCK:   -6.87 KCAL/MOL
REMARK 922        TOTAL FREE ENERGY PREDICTED BY IDOCK:   -8.54 KCAL/MOL
REMARK 923 INTER-LIGAND FREE ENERGY PREDICTED BY IDOCK:   -8.09 KCAL/MOL
REMARK 924 INTRA-LIGAND FREE ENERGY PREDICTED BY IDOCK:   -0.45 KCAL/MOL
REMARK 927      BINDING AFFINITY PREDICTED BY RF-SCORE:    0.00 PKD
ROOT
HETATM    1  C   UNL     1      -9.930  18.307  66.760  1.00  0.00    -0.359 C  
HETATM    2  C   UNL     1     -10.480  17.260  65.879  1.00  0.00    -0.262 A  
HETATM    3  C   UNL     1     -10.444  15.888  65.889  1.00  0.00    -0.373 A  
HETATM    4  C   UNL     1     -11.142  15.516  64.726  1.00  0.00    -0.407 A  
HETATM    5  O   UNL     1     -11.161  17.681  64.779  1.00  0.00    -0.915 OA 
HETATM    6  N   UNL     1     -11.540  16.579  64.024  1.00  0.00    -1.124 NA 
ENDROOT
BRANCH   4   7
HETATM    7  N   UNL     1     -11.280  14.222  64.247  1.00  0.00    -0.607 N  
HETATM    8  H   UNL     1     -10.701  13.885  63.477  1.00  0.00     0.000 HD 
BRANCH   7   9
HETATM    9  S   UNL     1     -12.430  13.213  64.969  1.00  0.00    -0.443 S  
HETATM   10  O   UNL     1     -13.422  14.088  65.563  1.00  0.00    -0.677 OA 
HETATM   11  O   UNL     1     -12.801  12.184  64.022  1.00  0.00    -0.651 OA 
BRANCH   9  12
HETATM   12  C   UNL     1     -11.562  12.448  66.326  1.00  0.00    -0.393 A  
HETATM   13  C   UNL     1     -11.736  12.944  67.624  1.00  0.00    -0.422 A  
HETATM   14  C   UNL     1     -11.091  12.321  68.696  1.00  0.00    -0.291 A  
HETATM   15  C   UNL     1     -10.253  11.221  68.490  1.00  0.00    -0.205 A  
HETATM   16  N   UNL     1      -9.713  10.535  69.582  1.00  0.00    -0.419 NA 
HETATM   17  C   UNL     1     -10.161  10.684  67.202  1.00  0.00    -0.261 A  
HETATM   18  H2  UNL     1     -10.479  10.247  70.191  1.00  0.00     0.000 HD 
HETATM   19  H1  UNL     1      -9.102   9.732  69.432  1.00  0.00     0.000 HD 
HETATM   20  C   UNL     1     -10.792  11.303  66.114  1.00  0.00    -0.281 A  
ENDBRANCH   9  12
ENDBRANCH   7   9
ENDBRANCH   4   7
TORSDOF 3
ENDMDL
MODEL        3
REMARK 921   NORMALIZED FREE ENERGY PREDICTED BY IDOCK:   -6.73 KCAL/MOL
REMARK 922        TOTAL FREE ENERGY PREDICTED BY IDOCK:   -8.37 KCAL/MOL
REMARK 923 INTER-LIGAND FREE ENERGY PREDICTED BY IDOCK:   -8.09 KCAL/MOL
REMARK 924 INTRA-LIGAND FREE ENERGY PREDICTED BY IDOCK:   -0.28 KCAL/MOL
REMARK 927      BINDING AFFINITY PREDICTED BY RF-SCORE:    0.00 PKD
ROOT
HETATM    1  C   UNL     1     -12.533  16.158  74.404  1.00  0.00    -0.655 C  
HETATM    2  C   UNL     1     -12.726  15.851  72.975  1.00  0.00    -0.507 A  
HETATM    3  C   UNL     1     -11.893  15.819  71.884  1.00  0.00    -0.568 A  
HETATM    4  C   UNL     1     -12.742  15.489  70.812  1.00  0.00    -0.457 A  
HETATM    5  O   UNL     1     -13.994  15.555  72.578  1.00  0.00    -0.538 OA 
HETATM    6  N   UNL     1     -14.013  15.371  71.202  1.00  0.00    -0.512 NA 
ENDROOT
BRANCH   4   7
HETATM    7  N   UNL     1     -12.373  15.443  69.476  1.00  0.00    -0.586 N  
HETATM    8  H   UNL     1     -12.733  16.126  68.810  1.00  0.00     0.000 HD 
BRANCH   7   9
HETATM    9  S   UNL     1     -11.310  14.225  68.975  1.00  0.00    -0.289 S  
HETATM   10  O   UNL     1      -9.972  14.748  69.172  1.00  0.00    -0.220 OA 
HETATM   11  O   UNL     1     -11.728  12.975  69.571  1.00  0.00    -0.297 OA 
BRANCH   9  12
HETATM   12  C   UNL     1     -11.551  14.121  67.211  1.00  0.00    -0.373 A  
HETATM   13  C   UNL     1     -12.229  13.021  66.671  1.00  0.00    -0.285 A  
HETATM   14  C   UNL     1     -12.459  12.956  65.294  1.00  0.00    -0.552 A  
HETATM   15  C   UNL     1     -11.998  13.963  64.441  1.00  0.00    -0.450 A  
HETATM   16  N   UNL     1     -12.340  13.945  63.085  1.00  0.00    -1.106 NA 
HETATM   17  C   UNL     1     -11.402  15.096  65.004  1.00  0.00    -0.381 A  
HETATM   18  H2  UNL     1     -13.357  13.900  63.010  1.00  0.00     0.000 HD 
HETATM   19  H1  UNL     1     -12.005  14.680  62.462  1.00  0.00     0.000 HD 
HETATM   20  C   UNL     1     -11.155  15.171  66.382  1.00  0.00    -0.312 A  
ENDBRANCH   9  12
ENDBRANCH   7   9
ENDBRANCH   4   7
TORSDOF 3
ENDMDL
MODEL        4
REMARK 921   NORMALIZED FREE ENERGY PREDICTED BY IDOCK:   -6.50 KCAL/MOL
REMARK 922        TOTAL FREE ENERGY PREDICTED BY IDOCK:   -8.10 KCAL/MOL
REMARK 923 INTER-LIGAND FREE ENERGY PREDICTED BY IDOCK:   -7.82 KCAL/MOL
REMARK 924 INTRA-LIGAND FREE ENERGY PREDICTED BY IDOCK:   -0.29 KCAL/MOL
REMARK 927      BINDING AFFINITY PREDICTED BY RF-SCORE:    0.00 PKD
ROOT
HETATM    1  C   UNL     1     -12.359  16.297  74.299  1.00  0.00    -0.628 C  
HETATM    2  C   UNL     1     -12.604  15.990  72.878  1.00  0.00    -0.480 A  
HETATM    3  C   UNL     1     -11.848  16.085  71.736  1.00  0.00    -0.599 A  
HETATM    4  C   UNL     1     -12.715  15.663  70.711  1.00  0.00    -0.431 A  
HETATM    5  O   UNL     1     -13.845  15.534  72.555  1.00  0.00    -0.517 OA 
HETATM    6  N   UNL     1     -13.931  15.371  71.178  1.00  0.00    -0.512 NA 
ENDROOT
BRANCH   4   7
HETATM    7  N   UNL     1     -12.432  15.687  69.354  1.00  0.00    -0.557 N  
HETATM    8  H   UNL     1     -12.975  16.271  68.718  1.00  0.00     0.000 HD 
BRANCH   7   9
HETATM    9  S   UNL     1     -11.165  14.724  68.777  1.00  0.00    -0.287 S  
HETATM   10  O   UNL     1      -9.977  15.554  68.811  1.00  0.00    -0.200 OA 
HETATM   11  O   UNL     1     -11.214  13.446  69.454  1.00  0.00    -0.244 OA 
BRANCH   9  12
HETATM   12  C   UNL     1     -11.549  14.469  67.055  1.00  0.00    -0.386 A  
HETATM   13  C   UNL     1     -10.935  15.271  66.085  1.00  0.00    -0.307 A  
HETATM   14  C   UNL     1     -11.199  15.046  64.732  1.00  0.00    -0.393 A  
HETATM   15  C   UNL     1     -12.090  14.046  64.329  1.00  0.00    -0.445 A  
HETATM   16  N   UNL     1     -12.251  13.754  62.971  1.00  0.00    -0.977 NA 
HETATM   17  C   UNL     1     -12.625  13.198  65.303  1.00  0.00    -0.531 A  
HETATM   18  H2  UNL     1     -11.334  13.546  62.576  1.00  0.00     0.000 HD 
HETATM   19  H1  UNL     1     -12.900  13.024  62.678  1.00  0.00     0.000 HD 
HETATM   20  C   UNL     1     -12.378  13.417  66.666  1.00  0.00    -0.324 A  
ENDBRANCH   9  12
ENDBRANCH   7   9
ENDBRANCH   4   7
TORSDOF 3
ENDMDL
MODEL        5
REMARK 921   NORMALIZED FREE ENERGY PREDICTED BY IDOCK:   -6.49 KCAL/MOL
REMARK 922        TOTAL FREE ENERGY PREDICTED BY IDOCK:   -8.10 KCAL/MOL
REMARK 923 INTER-LIGAND FREE ENERGY PREDICTED BY IDOCK:   -8.15 KCAL/MOL
REMARK 924 INTRA-LIGAND FREE ENERGY PREDICTED BY IDOCK:    0.05 KCAL/MOL
REMARK 927      BINDING AFFINITY PREDICTED BY RF-SCORE:    0.00 PKD
ROOT
HETATM    1  C   UNL     1     -10.948  11.891  63.664  1.00  0.00    -0.511 C  
HETATM    2  C   UNL     1     -11.539  12.740  64.715  1.00  0.00    -0.325 A  
HETATM    3  C   UNL     1     -11.203  13.022  66.016  1.00  0.00    -0.320 A  
HETATM    4  C   UNL     1     -12.225  13.882  66.457  1.00  0.00    -0.442 A  
HETATM    5  O   UNL     1     -12.688  13.396  64.398  1.00  0.00    -0.643 OA 
HETATM    6  N   UNL     1     -13.148  14.082  65.515  1.00  0.00    -0.681 NA 
ENDROOT
BRANCH   4   7
HETATM    7  N   UNL     1     -12.378  14.355  67.752  1.00  0.00    -0.603 N  
HETATM    8  H   UNL     1     -12.989  15.146  67.950  1.00  0.00     0.000 HD 
BRANCH   7   9
HETATM    9  S   UNL     1     -11.525  13.588  68.996  1.00  0.00    -0.323 S  
HETATM   10  O   UNL     1     -12.026  12.229  69.055  1.00  0.00    -0.300 OA 
HETATM   11  O   UNL     1     -10.115  13.867  68.828  1.00  0.00    -0.221 OA 
BRANCH   9  12
HETATM   12  C   UNL     1     -12.087  14.393  70.484  1.00  0.00    -0.334 A  
HETATM   13  C   UNL     1     -13.006  13.741  71.316  1.00  0.00    -0.409 A  
HETATM   14  C   UNL     1     -13.417  14.350  72.505  1.00  0.00    -0.593 A  
HETATM   15  C   UNL     1     -12.944  15.615  72.866  1.00  0.00    -0.497 A  
HETATM   16  N   UNL     1     -13.269  16.157  74.113  1.00  0.00    -0.913 NA 
HETATM   17  C   UNL     1     -11.961  16.213  72.070  1.00  0.00    -0.607 A  
HETATM   18  H2  UNL     1     -12.992  15.492  74.835  1.00  0.00     0.000 HD 
HETATM   19  H1  UNL     1     -12.924  17.080  74.377  1.00  0.00     0.000 HD 
HETATM   20  C   UNL     1     -11.547  15.620  70.869  1.00  0.00    -0.424 A  
ENDBRANCH   9  12
ENDBRANCH   7   9
ENDBRANCH   4   7
TORSDOF 3
ENDMDL
MODEL        6
REMARK 921   NORMALIZED FREE ENERGY PREDICTED BY IDOCK:   -6.34 KCAL/MOL
REMARK 922        TOTAL FREE ENERGY PREDICTED BY IDOCK:   -7.91 KCAL/MOL
REMARK 923 INTER-LIGAND FREE ENERGY PREDICTED BY IDOCK:   -8.00 KCAL/MOL
REMARK 924 INTRA-LIGAND FREE ENERGY PREDICTED BY IDOCK:    0.09 KCAL/MOL
REMARK 927      BINDING AFFINITY PREDICTED BY RF-SCORE:    0.00 PKD
ROOT
HETATM    1  C   UNL     1     -11.390  11.650  63.551  1.00  0.00    -0.447 C  
HETATM    2  C   UNL     1     -11.832  12.557  64.625  1.00  0.00    -0.378 A  
HETATM    3  C   UNL     1     -11.521  12.685  65.956  1.00  0.00    -0.414 A  
HETATM    4  C   UNL     1     -12.343  13.735  66.404  1.00  0.00    -0.412 A  
HETATM    5  O   UNL     1     -12.780  13.478  64.298  1.00  0.00    -0.645 OA 
HETATM    6  N   UNL     1     -13.137  14.193  65.434  1.00  0.00    -0.705 NA 
ENDROOT
BRANCH   4   7
HETATM    7  N   UNL     1     -12.461  14.162  67.718  1.00  0.00    -0.476 N  
HETATM    8  H   UNL     1     -13.138  14.882  67.975  1.00  0.00     0.000 HD 
BRANCH   7   9
HETATM    9  S   UNL     1     -11.457  13.463  68.887  1.00  0.00    -0.325 S  
HETATM   10  O   UNL     1     -11.843  12.068  68.972  1.00  0.00    -0.306 OA 
HETATM   11  O   UNL     1     -10.091  13.854  68.613  1.00  0.00    -0.228 OA 
BRANCH   9  12
HETATM   12  C   UNL     1     -11.966  14.218  70.420  1.00  0.00    -0.332 A  
HETATM   13  C   UNL     1     -11.517  15.506  70.738  1.00  0.00    -0.396 A  
HETATM   14  C   UNL     1     -11.948  16.118  71.918  1.00  0.00    -0.583 A  
HETATM   15  C   UNL     1     -12.803  15.453  72.802  1.00  0.00    -0.427 A  
HETATM   16  N   UNL     1     -13.320  16.123  73.915  1.00  0.00    -0.918 NA 
HETATM   17  C   UNL     1     -13.311  14.205  72.428  1.00  0.00    -0.591 A  
HETATM   18  H2  UNL     1     -13.787  16.970  73.593  1.00  0.00     0.000 HD 
HETATM   19  H1  UNL     1     -13.944  15.638  74.560  1.00  0.00     0.000 HD 
HETATM   20  C   UNL     1     -12.881  13.573  71.253  1.00  0.00    -0.420 A  
ENDBRANCH   9  12
ENDBRANCH   7   9
ENDBRANCH   4   7
TORSDOF 3
ENDMDL
MODEL        7
REMARK 921   NORMALIZED FREE ENERGY PREDICTED BY IDOCK:   -6.21 KCAL/MOL
REMARK 922        TOTAL FREE ENERGY PREDICTED BY IDOCK:   -7.76 KCAL/MOL
REMARK 923 INTER-LIGAND FREE ENERGY PREDICTED BY IDOCK:   -7.39 KCAL/MOL
REMARK 924 INTRA-LIGAND FREE ENERGY PREDICTED BY IDOCK:   -0.37 KCAL/MOL
REMARK 927      BINDING AFFINITY PREDICTED BY RF-SCORE:    0.00 PKD
ROOT
HETATM    1  C   UNL     1     -14.378  15.038  71.814  1.00  0.00    -0.674 C  
HETATM    2  C   UNL     1     -13.246  14.681  70.939  1.00  0.00    -0.337 A  
HETATM    3  C   UNL     1     -12.589  13.509  70.658  1.00  0.00    -0.345 A  
HETATM    4  C   UNL     1     -11.572  13.890  69.764  1.00  0.00    -0.270 A  
HETATM    5  O   UNL     1     -12.661  15.698  70.251  1.00  0.00    -0.407 OA 
HETATM    6  N   UNL     1     -11.571  15.206  69.543  1.00  0.00    -0.298 NA 
ENDROOT
BRANCH   4   7
HETATM    7  N   UNL     1     -10.573  13.059  69.278  1.00  0.00    -0.439 N  
HETATM    8  H   UNL     1      -9.678  12.980  69.761  1.00  0.00     0.000 HD 
BRANCH   7   9
HETATM    9  S   UNL     1     -10.873  12.181  67.862  1.00  0.00    -0.230 S  
HETATM   10  O   UNL     1      -9.647  11.471  67.557  1.00  0.00    -0.170 OA 
HETATM   11  O   UNL     1     -12.133  11.485  68.011  1.00  0.00    -0.617 OA 
BRANCH   9  12
HETATM   12  C   UNL     1     -11.059  13.425  66.598  1.00  0.00    -0.295 A  
HETATM   13  C   UNL     1     -12.278  13.541  65.918  1.00  0.00    -0.507 A  
HETATM   14  C   UNL     1     -12.442  14.541  64.957  1.00  0.00    -0.307 A  
HETATM   15  C   UNL     1     -11.397  15.416  64.643  1.00  0.00    -0.355 A  
HETATM   16  N   UNL     1     -11.615  16.486  63.769  1.00  0.00    -1.433 NA 
HETATM   17  C   UNL     1     -10.219  15.344  65.392  1.00  0.00    -0.408 A  
HETATM   18  H2  UNL     1     -12.399  17.035  64.122  1.00  0.00     0.000 HD 
HETATM   19  H1  UNL     1     -10.853  17.124  63.541  1.00  0.00     0.000 HD 
HETATM   20  C   UNL     1     -10.034  14.339  66.352  1.00  0.00    -0.302 A  
ENDBRANCH   9  12
ENDBRANCH   7   9
ENDBRANCH   4   7
TORSDOF 3
ENDMDL
MODEL        8
REMARK 921   NORMALIZED FREE ENERGY PREDICTED BY IDOCK:   -6.17 KCAL/MOL
REMARK 922        TOTAL FREE ENERGY PREDICTED BY IDOCK:   -7.72 KCAL/MOL
REMARK 923 INTER-LIGAND FREE ENERGY PREDICTED BY IDOCK:   -7.82 KCAL/MOL
REMARK 924 INTRA-LIGAND FREE ENERGY PREDICTED BY IDOCK:    0.10 KCAL/MOL
REMARK 927      BINDING AFFINITY PREDICTED BY RF-SCORE:    0.00 PKD
ROOT
HETATM    1  C   UNL     1     -13.226   9.447  72.437  1.00  0.00    -0.483 C  
HETATM    2  C   UNL     1     -12.791  10.583  71.603  1.00  0.00    -0.475 A  
HETATM    3  C   UNL     1     -11.948  10.710  70.527  1.00  0.00    -0.446 A  
HETATM    4  C   UNL     1     -11.956  12.088  70.244  1.00  0.00    -0.314 A  
HETATM    5  O   UNL     1     -13.276  11.809  71.938  1.00  0.00    -0.482 OA 
HETATM    6  N   UNL     1     -12.711  12.769  71.108  1.00  0.00    -0.328 NA 
ENDROOT
BRANCH   4   7
HETATM    7  N   UNL     1     -11.164  12.721  69.297  1.00  0.00    -0.397 N  
HETATM    8  H   UNL     1     -10.751  13.634  69.488  1.00  0.00     0.000 HD 
BRANCH   7   9
HETATM    9  S   UNL     1     -10.900  11.944  67.817  1.00  0.00    -0.223 S  
HETATM   10  O   UNL     1      -9.505  11.551  67.808  1.00  0.00    -0.161 OA 
HETATM   11  O   UNL     1     -11.958  10.980  67.608  1.00  0.00    -0.583 OA 
BRANCH   9  12
HETATM   12  C   UNL     1     -11.063  13.237  66.600  1.00  0.00    -0.291 A  
HETATM   13  C   UNL     1     -12.217  13.299  65.810  1.00  0.00    -0.510 A  
HETATM   14  C   UNL     1     -12.368  14.335  64.885  1.00  0.00    -0.435 A  
HETATM   15  C   UNL     1     -11.371  15.300  64.717  1.00  0.00    -0.391 A  
HETATM   16  N   UNL     1     -11.589  16.397  63.877  1.00  0.00    -1.602 NA 
HETATM   17  C   UNL     1     -10.267  15.275  65.575  1.00  0.00    -0.417 A  
HETATM   18  H2  UNL     1     -12.444  16.866  64.176  1.00  0.00     0.000 HD 
HETATM   19  H1  UNL     1     -10.861  17.101  63.755  1.00  0.00     0.000 HD 
HETATM   20  C   UNL     1     -10.095  14.237  66.500  1.00  0.00    -0.283 A  
ENDBRANCH   9  12
ENDBRANCH   7   9
ENDBRANCH   4   7
TORSDOF 3
ENDMDL
MODEL        9
REMARK 921   NORMALIZED FREE ENERGY PREDICTED BY IDOCK:   -6.16 KCAL/MOL
REMARK 922        TOTAL FREE ENERGY PREDICTED BY IDOCK:   -7.70 KCAL/MOL
REMARK 923 INTER-LIGAND FREE ENERGY PREDICTED BY IDOCK:   -7.56 KCAL/MOL
REMARK 924 INTRA-LIGAND FREE ENERGY PREDICTED BY IDOCK:   -0.14 KCAL/MOL
REMARK 927      BINDING AFFINITY PREDICTED BY RF-SCORE:    0.00 PKD
ROOT
HETATM    1  C   UNL     1     -10.281  19.447  67.002  1.00  0.00    -0.514 C  
HETATM    2  C   UNL     1     -10.507  18.163  66.314  1.00  0.00    -0.361 A  
HETATM    3  C   UNL     1     -10.321  16.848  66.661  1.00  0.00    -0.299 A  
HETATM    4  C   UNL     1     -10.704  16.130  65.514  1.00  0.00    -0.342 A  
HETATM    5  O   UNL     1     -10.977  18.226  65.039  1.00  0.00    -0.684 OA 
HETATM    6  N   UNL     1     -11.059  16.942  64.516  1.00  0.00    -1.071 NA 
ENDROOT
BRANCH   4   7
HETATM    7  N   UNL     1     -10.589  14.758  65.345  1.00  0.00    -0.349 N  
HETATM    8  H   UNL     1      -9.795  14.359  64.845  1.00  0.00     0.000 HD 
BRANCH   7   9
HETATM    9  S   UNL     1     -11.798  13.763  65.986  1.00  0.00    -0.414 S  
HETATM   10  O   UNL     1     -11.948  14.149  67.375  1.00  0.00    -0.395 OA 
HETATM   11  O   UNL     1     -12.923  13.761  65.076  1.00  0.00    -0.732 OA 
BRANCH   9  12
HETATM   12  C   UNL     1     -11.074  12.133  65.995  1.00  0.00    -0.313 A  
HETATM   13  C   UNL     1     -11.091  11.378  67.174  1.00  0.00    -0.366 A  
HETATM   14  C   UNL     1     -10.563  10.084  67.174  1.00  0.00    -0.296 A  
HETATM   15  C   UNL     1      -9.995   9.538  66.020  1.00  0.00    -0.278 A  
HETATM   16  N   UNL     1      -9.582   8.202  66.003  1.00  0.00    -0.438 NA 
HETATM   17  C   UNL     1     -10.067  10.270  64.830  1.00  0.00    -0.346 A  
HETATM   18  H2  UNL     1     -10.372   7.618  66.280  1.00  0.00     0.000 HD 
HETATM   19  H1  UNL     1      -9.168   7.804  65.160  1.00  0.00     0.000 HD 
HETATM   20  C   UNL     1     -10.582  11.574  64.815  1.00  0.00    -0.362 A  
ENDBRANCH   9  12
ENDBRANCH   7   9
ENDBRANCH   4   7
TORSDOF 3
ENDMDL
MODEL       10
REMARK 921   NORMALIZED FREE ENERGY PREDICTED BY IDOCK:   -6.04 KCAL/MOL
REMARK 922        TOTAL FREE ENERGY PREDICTED BY IDOCK:   -7.57 KCAL/MOL
REMARK 923 INTER-LIGAND FREE ENERGY PREDICTED BY IDOCK:   -7.51 KCAL/MOL
REMARK 924 INTRA-LIGAND FREE ENERGY PREDICTED BY IDOCK:   -0.06 KCAL/MOL
REMARK 927      BINDING AFFINITY PREDICTED BY RF-SCORE:    0.00 PKD
ROOT
HETATM    1  C   UNL     1     -12.739   8.909  72.316  1.00  0.00    -0.464 C  
HETATM    2  C   UNL     1     -12.430  10.087  71.485  1.00  0.00    -0.419 A  
HETATM    3  C   UNL     1     -11.570  10.320  70.440  1.00  0.00    -0.411 A  
HETATM    4  C   UNL     1     -11.753  11.683  70.140  1.00  0.00    -0.296 A  
HETATM    5  O   UNL     1     -13.089  11.239  71.787  1.00  0.00    -0.472 OA 
HETATM    6  N   UNL     1     -12.627  12.260  70.967  1.00  0.00    -0.326 NA 
ENDROOT
BRANCH   4   7
HETATM    7  N   UNL     1     -11.018  12.411  69.217  1.00  0.00    -0.435 N  
HETATM    8  H   UNL     1     -10.599  13.306  69.471  1.00  0.00     0.000 HD 
BRANCH   7   9
HETATM    9  S   UNL     1     -10.832  11.781  67.657  1.00  0.00    -0.231 S  
HETATM   10  O   UNL     1      -9.439  11.395  67.538  1.00  0.00    -0.165 OA 
HETATM   11  O   UNL     1     -11.901  10.837  67.412  1.00  0.00    -0.382 OA 
BRANCH   9  12
HETATM   12  C   UNL     1     -11.056  13.184  66.581  1.00  0.00    -0.292 A  
HETATM   13  C   UNL     1     -10.013  14.104  66.419  1.00  0.00    -0.302 A  
HETATM   14  C   UNL     1     -10.169  15.181  65.544  1.00  0.00    -0.405 A  
HETATM   15  C   UNL     1     -11.363  15.371  64.842  1.00  0.00    -0.363 A  
HETATM   16  N   UNL     1     -11.460  16.382  63.881  1.00  0.00    -1.618 NA 
HETATM   17  C   UNL     1     -12.360  14.397  64.946  1.00  0.00    -0.414 A  
HETATM   18  H2  UNL     1     -10.707  16.257  63.205  1.00  0.00     0.000 HD 
HETATM   19  H1  UNL     1     -12.331  16.520  63.369  1.00  0.00     0.000 HD 
HETATM   20  C   UNL     1     -12.225  13.316  65.829  1.00  0.00    -0.510 A  
ENDBRANCH   9  12
ENDBRANCH   7   9
ENDBRANCH   4   7
TORSDOF 3
ENDMDL
MODEL       11
REMARK 921   NORMALIZED FREE ENERGY PREDICTED BY IDOCK:   -5.97 KCAL/MOL
REMARK 922        TOTAL FREE ENERGY PREDICTED BY IDOCK:   -7.48 KCAL/MOL
REMARK 923 INTER-LIGAND FREE ENERGY PREDICTED BY IDOCK:   -7.12 KCAL/MOL
REMARK 924 INTRA-LIGAND FREE ENERGY PREDICTED BY IDOCK:   -0.36 KCAL/MOL
REMARK 927      BINDING AFFINITY PREDICTED BY RF-SCORE:    0.00 PKD
ROOT
HETATM    1  C   UNL     1     -12.220  12.515  63.458  1.00  0.00    -0.652 C  
HETATM    2  C   UNL     1     -12.203  12.891  64.883  1.00  0.00    -0.453 A  
HETATM    3  C   UNL     1     -12.235  14.087  65.557  1.00  0.00    -0.455 A  
HETATM    4  C   UNL     1     -12.148  13.722  66.913  1.00  0.00    -0.413 A  
HETATM    5  O   UNL     1     -12.108  11.874  65.783  1.00  0.00    -0.451 OA 
HETATM    6  N   UNL     1     -12.027  12.402  67.065  1.00  0.00    -0.565 NA 
ENDROOT
BRANCH   4   7
HETATM    7  N   UNL     1     -12.036  14.601  67.979  1.00  0.00    -0.582 N  
HETATM    8  H   UNL     1     -12.866  14.941  68.466  1.00  0.00     0.000 HD 
BRANCH   7   9
HETATM    9  S   UNL     1     -10.490  15.100  68.453  1.00  0.00    -0.238 S  
HETATM   10  O   UNL     1     -10.504  15.142  69.903  1.00  0.00    -0.255 OA 
HETATM   11  O   UNL     1      -9.512  14.318  67.729  1.00  0.00    -0.207 OA 
BRANCH   9  12
HETATM   12  C   UNL     1     -10.381  16.793  67.905  1.00  0.00    -0.319 A  
HETATM   13  C   UNL     1     -10.193  17.813  68.847  1.00  0.00    -0.345 A  
HETATM   14  C   UNL     1     -10.064  19.136  68.418  1.00  0.00    -0.498 A  
HETATM   15  C   UNL     1     -10.144  19.464  67.061  1.00  0.00    -0.387 A  
HETATM   16  N   UNL     1      -9.891  20.773  66.638  1.00  0.00    -0.585 NA 
HETATM   17  C   UNL     1     -10.242  18.426  66.128  1.00  0.00    -0.408 A  
HETATM   18  H2  UNL     1      -8.972  21.051  66.982  1.00  0.00     0.000 HD 
HETATM   19  H1  UNL     1      -9.949  21.011  65.648  1.00  0.00     0.000 HD 
HETATM   20  C   UNL     1     -10.384  17.094  66.542  1.00  0.00    -0.306 A  
ENDBRANCH   9  12
ENDBRANCH   7   9
ENDBRANCH   4   7
TORSDOF 3
ENDMDL
MODEL       12
REMARK 921   NORMALIZED FREE ENERGY PREDICTED BY IDOCK:   -5.94 KCAL/MOL
REMARK 922        TOTAL FREE ENERGY PREDICTED BY IDOCK:   -7.45 KCAL/MOL
REMARK 923 INTER-LIGAND FREE ENERGY PREDICTED BY IDOCK:   -7.16 KCAL/MOL
REMARK 924 INTRA-LIGAND FREE ENERGY PREDICTED BY IDOCK:   -0.29 KCAL/MOL
REMARK 927      BINDING AFFINITY PREDICTED BY RF-SCORE:    0.00 PKD
ROOT
HETATM    1  C   UNL     1     -10.849  12.721  64.007  1.00  0.00    -0.458 C  
HETATM    2  C   UNL     1     -10.906  12.467  65.459  1.00  0.00    -0.278 A  
HETATM    3  C   UNL     1      -9.962  12.389  66.453  1.00  0.00    -0.254 A  
HETATM    4  C   UNL     1     -10.702  12.076  67.607  1.00  0.00    -0.217 A  
HETATM    5  O   UNL     1     -12.135  12.221  65.989  1.00  0.00    -0.623 OA 
HETATM    6  N   UNL     1     -12.001  11.928  67.340  1.00  0.00    -0.601 NA 
ENDROOT
BRANCH   4   7
HETATM    7  N   UNL     1     -10.167  11.789  68.855  1.00  0.00    -0.378 N  
HETATM    8  H   UNL     1      -9.924  12.538  69.503  1.00  0.00     0.000 HD 
BRANCH   7   9
HETATM    9  S   UNL     1      -9.928  10.168  69.276  1.00  0.00    -0.231 S  
HETATM   10  O   UNL     1     -10.190   9.394  68.078  1.00  0.00    -0.182 OA 
HETATM   11  O   UNL     1      -8.673  10.058  69.987  1.00  0.00    -0.191 OA 
BRANCH   9  12
HETATM   12  C   UNL     1     -11.255   9.801  70.408  1.00  0.00    -0.300 A  
HETATM   13  C   UNL     1     -11.352   8.520  70.966  1.00  0.00    -0.313 A  
HETATM   14  C   UNL     1     -12.366   8.241  71.886  1.00  0.00    -0.379 A  
HETATM   15  C   UNL     1     -13.303   9.215  72.242  1.00  0.00    -0.477 A  
HETATM   16  N   UNL     1     -14.234   8.958  73.253  1.00  0.00    -1.237 NA 
HETATM   17  C   UNL     1     -13.139  10.512  71.745  1.00  0.00    -0.570 A  
HETATM   18  H2  UNL     1     -13.729   8.677  74.093  1.00  0.00     0.000 HD 
HETATM   19  H1  UNL     1     -14.918   9.669  73.513  1.00  0.00     0.000 HD 
HETATM   20  C   UNL     1     -12.135  10.806  70.812  1.00  0.00    -0.473 A  
ENDBRANCH   9  12
ENDBRANCH   7   9
ENDBRANCH   4   7
TORSDOF 3
ENDMDL
MODEL       13
REMARK 921   NORMALIZED FREE ENERGY PREDICTED BY IDOCK:   -5.94 KCAL/MOL
REMARK 922        TOTAL FREE ENERGY PREDICTED BY IDOCK:   -7.44 KCAL/MOL
REMARK 923 INTER-LIGAND FREE ENERGY PREDICTED BY IDOCK:   -7.08 KCAL/MOL
REMARK 924 INTRA-LIGAND FREE ENERGY PREDICTED BY IDOCK:   -0.36 KCAL/MOL
REMARK 927      BINDING AFFINITY PREDICTED BY RF-SCORE:    0.00 PKD
ROOT
HETATM    1  C   UNL     1     -10.823  11.691  63.667  1.00  0.00    -0.503 C  
HETATM    2  C   UNL     1     -11.110  12.676  64.726  1.00  0.00    -0.300 A  
HETATM    3  C   UNL     1     -11.814  12.634  65.903  1.00  0.00    -0.499 A  
HETATM    4  C   UNL     1     -11.718  13.943  66.409  1.00  0.00    -0.383 A  
HETATM    5  O   UNL     1     -10.620  13.932  64.542  1.00  0.00    -0.424 OA 
HETATM    6  N   UNL     1     -11.044  14.747  65.584  1.00  0.00    -0.332 NA 
ENDROOT
BRANCH   4   7
HETATM    7  N   UNL     1     -12.366  14.421  67.538  1.00  0.00    -0.600 N  
HETATM    8  H   UNL     1     -13.357  14.663  67.509  1.00  0.00     0.000 HD 
BRANCH   7   9
HETATM    9  S   UNL     1     -11.475  14.595  68.966  1.00  0.00    -0.309 S  
HETATM   10  O   UNL     1     -10.095  14.312  68.621  1.00  0.00    -0.233 OA 
HETATM   11  O   UNL     1     -11.856  15.839  69.599  1.00  0.00    -0.345 OA 
BRANCH   9  12
HETATM   12  C   UNL     1     -12.019  13.245  69.997  1.00  0.00    -0.329 A  
HETATM   13  C   UNL     1     -12.764  13.516  71.151  1.00  0.00    -0.425 A  
HETATM   14  C   UNL     1     -13.229  12.460  71.939  1.00  0.00    -0.486 A  
HETATM   15  C   UNL     1     -12.940  11.133  71.606  1.00  0.00    -0.443 A  
HETATM   16  N   UNL     1     -13.513  10.085  72.334  1.00  0.00    -0.610 NA 
HETATM   17  C   UNL     1     -12.272  10.877  70.405  1.00  0.00    -0.453 A  
HETATM   18  H2  UNL     1     -14.526  10.205  72.327  1.00  0.00     0.000 HD 
HETATM   19  H1  UNL     1     -13.302   9.117  72.091  1.00  0.00     0.000 HD 
HETATM   20  C   UNL     1     -11.789  11.925  69.609  1.00  0.00    -0.406 A  
ENDBRANCH   9  12
ENDBRANCH   7   9
ENDBRANCH   4   7
TORSDOF 3
ENDMDL
MODEL       14
REMARK 921   NORMALIZED FREE ENERGY PREDICTED BY IDOCK:   -5.91 KCAL/MOL
REMARK 922        TOTAL FREE ENERGY PREDICTED BY IDOCK:   -7.41 KCAL/MOL
REMARK 923 INTER-LIGAND FREE ENERGY PREDICTED BY IDOCK:   -7.28 KCAL/MOL
REMARK 924 INTRA-LIGAND FREE ENERGY PREDICTED BY IDOCK:   -0.13 KCAL/MOL
REMARK 927      BINDING AFFINITY PREDICTED BY RF-SCORE:    0.00 PKD
ROOT
HETATM    1  C   UNL     1     -12.693  15.304  73.674  1.00  0.00    -0.703 C  
HETATM    2  C   UNL     1     -12.457  15.413  72.223  1.00  0.00    -0.375 A  
HETATM    3  C   UNL     1     -12.879  14.699  71.130  1.00  0.00    -0.411 A  
HETATM    4  C   UNL     1     -12.240  15.321  70.042  1.00  0.00    -0.349 A  
HETATM    5  O   UNL     1     -11.620  16.405  71.812  1.00  0.00    -0.453 OA 
HETATM    6  N   UNL     1     -11.446  16.318  70.437  1.00  0.00    -0.319 NA 
ENDROOT
BRANCH   4   7
HETATM    7  N   UNL     1     -12.277  14.883  68.727  1.00  0.00    -0.587 N  
HETATM    8  H   UNL     1     -13.145  14.544  68.313  1.00  0.00     0.000 HD 
BRANCH   7   9
HETATM    9  S   UNL     1     -10.846  14.924  67.824  1.00  0.00    -0.296 S  
HETATM   10  O   UNL     1     -10.730  16.274  67.308  1.00  0.00    -0.314 OA 
HETATM   11  O   UNL     1      -9.790  14.321  68.607  1.00  0.00    -0.232 OA 
BRANCH   9  12
HETATM   12  C   UNL     1     -11.177  13.878  66.418  1.00  0.00    -0.315 A  
HETATM   13  C   UNL     1     -12.503  13.600  66.062  1.00  0.00    -0.477 A  
HETATM   14  C   UNL     1     -12.767  12.817  64.935  1.00  0.00    -0.479 A  
HETATM   15  C   UNL     1     -11.727  12.283  64.170  1.00  0.00    -0.402 A  
HETATM   16  N   UNL     1     -12.007  11.604  62.980  1.00  0.00    -0.902 NA 
HETATM   17  C   UNL     1     -10.413  12.642  64.487  1.00  0.00    -0.379 A  
HETATM   18  H2  UNL     1     -12.563  12.216  62.383  1.00  0.00     0.000 HD 
HETATM   19  H1  UNL     1     -11.247  11.214  62.422  1.00  0.00     0.000 HD 
HETATM   20  C   UNL     1     -10.130  13.418  65.619  1.00  0.00    -0.285 A  
ENDBRANCH   9  12
ENDBRANCH   7   9
ENDBRANCH   4   7
TORSDOF 3
ENDMDL
MODEL       15
REMARK 921   NORMALIZED FREE ENERGY PREDICTED BY IDOCK:   -5.86 KCAL/MOL
REMARK 922        TOTAL FREE ENERGY PREDICTED BY IDOCK:   -7.35 KCAL/MOL
REMARK 923 INTER-LIGAND FREE ENERGY PREDICTED BY IDOCK:   -6.97 KCAL/MOL
REMARK 924 INTRA-LIGAND FREE ENERGY PREDICTED BY IDOCK:   -0.38 KCAL/MOL
REMARK 927      BINDING AFFINITY PREDICTED BY RF-SCORE:    0.00 PKD
ROOT
HETATM    1  C   UNL     1      -9.780  17.164  68.538  1.00  0.00    -0.291 C  
HETATM    2  C   UNL     1     -10.174  16.651  67.213  1.00  0.00    -0.290 A  
HETATM    3  C   UNL     1     -10.267  15.397  66.663  1.00  0.00    -0.281 A  
HETATM    4  C   UNL     1     -10.668  15.632  65.335  1.00  0.00    -0.408 A  
HETATM    5  O   UNL     1     -10.504  17.578  66.272  1.00  0.00    -0.341 OA 
HETATM    6  N   UNL     1     -10.772  16.936  65.070  1.00  0.00    -0.693 NA 
ENDROOT
BRANCH   4   7
HETATM    7  N   UNL     1     -10.793  14.666  64.347  1.00  0.00    -0.600 N  
HETATM    8  H   UNL     1     -10.118  14.608  63.585  1.00  0.00     0.000 HD 
BRANCH   7   9
HETATM    9  S   UNL     1     -12.092  13.585  64.437  1.00  0.00    -0.416 S  
HETATM   10  O   UNL     1     -13.081  14.209  65.295  1.00  0.00    -0.763 OA 
HETATM   11  O   UNL     1     -12.421  13.149  63.097  1.00  0.00    -0.686 OA 
BRANCH   9  12
HETATM   12  C   UNL     1     -11.450  12.191  65.345  1.00  0.00    -0.336 A  
HETATM   13  C   UNL     1     -10.651  11.248  64.686  1.00  0.00    -0.392 A  
HETATM   14  C   UNL     1     -10.111  10.178  65.404  1.00  0.00    -0.342 A  
HETATM   15  C   UNL     1     -10.375  10.018  66.767  1.00  0.00    -0.217 A  
HETATM   16  N   UNL     1      -9.730   9.014  67.495  1.00  0.00    -0.154 NA 
HETATM   17  C   UNL     1     -11.100  11.016  67.427  1.00  0.00    -0.370 A  
HETATM   18  H2  UNL     1      -8.724   9.124  67.374  1.00  0.00     0.000 HD 
HETATM   19  H1  UNL     1      -9.924   8.898  68.490  1.00  0.00     0.000 HD 
HETATM   20  C   UNL     1     -11.659  12.090  66.721  1.00  0.00    -0.391 A  
ENDBRANCH   9  12
ENDBRANCH   7   9
ENDBRANCH   4   7
TORSDOF 3
ENDMDL
MODEL       16
REMARK 921   NORMALIZED FREE ENERGY PREDICTED BY IDOCK:   -5.81 KCAL/MOL
REMARK 922        TOTAL FREE ENERGY PREDICTED BY IDOCK:   -7.29 KCAL/MOL
REMARK 923 INTER-LIGAND FREE ENERGY PREDICTED BY IDOCK:   -6.89 KCAL/MOL
REMARK 924 INTRA-LIGAND FREE ENERGY PREDICTED BY IDOCK:   -0.41 KCAL/MOL
REMARK 927      BINDING AFFINITY PREDICTED BY RF-SCORE:    0.00 PKD
ROOT
HETATM    1  C   UNL     1     -12.433  15.330  73.792  1.00  0.00    -0.746 C  
HETATM    2  C   UNL     1     -12.399  15.024  72.350  1.00  0.00    -0.351 A  
HETATM    3  C   UNL     1     -12.260  15.783  71.215  1.00  0.00    -0.491 A  
HETATM    4  C   UNL     1     -12.358  14.854  70.164  1.00  0.00    -0.327 A  
HETATM    5  O   UNL     1     -12.565  13.720  71.998  1.00  0.00    -0.252 OA 
HETATM    6  N   UNL     1     -12.585  13.618  70.612  1.00  0.00    -0.319 NA 
ENDROOT
BRANCH   4   7
HETATM    7  N   UNL     1     -12.382  15.164  68.812  1.00  0.00    -0.595 N  
HETATM    8  H   UNL     1     -13.264  15.349  68.335  1.00  0.00     0.000 HD 
BRANCH   7   9
HETATM    9  S   UNL     1     -10.914  15.228  67.973  1.00  0.00    -0.310 S  
HETATM   10  O   UNL     1      -9.899  14.755  68.894  1.00  0.00    -0.220 OA 
HETATM   11  O   UNL     1     -11.100  14.619  66.674  1.00  0.00    -0.320 OA 
BRANCH   9  12
HETATM   12  C   UNL     1     -10.608  16.970  67.743  1.00  0.00    -0.350 A  
HETATM   13  C   UNL     1     -10.221  17.752  68.838  1.00  0.00    -0.345 A  
HETATM   14  C   UNL     1      -9.938  19.108  68.654  1.00  0.00    -0.486 A  
HETATM   15  C   UNL     1     -10.061  19.705  67.395  1.00  0.00    -0.410 A  
HETATM   16  N   UNL     1      -9.659  21.030  67.204  1.00  0.00    -0.661 NA 
HETATM   17  C   UNL     1     -10.362  18.891  66.298  1.00  0.00    -0.512 A  
HETATM   18  H2  UNL     1      -8.690  21.120  67.509  1.00  0.00     0.000 HD 
HETATM   19  H1  UNL     1      -9.748  21.465  66.285  1.00  0.00     0.000 HD 
HETATM   20  C   UNL     1     -10.659  17.532  66.467  1.00  0.00    -0.191 A  
ENDBRANCH   9  12
ENDBRANCH   7   9
ENDBRANCH   4   7
TORSDOF 3
ENDMDL
MODEL       17
REMARK 921   NORMALIZED FREE ENERGY PREDICTED BY IDOCK:   -5.81 KCAL/MOL
REMARK 922        TOTAL FREE ENERGY PREDICTED BY IDOCK:   -7.29 KCAL/MOL
REMARK 923 INTER-LIGAND FREE ENERGY PREDICTED BY IDOCK:   -6.93 KCAL/MOL
REMARK 924 INTRA-LIGAND FREE ENERGY PREDICTED BY IDOCK:   -0.36 KCAL/MOL
REMARK 927      BINDING AFFINITY PREDICTED BY RF-SCORE:    0.00 PKD
ROOT
HETATM    1  C   UNL     1     -10.563  19.529  66.079  1.00  0.00    -0.589 C  
HETATM    2  C   UNL     1     -10.422  18.148  66.575  1.00  0.00    -0.341 A  
HETATM    3  C   UNL     1     -10.455  17.573  67.821  1.00  0.00    -0.381 A  
HETATM    4  C   UNL     1     -10.207  16.209  67.578  1.00  0.00    -0.267 A  
HETATM    5  O   UNL     1     -10.175  17.186  65.645  1.00  0.00    -0.564 OA 
HETATM    6  N   UNL     1      -9.993  15.966  66.284  1.00  0.00    -0.278 NA 
ENDROOT
BRANCH   4   7
HETATM    7  N   UNL     1     -10.038  15.235  68.551  1.00  0.00    -0.217 N  
HETATM    8  H   UNL     1      -9.151  15.139  69.045  1.00  0.00     0.000 HD 
BRANCH   7   9
HETATM    9  S   UNL     1     -11.338  14.209  68.898  1.00  0.00    -0.296 S  
HETATM   10  O   UNL     1     -12.368  14.514  67.924  1.00  0.00    -0.188 OA 
HETATM   11  O   UNL     1     -10.831  12.864  69.066  1.00  0.00    -0.223 OA 
BRANCH   9  12
HETATM   12  C   UNL     1     -11.951  14.783  70.470  1.00  0.00    -0.312 A  
HETATM   13  C   UNL     1     -12.878  14.005  71.176  1.00  0.00    -0.427 A  
HETATM   14  C   UNL     1     -13.329  14.431  72.428  1.00  0.00    -0.546 A  
HETATM   15  C   UNL     1     -12.887  15.637  72.979  1.00  0.00    -0.490 A  
HETATM   16  N   UNL     1     -13.253  15.989  74.283  1.00  0.00    -0.821 NA 
HETATM   17  C   UNL     1     -11.897  16.357  72.304  1.00  0.00    -0.531 A  
HETATM   18  H2  UNL     1     -12.981  15.231  74.909  1.00  0.00     0.000 HD 
HETATM   19  H1  UNL     1     -12.930  16.869  74.685  1.00  0.00     0.000 HD 
HETATM   20  C   UNL     1     -11.442  15.950  71.042  1.00  0.00    -0.461 A  
ENDBRANCH   9  12
ENDBRANCH   7   9
ENDBRANCH   4   7
TORSDOF 3
ENDMDL
MODEL       18
REMARK 921   NORMALIZED FREE ENERGY PREDICTED BY IDOCK:   -5.64 KCAL/MOL
REMARK 922        TOTAL FREE ENERGY PREDICTED BY IDOCK:   -7.09 KCAL/MOL
REMARK 923 INTER-LIGAND FREE ENERGY PREDICTED BY IDOCK:   -6.75 KCAL/MOL
REMARK 924 INTRA-LIGAND FREE ENERGY PREDICTED BY IDOCK:   -0.35 KCAL/MOL
REMARK 927      BINDING AFFINITY PREDICTED BY RF-SCORE:    0.00 PKD
ROOT
HETATM    1  C   UNL     1     -13.891  13.136  72.305  1.00  0.00    -0.586 C  
HETATM    2  C   UNL     1     -13.203  14.274  71.668  1.00  0.00    -0.356 A  
HETATM    3  C   UNL     1     -13.012  14.668  70.367  1.00  0.00    -0.249 A  
HETATM    4  C   UNL     1     -12.226  15.830  70.470  1.00  0.00    -0.363 A  
HETATM    5  O   UNL     1     -12.573  15.151  72.497  1.00  0.00    -0.316 OA 
HETATM    6  N   UNL     1     -11.916  16.110  71.737  1.00  0.00    -0.500 NA 
ENDROOT
BRANCH   4   7
HETATM    7  N   UNL     1     -11.684  16.535  69.405  1.00  0.00    -0.173 N  
HETATM    8  H   UNL     1     -12.086  17.424  69.109  1.00  0.00     0.000 HD 
BRANCH   7   9
HETATM    9  S   UNL     1     -10.342  15.883  68.608  1.00  0.00    -0.240 S  
HETATM   10  O   UNL     1      -9.460  16.998  68.320  1.00  0.00    -0.249 OA 
HETATM   11  O   UNL     1      -9.883  14.727  69.347  1.00  0.00    -0.168 OA 
BRANCH   9  12
HETATM   12  C   UNL     1     -10.980  15.334  67.036  1.00  0.00    -0.324 A  
HETATM   13  C   UNL     1     -10.648  16.038  65.872  1.00  0.00    -0.338 A  
HETATM   14  C   UNL     1     -11.111  15.586  64.633  1.00  0.00    -0.373 A  
HETATM   15  C   UNL     1     -11.925  14.453  64.540  1.00  0.00    -0.472 A  
HETATM   16  N   UNL     1     -12.279  13.944  63.286  1.00  0.00    -1.111 NA 
HETATM   17  C   UNL     1     -12.174  13.712  65.699  1.00  0.00    -0.490 A  
HETATM   18  H2  UNL     1     -11.425  13.772  62.756  1.00  0.00     0.000 HD 
HETATM   19  H1  UNL     1     -12.872  13.117  63.218  1.00  0.00     0.000 HD 
HETATM   20  C   UNL     1     -11.726  14.157  66.951  1.00  0.00    -0.437 A  
ENDBRANCH   9  12
ENDBRANCH   7   9
ENDBRANCH   4   7
TORSDOF 3
ENDMDL
MODEL       19
REMARK 921   NORMALIZED FREE ENERGY PREDICTED BY IDOCK:   -5.62 KCAL/MOL
REMARK 922        TOTAL FREE ENERGY PREDICTED BY IDOCK:   -7.07 KCAL/MOL
REMARK 923 INTER-LIGAND FREE ENERGY PREDICTED BY IDOCK:   -6.66 KCAL/MOL
REMARK 924 INTRA-LIGAND FREE ENERGY PREDICTED BY IDOCK:   -0.40 KCAL/MOL
REMARK 927      BINDING AFFINITY PREDICTED BY RF-SCORE:    0.00 PKD
ROOT
HETATM    1  C   UNL     1     -11.645  11.652  69.689  1.00  0.00    -0.401 C  
HETATM    2  C   UNL     1     -11.837  12.339  68.398  1.00  0.00    -0.304 A  
HETATM    3  C   UNL     1     -11.908  13.656  68.018  1.00  0.00    -0.397 A  
HETATM    4  C   UNL     1     -12.147  13.603  66.633  1.00  0.00    -0.411 A  
HETATM    5  O   UNL     1     -12.018  11.548  67.305  1.00  0.00    -0.605 OA 
HETATM    6  N   UNL     1     -12.260  12.348  66.196  1.00  0.00    -0.609 NA 
ENDROOT
BRANCH   4   7
HETATM    7  N   UNL     1     -12.401  14.695  65.816  1.00  0.00    -0.199 N  
HETATM    8  H   UNL     1     -13.334  15.104  65.766  1.00  0.00     0.000 HD 
BRANCH   7   9
HETATM    9  S   UNL     1     -11.126  15.333  64.904  1.00  0.00    -0.399 S  
HETATM   10  O   UNL     1     -10.307  14.205  64.506  1.00  0.00    -0.390 OA 
HETATM   11  O   UNL     1     -11.673  16.252  63.929  1.00  0.00    -0.986 OA 
BRANCH   9  12
HETATM   12  C   UNL     1     -10.160  16.263  66.079  1.00  0.00    -0.356 A  
HETATM   13  C   UNL     1      -8.768  16.110  66.101  1.00  0.00    -0.358 A  
HETATM   14  C   UNL     1      -8.002  16.869  66.991  1.00  0.00    -0.228 A  
HETATM   15  C   UNL     1      -8.608  17.762  67.880  1.00  0.00    -0.250 A  
HETATM   16  N   UNL     1      -7.822  18.601  68.677  1.00  0.00    -0.322 NA 
HETATM   17  C   UNL     1      -9.988  17.968  67.783  1.00  0.00    -0.329 A  
HETATM   18  H2  UNL     1      -7.194  19.127  68.070  1.00  0.00     0.000 HD 
HETATM   19  H1  UNL     1      -8.264  19.253  69.325  1.00  0.00     0.000 HD 
HETATM   20  C   UNL     1     -10.771  17.207  66.904  1.00  0.00    -0.121 A  
ENDBRANCH   9  12
ENDBRANCH   7   9
ENDBRANCH   4   7
TORSDOF 3
ENDMDL
MODEL       20
REMARK 921   NORMALIZED FREE ENERGY PREDICTED BY IDOCK:   -5.54 KCAL/MOL
REMARK 922        TOTAL FREE ENERGY PREDICTED BY IDOCK:   -6.98 KCAL/MOL
REMARK 923 INTER-LIGAND FREE ENERGY PREDICTED BY IDOCK:   -6.90 KCAL/MOL
REMARK 924 INTRA-LIGAND FREE ENERGY PREDICTED BY IDOCK:   -0.08 KCAL/MOL
REMARK 927      BINDING AFFINITY PREDICTED BY RF-SCORE:    0.00 PKD
ROOT
HETATM    1  C   UNL     1     -12.507  15.821  74.249  1.00  0.00    -0.800 C  
HETATM    2  C   UNL     1     -12.626  15.503  72.815  1.00  0.00    -0.416 A  
HETATM    3  C   UNL     1     -12.068  16.019  71.672  1.00  0.00    -0.537 A  
HETATM    4  C   UNL     1     -12.651  15.270  70.634  1.00  0.00    -0.417 A  
HETATM    5  O   UNL     1     -13.486  14.503  72.479  1.00  0.00    -0.411 OA 
HETATM    6  N   UNL     1     -13.538  14.386  71.096  1.00  0.00    -0.329 NA 
ENDROOT
BRANCH   4   7
HETATM    7  N   UNL     1     -12.476  15.499  69.277  1.00  0.00    -0.593 N  
HETATM    8  H   UNL     1     -13.249  15.831  68.699  1.00  0.00     0.000 HD 
BRANCH   7   9
HETATM    9  S   UNL     1     -10.950  15.216  68.602  1.00  0.00    -0.269 S  
HETATM   10  O   UNL     1     -10.052  14.977  69.715  1.00  0.00    -0.184 OA 
HETATM   11  O   UNL     1     -11.093  14.259  67.527  1.00  0.00    -0.282 OA 
BRANCH   9  12
HETATM   12  C   UNL     1     -10.474  16.786  67.903  1.00  0.00    -0.335 A  
HETATM   13  C   UNL     1     -10.269  16.893  66.522  1.00  0.00    -0.320 A  
HETATM   14  C   UNL     1      -9.938  18.131  65.965  1.00  0.00    -0.220 A  
HETATM   15  C   UNL     1      -9.783  19.264  66.770  1.00  0.00    -0.341 A  
HETATM   16  N   UNL     1      -9.572  20.517  66.186  1.00  0.00    -0.648 NA 
HETATM   17  C   UNL     1     -10.078  19.160  68.133  1.00  0.00    -0.486 A  
HETATM   18  H2  UNL     1     -10.326  20.694  65.523  1.00  0.00     0.000 HD 
HETATM   19  H1  UNL     1      -9.459  21.343  66.774  1.00  0.00     0.000 HD 
HETATM   20  C   UNL     1     -10.400  17.923  68.709  1.00  0.00    -0.311 A  
ENDBRANCH   9  12
ENDBRANCH   7   9
ENDBRANCH   4   7
TORSDOF 3
ENDMDL
MODEL       21
REMARK 921   NORMALIZED FREE ENERGY PREDICTED BY IDOCK:   -5.54 KCAL/MOL
REMARK 922        TOTAL FREE ENERGY PREDICTED BY IDOCK:   -6.98 KCAL/MOL
REMARK 923 INTER-LIGAND FREE ENERGY PREDICTED BY IDOCK:   -6.80 KCAL/MOL
REMARK 924 INTRA-LIGAND FREE ENERGY PREDICTED BY IDOCK:   -0.18 KCAL/MOL
REMARK 927      BINDING AFFINITY PREDICTED BY RF-SCORE:    0.00 PKD
ROOT
HETATM    1  C   UNL     1     -10.660  19.672  67.181  1.00  0.00    -0.611 C  
HETATM    2  C   UNL     1     -10.566  18.264  66.754  1.00  0.00    -0.312 A  
HETATM    3  C   UNL     1     -10.494  17.066  67.422  1.00  0.00    -0.322 A  
HETATM    4  C   UNL     1     -10.380  16.107  66.399  1.00  0.00    -0.315 A  
HETATM    5  O   UNL     1     -10.504  18.033  65.415  1.00  0.00    -0.621 OA 
HETATM    6  N   UNL     1     -10.340  16.672  65.190  1.00  0.00    -0.631 NA 
ENDROOT
BRANCH   4   7
HETATM    7  N   UNL     1     -10.171  14.749  66.586  1.00  0.00    -0.264 N  
HETATM    8  H   UNL     1      -9.270  14.400  66.914  1.00  0.00     0.000 HD 
BRANCH   7   9
HETATM    9  S   UNL     1     -11.445  13.685  66.258  1.00  0.00    -0.347 S  
HETATM   10  O   UNL     1     -11.798  13.071  67.524  1.00  0.00    -0.358 OA 
HETATM   11  O   UNL     1     -12.428  14.377  65.453  1.00  0.00    -0.407 OA 
BRANCH   9  12
HETATM   12  C   UNL     1     -10.706  12.398  65.268  1.00  0.00    -0.287 A  
HETATM   13  C   UNL     1     -10.508  11.128  65.824  1.00  0.00    -0.305 A  
HETATM   14  C   UNL     1      -9.969  10.106  65.039  1.00  0.00    -0.375 A  
HETATM   15  C   UNL     1      -9.600  10.337  63.710  1.00  0.00    -0.284 A  
HETATM   16  N   UNL     1      -9.176   9.276  62.904  1.00  0.00    -0.512 NA 
HETATM   17  C   UNL     1      -9.886  11.584  63.146  1.00  0.00    -0.413 A  
HETATM   18  H2  UNL     1      -9.898   8.555  62.916  1.00  0.00     0.000 HD 
HETATM   19  H1  UNL     1      -8.907   9.445  61.934  1.00  0.00     0.000 HD 
HETATM   20  C   UNL     1     -10.416  12.624  63.922  1.00  0.00    -0.441 A  
ENDBRANCH   9  12
ENDBRANCH   7   9
ENDBRANCH   4   7
TORSDOF 3
ENDMDL
MODEL       22
REMARK 921   NORMALIZED FREE ENERGY PREDICTED BY IDOCK:   -5.52 KCAL/MOL
REMARK 922        TOTAL FREE ENERGY PREDICTED BY IDOCK:   -6.96 KCAL/MOL
REMARK 923 INTER-LIGAND FREE ENERGY PREDICTED BY IDOCK:   -6.56 KCAL/MOL
REMARK 924 INTRA-LIGAND FREE ENERGY PREDICTED BY IDOCK:   -0.39 KCAL/MOL
REMARK 927      BINDING AFFINITY PREDICTED BY RF-SCORE:    0.00 PKD
ROOT
HETATM    1  C   UNL     1      -9.016   9.000  65.734  1.00  0.00    -0.242 C  
HETATM    2  C   UNL     1      -9.411  10.250  65.058  1.00  0.00    -0.257 A  
HETATM    3  C   UNL     1      -9.737  11.510  65.495  1.00  0.00    -0.259 A  
HETATM    4  C   UNL     1     -10.056  12.211  64.318  1.00  0.00    -0.290 A  
HETATM    5  O   UNL     1      -9.523  10.204  63.703  1.00  0.00    -0.282 OA 
HETATM    6  N   UNL     1      -9.976  11.432  63.238  1.00  0.00    -0.379 NA 
ENDROOT
BRANCH   4   7
HETATM    7  N   UNL     1     -10.551  13.505  64.260  1.00  0.00    -0.549 N  
HETATM    8  H   UNL     1     -10.024  14.246  63.798  1.00  0.00     0.000 HD 
BRANCH   7   9
HETATM    9  S   UNL     1     -12.052  13.827  64.974  1.00  0.00    -0.429 S  
HETATM   10  O   UNL     1     -12.575  15.004  64.308  1.00  0.00    -0.677 OA 
HETATM   11  O   UNL     1     -12.806  12.594  65.034  1.00  0.00    -0.765 OA 
BRANCH   9  12
HETATM   12  C   UNL     1     -11.654  14.329  66.638  1.00  0.00    -0.383 A  
HETATM   13  C   UNL     1     -12.015  13.506  67.712  1.00  0.00    -0.369 A  
HETATM   14  C   UNL     1     -11.668  13.875  69.014  1.00  0.00    -0.378 A  
HETATM   15  C   UNL     1     -10.985  15.069  69.266  1.00  0.00    -0.264 A  
HETATM   16  N   UNL     1     -10.539  15.364  70.558  1.00  0.00    -0.465 NA 
HETATM   17  C   UNL     1     -10.555  15.834  68.177  1.00  0.00    -0.275 A  
HETATM   18  H2  UNL     1      -9.962  14.589  70.884  1.00  0.00     0.000 HD 
HETATM   19  H1  UNL     1     -10.041  16.236  70.741  1.00  0.00     0.000 HD 
HETATM   20  C   UNL     1     -10.904  15.484  66.865  1.00  0.00    -0.301 A  
ENDBRANCH   9  12
ENDBRANCH   7   9
ENDBRANCH   4   7
TORSDOF 3
ENDMDL
MODEL       23
REMARK 921   NORMALIZED FREE ENERGY PREDICTED BY IDOCK:   -5.51 KCAL/MOL
REMARK 922        TOTAL FREE ENERGY PREDICTED BY IDOCK:   -6.94 KCAL/MOL
REMARK 923 INTER-LIGAND FREE ENERGY PREDICTED BY IDOCK:   -6.60 KCAL/MOL
REMARK 924 INTRA-LIGAND FREE ENERGY PREDICTED BY IDOCK:   -0.35 KCAL/MOL
REMARK 927      BINDING AFFINITY PREDICTED BY RF-SCORE:    0.00 PKD
ROOT
HETATM    1  C   UNL     1     -10.844  11.531  64.043  1.00  0.00    -0.453 C  
HETATM    2  C   UNL     1     -11.328  12.257  65.231  1.00  0.00    -0.338 A  
HETATM    3  C   UNL     1     -11.496  13.585  65.536  1.00  0.00    -0.320 A  
HETATM    4  C   UNL     1     -11.960  13.579  66.864  1.00  0.00    -0.399 A  
HETATM    5  O   UNL     1     -11.675  11.504  66.310  1.00  0.00    -0.384 OA 
HETATM    6  N   UNL     1     -12.031  12.342  67.359  1.00  0.00    -0.544 NA 
ENDROOT
BRANCH   4   7
HETATM    7  N   UNL     1     -12.173  14.702  67.649  1.00  0.00    -0.587 N  
HETATM    8  H   UNL     1     -13.055  15.213  67.602  1.00  0.00     0.000 HD 
BRANCH   7   9
HETATM    9  S   UNL     1     -10.936  15.205  68.688  1.00  0.00    -0.269 S  
HETATM   10  O   UNL     1     -11.543  15.367  69.995  1.00  0.00    -0.271 OA 
HETATM   11  O   UNL     1      -9.789  14.346  68.488  1.00  0.00    -0.223 OA 
BRANCH   9  12
HETATM   12  C   UNL     1     -10.521  16.845  68.123  1.00  0.00    -0.350 A  
HETATM   13  C   UNL     1     -10.529  17.125  66.751  1.00  0.00    -0.263 A  
HETATM   14  C   UNL     1     -10.246  18.419  66.307  1.00  0.00    -0.427 A  
HETATM   15  C   UNL     1      -9.930  19.437  67.211  1.00  0.00    -0.366 A  
HETATM   16  N   UNL     1      -9.769  20.752  66.761  1.00  0.00    -0.641 NA 
HETATM   17  C   UNL     1     -10.013  19.164  68.580  1.00  0.00    -0.486 A  
HETATM   18  H2  UNL     1     -10.611  21.023  66.253  1.00  0.00     0.000 HD 
HETATM   19  H1  UNL     1      -9.539  21.494  67.422  1.00  0.00     0.000 HD 
HETATM   20  C   UNL     1     -10.284  17.868  69.042  1.00  0.00    -0.274 A  
ENDBRANCH   9  12
ENDBRANCH   7   9
ENDBRANCH   4   7
TORSDOF 3
ENDMDL
MODEL       24
REMARK 921   NORMALIZED FREE ENERGY PREDICTED BY IDOCK:   -5.50 KCAL/MOL
REMARK 922        TOTAL FREE ENERGY PREDICTED BY IDOCK:   -6.93 KCAL/MOL
REMARK 923 INTER-LIGAND FREE ENERGY PREDICTED BY IDOCK:   -6.64 KCAL/MOL
REMARK 924 INTRA-LIGAND FREE ENERGY PREDICTED BY IDOCK:   -0.29 KCAL/MOL
REMARK 927      BINDING AFFINITY PREDICTED BY RF-SCORE:    0.00 PKD
ROOT
HETATM    1  C   UNL     1     -10.744  19.524  66.815  1.00  0.00    -0.569 C  
HETATM    2  C   UNL     1     -10.645  18.086  66.503  1.00  0.00    -0.253 A  
HETATM    3  C   UNL     1     -10.495  16.952  67.262  1.00  0.00    -0.301 A  
HETATM    4  C   UNL     1     -10.431  15.911  66.318  1.00  0.00    -0.318 A  
HETATM    5  O   UNL     1     -10.673  17.742  65.187  1.00  0.00    -0.638 OA 
HETATM    6  N   UNL     1     -10.491  16.370  65.067  1.00  0.00    -0.649 NA 
ENDROOT
BRANCH   4   7
HETATM    7  N   UNL     1     -10.175  14.578  66.603  1.00  0.00    -0.270 N  
HETATM    8  H   UNL     1      -9.262  14.284  66.950  1.00  0.00     0.000 HD 
BRANCH   7   9
HETATM    9  S   UNL     1     -11.414  13.450  66.363  1.00  0.00    -0.344 S  
HETATM   10  O   UNL     1     -12.596  14.213  66.011  1.00  0.00    -0.478 OA 
HETATM   11  O   UNL     1     -10.915  12.393  65.510  1.00  0.00    -0.277 OA 
BRANCH   9  12
HETATM   12  C   UNL     1     -11.720  12.773  67.984  1.00  0.00    -0.356 A  
HETATM   13  C   UNL     1     -12.001  13.636  69.050  1.00  0.00    -0.392 A  
HETATM   14  C   UNL     1     -12.284  13.108  70.313  1.00  0.00    -0.376 A  
HETATM   15  C   UNL     1     -12.266  11.728  70.536  1.00  0.00    -0.347 A  
HETATM   16  N   UNL     1     -12.670  11.211  71.771  1.00  0.00    -0.352 NA 
HETATM   17  C   UNL     1     -12.072  10.878  69.442  1.00  0.00    -0.362 A  
HETATM   18  H2  UNL     1     -13.607  11.557  71.974  1.00  0.00     0.000 HD 
HETATM   19  H1  UNL     1     -12.657  10.204  71.933  1.00  0.00     0.000 HD 
HETATM   20  C   UNL     1     -11.776  11.391  68.172  1.00  0.00    -0.355 A  
ENDBRANCH   9  12
ENDBRANCH   7   9
ENDBRANCH   4   7
TORSDOF 3
ENDMDL
MODEL       25
REMARK 921   NORMALIZED FREE ENERGY PREDICTED BY IDOCK:   -5.42 KCAL/MOL
REMARK 922        TOTAL FREE ENERGY PREDICTED BY IDOCK:   -6.84 KCAL/MOL
REMARK 923 INTER-LIGAND FREE ENERGY PREDICTED BY IDOCK:   -6.60 KCAL/MOL
REMARK 924 INTRA-LIGAND FREE ENERGY PREDICTED BY IDOCK:   -0.24 KCAL/MOL
REMARK 927      BINDING AFFINITY PREDICTED BY RF-SCORE:    0.00 PKD
ROOT
HETATM    1  C   UNL     1     -10.075  11.824  63.238  1.00  0.00    -0.448 C  
HETATM    2  C   UNL     1     -10.795  12.382  64.398  1.00  0.00    -0.337 A  
HETATM    3  C   UNL     1     -11.026  13.656  64.856  1.00  0.00    -0.372 A  
HETATM    4  C   UNL     1     -11.752  13.468  66.046  1.00  0.00    -0.359 A  
HETATM    5  O   UNL     1     -11.353  11.489  65.260  1.00  0.00    -0.207 OA 
HETATM    6  N   UNL     1     -11.919  12.174  66.327  1.00  0.00    -0.613 NA 
ENDROOT
BRANCH   4   7
HETATM    7  N   UNL     1     -12.126  14.469  66.930  1.00  0.00    -0.472 N  
HETATM    8  H   UNL     1     -13.106  14.727  67.044  1.00  0.00     0.000 HD 
BRANCH   7   9
HETATM    9  S   UNL     1     -10.916  15.255  67.814  1.00  0.00    -0.320 S  
HETATM   10  O   UNL     1      -9.731  14.428  67.706  1.00  0.00    -0.215 OA 
HETATM   11  O   UNL     1     -10.901  16.651  67.434  1.00  0.00    -0.287 OA 
BRANCH   9  12
HETATM   12  C   UNL     1     -11.456  15.136  69.510  1.00  0.00    -0.296 A  
HETATM   13  C   UNL     1     -11.205  16.196  70.390  1.00  0.00    -0.394 A  
HETATM   14  C   UNL     1     -11.664  16.125  71.708  1.00  0.00    -0.568 A  
HETATM   15  C   UNL     1     -12.351  14.999  72.171  1.00  0.00    -0.355 A  
HETATM   16  N   UNL     1     -12.908  14.994  73.453  1.00  0.00    -0.516 NA 
HETATM   17  C   UNL     1     -12.670  13.990  71.257  1.00  0.00    -0.439 A  
HETATM   18  H2  UNL     1     -13.523  15.803  73.540  1.00  0.00     0.000 HD 
HETATM   19  H1  UNL     1     -13.409  14.172  73.791  1.00  0.00     0.000 HD 
HETATM   20  C   UNL     1     -12.208  14.040  69.935  1.00  0.00    -0.399 A  
ENDBRANCH   9  12
ENDBRANCH   7   9
ENDBRANCH   4   7
TORSDOF 3
ENDMDL
MODEL       26
REMARK 921   NORMALIZED FREE ENERGY PREDICTED BY IDOCK:   -5.42 KCAL/MOL
REMARK 922        TOTAL FREE ENERGY PREDICTED BY IDOCK:   -6.83 KCAL/MOL
REMARK 923 INTER-LIGAND FREE ENERGY PREDICTED BY IDOCK:   -6.64 KCAL/MOL
REMARK 924 INTRA-LIGAND FREE ENERGY PREDICTED BY IDOCK:   -0.19 KCAL/MOL
REMARK 927      BINDING AFFINITY PREDICTED BY RF-SCORE:    0.00 PKD
ROOT
HETATM    1  C   UNL     1     -11.007   7.867  72.806  1.00  0.00    -0.456 C  
HETATM    2  C   UNL     1     -11.230   8.938  71.817  1.00  0.00    -0.362 A  
HETATM    3  C   UNL     1     -10.462   9.499  70.827  1.00  0.00    -0.384 A  
HETATM    4  C   UNL     1     -11.280  10.507  70.285  1.00  0.00    -0.313 A  
HETATM    5  O   UNL     1     -12.435   9.569  71.860  1.00  0.00    -0.369 OA 
HETATM    6  N   UNL     1     -12.450  10.594  70.921  1.00  0.00    -0.362 NA 
ENDROOT
BRANCH   4   7
HETATM    7  N   UNL     1     -10.896  11.425  69.319  1.00  0.00    -0.337 N  
HETATM    8  H   UNL     1     -11.011  12.426  69.474  1.00  0.00     0.000 HD 
BRANCH   7   9
HETATM    9  S   UNL     1     -10.231  10.844  67.875  1.00  0.00    -0.186 S  
HETATM   10  O   UNL     1      -8.802  11.071  67.965  1.00  0.00    -0.130 OA 
HETATM   11  O   UNL     1     -10.773   9.529  67.615  1.00  0.00    -0.274 OA 
BRANCH   9  12
HETATM   12  C   UNL     1     -10.836  11.963  66.625  1.00  0.00    -0.276 A  
HETATM   13  C   UNL     1     -10.383  11.835  65.306  1.00  0.00    -0.317 A  
HETATM   14  C   UNL     1     -10.887  12.682  64.315  1.00  0.00    -0.411 A  
HETATM   15  C   UNL     1     -11.820  13.676  64.625  1.00  0.00    -0.397 A  
HETATM   16  N   UNL     1     -12.404  14.433  63.605  1.00  0.00    -1.106 NA 
HETATM   17  C   UNL     1     -12.328  13.732  65.927  1.00  0.00    -0.516 A  
HETATM   18  H2  UNL     1     -12.826  13.794  62.931  1.00  0.00     0.000 HD 
HETATM   19  H1  UNL     1     -13.085  15.158  63.831  1.00  0.00     0.000 HD 
HETATM   20  C   UNL     1     -11.825  12.898  66.935  1.00  0.00    -0.444 A  
ENDBRANCH   9  12
ENDBRANCH   7   9
ENDBRANCH   4   7
TORSDOF 3
ENDMDL
MODEL       27
REMARK 921   NORMALIZED FREE ENERGY PREDICTED BY IDOCK:   -5.41 KCAL/MOL
REMARK 922        TOTAL FREE ENERGY PREDICTED BY IDOCK:   -6.82 KCAL/MOL
REMARK 923 INTER-LIGAND FREE ENERGY PREDICTED BY IDOCK:   -6.45 KCAL/MOL
REMARK 924 INTRA-LIGAND FREE ENERGY PREDICTED BY IDOCK:   -0.37 KCAL/MOL
REMARK 927      BINDING AFFINITY PREDICTED BY RF-SCORE:    0.00 PKD
ROOT
HETATM    1  C   UNL     1     -12.012  15.304  72.906  1.00  0.00    -0.519 C  
HETATM    2  C   UNL     1     -11.962  15.174  71.438  1.00  0.00    -0.350 A  
HETATM    3  C   UNL     1     -11.409  15.925  70.431  1.00  0.00    -0.399 A  
HETATM    4  C   UNL     1     -11.774  15.246  69.254  1.00  0.00    -0.338 A  
HETATM    5  O   UNL     1     -12.614  14.110  70.896  1.00  0.00    -0.321 OA 
HETATM    6  N   UNL     1     -12.534  14.180  69.511  1.00  0.00    -0.228 NA 
ENDROOT
BRANCH   4   7
HETATM    7  N   UNL     1     -11.532  15.686  67.961  1.00  0.00    -0.328 N  
HETATM    8  H   UNL     1     -12.152  16.362  67.515  1.00  0.00     0.000 HD 
BRANCH   7   9
HETATM    9  S   UNL     1     -10.184  15.075  67.141  1.00  0.00    -0.252 S  
HETATM   10  O   UNL     1      -9.555  16.209  66.493  1.00  0.00    -0.232 OA 
HETATM   11  O   UNL     1      -9.448  14.215  68.042  1.00  0.00    -0.200 OA 
BRANCH   9  12
HETATM   12  C   UNL     1     -10.873  14.073  65.837  1.00  0.00    -0.288 A  
HETATM   13  C   UNL     1     -10.026  13.528  64.864  1.00  0.00    -0.176 A  
HETATM   14  C   UNL     1     -10.556  12.707  63.866  1.00  0.00    -0.460 A  
HETATM   15  C   UNL     1     -11.927  12.440  63.806  1.00  0.00    -0.514 A  
HETATM   16  N   UNL     1     -12.425  11.522  62.876  1.00  0.00    -0.867 NA 
HETATM   17  C   UNL     1     -12.745  12.918  64.835  1.00  0.00    -0.474 A  
HETATM   18  H2  UNL     1     -11.930  10.638  63.000  1.00  0.00     0.000 HD 
HETATM   19  H1  UNL     1     -13.425  11.327  62.834  1.00  0.00     0.000 HD 
HETATM   20  C   UNL     1     -12.232  13.752  65.838  1.00  0.00    -0.501 A  
ENDBRANCH   9  12
ENDBRANCH   7   9
ENDBRANCH   4   7
TORSDOF 3
ENDMDL
MODEL       28
REMARK 921   NORMALIZED FREE ENERGY PREDICTED BY IDOCK:   -5.38 KCAL/MOL
REMARK 922        TOTAL FREE ENERGY PREDICTED BY IDOCK:   -6.79 KCAL/MOL
REMARK 923 INTER-LIGAND FREE ENERGY PREDICTED BY IDOCK:   -6.48 KCAL/MOL
REMARK 924 INTRA-LIGAND FREE ENERGY PREDICTED BY IDOCK:   -0.31 KCAL/MOL
REMARK 927      BINDING AFFINITY PREDICTED BY RF-SCORE:    0.00 PKD
ROOT
HETATM    1  C   UNL     1      -9.972  18.393  67.640  1.00  0.00    -0.355 C  
HETATM    2  C   UNL     1     -10.520  17.194  68.300  1.00  0.00    -0.373 A  
HETATM    3  C   UNL     1     -11.152  16.061  67.851  1.00  0.00    -0.307 A  
HETATM    4  C   UNL     1     -11.446  15.342  69.023  1.00  0.00    -0.324 A  
HETATM    5  O   UNL     1     -10.438  17.152  69.657  1.00  0.00    -0.232 OA 
HETATM    6  N   UNL     1     -11.066  16.001  70.119  1.00  0.00    -0.347 NA 
ENDROOT
BRANCH   4   7
HETATM    7  N   UNL     1     -12.183  14.169  69.087  1.00  0.00    -0.500 N  
HETATM    8  H   UNL     1     -13.160  14.181  69.379  1.00  0.00     0.000 HD 
BRANCH   7   9
HETATM    9  S   UNL     1     -11.423  12.716  68.668  1.00  0.00    -0.331 S  
HETATM   10  O   UNL     1     -12.099  12.231  67.480  1.00  0.00    -0.514 OA 
HETATM   11  O   UNL     1      -9.991  12.922  68.692  1.00  0.00    -0.191 OA 
BRANCH   9  12
HETATM   12  C   UNL     1     -11.856  11.592  69.983  1.00  0.00    -0.355 A  
HETATM   13  C   UNL     1     -12.889  11.929  70.866  1.00  0.00    -0.220 A  
HETATM   14  C   UNL     1     -13.260  11.032  71.872  1.00  0.00    -0.503 A  
HETATM   15  C   UNL     1     -12.598   9.811  72.027  1.00  0.00    -0.347 A  
HETATM   16  N   UNL     1     -13.060   8.875  72.957  1.00  0.00    -0.783 NA 
HETATM   17  C   UNL     1     -11.631   9.452  71.083  1.00  0.00    -0.415 A  
HETATM   18  H2  UNL     1     -14.043   8.685  72.763  1.00  0.00     0.000 HD 
HETATM   19  H1  UNL     1     -12.577   7.983  73.070  1.00  0.00     0.000 HD 
HETATM   20  C   UNL     1     -11.239  10.344  70.075  1.00  0.00    -0.385 A  
ENDBRANCH   9  12
ENDBRANCH   7   9
ENDBRANCH   4   7
TORSDOF 3
ENDMDL
MODEL       29
REMARK 921   NORMALIZED FREE ENERGY PREDICTED BY IDOCK:   -5.37 KCAL/MOL
REMARK 922        TOTAL FREE ENERGY PREDICTED BY IDOCK:   -6.78 KCAL/MOL
REMARK 923 INTER-LIGAND FREE ENERGY PREDICTED BY IDOCK:   -6.38 KCAL/MOL
REMARK 924 INTRA-LIGAND FREE ENERGY PREDICTED BY IDOCK:   -0.40 KCAL/MOL
REMARK 927      BINDING AFFINITY PREDICTED BY RF-SCORE:    0.00 PKD
ROOT
HETATM    1  C   UNL     1      -9.896  18.113  68.185  1.00  0.00    -0.350 C  
HETATM    2  C   UNL     1     -10.607  16.835  68.376  1.00  0.00    -0.354 A  
HETATM    3  C   UNL     1     -10.907  15.777  67.555  1.00  0.00    -0.315 A  
HETATM    4  C   UNL     1     -11.645  14.903  68.374  1.00  0.00    -0.325 A  
HETATM    5  O   UNL     1     -11.130  16.605  69.611  1.00  0.00    -0.289 OA 
HETATM    6  N   UNL     1     -11.827  15.403  69.597  1.00  0.00    -0.327 NA 
ENDROOT
BRANCH   4   7
HETATM    7  N   UNL     1     -12.263  13.734  67.955  1.00  0.00    -0.438 N  
HETATM    8  H   UNL     1     -13.208  13.751  67.571  1.00  0.00     0.000 HD 
BRANCH   7   9
HETATM    9  S   UNL     1     -11.413  12.277  68.097  1.00  0.00    -0.337 S  
HETATM   10  O   UNL     1     -10.136  12.609  68.697  1.00  0.00    -0.206 OA 
HETATM   11  O   UNL     1     -12.290  11.288  68.684  1.00  0.00    -0.534 OA 
BRANCH   9  12
HETATM   12  C   UNL     1     -11.065  11.799  66.414  1.00  0.00    -0.307 A  
HETATM   13  C   UNL     1     -11.683  12.485  65.361  1.00  0.00    -0.444 A  
HETATM   14  C   UNL     1     -11.380  12.142  64.040  1.00  0.00    -0.468 A  
HETATM   15  C   UNL     1     -10.487  11.105  63.753  1.00  0.00    -0.381 A  
HETATM   16  N   UNL     1     -10.103  10.855  62.431  1.00  0.00    -0.617 NA 
HETATM   17  C   UNL     1      -9.813  10.492  64.813  1.00  0.00    -0.387 A  
HETATM   18  H2  UNL     1      -9.732  11.719  62.035  1.00  0.00     0.000 HD 
HETATM   19  H1  UNL     1      -9.451  10.099  62.222  1.00  0.00     0.000 HD 
HETATM   20  C   UNL     1     -10.113  10.816  66.144  1.00  0.00    -0.297 A  
ENDBRANCH   9  12
ENDBRANCH   7   9
ENDBRANCH   4   7
TORSDOF 3
ENDMDL
MODEL       30
REMARK 921   NORMALIZED FREE ENERGY PREDICTED BY IDOCK:   -5.34 KCAL/MOL
REMARK 922        TOTAL FREE ENERGY PREDICTED BY IDOCK:   -6.74 KCAL/MOL
REMARK 923 INTER-LIGAND FREE ENERGY PREDICTED BY IDOCK:   -6.31 KCAL/MOL
REMARK 924 INTRA-LIGAND FREE ENERGY PREDICTED BY IDOCK:   -0.43 KCAL/MOL
REMARK 927      BINDING AFFINITY PREDICTED BY RF-SCORE:    0.00 PKD
ROOT
HETATM    1  C   UNL     1     -12.968  11.778  71.693  1.00  0.00    -0.467 C  
HETATM    2  C   UNL     1     -12.166  11.272  70.564  1.00  0.00    -0.383 A  
HETATM    3  C   UNL     1     -12.028  11.641  69.249  1.00  0.00    -0.382 A  
HETATM    4  C   UNL     1     -11.125  10.702  68.720  1.00  0.00    -0.265 A  
HETATM    5  O   UNL     1     -11.388  10.182  70.806  1.00  0.00    -0.318 OA 
HETATM    6  N   UNL     1     -10.765   9.792  69.627  1.00  0.00    -0.229 NA 
ENDROOT
BRANCH   4   7
HETATM    7  N   UNL     1     -10.755  10.601  67.387  1.00  0.00    -0.256 N  
HETATM    8  H   UNL     1     -11.228   9.950  66.761  1.00  0.00     0.000 HD 
BRANCH   7   9
HETATM    9  S   UNL     1      -9.498  11.584  66.822  1.00  0.00    -0.193 S  
HETATM   10  O   UNL     1      -8.866  12.150  67.998  1.00  0.00    -0.167 OA 
HETATM   11  O   UNL     1      -8.740  10.843  65.839  1.00  0.00    -0.176 OA 
BRANCH   9  12
HETATM   12  C   UNL     1     -10.324  12.935  66.001  1.00  0.00    -0.283 A  
HETATM   13  C   UNL     1      -9.722  14.199  65.976  1.00  0.00    -0.297 A  
HETATM   14  C   UNL     1     -10.345  15.249  65.297  1.00  0.00    -0.430 A  
HETATM   15  C   UNL     1     -11.576  15.064  64.661  1.00  0.00    -0.386 A  
HETATM   16  N   UNL     1     -12.126  16.089  63.885  1.00  0.00    -1.257 NA 
HETATM   17  C   UNL     1     -12.120  13.777  64.620  1.00  0.00    -0.452 A  
HETATM   18  H2  UNL     1     -11.440  16.365  63.182  1.00  0.00     0.000 HD 
HETATM   19  H1  UNL     1     -13.025  15.954  63.421  1.00  0.00     0.000 HD 
HETATM   20  C   UNL     1     -11.513  12.715  65.305  1.00  0.00    -0.368 A  
ENDBRANCH   9  12
ENDBRANCH   7   9
ENDBRANCH   4   7
TORSDOF 3
ENDMDL
MODEL       31
REMARK 921   NORMALIZED FREE ENERGY PREDICTED BY IDOCK:   -5.34 KCAL/MOL
REMARK 922        TOTAL FREE ENERGY PREDICTED BY IDOCK:   -6.74 KCAL/MOL
REMARK 923 INTER-LIGAND FREE ENERGY PREDICTED BY IDOCK:   -6.43 KCAL/MOL
REMARK 924 INTRA-LIGAND FREE ENERGY PREDICTED BY IDOCK:   -0.30 KCAL/MOL
REMARK 927      BINDING AFFINITY PREDICTED BY RF-SCORE:    0.00 PKD
ROOT
HETATM    1  C   UNL     1     -12.950   6.847  71.730  1.00  0.00    -0.326 C  
HETATM    2  C   UNL     1     -12.082   7.895  71.162  1.00  0.00    -0.276 A  
HETATM    3  C   UNL     1     -11.943   9.243  71.381  1.00  0.00    -0.424 A  
HETATM    4  C   UNL     1     -10.955   9.642  70.463  1.00  0.00    -0.313 A  
HETATM    5  O   UNL     1     -11.226   7.512  70.176  1.00  0.00    -0.259 OA 
HETATM    6  N   UNL     1     -10.545   8.626  69.701  1.00  0.00    -0.222 NA 
ENDROOT
BRANCH   4   7
HETATM    7  N   UNL     1     -10.546  10.947  70.235  1.00  0.00    -0.333 N  
HETATM    8  H   UNL     1      -9.709  11.319  70.683  1.00  0.00     0.000 HD 
BRANCH   7   9
HETATM    9  S   UNL     1     -11.471  11.911  69.195  1.00  0.00    -0.319 S  
HETATM   10  O   UNL     1     -10.527  12.672  68.400  1.00  0.00    -0.228 OA 
HETATM   11  O   UNL     1     -12.483  11.082  68.577  1.00  0.00    -0.440 OA 
BRANCH   9  12
HETATM   12  C   UNL     1     -12.277  13.081  70.272  1.00  0.00    -0.296 A  
HETATM   13  C   UNL     1     -12.847  12.637  71.471  1.00  0.00    -0.368 A  
HETATM   14  C   UNL     1     -13.441  13.557  72.338  1.00  0.00    -0.685 A  
HETATM   15  C   UNL     1     -13.500  14.916  72.015  1.00  0.00    -0.388 A  
HETATM   16  N   UNL     1     -13.988  15.838  72.946  1.00  0.00    -0.611 NA 
HETATM   17  C   UNL     1     -12.849  15.355  70.858  1.00  0.00    -0.536 A  
HETATM   18  H2  UNL     1     -13.457  15.736  73.810  1.00  0.00     0.000 HD 
HETATM   19  H1  UNL     1     -14.030  16.830  72.710  1.00  0.00     0.000 HD 
HETATM   20  C   UNL     1     -12.257  14.444  69.972  1.00  0.00    -0.408 A  
ENDBRANCH   9  12
ENDBRANCH   7   9
ENDBRANCH   4   7
TORSDOF 3
ENDMDL
MODEL       32
REMARK 921   NORMALIZED FREE ENERGY PREDICTED BY IDOCK:   -5.33 KCAL/MOL
REMARK 922        TOTAL FREE ENERGY PREDICTED BY IDOCK:   -6.73 KCAL/MOL
REMARK 923 INTER-LIGAND FREE ENERGY PREDICTED BY IDOCK:   -6.64 KCAL/MOL
REMARK 924 INTRA-LIGAND FREE ENERGY PREDICTED BY IDOCK:   -0.09 KCAL/MOL
REMARK 927      BINDING AFFINITY PREDICTED BY RF-SCORE:    0.00 PKD
ROOT
HETATM    1  C   UNL     1      -7.163  20.899  67.613  1.00  0.00    -0.309 C  
HETATM    2  C   UNL     1      -8.386  20.119  67.351  1.00  0.00    -0.338 A  
HETATM    3  C   UNL     1      -8.748  18.811  67.560  1.00  0.00    -0.292 A  
HETATM    4  C   UNL     1     -10.051  18.726  67.036  1.00  0.00    -0.358 A  
HETATM    5  O   UNL     1      -9.412  20.775  66.744  1.00  0.00    -0.259 OA 
HETATM    6  N   UNL     1     -10.449  19.882  66.502  1.00  0.00    -0.476 NA 
ENDROOT
BRANCH   4   7
HETATM    7  N   UNL     1     -10.799  17.564  66.922  1.00  0.00    -0.114 N  
HETATM    8  H   UNL     1     -11.593  17.391  67.538  1.00  0.00     0.000 HD 
BRANCH   7   9
HETATM    9  S   UNL     1     -10.364  16.438  65.735  1.00  0.00    -0.335 S  
HETATM   10  O   UNL     1     -11.186  16.731  64.577  1.00  0.00    -0.997 OA 
HETATM   11  O   UNL     1      -8.921  16.396  65.648  1.00  0.00    -0.427 OA 
BRANCH   9  12
HETATM   12  C   UNL     1     -10.939  14.875  66.373  1.00  0.00    -0.336 A  
HETATM   13  C   UNL     1     -11.057  13.779  65.510  1.00  0.00    -0.300 A  
HETATM   14  C   UNL     1     -11.465  12.541  66.014  1.00  0.00    -0.423 A  
HETATM   15  C   UNL     1     -11.784  12.385  67.367  1.00  0.00    -0.347 A  
HETATM   16  N   UNL     1     -12.073  11.116  67.878  1.00  0.00    -0.631 NA 
HETATM   17  C   UNL     1     -11.575  13.465  68.230  1.00  0.00    -0.379 A  
HETATM   18  H2  UNL     1     -11.294  10.495  67.657  1.00  0.00     0.000 HD 
HETATM   19  H1  UNL     1     -12.304  11.002  68.865  1.00  0.00     0.000 HD 
HETATM   20  C   UNL     1     -11.177  14.716  67.739  1.00  0.00    -0.320 A  
ENDBRANCH   9  12
ENDBRANCH   7   9
ENDBRANCH   4   7
TORSDOF 3
ENDMDL
MODEL       33
REMARK 921   NORMALIZED FREE ENERGY PREDICTED BY IDOCK:   -5.32 KCAL/MOL
REMARK 922        TOTAL FREE ENERGY PREDICTED BY IDOCK:   -6.72 KCAL/MOL
REMARK 923 INTER-LIGAND FREE ENERGY PREDICTED BY IDOCK:   -6.42 KCAL/MOL
REMARK 924 INTRA-LIGAND FREE ENERGY PREDICTED BY IDOCK:   -0.30 KCAL/MOL
REMARK 927      BINDING AFFINITY PREDICTED BY RF-SCORE:    0.00 PKD
ROOT
HETATM    1  C   UNL     1      -7.063  20.556  67.544  1.00  0.00    -0.370 C  
HETATM    2  C   UNL     1      -8.192  19.610  67.481  1.00  0.00    -0.297 A  
HETATM    3  C   UNL     1      -8.450  18.478  66.749  1.00  0.00    -0.290 A  
HETATM    4  C   UNL     1      -9.738  18.088  67.157  1.00  0.00    -0.297 A  
HETATM    5  O   UNL     1      -9.260  19.877  68.282  1.00  0.00    -0.328 OA 
HETATM    6  N   UNL     1     -10.258  18.940  68.044  1.00  0.00    -0.372 NA 
ENDROOT
BRANCH   4   7
HETATM    7  N   UNL     1     -10.477  17.048  66.613  1.00  0.00    -0.288 N  
HETATM    8  H   UNL     1     -10.935  17.150  65.708  1.00  0.00     0.000 HD 
BRANCH   7   9
HETATM    9  S   UNL     1     -10.602  15.604  67.488  1.00  0.00    -0.301 S  
HETATM   10  O   UNL     1      -9.256  15.267  67.908  1.00  0.00    -0.182 OA 
HETATM   11  O   UNL     1     -11.681  15.735  68.442  1.00  0.00    -0.366 OA 
BRANCH   9  12
HETATM   12  C   UNL     1     -11.065  14.386  66.271  1.00  0.00    -0.331 A  
HETATM   13  C   UNL     1     -12.387  13.925  66.225  1.00  0.00    -0.489 A  
HETATM   14  C   UNL     1     -12.765  13.003  65.246  1.00  0.00    -0.432 A  
HETATM   15  C   UNL     1     -11.836  12.511  64.324  1.00  0.00    -0.395 A  
HETATM   16  N   UNL     1     -12.256  11.683  63.278  1.00  0.00    -0.917 NA 
HETATM   17  C   UNL     1     -10.545  13.046  64.328  1.00  0.00    -0.434 A  
HETATM   18  H2  UNL     1     -12.995  12.163  62.764  1.00  0.00     0.000 HD 
HETATM   19  H1  UNL     1     -11.578  11.324  62.605  1.00  0.00     0.000 HD 
HETATM   20  C   UNL     1     -10.146  13.964  65.310  1.00  0.00    -0.328 A  
ENDBRANCH   9  12
ENDBRANCH   7   9
ENDBRANCH   4   7
TORSDOF 3
ENDMDL
MODEL       34
REMARK 921   NORMALIZED FREE ENERGY PREDICTED BY IDOCK:   -5.31 KCAL/MOL
REMARK 922        TOTAL FREE ENERGY PREDICTED BY IDOCK:   -6.71 KCAL/MOL
REMARK 923 INTER-LIGAND FREE ENERGY PREDICTED BY IDOCK:   -6.67 KCAL/MOL
REMARK 924 INTRA-LIGAND FREE ENERGY PREDICTED BY IDOCK:   -0.04 KCAL/MOL
REMARK 927      BINDING AFFINITY PREDICTED BY RF-SCORE:    0.00 PKD
ROOT
HETATM    1  C   UNL     1     -13.037  14.606  72.879  1.00  0.00    -0.609 C  
HETATM    2  C   UNL     1     -12.689  14.584  71.447  1.00  0.00    -0.337 A  
HETATM    3  C   UNL     1     -12.655  13.603  70.487  1.00  0.00    -0.337 A  
HETATM    4  C   UNL     1     -12.191  14.263  69.335  1.00  0.00    -0.278 A  
HETATM    5  O   UNL     1     -12.275  15.759  70.899  1.00  0.00    -0.388 OA 
HETATM    6  N   UNL     1     -11.915  15.546  69.574  1.00  0.00    -0.358 NA 
ENDROOT
BRANCH   4   7
HETATM    7  N   UNL     1     -11.889  13.656  68.125  1.00  0.00    -0.361 N  
HETATM    8  H   UNL     1     -12.011  14.157  67.244  1.00  0.00     0.000 HD 
BRANCH   7   9
HETATM    9  S   UNL     1     -11.313  12.065  68.142  1.00  0.00    -0.317 S  
HETATM   10  O   UNL     1     -10.048  12.098  68.850  1.00  0.00    -0.130 OA 
HETATM   11  O   UNL     1     -12.389  11.191  68.556  1.00  0.00    -0.561 OA 
BRANCH   9  12
HETATM   12  C   UNL     1     -10.923  11.715  66.437  1.00  0.00    -0.295 A  
HETATM   13  C   UNL     1      -9.976  10.728  66.135  1.00  0.00    -0.283 A  
HETATM   14  C   UNL     1      -9.698  10.420  64.801  1.00  0.00    -0.383 A  
HETATM   15  C   UNL     1     -10.334  11.101  63.758  1.00  0.00    -0.386 A  
HETATM   16  N   UNL     1     -10.137  10.699  62.433  1.00  0.00    -0.744 NA 
HETATM   17  C   UNL     1     -11.340  12.019  64.076  1.00  0.00    -0.478 A  
HETATM   18  H2  UNL     1     -10.369   9.709  62.359  1.00  0.00     0.000 HD 
HETATM   19  H1  UNL     1     -10.601  11.196  61.673  1.00  0.00     0.000 HD 
HETATM   20  C   UNL     1     -11.623  12.348  65.409  1.00  0.00    -0.426 A  
ENDBRANCH   9  12
ENDBRANCH   7   9
ENDBRANCH   4   7
TORSDOF 3
ENDMDL
MODEL       35
REMARK 921   NORMALIZED FREE ENERGY PREDICTED BY IDOCK:   -5.31 KCAL/MOL
REMARK 922        TOTAL FREE ENERGY PREDICTED BY IDOCK:   -6.70 KCAL/MOL
REMARK 923 INTER-LIGAND FREE ENERGY PREDICTED BY IDOCK:   -6.50 KCAL/MOL
REMARK 924 INTRA-LIGAND FREE ENERGY PREDICTED BY IDOCK:   -0.20 KCAL/MOL
REMARK 927      BINDING AFFINITY PREDICTED BY RF-SCORE:    0.00 PKD
ROOT
HETATM    1  C   UNL     1     -11.991  10.236  71.002  1.00  0.00    -0.483 C  
HETATM    2  C   UNL     1     -12.154  11.629  70.547  1.00  0.00    -0.366 A  
HETATM    3  C   UNL     1     -11.957  12.273  69.351  1.00  0.00    -0.318 A  
HETATM    4  C   UNL     1     -12.268  13.617  69.628  1.00  0.00    -0.270 A  
HETATM    5  O   UNL     1     -12.561  12.533  71.480  1.00  0.00    -0.267 OA 
HETATM    6  N   UNL     1     -12.589  13.800  70.910  1.00  0.00    -0.353 NA 
ENDROOT
BRANCH   4   7
HETATM    7  N   UNL     1     -12.115  14.678  68.747  1.00  0.00    -0.541 N  
HETATM    8  H   UNL     1     -12.850  15.376  68.637  1.00  0.00     0.000 HD 
BRANCH   7   9
HETATM    9  S   UNL     1     -10.679  14.786  67.858  1.00  0.00    -0.265 S  
HETATM   10  O   UNL     1     -10.551  16.175  67.460  1.00  0.00    -0.304 OA 
HETATM   11  O   UNL     1      -9.631  14.111  68.592  1.00  0.00    -0.215 OA 
BRANCH   9  12
HETATM   12  C   UNL     1     -11.008  13.868  66.366  1.00  0.00    -0.303 A  
HETATM   13  C   UNL     1     -10.031  13.003  65.858  1.00  0.00    -0.270 A  
HETATM   14  C   UNL     1     -10.301  12.248  64.713  1.00  0.00    -0.320 A  
HETATM   15  C   UNL     1     -11.527  12.362  64.050  1.00  0.00    -0.408 A  
HETATM   16  N   UNL     1     -11.827  11.513  62.979  1.00  0.00    -0.897 NA 
HETATM   17  C   UNL     1     -12.522  13.162  64.619  1.00  0.00    -0.433 A  
HETATM   18  H2  UNL     1     -11.720  10.549  63.293  1.00  0.00     0.000 HD 
HETATM   19  H1  UNL     1     -12.721  11.596  62.495  1.00  0.00     0.000 HD 
HETATM   20  C   UNL     1     -12.264  13.933  65.761  1.00  0.00    -0.488 A  
ENDBRANCH   9  12
ENDBRANCH   7   9
ENDBRANCH   4   7
TORSDOF 3
ENDMDL
MODEL       36
REMARK 921   NORMALIZED FREE ENERGY PREDICTED BY IDOCK:   -5.29 KCAL/MOL
REMARK 922        TOTAL FREE ENERGY PREDICTED BY IDOCK:   -6.68 KCAL/MOL
REMARK 923 INTER-LIGAND FREE ENERGY PREDICTED BY IDOCK:   -6.52 KCAL/MOL
REMARK 924 INTRA-LIGAND FREE ENERGY PREDICTED BY IDOCK:   -0.16 KCAL/MOL
REMARK 927      BINDING AFFINITY PREDICTED BY RF-SCORE:    0.00 PKD
ROOT
HETATM    1  C   UNL     1     -11.272  12.074  63.809  1.00  0.00    -0.516 C  
HETATM    2  C   UNL     1     -11.149  12.017  65.278  1.00  0.00    -0.317 A  
HETATM    3  C   UNL     1     -10.125  11.712  66.140  1.00  0.00    -0.259 A  
HETATM    4  C   UNL     1     -10.707  11.815  67.417  1.00  0.00    -0.236 A  
HETATM    5  O   UNL     1     -12.272  12.290  65.996  1.00  0.00    -0.646 OA 
HETATM    6  N   UNL     1     -12.005  12.117  67.349  1.00  0.00    -0.570 NA 
ENDROOT
BRANCH   4   7
HETATM    7  N   UNL     1     -10.086  11.492  68.614  1.00  0.00    -0.220 N  
HETATM    8  H   UNL     1      -9.758  12.222  69.246  1.00  0.00     0.000 HD 
BRANCH   7   9
HETATM    9  S   UNL     1      -9.884   9.857  69.002  1.00  0.00    -0.202 S  
HETATM   10  O   UNL     1     -10.366   9.106  67.860  1.00  0.00    -0.207 OA 
HETATM   11  O   UNL     1      -8.547   9.669  69.521  1.00  0.00    -0.143 OA 
BRANCH   9  12
HETATM   12  C   UNL     1     -11.049   9.565  70.320  1.00  0.00    -0.271 A  
HETATM   13  C   UNL     1     -12.305  10.184  70.280  1.00  0.00    -0.211 A  
HETATM   14  C   UNL     1     -13.237   9.925  71.288  1.00  0.00    -0.465 A  
HETATM   15  C   UNL     1     -12.926   9.074  72.354  1.00  0.00    -0.405 A  
HETATM   16  N   UNL     1     -13.909   8.730  73.287  1.00  0.00    -1.063 NA 
HETATM   17  C   UNL     1     -11.703   8.396  72.332  1.00  0.00    -0.452 A  
HETATM   18  H2  UNL     1     -14.706   8.339  72.786  1.00  0.00     0.000 HD 
HETATM   19  H1  UNL     1     -13.682   8.109  74.064  1.00  0.00     0.000 HD 
HETATM   20  C   UNL     1     -10.753   8.654  71.334  1.00  0.00    -0.338 A  
ENDBRANCH   9  12
ENDBRANCH   7   9
ENDBRANCH   4   7
TORSDOF 3
ENDMDL
MODEL       37
REMARK 921   NORMALIZED FREE ENERGY PREDICTED BY IDOCK:   -5.29 KCAL/MOL
REMARK 922        TOTAL FREE ENERGY PREDICTED BY IDOCK:   -6.68 KCAL/MOL
REMARK 923 INTER-LIGAND FREE ENERGY PREDICTED BY IDOCK:   -6.44 KCAL/MOL
REMARK 924 INTRA-LIGAND FREE ENERGY PREDICTED BY IDOCK:   -0.24 KCAL/MOL
REMARK 927      BINDING AFFINITY PREDICTED BY RF-SCORE:    0.00 PKD
ROOT
HETATM    1  C   UNL     1      -9.943   7.619  71.141  1.00  0.00    -0.188 C  
HETATM    2  C   UNL     1      -9.739   8.795  70.274  1.00  0.00    -0.176 A  
HETATM    3  C   UNL     1     -10.197  10.088  70.296  1.00  0.00    -0.266 A  
HETATM    4  C   UNL     1      -9.644  10.670  69.141  1.00  0.00    -0.177 A  
HETATM    5  O   UNL     1      -8.956   8.616  69.176  1.00  0.00    -0.140 OA 
HETATM    6  N   UNL     1      -8.933   9.790  68.433  1.00  0.00    -0.123 NA 
ENDROOT
BRANCH   4   7
HETATM    7  N   UNL     1      -9.911  11.949  68.675  1.00  0.00    -0.328 N  
HETATM    8  H   UNL     1      -9.154  12.610  68.501  1.00  0.00     0.000 HD 
BRANCH   7   9
HETATM    9  S   UNL     1     -11.523  12.386  68.401  1.00  0.00    -0.333 S  
HETATM   10  O   UNL     1     -12.185  11.201  67.892  1.00  0.00    -0.521 OA 
HETATM   11  O   UNL     1     -12.015  13.084  69.569  1.00  0.00    -0.309 OA 
BRANCH   9  12
HETATM   12  C   UNL     1     -11.446  13.539  67.043  1.00  0.00    -0.340 A  
HETATM   13  C   UNL     1     -12.295  13.366  65.942  1.00  0.00    -0.493 A  
HETATM   14  C   UNL     1     -12.269  14.291  64.895  1.00  0.00    -0.449 A  
HETATM   15  C   UNL     1     -11.388  15.376  64.916  1.00  0.00    -0.363 A  
HETATM   16  N   UNL     1     -11.459  16.357  63.922  1.00  0.00    -1.618 NA 
HETATM   17  C   UNL     1     -10.612  15.584  66.061  1.00  0.00    -0.333 A  
HETATM   18  H2  UNL     1     -12.412  16.718  63.893  1.00  0.00     0.000 HD 
HETATM   19  H1  UNL     1     -10.816  17.149  63.938  1.00  0.00     0.000 HD 
HETATM   20  C   UNL     1     -10.618  14.659  67.115  1.00  0.00    -0.282 A  
ENDBRANCH   9  12
ENDBRANCH   7   9
ENDBRANCH   4   7
TORSDOF 3
ENDMDL
MODEL       38
REMARK 921   NORMALIZED FREE ENERGY PREDICTED BY IDOCK:   -5.28 KCAL/MOL
REMARK 922        TOTAL FREE ENERGY PREDICTED BY IDOCK:   -6.68 KCAL/MOL
REMARK 923 INTER-LIGAND FREE ENERGY PREDICTED BY IDOCK:   -6.38 KCAL/MOL
REMARK 924 INTRA-LIGAND FREE ENERGY PREDICTED BY IDOCK:   -0.30 KCAL/MOL
REMARK 927      BINDING AFFINITY PREDICTED BY RF-SCORE:    0.00 PKD
ROOT
HETATM    1  C   UNL     1      -9.517   9.411  65.687  1.00  0.00    -0.328 C  
HETATM    2  C   UNL     1     -10.196   9.996  66.858  1.00  0.00    -0.238 A  
HETATM    3  C   UNL     1     -11.067  11.042  67.033  1.00  0.00    -0.311 A  
HETATM    4  C   UNL     1     -11.288  11.079  68.422  1.00  0.00    -0.295 A  
HETATM    5  O   UNL     1      -9.917   9.440  68.068  1.00  0.00    -0.162 OA 
HETATM    6  N   UNL     1     -10.572  10.154  69.064  1.00  0.00    -0.210 NA 
ENDROOT
BRANCH   4   7
HETATM    7  N   UNL     1     -12.023  12.042  69.096  1.00  0.00    -0.296 N  
HETATM    8  H   UNL     1     -12.843  11.784  69.646  1.00  0.00     0.000 HD 
BRANCH   7   9
HETATM    9  S   UNL     1     -11.530  13.657  68.985  1.00  0.00    -0.321 S  
HETATM   10  O   UNL     1     -10.080  13.641  69.004  1.00  0.00    -0.104 OA 
HETATM   11  O   UNL     1     -12.266  14.290  67.912  1.00  0.00    -0.311 OA 
BRANCH   9  12
HETATM   12  C   UNL     1     -12.042  14.386  70.530  1.00  0.00    -0.334 A  
HETATM   13  C   UNL     1     -12.840  13.646  71.411  1.00  0.00    -0.442 A  
HETATM   14  C   UNL     1     -13.207  14.197  72.641  1.00  0.00    -0.612 A  
HETATM   15  C   UNL     1     -12.811  15.490  72.998  1.00  0.00    -0.472 A  
HETATM   16  N   UNL     1     -13.083  15.980  74.279  1.00  0.00    -0.893 NA 
HETATM   17  C   UNL     1     -11.942  16.180  72.147  1.00  0.00    -0.623 A  
HETATM   18  H2  UNL     1     -12.701  15.327  74.962  1.00  0.00     0.000 HD 
HETATM   19  H1  UNL     1     -12.794  16.923  74.539  1.00  0.00     0.000 HD 
HETATM   20  C   UNL     1     -11.573  15.646  70.904  1.00  0.00    -0.424 A  
ENDBRANCH   9  12
ENDBRANCH   7   9
ENDBRANCH   4   7
TORSDOF 3
ENDMDL
MODEL       39
REMARK 921   NORMALIZED FREE ENERGY PREDICTED BY IDOCK:   -5.24 KCAL/MOL
REMARK 922        TOTAL FREE ENERGY PREDICTED BY IDOCK:   -6.63 KCAL/MOL
REMARK 923 INTER-LIGAND FREE ENERGY PREDICTED BY IDOCK:   -6.22 KCAL/MOL
REMARK 924 INTRA-LIGAND FREE ENERGY PREDICTED BY IDOCK:   -0.40 KCAL/MOL
REMARK 927      BINDING AFFINITY PREDICTED BY RF-SCORE:    0.00 PKD
ROOT
HETATM    1  C   UNL     1      -7.126   8.996  66.399  1.00  0.00    -0.080 C  
HETATM    2  C   UNL     1      -7.983   9.806  67.284  1.00  0.00    -0.106 A  
HETATM    3  C   UNL     1      -8.521  11.066  67.202  1.00  0.00    -0.137 A  
HETATM    4  C   UNL     1      -9.207  11.229  68.420  1.00  0.00    -0.178 A  
HETATM    5  O   UNL     1      -8.330   9.249  68.477  1.00  0.00    -0.116 OA 
HETATM    6  N   UNL     1      -9.066  10.167  69.215  1.00  0.00    -0.187 NA 
ENDROOT
BRANCH   4   7
HETATM    7  N   UNL     1      -9.827  12.394  68.846  1.00  0.00    -0.424 N  
HETATM    8  H   UNL     1      -9.314  13.093  69.383  1.00  0.00     0.000 HD 
BRANCH   7   9
HETATM    9  S   UNL     1     -11.457  12.629  68.456  1.00  0.00    -0.335 S  
HETATM   10  O   UNL     1     -11.947  11.352  67.975  1.00  0.00    -0.613 OA 
HETATM   11  O   UNL     1     -12.098  13.320  69.553  1.00  0.00    -0.303 OA 
BRANCH   9  12
HETATM   12  C   UNL     1     -11.424  13.716  67.043  1.00  0.00    -0.343 A  
HETATM   13  C   UNL     1     -12.154  13.380  65.896  1.00  0.00    -0.486 A  
HETATM   14  C   UNL     1     -12.166  14.250  64.803  1.00  0.00    -0.456 A  
HETATM   15  C   UNL     1     -11.437  15.442  64.825  1.00  0.00    -0.336 A  
HETATM   16  N   UNL     1     -11.555  16.357  63.774  1.00  0.00    -1.515 NA 
HETATM   17  C   UNL     1     -10.786  15.805  66.008  1.00  0.00    -0.311 A  
HETATM   18  H2  UNL     1     -12.542  16.586  63.656  1.00  0.00     0.000 HD 
HETATM   19  H1  UNL     1     -11.024  17.228  63.790  1.00  0.00     0.000 HD 
HETATM   20  C   UNL     1     -10.755  14.939  67.110  1.00  0.00    -0.296 A  
ENDBRANCH   9  12
ENDBRANCH   7   9
ENDBRANCH   4   7
TORSDOF 3
ENDMDL
MODEL       40
REMARK 921   NORMALIZED FREE ENERGY PREDICTED BY IDOCK:   -5.23 KCAL/MOL
REMARK 922        TOTAL FREE ENERGY PREDICTED BY IDOCK:   -6.61 KCAL/MOL
REMARK 923 INTER-LIGAND FREE ENERGY PREDICTED BY IDOCK:   -6.19 KCAL/MOL
REMARK 924 INTRA-LIGAND FREE ENERGY PREDICTED BY IDOCK:   -0.42 KCAL/MOL
REMARK 927      BINDING AFFINITY PREDICTED BY RF-SCORE:    0.00 PKD
ROOT
HETATM    1  C   UNL     1      -9.407  19.820  66.285  1.00  0.00    -0.472 C  
HETATM    2  C   UNL     1      -9.859  18.791  67.240  1.00  0.00    -0.317 A  
HETATM    3  C   UNL     1     -10.555  17.614  67.117  1.00  0.00    -0.277 A  
HETATM    4  C   UNL     1     -10.679  17.148  68.438  1.00  0.00    -0.347 A  
HETATM    5  O   UNL     1      -9.581  19.011  68.554  1.00  0.00    -0.341 OA 
HETATM    6  N   UNL     1     -10.140  17.995  69.318  1.00  0.00    -0.210 NA 
ENDROOT
BRANCH   4   7
HETATM    7  N   UNL     1     -11.404  16.034  68.836  1.00  0.00    -0.357 N  
HETATM    8  H   UNL     1     -12.329  16.135  69.255  1.00  0.00     0.000 HD 
BRANCH   7   9
HETATM    9  S   UNL     1     -10.720  14.503  68.608  1.00  0.00    -0.261 S  
HETATM   10  O   UNL     1      -9.283  14.689  68.660  1.00  0.00    -0.189 OA 
HETATM   11  O   UNL     1     -11.394  13.564  69.479  1.00  0.00    -0.257 OA 
BRANCH   9  12
HETATM   12  C   UNL     1     -11.110  14.088  66.918  1.00  0.00    -0.304 A  
HETATM   13  C   UNL     1     -10.139  14.260  65.924  1.00  0.00    -0.344 A  
HETATM   14  C   UNL     1     -10.425  13.896  64.606  1.00  0.00    -0.419 A  
HETATM   15  C   UNL     1     -11.679  13.384  64.257  1.00  0.00    -0.412 A  
HETATM   16  N   UNL     1     -11.909  12.912  62.961  1.00  0.00    -0.807 NA 
HETATM   17  C   UNL     1     -12.605  13.136  65.275  1.00  0.00    -0.531 A  
HETATM   18  H2  UNL     1     -11.203  12.208  62.745  1.00  0.00     0.000 HD 
HETATM   19  H1  UNL     1     -12.824  12.538  62.707  1.00  0.00     0.000 HD 
HETATM   20  C   UNL     1     -12.338  13.506  66.601  1.00  0.00    -0.351 A  
ENDBRANCH   9  12
ENDBRANCH   7   9
ENDBRANCH   4   7
TORSDOF 3
ENDMDL
MODEL       41
REMARK 921   NORMALIZED FREE ENERGY PREDICTED BY IDOCK:   -5.22 KCAL/MOL
REMARK 922        TOTAL FREE ENERGY PREDICTED BY IDOCK:   -6.60 KCAL/MOL
REMARK 923 INTER-LIGAND FREE ENERGY PREDICTED BY IDOCK:   -6.28 KCAL/MOL
REMARK 924 INTRA-LIGAND FREE ENERGY PREDICTED BY IDOCK:   -0.32 KCAL/MOL
REMARK 927      BINDING AFFINITY PREDICTED BY RF-SCORE:    0.00 PKD
ROOT
HETATM    1  C   UNL     1     -13.352   9.340  72.200  1.00  0.00    -0.537 C  
HETATM    2  C   UNL     1     -12.700  10.374  71.376  1.00  0.00    -0.446 A  
HETATM    3  C   UNL     1     -11.690  10.359  70.446  1.00  0.00    -0.419 A  
HETATM    4  C   UNL     1     -11.540  11.708  70.077  1.00  0.00    -0.255 A  
HETATM    5  O   UNL     1     -13.130  11.654  71.548  1.00  0.00    -0.412 OA 
HETATM    6  N   UNL     1     -12.365  12.505  70.761  1.00  0.00    -0.357 NA 
ENDROOT
BRANCH   4   7
HETATM    7  N   UNL     1     -10.560  12.210  69.234  1.00  0.00    -0.439 N  
HETATM    8  H   UNL     1      -9.718  12.643  69.611  1.00  0.00     0.000 HD 
BRANCH   7   9
HETATM    9  S   UNL     1     -10.796  12.087  67.562  1.00  0.00    -0.255 S  
HETATM   10  O   UNL     1      -9.674  11.324  67.049  1.00  0.00    -0.183 OA 
HETATM   11  O   UNL     1     -12.162  11.678  67.319  1.00  0.00    -0.414 OA 
BRANCH   9  12
HETATM   12  C   UNL     1     -10.586  13.752  66.960  1.00  0.00    -0.278 A  
HETATM   13  C   UNL     1     -10.485  13.979  65.581  1.00  0.00    -0.328 A  
HETATM   14  C   UNL     1     -10.364  15.286  65.102  1.00  0.00    -0.413 A  
HETATM   15  C   UNL     1     -10.316  16.373  65.981  1.00  0.00    -0.352 A  
HETATM   16  N   UNL     1     -10.317  17.679  65.482  1.00  0.00    -0.632 NA 
HETATM   17  C   UNL     1     -10.507  16.136  67.346  1.00  0.00    -0.310 A  
HETATM   18  H2  UNL     1     -11.129  17.792  64.876  1.00  0.00     0.000 HD 
HETATM   19  H1  UNL     1     -10.282  18.472  66.124  1.00  0.00     0.000 HD 
HETATM   20  C   UNL     1     -10.619  14.831  67.844  1.00  0.00    -0.248 A  
ENDBRANCH   9  12
ENDBRANCH   7   9
ENDBRANCH   4   7
TORSDOF 3
ENDMDL
MODEL       42
REMARK 921   NORMALIZED FREE ENERGY PREDICTED BY IDOCK:   -5.22 KCAL/MOL
REMARK 922        TOTAL FREE ENERGY PREDICTED BY IDOCK:   -6.60 KCAL/MOL
REMARK 923 INTER-LIGAND FREE ENERGY PREDICTED BY IDOCK:   -6.34 KCAL/MOL
REMARK 924 INTRA-LIGAND FREE ENERGY PREDICTED BY IDOCK:   -0.26 KCAL/MOL
REMARK 927      BINDING AFFINITY PREDICTED BY RF-SCORE:    0.00 PKD
ROOT
HETATM    1  C   UNL     1     -12.324  12.483  63.603  1.00  0.00    -0.618 C  
HETATM    2  C   UNL     1     -11.710  12.251  64.924  1.00  0.00    -0.352 A  
HETATM    3  C   UNL     1     -11.940  12.745  66.184  1.00  0.00    -0.476 A  
HETATM    4  C   UNL     1     -10.960  12.127  66.981  1.00  0.00    -0.271 A  
HETATM    5  O   UNL     1     -10.660  11.387  64.967  1.00  0.00    -0.286 OA 
HETATM    6  N   UNL     1     -10.155  11.343  66.261  1.00  0.00    -0.217 NA 
ENDROOT
BRANCH   4   7
HETATM    7  N   UNL     1     -10.723  12.396  68.321  1.00  0.00    -0.222 N  
HETATM    8  H   UNL     1     -10.040  13.101  68.599  1.00  0.00     0.000 HD 
BRANCH   7   9
HETATM    9  S   UNL     1     -11.592  11.526  69.483  1.00  0.00    -0.357 S  
HETATM   10  O   UNL     1     -12.744  10.972  68.799  1.00  0.00    -0.155 OA 
HETATM   11  O   UNL     1     -10.670  10.685  70.214  1.00  0.00    -0.204 OA 
BRANCH   9  12
HETATM   12  C   UNL     1     -12.222  12.773  70.592  1.00  0.00    -0.288 A  
HETATM   13  C   UNL     1     -11.858  14.112  70.404  1.00  0.00    -0.367 A  
HETATM   14  C   UNL     1     -12.383  15.097  71.244  1.00  0.00    -0.401 A  
HETATM   15  C   UNL     1     -13.250  14.764  72.289  1.00  0.00    -0.374 A  
HETATM   16  N   UNL     1     -13.861  15.771  73.043  1.00  0.00    -0.650 NA 
HETATM   17  C   UNL     1     -13.673  13.436  72.408  1.00  0.00    -0.698 A  
HETATM   18  H2  UNL     1     -14.352  16.397  72.405  1.00  0.00     0.000 HD 
HETATM   19  H1  UNL     1     -14.494  15.528  73.805  1.00  0.00     0.000 HD 
HETATM   20  C   UNL     1     -13.147  12.434  71.581  1.00  0.00    -0.408 A  
ENDBRANCH   9  12
ENDBRANCH   7   9
ENDBRANCH   4   7
TORSDOF 3
ENDMDL
MODEL       43
REMARK 921   NORMALIZED FREE ENERGY PREDICTED BY IDOCK:   -5.21 KCAL/MOL
REMARK 922        TOTAL FREE ENERGY PREDICTED BY IDOCK:   -6.59 KCAL/MOL
REMARK 923 INTER-LIGAND FREE ENERGY PREDICTED BY IDOCK:   -6.42 KCAL/MOL
REMARK 924 INTRA-LIGAND FREE ENERGY PREDICTED BY IDOCK:   -0.17 KCAL/MOL
REMARK 927      BINDING AFFINITY PREDICTED BY RF-SCORE:    0.00 PKD
ROOT
HETATM    1  C   UNL     1      -9.997  12.128  63.502  1.00  0.00    -0.341 C  
HETATM    2  C   UNL     1     -10.751  12.667  64.649  1.00  0.00    -0.326 A  
HETATM    3  C   UNL     1     -10.688  13.834  65.370  1.00  0.00    -0.320 A  
HETATM    4  C   UNL     1     -11.676  13.681  66.360  1.00  0.00    -0.373 A  
HETATM    5  O   UNL     1     -11.720  11.868  65.174  1.00  0.00    -0.288 OA 
HETATM    6  N   UNL     1     -12.274  12.490  66.286  1.00  0.00    -0.584 NA 
ENDROOT
BRANCH   4   7
HETATM    7  N   UNL     1     -11.917  14.564  67.401  1.00  0.00    -0.526 N  
HETATM    8  H   UNL     1     -12.662  15.259  67.335  1.00  0.00     0.000 HD 
BRANCH   7   9
HETATM    9  S   UNL     1     -10.947  14.465  68.784  1.00  0.00    -0.259 S  
HETATM   10  O   UNL     1      -9.693  13.876  68.359  1.00  0.00    -0.222 OA 
HETATM   11  O   UNL     1     -10.991  15.738  69.470  1.00  0.00    -0.248 OA 
BRANCH   9  12
HETATM   12  C   UNL     1     -11.752  13.244  69.805  1.00  0.00    -0.284 A  
HETATM   13  C   UNL     1     -11.506  11.884  69.578  1.00  0.00    -0.357 A  
HETATM   14  C   UNL     1     -12.101  10.926  70.403  1.00  0.00    -0.453 A  
HETATM   15  C   UNL     1     -12.961  11.302  71.439  1.00  0.00    -0.379 A  
HETATM   16  N   UNL     1     -13.451  10.342  72.329  1.00  0.00    -0.575 NA 
HETATM   17  C   UNL     1     -13.125  12.665  71.708  1.00  0.00    -0.461 A  
HETATM   18  H2  UNL     1     -12.658   9.844  72.734  1.00  0.00     0.000 HD 
HETATM   19  H1  UNL     1     -14.078  10.617  73.086  1.00  0.00     0.000 HD 
HETATM   20  C   UNL     1     -12.545  13.639  70.884  1.00  0.00    -0.421 A  
ENDBRANCH   9  12
ENDBRANCH   7   9
ENDBRANCH   4   7
TORSDOF 3
ENDMDL
MODEL       44
REMARK 921   NORMALIZED FREE ENERGY PREDICTED BY IDOCK:   -5.19 KCAL/MOL
REMARK 922        TOTAL FREE ENERGY PREDICTED BY IDOCK:   -6.57 KCAL/MOL
REMARK 923 INTER-LIGAND FREE ENERGY PREDICTED BY IDOCK:   -6.20 KCAL/MOL
REMARK 924 INTRA-LIGAND FREE ENERGY PREDICTED BY IDOCK:   -0.36 KCAL/MOL
REMARK 927      BINDING AFFINITY PREDICTED BY RF-SCORE:    0.00 PKD
ROOT
HETATM    1  C   UNL     1      -8.670   8.221  65.563  1.00  0.00    -0.173 C  
HETATM    2  C   UNL     1      -9.160   9.601  65.390  1.00  0.00    -0.215 A  
HETATM    3  C   UNL     1      -9.814  10.263  64.381  1.00  0.00    -0.374 A  
HETATM    4  C   UNL     1      -9.943  11.580  64.858  1.00  0.00    -0.259 A  
HETATM    5  O   UNL     1      -8.917  10.469  66.409  1.00  0.00    -0.153 OA 
HETATM    6  N   UNL     1      -9.371  11.733  66.054  1.00  0.00    -0.229 NA 
ENDROOT
BRANCH   4   7
HETATM    7  N   UNL     1     -10.449  12.652  64.139  1.00  0.00    -0.393 N  
HETATM    8  H   UNL     1      -9.961  13.007  63.317  1.00  0.00     0.000 HD 
BRANCH   7   9
HETATM    9  S   UNL     1     -11.895  13.361  64.659  1.00  0.00    -0.413 S  
HETATM   10  O   UNL     1     -12.465  14.019  63.500  1.00  0.00    -0.826 OA 
HETATM   11  O   UNL     1     -12.643  12.380  65.415  1.00  0.00    -0.637 OA 
BRANCH   9  12
HETATM   12  C   UNL     1     -11.381  14.659  65.768  1.00  0.00    -0.340 A  
HETATM   13  C   UNL     1     -10.685  15.763  65.262  1.00  0.00    -0.446 A  
HETATM   14  C   UNL     1     -10.318  16.803  66.120  1.00  0.00    -0.338 A  
HETATM   15  C   UNL     1     -10.613  16.748  67.485  1.00  0.00    -0.309 A  
HETATM   16  N   UNL     1     -10.348  17.848  68.307  1.00  0.00    -0.380 NA 
HETATM   17  C   UNL     1     -11.385  15.682  67.958  1.00  0.00    -0.324 A  
HETATM   18  H2  UNL     1     -10.812  18.665  67.911  1.00  0.00     0.000 HD 
HETATM   19  H1  UNL     1     -10.564  17.807  69.303  1.00  0.00     0.000 HD 
HETATM   20  C   UNL     1     -11.752  14.625  67.113  1.00  0.00    -0.392 A  
ENDBRANCH   9  12
ENDBRANCH   7   9
ENDBRANCH   4   7
TORSDOF 3
ENDMDL
MODEL       45
REMARK 921   NORMALIZED FREE ENERGY PREDICTED BY IDOCK:   -5.18 KCAL/MOL
REMARK 922        TOTAL FREE ENERGY PREDICTED BY IDOCK:   -6.56 KCAL/MOL
REMARK 923 INTER-LIGAND FREE ENERGY PREDICTED BY IDOCK:   -6.33 KCAL/MOL
REMARK 924 INTRA-LIGAND FREE ENERGY PREDICTED BY IDOCK:   -0.23 KCAL/MOL
REMARK 927      BINDING AFFINITY PREDICTED BY RF-SCORE:    0.00 PKD
ROOT
HETATM    1  C   UNL     1     -11.993  10.587  70.835  1.00  0.00    -0.481 C  
HETATM    2  C   UNL     1     -12.134  11.974  70.353  1.00  0.00    -0.321 A  
HETATM    3  C   UNL     1     -12.004  12.576  69.126  1.00  0.00    -0.287 A  
HETATM    4  C   UNL     1     -12.236  13.939  69.384  1.00  0.00    -0.292 A  
HETATM    5  O   UNL     1     -12.430  12.919  71.286  1.00  0.00    -0.323 OA 
HETATM    6  N   UNL     1     -12.449  14.170  70.681  1.00  0.00    -0.341 NA 
ENDROOT
BRANCH   4   7
HETATM    7  N   UNL     1     -12.108  14.968  68.463  1.00  0.00    -0.584 N  
HETATM    8  H   UNL     1     -12.893  15.585  68.256  1.00  0.00     0.000 HD 
BRANCH   7   9
HETATM    9  S   UNL     1     -10.618  15.175  67.688  1.00  0.00    -0.268 S  
HETATM   10  O   UNL     1      -9.605  14.743  68.632  1.00  0.00    -0.207 OA 
HETATM   11  O   UNL     1     -10.705  14.607  66.361  1.00  0.00    -0.298 OA 
BRANCH   9  12
HETATM   12  C   UNL     1     -10.437  16.943  67.537  1.00  0.00    -0.328 A  
HETATM   13  C   UNL     1     -10.088  17.699  68.662  1.00  0.00    -0.377 A  
HETATM   14  C   UNL     1      -9.903  19.079  68.539  1.00  0.00    -0.473 A  
HETATM   15  C   UNL     1     -10.087  19.722  67.311  1.00  0.00    -0.418 A  
HETATM   16  N   UNL     1      -9.781  21.080  67.177  1.00  0.00    -0.620 NA 
HETATM   17  C   UNL     1     -10.347  18.941  66.181  1.00  0.00    -0.517 A  
HETATM   18  H2  UNL     1      -8.816  21.224  67.474  1.00  0.00     0.000 HD 
HETATM   19  H1  UNL     1      -9.914  21.549  66.281  1.00  0.00     0.000 HD 
HETATM   20  C   UNL     1     -10.546  17.558  66.289  1.00  0.00    -0.198 A  
ENDBRANCH   9  12
ENDBRANCH   7   9
ENDBRANCH   4   7
TORSDOF 3
ENDMDL
MODEL       46
REMARK 921   NORMALIZED FREE ENERGY PREDICTED BY IDOCK:   -5.18 KCAL/MOL
REMARK 922        TOTAL FREE ENERGY PREDICTED BY IDOCK:   -6.56 KCAL/MOL
REMARK 923 INTER-LIGAND FREE ENERGY PREDICTED BY IDOCK:   -6.27 KCAL/MOL
REMARK 924 INTRA-LIGAND FREE ENERGY PREDICTED BY IDOCK:   -0.29 KCAL/MOL
REMARK 927      BINDING AFFINITY PREDICTED BY RF-SCORE:    0.00 PKD
ROOT
HETATM    1  C   UNL     1      -9.804  18.317  67.397  1.00  0.00    -0.323 C  
HETATM    2  C   UNL     1     -10.492  17.137  67.953  1.00  0.00    -0.369 A  
HETATM    3  C   UNL     1     -10.869  15.921  67.439  1.00  0.00    -0.291 A  
HETATM    4  C   UNL     1     -11.523  15.282  68.508  1.00  0.00    -0.342 A  
HETATM    5  O   UNL     1     -10.891  17.216  69.251  1.00  0.00    -0.239 OA 
HETATM    6  N   UNL     1     -11.585  16.061  69.590  1.00  0.00    -0.320 NA 
ENDROOT
BRANCH   4   7
HETATM    7  N   UNL     1     -12.178  14.061  68.439  1.00  0.00    -0.541 N  
HETATM    8  H   UNL     1     -13.196  14.015  68.413  1.00  0.00     0.000 HD 
BRANCH   7   9
HETATM    9  S   UNL     1     -11.247  12.649  68.399  1.00  0.00    -0.303 S  
HETATM   10  O   UNL     1     -11.601  11.963  67.172  1.00  0.00    -0.444 OA 
HETATM   11  O   UNL     1      -9.875  12.993  68.704  1.00  0.00    -0.177 OA 
BRANCH   9  12
HETATM   12  C   UNL     1     -11.890  11.654  69.732  1.00  0.00    -0.357 A  
HETATM   13  C   UNL     1     -11.499  10.314  69.844  1.00  0.00    -0.340 A  
HETATM   14  C   UNL     1     -11.967   9.543  70.911  1.00  0.00    -0.372 A  
HETATM   15  C   UNL     1     -12.843  10.081  71.858  1.00  0.00    -0.426 A  
HETATM   16  N   UNL     1     -13.205   9.335  72.984  1.00  0.00    -0.688 NA 
HETATM   17  C   UNL     1     -13.153  11.443  71.782  1.00  0.00    -0.523 A  
HETATM   18  H2  UNL     1     -12.354   9.042  73.463  1.00  0.00     0.000 HD 
HETATM   19  H1  UNL     1     -13.844   9.729  73.675  1.00  0.00     0.000 HD 
HETATM   20  C   UNL     1     -12.701  12.228  70.712  1.00  0.00    -0.212 A  
ENDBRANCH   9  12
ENDBRANCH   7   9
ENDBRANCH   4   7
TORSDOF 3
ENDMDL
MODEL       47
REMARK 921   NORMALIZED FREE ENERGY PREDICTED BY IDOCK:   -5.16 KCAL/MOL
REMARK 922        TOTAL FREE ENERGY PREDICTED BY IDOCK:   -6.53 KCAL/MOL
REMARK 923 INTER-LIGAND FREE ENERGY PREDICTED BY IDOCK:   -6.53 KCAL/MOL
REMARK 924 INTRA-LIGAND FREE ENERGY PREDICTED BY IDOCK:   -0.00 KCAL/MOL
REMARK 927      BINDING AFFINITY PREDICTED BY RF-SCORE:    0.00 PKD
ROOT
HETATM    1  C   UNL     1     -11.554  15.891  64.161  1.00  0.00    -0.058 C  
HETATM    2  C   UNL     1     -11.848  14.693  64.970  1.00  0.00    -0.377 A  
HETATM    3  C   UNL     1     -11.419  14.238  66.192  1.00  0.00    -0.357 A  
HETATM    4  C   UNL     1     -12.068  13.000  66.346  1.00  0.00    -0.358 A  
HETATM    5  O   UNL     1     -12.705  13.785  64.430  1.00  0.00    -0.649 OA 
HETATM    6  N   UNL     1     -12.809  12.691  65.279  1.00  0.00    -0.655 NA 
ENDROOT
BRANCH   4   7
HETATM    7  N   UNL     1     -11.865  12.106  67.387  1.00  0.00    -0.298 N  
HETATM    8  H   UNL     1     -12.032  11.108  67.259  1.00  0.00     0.000 HD 
BRANCH   7   9
HETATM    9  S   UNL     1     -11.334  12.711  68.876  1.00  0.00    -0.314 S  
HETATM   10  O   UNL     1      -9.887  12.764  68.800  1.00  0.00    -0.114 OA 
HETATM   11  O   UNL     1     -12.118  13.883  69.203  1.00  0.00    -0.345 OA 
BRANCH   9  12
HETATM   12  C   UNL     1     -11.726  11.423  70.045  1.00  0.00    -0.334 A  
HETATM   13  C   UNL     1     -12.753  11.625  70.975  1.00  0.00    -0.395 A  
HETATM   14  C   UNL     1     -13.093  10.602  71.865  1.00  0.00    -0.563 A  
HETATM   15  C   UNL     1     -12.405   9.385  71.858  1.00  0.00    -0.375 A  
HETATM   16  N   UNL     1     -12.835   8.331  72.670  1.00  0.00    -0.608 NA 
HETATM   17  C   UNL     1     -11.444   9.167  70.866  1.00  0.00    -0.357 A  
HETATM   18  H2  UNL     1     -13.816   8.146  72.464  1.00  0.00     0.000 HD 
HETATM   19  H1  UNL     1     -12.333   7.443  72.664  1.00  0.00     0.000 HD 
HETATM   20  C   UNL     1     -11.084  10.187  69.973  1.00  0.00    -0.368 A  
ENDBRANCH   9  12
ENDBRANCH   7   9
ENDBRANCH   4   7
TORSDOF 3
ENDMDL
MODEL       48
REMARK 921   NORMALIZED FREE ENERGY PREDICTED BY IDOCK:   -5.15 KCAL/MOL
REMARK 922        TOTAL FREE ENERGY PREDICTED BY IDOCK:   -6.52 KCAL/MOL
REMARK 923 INTER-LIGAND FREE ENERGY PREDICTED BY IDOCK:   -6.25 KCAL/MOL
REMARK 924 INTRA-LIGAND FREE ENERGY PREDICTED BY IDOCK:   -0.27 KCAL/MOL
REMARK 927      BINDING AFFINITY PREDICTED BY RF-SCORE:    0.00 PKD
ROOT
HETATM    1  C   UNL     1      -8.704  10.956  62.391  1.00  0.00    -0.355 C  
HETATM    2  C   UNL     1      -9.148  10.724  63.778  1.00  0.00    -0.200 A  
HETATM    3  C   UNL     1     -10.319  10.953  64.457  1.00  0.00    -0.417 A  
HETATM    4  C   UNL     1     -10.045  10.530  65.770  1.00  0.00    -0.265 A  
HETATM    5  O   UNL     1      -8.232  10.192  64.633  1.00  0.00    -0.155 OA 
HETATM    6  N   UNL     1      -8.785  10.112  65.905  1.00  0.00    -0.141 NA 
ENDROOT
BRANCH   4   7
HETATM    7  N   UNL     1     -10.898  10.665  66.855  1.00  0.00    -0.238 N  
HETATM    8  H   UNL     1     -11.549   9.921  67.103  1.00  0.00     0.000 HD 
BRANCH   7   9
HETATM    9  S   UNL     1     -10.833  12.095  67.758  1.00  0.00    -0.236 S  
HETATM   10  O   UNL     1     -12.065  12.150  68.521  1.00  0.00    -0.317 OA 
HETATM   11  O   UNL     1      -9.540  12.174  68.403  1.00  0.00    -0.209 OA 
BRANCH   9  12
HETATM   12  C   UNL     1     -10.940  13.395  66.542  1.00  0.00    -0.290 A  
HETATM   13  C   UNL     1     -12.143  13.601  65.857  1.00  0.00    -0.476 A  
HETATM   14  C   UNL     1     -12.244  14.646  64.934  1.00  0.00    -0.363 A  
HETATM   15  C   UNL     1     -11.152  15.476  64.665  1.00  0.00    -0.359 A  
HETATM   16  N   UNL     1     -11.304  16.589  63.832  1.00  0.00    -1.559 NA 
HETATM   17  C   UNL     1      -9.987  15.313  65.421  1.00  0.00    -0.364 A  
HETATM   18  H2  UNL     1     -12.062  17.164  64.199  1.00  0.00     0.000 HD 
HETATM   19  H1  UNL     1     -10.507  17.194  63.636  1.00  0.00     0.000 HD 
HETATM   20  C   UNL     1      -9.866  14.263  66.342  1.00  0.00    -0.309 A  
ENDBRANCH   9  12
ENDBRANCH   7   9
ENDBRANCH   4   7
TORSDOF 3
ENDMDL
MODEL       49
REMARK 921   NORMALIZED FREE ENERGY PREDICTED BY IDOCK:   -5.15 KCAL/MOL
REMARK 922        TOTAL FREE ENERGY PREDICTED BY IDOCK:   -6.52 KCAL/MOL
REMARK 923 INTER-LIGAND FREE ENERGY PREDICTED BY IDOCK:   -6.22 KCAL/MOL
REMARK 924 INTRA-LIGAND FREE ENERGY PREDICTED BY IDOCK:   -0.30 KCAL/MOL
REMARK 927      BINDING AFFINITY PREDICTED BY RF-SCORE:    0.00 PKD
ROOT
HETATM    1  C   UNL     1     -10.664   7.967  72.939  1.00  0.00    -0.440 C  
HETATM    2  C   UNL     1     -10.814   8.638  71.634  1.00  0.00    -0.304 A  
HETATM    3  C   UNL     1     -11.489   9.754  71.206  1.00  0.00    -0.457 A  
HETATM    4  C   UNL     1     -11.237   9.801  69.823  1.00  0.00    -0.202 A  
HETATM    5  O   UNL     1     -10.194   8.056  70.572  1.00  0.00    -0.196 OA 
HETATM    6  N   UNL     1     -10.499   8.765  69.417  1.00  0.00    -0.221 NA 
ENDROOT
BRANCH   4   7
HETATM    7  N   UNL     1     -11.801  10.700  68.931  1.00  0.00    -0.506 N  
HETATM    8  H   UNL     1     -12.646  10.463  68.413  1.00  0.00     0.000 HD 
BRANCH   7   9
HETATM    9  S   UNL     1     -11.051  12.203  68.720  1.00  0.00    -0.265 S  
HETATM   10  O   UNL     1     -11.818  13.153  69.501  1.00  0.00    -0.299 OA 
HETATM   11  O   UNL     1      -9.627  12.038  68.916  1.00  0.00    -0.053 OA 
BRANCH   9  12
HETATM   12  C   UNL     1     -11.344  12.610  67.009  1.00  0.00    -0.323 A  
HETATM   13  C   UNL     1     -10.704  11.873  66.005  1.00  0.00    -0.326 A  
HETATM   14  C   UNL     1     -10.964  12.160  64.662  1.00  0.00    -0.359 A  
HETATM   15  C   UNL     1     -11.836  13.193  64.303  1.00  0.00    -0.406 A  
HETATM   16  N   UNL     1     -12.178  13.389  62.962  1.00  0.00    -0.941 NA 
HETATM   17  C   UNL     1     -12.533  13.860  65.316  1.00  0.00    -0.504 A  
HETATM   18  H2  UNL     1     -12.549  12.513  62.593  1.00  0.00     0.000 HD 
HETATM   19  H1  UNL     1     -12.814  14.142  62.700  1.00  0.00     0.000 HD 
HETATM   20  C   UNL     1     -12.275  13.591  66.667  1.00  0.00    -0.411 A  
ENDBRANCH   9  12
ENDBRANCH   7   9
ENDBRANCH   4   7
TORSDOF 3
ENDMDL
MODEL       50
REMARK 921   NORMALIZED FREE ENERGY PREDICTED BY IDOCK:   -5.15 KCAL/MOL
REMARK 922        TOTAL FREE ENERGY PREDICTED BY IDOCK:   -6.51 KCAL/MOL
REMARK 923 INTER-LIGAND FREE ENERGY PREDICTED BY IDOCK:   -6.13 KCAL/MOL
REMARK 924 INTRA-LIGAND FREE ENERGY PREDICTED BY IDOCK:   -0.39 KCAL/MOL
REMARK 927      BINDING AFFINITY PREDICTED BY RF-SCORE:    0.00 PKD
ROOT
HETATM    1  C   UNL     1     -10.608  18.184  67.545  1.00  0.00    -0.419 C  
HETATM    2  C   UNL     1     -10.329  16.862  68.136  1.00  0.00    -0.336 A  
HETATM    3  C   UNL     1      -9.486  15.829  67.811  1.00  0.00    -0.212 A  
HETATM    4  C   UNL     1      -9.757  14.845  68.778  1.00  0.00    -0.225 A  
HETATM    5  O   UNL     1     -11.056  16.517  69.234  1.00  0.00    -0.308 OA 
HETATM    6  N   UNL     1     -10.727  15.222  69.613  1.00  0.00    -0.265 NA 
ENDROOT
BRANCH   4   7
HETATM    7  N   UNL     1      -9.221  13.566  68.800  1.00  0.00    -0.395 N  
HETATM    8  H   UNL     1      -8.248  13.411  69.065  1.00  0.00     0.000 HD 
BRANCH   7   9
HETATM    9  S   UNL     1     -10.218  12.267  68.375  1.00  0.00    -0.203 S  
HETATM   10  O   UNL     1      -9.336  11.148  68.105  1.00  0.00    -0.163 OA 
HETATM   11  O   UNL     1     -11.287  12.170  69.345  1.00  0.00    -0.264 OA 
BRANCH   9  12
HETATM   12  C   UNL     1     -10.920  12.740  66.805  1.00  0.00    -0.270 A  
HETATM   13  C   UNL     1     -12.198  13.311  66.765  1.00  0.00    -0.340 A  
HETATM   14  C   UNL     1     -12.734  13.723  65.542  1.00  0.00    -0.530 A  
HETATM   15  C   UNL     1     -12.024  13.549  64.350  1.00  0.00    -0.422 A  
HETATM   16  N   UNL     1     -12.521  14.075  63.153  1.00  0.00    -1.070 NA 
HETATM   17  C   UNL     1     -10.716  13.060  64.418  1.00  0.00    -0.414 A  
HETATM   18  H2  UNL     1     -12.689  15.072  63.285  1.00  0.00     0.000 HD 
HETATM   19  H1  UNL     1     -12.002  13.949  62.284  1.00  0.00     0.000 HD 
HETATM   20  C   UNL     1     -10.167  12.632  65.635  1.00  0.00    -0.290 A  
ENDBRANCH   9  12
ENDBRANCH   7   9
ENDBRANCH   4   7
TORSDOF 3
ENDMDL
MODEL       51
REMARK 921   NORMALIZED FREE ENERGY PREDICTED BY IDOCK:   -5.11 KCAL/MOL
REMARK 922        TOTAL FREE ENERGY PREDICTED BY IDOCK:   -6.47 KCAL/MOL
REMARK 923 INTER-LIGAND FREE ENERGY PREDICTED BY IDOCK:   -6.14 KCAL/MOL
REMARK 924 INTRA-LIGAND FREE ENERGY PREDICTED BY IDOCK:   -0.34 KCAL/MOL
REMARK 927      BINDING AFFINITY PREDICTED BY RF-SCORE:    0.00 PKD
ROOT
HETATM    1  C   UNL     1      -7.744  15.743  69.408  1.00  0.00    -0.213 C  
HETATM    2  C   UNL     1      -9.140  15.559  68.971  1.00  0.00    -0.236 A  
HETATM    3  C   UNL     1      -9.850  14.501  68.461  1.00  0.00    -0.231 A  
HETATM    4  C   UNL     1     -11.131  15.028  68.221  1.00  0.00    -0.286 A  
HETATM    5  O   UNL     1      -9.950  16.651  69.036  1.00  0.00    -0.258 OA 
HETATM    6  N   UNL     1     -11.198  16.328  68.518  1.00  0.00    -0.365 NA 
ENDROOT
BRANCH   4   7
HETATM    7  N   UNL     1     -12.176  14.358  67.602  1.00  0.00    -0.623 N  
HETATM    8  H   UNL     1     -12.981  14.036  68.140  1.00  0.00     0.000 HD 
BRANCH   7   9
HETATM    9  S   UNL     1     -12.085  14.087  65.935  1.00  0.00    -0.447 S  
HETATM   10  O   UNL     1     -13.442  13.843  65.488  1.00  0.00    -0.657 OA 
HETATM   11  O   UNL     1     -11.269  15.125  65.343  1.00  0.00    -0.346 OA 
BRANCH   9  12
HETATM   12  C   UNL     1     -11.222  12.533  65.783  1.00  0.00    -0.320 A  
HETATM   13  C   UNL     1     -11.171  11.663  66.879  1.00  0.00    -0.376 A  
HETATM   14  C   UNL     1     -10.533  10.426  66.752  1.00  0.00    -0.287 A  
HETATM   15  C   UNL     1      -9.921  10.052  65.552  1.00  0.00    -0.296 A  
HETATM   16  N   UNL     1      -9.395   8.766  65.403  1.00  0.00    -0.443 NA 
HETATM   17  C   UNL     1     -10.058  10.893  64.443  1.00  0.00    -0.402 A  
HETATM   18  H2  UNL     1     -10.130   8.091  65.613  1.00  0.00     0.000 HD 
HETATM   19  H1  UNL     1      -8.949   8.493  64.527  1.00  0.00     0.000 HD 
HETATM   20  C   UNL     1     -10.685  12.142  64.556  1.00  0.00    -0.353 A  
ENDBRANCH   9  12
ENDBRANCH   7   9
ENDBRANCH   4   7
TORSDOF 3
ENDMDL
MODEL       52
REMARK 921   NORMALIZED FREE ENERGY PREDICTED BY IDOCK:   -5.09 KCAL/MOL
REMARK 922        TOTAL FREE ENERGY PREDICTED BY IDOCK:   -6.45 KCAL/MOL
REMARK 923 INTER-LIGAND FREE ENERGY PREDICTED BY IDOCK:   -6.08 KCAL/MOL
REMARK 924 INTRA-LIGAND FREE ENERGY PREDICTED BY IDOCK:   -0.37 KCAL/MOL
REMARK 927      BINDING AFFINITY PREDICTED BY RF-SCORE:    0.00 PKD
ROOT
HETATM    1  C   UNL     1     -10.876  16.169  64.974  1.00  0.00    -0.380 C  
HETATM    2  C   UNL     1     -10.961  14.730  65.284  1.00  0.00    -0.374 A  
HETATM    3  C   UNL     1     -11.593  13.999  66.258  1.00  0.00    -0.379 A  
HETATM    4  C   UNL     1     -11.219  12.670  65.990  1.00  0.00    -0.306 A  
HETATM    5  O   UNL     1     -10.257  13.888  64.479  1.00  0.00    -0.405 OA 
HETATM    6  N   UNL     1     -10.382  12.589  64.953  1.00  0.00    -0.294 NA 
ENDROOT
BRANCH   4   7
HETATM    7  N   UNL     1     -11.529  11.570  66.776  1.00  0.00    -0.244 N  
HETATM    8  H   UNL     1     -12.296  10.947  66.525  1.00  0.00     0.000 HD 
BRANCH   7   9
HETATM    9  S   UNL     1     -10.603  11.286  68.164  1.00  0.00    -0.205 S  
HETATM   10  O   UNL     1     -10.504   9.846  68.299  1.00  0.00    -0.188 OA 
HETATM   11  O   UNL     1      -9.424  12.124  68.111  1.00  0.00    -0.194 OA 
BRANCH   9  12
HETATM   12  C   UNL     1     -11.634  11.844  69.508  1.00  0.00    -0.327 A  
HETATM   13  C   UNL     1     -12.188  10.905  70.388  1.00  0.00    -0.453 A  
HETATM   14  C   UNL     1     -12.961  11.341  71.467  1.00  0.00    -0.520 A  
HETATM   15  C   UNL     1     -13.212  12.701  71.670  1.00  0.00    -0.298 A  
HETATM   16  N   UNL     1     -13.884  13.127  72.821  1.00  0.00    -0.706 NA 
HETATM   17  C   UNL     1     -12.579  13.628  70.837  1.00  0.00    -0.421 A  
HETATM   18  H2  UNL     1     -13.388  12.767  73.635  1.00  0.00     0.000 HD 
HETATM   19  H1  UNL     1     -14.066  14.120  72.969  1.00  0.00     0.000 HD 
HETATM   20  C   UNL     1     -11.810  13.208  69.743  1.00  0.00    -0.386 A  
ENDBRANCH   9  12
ENDBRANCH   7   9
ENDBRANCH   4   7
TORSDOF 3
ENDMDL
MODEL       53
REMARK 921   NORMALIZED FREE ENERGY PREDICTED BY IDOCK:   -5.03 KCAL/MOL
REMARK 922        TOTAL FREE ENERGY PREDICTED BY IDOCK:   -6.37 KCAL/MOL
REMARK 923 INTER-LIGAND FREE ENERGY PREDICTED BY IDOCK:   -6.03 KCAL/MOL
REMARK 924 INTRA-LIGAND FREE ENERGY PREDICTED BY IDOCK:   -0.34 KCAL/MOL
REMARK 927      BINDING AFFINITY PREDICTED BY RF-SCORE:    0.00 PKD
ROOT
HETATM    1  C   UNL     1     -10.848   5.111  73.348  1.00  0.00    -0.359 C  
HETATM    2  C   UNL     1     -11.222   6.127  72.346  1.00  0.00    -0.287 A  
HETATM    3  C   UNL     1     -11.688   7.416  72.421  1.00  0.00    -0.306 A  
HETATM    4  C   UNL     1     -11.878   7.793  71.079  1.00  0.00    -0.272 A  
HETATM    5  O   UNL     1     -11.134   5.759  71.039  1.00  0.00    -0.264 OA 
HETATM    6  N   UNL     1     -11.593   6.797  70.238  1.00  0.00    -0.367 NA 
ENDROOT
BRANCH   4   7
HETATM    7  N   UNL     1     -12.442   8.984  70.648  1.00  0.00    -0.482 N  
HETATM    8  H   UNL     1     -13.447   9.143  70.722  1.00  0.00     0.000 HD 
BRANCH   7   9
HETATM    9  S   UNL     1     -11.425  10.169  69.996  1.00  0.00    -0.270 S  
HETATM   10  O   UNL     1     -10.165  10.057  70.704  1.00  0.00    -0.216 OA 
HETATM   11  O   UNL     1     -11.491  10.088  68.553  1.00  0.00    -0.121 OA 
BRANCH   9  12
HETATM   12  C   UNL     1     -12.152  11.713  70.511  1.00  0.00    -0.366 A  
HETATM   13  C   UNL     1     -12.927  11.756  71.676  1.00  0.00    -0.467 A  
HETATM   14  C   UNL     1     -13.464  12.972  72.107  1.00  0.00    -0.638 A  
HETATM   15  C   UNL     1     -13.259  14.147  71.377  1.00  0.00    -0.347 A  
HETATM   16  N   UNL     1     -13.698  15.374  71.884  1.00  0.00    -0.469 NA 
HETATM   17  C   UNL     1     -12.410  14.104  70.267  1.00  0.00    -0.421 A  
HETATM   18  H2  UNL     1     -13.299  15.500  72.814  1.00  0.00     0.000 HD 
HETATM   19  H1  UNL     1     -13.549  16.231  71.352  1.00  0.00     0.000 HD 
HETATM   20  C   UNL     1     -11.874  12.890  69.815  1.00  0.00    -0.380 A  
ENDBRANCH   9  12
ENDBRANCH   7   9
ENDBRANCH   4   7
TORSDOF 3
ENDMDL
MODEL       54
REMARK 921   NORMALIZED FREE ENERGY PREDICTED BY IDOCK:   -5.02 KCAL/MOL
REMARK 922        TOTAL FREE ENERGY PREDICTED BY IDOCK:   -6.36 KCAL/MOL
REMARK 923 INTER-LIGAND FREE ENERGY PREDICTED BY IDOCK:   -6.14 KCAL/MOL
REMARK 924 INTRA-LIGAND FREE ENERGY PREDICTED BY IDOCK:   -0.23 KCAL/MOL
REMARK 927      BINDING AFFINITY PREDICTED BY RF-SCORE:    0.00 PKD
ROOT
HETATM    1  C   UNL     1     -13.437  13.774  72.472  1.00  0.00    -0.682 C  
HETATM    2  C   UNL     1     -12.819  14.206  71.204  1.00  0.00    -0.360 A  
HETATM    3  C   UNL     1     -12.389  15.413  70.714  1.00  0.00    -0.447 A  
HETATM    4  C   UNL     1     -11.939  15.118  69.415  1.00  0.00    -0.307 A  
HETATM    5  O   UNL     1     -12.634  13.247  70.256  1.00  0.00    -0.211 OA 
HETATM    6  N   UNL     1     -12.119  13.832  69.106  1.00  0.00    -0.352 NA 
ENDROOT
BRANCH   4   7
HETATM    7  N   UNL     1     -11.506  16.047  68.480  1.00  0.00    -0.377 N  
HETATM    8  H   UNL     1     -12.053  16.886  68.285  1.00  0.00     0.000 HD 
BRANCH   7   9
HETATM    9  S   UNL     1     -10.049  15.757  67.670  1.00  0.00    -0.251 S  
HETATM   10  O   UNL     1      -9.196  15.054  68.608  1.00  0.00    -0.184 OA 
HETATM   11  O   UNL     1     -10.350  15.209  66.365  1.00  0.00    -0.269 OA 
BRANCH   9  12
HETATM   12  C   UNL     1      -9.330  17.374  67.453  1.00  0.00    -0.237 A  
HETATM   13  C   UNL     1     -10.005  18.332  66.686  1.00  0.00    -0.370 A  
HETATM   14  C   UNL     1      -9.466  19.614  66.550  1.00  0.00    -0.472 A  
HETATM   15  C   UNL     1      -8.248  19.950  67.148  1.00  0.00    -0.312 A  
HETATM   16  N   UNL     1      -7.783  21.268  67.103  1.00  0.00    -0.738 NA 
HETATM   17  C   UNL     1      -7.632  19.011  67.982  1.00  0.00    -0.300 A  
HETATM   18  H2  UNL     1      -8.507  21.878  67.484  1.00  0.00     0.000 HD 
HETATM   19  H1  UNL     1      -6.894  21.513  67.540  1.00  0.00     0.000 HD 
HETATM   20  C   UNL     1      -8.154  17.717  68.121  1.00  0.00    -0.265 A  
ENDBRANCH   9  12
ENDBRANCH   7   9
ENDBRANCH   4   7
TORSDOF 3
ENDMDL
MODEL       55
REMARK 921   NORMALIZED FREE ENERGY PREDICTED BY IDOCK:   -5.00 KCAL/MOL
REMARK 922        TOTAL FREE ENERGY PREDICTED BY IDOCK:   -6.34 KCAL/MOL
REMARK 923 INTER-LIGAND FREE ENERGY PREDICTED BY IDOCK:   -6.42 KCAL/MOL
REMARK 924 INTRA-LIGAND FREE ENERGY PREDICTED BY IDOCK:    0.08 KCAL/MOL
REMARK 927      BINDING AFFINITY PREDICTED BY RF-SCORE:    0.00 PKD
ROOT
HETATM    1  C   UNL     1     -12.717  15.819  73.488  1.00  0.00    -0.696 C  
HETATM    2  C   UNL     1     -12.486  15.308  72.125  1.00  0.00    -0.357 A  
HETATM    3  C   UNL     1     -13.220  14.542  71.254  1.00  0.00    -0.422 A  
HETATM    4  C   UNL     1     -12.383  14.393  70.134  1.00  0.00    -0.348 A  
HETATM    5  O   UNL     1     -11.284  15.602  71.556  1.00  0.00    -0.374 OA 
HETATM    6  N   UNL     1     -11.200  14.984  70.315  1.00  0.00    -0.256 NA 
ENDROOT
BRANCH   4   7
HETATM    7  N   UNL     1     -12.651  13.603  69.026  1.00  0.00    -0.096 N  
HETATM    8  H   UNL     1     -13.501  13.739  68.480  1.00  0.00     0.000 HD 
BRANCH   7   9
HETATM    9  S   UNL     1     -11.534  12.404  68.602  1.00  0.00    -0.327 S  
HETATM   10  O   UNL     1     -12.003  11.834  67.354  1.00  0.00    -0.617 OA 
HETATM   11  O   UNL     1     -10.201  12.952  68.728  1.00  0.00    -0.197 OA 
BRANCH   9  12
HETATM   12  C   UNL     1     -11.746  11.139  69.841  1.00  0.00    -0.355 A  
HETATM   13  C   UNL     1     -13.004  10.952  70.427  1.00  0.00    -0.172 A  
HETATM   14  C   UNL     1     -13.185   9.934  71.367  1.00  0.00    -0.487 A  
HETATM   15  C   UNL     1     -12.121   9.113  71.752  1.00  0.00    -0.376 A  
HETATM   16  N   UNL     1     -12.346   8.024  72.600  1.00  0.00    -0.596 NA 
HETATM   17  C   UNL     1     -10.896   9.255  71.093  1.00  0.00    -0.407 A  
HETATM   18  H2  UNL     1     -13.071   7.438  72.187  1.00  0.00     0.000 HD 
HETATM   19  H1  UNL     1     -11.569   7.425  72.881  1.00  0.00     0.000 HD 
HETATM   20  C   UNL     1     -10.694  10.278  70.156  1.00  0.00    -0.334 A  
ENDBRANCH   9  12
ENDBRANCH   7   9
ENDBRANCH   4   7
TORSDOF 3
ENDMDL
MODEL       56
REMARK 921   NORMALIZED FREE ENERGY PREDICTED BY IDOCK:   -4.99 KCAL/MOL
REMARK 922        TOTAL FREE ENERGY PREDICTED BY IDOCK:   -6.32 KCAL/MOL
REMARK 923 INTER-LIGAND FREE ENERGY PREDICTED BY IDOCK:   -6.19 KCAL/MOL
REMARK 924 INTRA-LIGAND FREE ENERGY PREDICTED BY IDOCK:   -0.13 KCAL/MOL
REMARK 927      BINDING AFFINITY PREDICTED BY RF-SCORE:    0.00 PKD
ROOT
HETATM    1  C   UNL     1      -7.801  18.089  68.230  1.00  0.00    -0.292 C  
HETATM    2  C   UNL     1      -8.409  16.748  68.157  1.00  0.00    -0.201 A  
HETATM    3  C   UNL     1      -9.056  15.942  69.061  1.00  0.00    -0.240 A  
HETATM    4  C   UNL     1      -9.341  14.771  68.336  1.00  0.00    -0.197 A  
HETATM    5  O   UNL     1      -8.317  16.099  66.965  1.00  0.00    -0.179 OA 
HETATM    6  N   UNL     1      -8.867  14.829  67.091  1.00  0.00    -0.203 NA 
ENDROOT
BRANCH   4   7
HETATM    7  N   UNL     1      -9.900  13.615  68.860  1.00  0.00    -0.424 N  
HETATM    8  H   UNL     1      -9.308  12.858  69.205  1.00  0.00     0.000 HD 
BRANCH   7   9
HETATM    9  S   UNL     1     -11.586  13.487  68.915  1.00  0.00    -0.346 S  
HETATM   10  O   UNL     1     -12.095  14.381  67.893  1.00  0.00    -0.334 OA 
HETATM   11  O   UNL     1     -11.941  12.085  68.937  1.00  0.00    -0.297 OA 
BRANCH   9  12
HETATM   12  C   UNL     1     -12.037  14.210  70.481  1.00  0.00    -0.350 A  
HETATM   13  C   UNL     1     -11.847  15.582  70.688  1.00  0.00    -0.400 A  
HETATM   14  C   UNL     1     -12.238  16.160  71.899  1.00  0.00    -0.497 A  
HETATM   15  C   UNL     1     -12.795  15.385  72.920  1.00  0.00    -0.445 A  
HETATM   16  N   UNL     1     -13.293  15.996  74.075  1.00  0.00    -0.848 NA 
HETATM   17  C   UNL     1     -13.060  14.035  72.664  1.00  0.00    -0.553 A  
HETATM   18  H2  UNL     1     -13.976  16.701  73.797  1.00  0.00     0.000 HD 
HETATM   19  H1  UNL     1     -13.699  15.430  74.819  1.00  0.00     0.000 HD 
HETATM   20  C   UNL     1     -12.663  13.437  71.460  1.00  0.00    -0.386 A  
ENDBRANCH   9  12
ENDBRANCH   7   9
ENDBRANCH   4   7
TORSDOF 3
ENDMDL
MODEL       57
REMARK 921   NORMALIZED FREE ENERGY PREDICTED BY IDOCK:   -4.98 KCAL/MOL
REMARK 922        TOTAL FREE ENERGY PREDICTED BY IDOCK:   -6.32 KCAL/MOL
REMARK 923 INTER-LIGAND FREE ENERGY PREDICTED BY IDOCK:   -6.04 KCAL/MOL
REMARK 924 INTRA-LIGAND FREE ENERGY PREDICTED BY IDOCK:   -0.28 KCAL/MOL
REMARK 927      BINDING AFFINITY PREDICTED BY RF-SCORE:    0.00 PKD
ROOT
HETATM    1  C   UNL     1     -10.656  11.379  63.298  1.00  0.00    -0.374 C  
HETATM    2  C   UNL     1     -11.222  12.365  64.237  1.00  0.00    -0.353 A  
HETATM    3  C   UNL     1     -11.239  12.480  65.605  1.00  0.00    -0.352 A  
HETATM    4  C   UNL     1     -11.991  13.645  65.843  1.00  0.00    -0.405 A  
HETATM    5  O   UNL     1     -11.918  13.399  63.692  1.00  0.00    -0.480 OA 
HETATM    6  N   UNL     1     -12.444  14.185  64.710  1.00  0.00    -0.612 NA 
ENDROOT
BRANCH   4   7
HETATM    7  N   UNL     1     -12.374  14.116  67.090  1.00  0.00    -0.572 N  
HETATM    8  H   UNL     1     -13.359  14.261  67.314  1.00  0.00     0.000 HD 
BRANCH   7   9
HETATM    9  S   UNL     1     -11.169  14.446  68.232  1.00  0.00    -0.290 S  
HETATM   10  O   UNL     1     -11.805  15.221  69.280  1.00  0.00    -0.312 OA 
HETATM   11  O   UNL     1     -10.462  13.219  68.523  1.00  0.00    -0.247 OA 
BRANCH   9  12
HETATM   12  C   UNL     1     -10.055  15.558  67.394  1.00  0.00    -0.246 A  
HETATM   13  C   UNL     1     -10.518  16.810  66.970  1.00  0.00    -0.285 A  
HETATM   14  C   UNL     1      -9.637  17.701  66.351  1.00  0.00    -0.285 A  
HETATM   15  C   UNL     1      -8.302  17.352  66.125  1.00  0.00    -0.182 A  
HETATM   16  N   UNL     1      -7.406  18.297  65.616  1.00  0.00    -0.542 NA 
HETATM   17  C   UNL     1      -7.835  16.136  66.633  1.00  0.00    -0.288 A  
HETATM   18  H2  UNL     1      -7.425  19.118  66.222  1.00  0.00     0.000 HD 
HETATM   19  H1  UNL     1      -6.432  18.042  65.452  1.00  0.00     0.000 HD 
HETATM   20  C   UNL     1      -8.708  15.226  67.246  1.00  0.00    -0.216 A  
ENDBRANCH   9  12
ENDBRANCH   7   9
ENDBRANCH   4   7
TORSDOF 3
ENDMDL
MODEL       58
REMARK 921   NORMALIZED FREE ENERGY PREDICTED BY IDOCK:   -4.88 KCAL/MOL
REMARK 922        TOTAL FREE ENERGY PREDICTED BY IDOCK:   -6.20 KCAL/MOL
REMARK 923 INTER-LIGAND FREE ENERGY PREDICTED BY IDOCK:   -5.88 KCAL/MOL
REMARK 924 INTRA-LIGAND FREE ENERGY PREDICTED BY IDOCK:   -0.32 KCAL/MOL
REMARK 927      BINDING AFFINITY PREDICTED BY RF-SCORE:    0.00 PKD
ROOT
HETATM    1  C   UNL     1     -12.514  15.639  74.278  1.00  0.00    -0.804 C  
HETATM    2  C   UNL     1     -12.693  15.231  72.873  1.00  0.00    -0.421 A  
HETATM    3  C   UNL     1     -12.141  15.635  71.683  1.00  0.00    -0.496 A  
HETATM    4  C   UNL     1     -12.795  14.852  70.715  1.00  0.00    -0.372 A  
HETATM    5  O   UNL     1     -13.617  14.262  72.630  1.00  0.00    -0.486 OA 
HETATM    6  N   UNL     1     -13.715  14.054  71.260  1.00  0.00    -0.228 NA 
ENDROOT
BRANCH   4   7
HETATM    7  N   UNL     1     -12.647  14.977  69.342  1.00  0.00    -0.590 N  
HETATM    8  H   UNL     1     -13.101  15.737  68.834  1.00  0.00     0.000 HD 
BRANCH   7   9
HETATM    9  S   UNL     1     -11.696  13.839  68.526  1.00  0.00    -0.374 S  
HETATM   10  O   UNL     1     -11.320  12.843  69.511  1.00  0.00    -0.230 OA 
HETATM   11  O   UNL     1     -12.369  13.472  67.299  1.00  0.00    -0.297 OA 
BRANCH   9  12
HETATM   12  C   UNL     1     -10.203  14.721  68.112  1.00  0.00    -0.228 A  
HETATM   13  C   UNL     1      -9.702  14.655  66.806  1.00  0.00    -0.267 A  
HETATM   14  C   UNL     1      -8.556  15.379  66.466  1.00  0.00    -0.294 A  
HETATM   15  C   UNL     1      -7.885  16.152  67.418  1.00  0.00    -0.154 A  
HETATM   16  N   UNL     1      -6.814  16.965  67.035  1.00  0.00    -0.182 NA 
HETATM   17  C   UNL     1      -8.448  16.278  68.692  1.00  0.00    -0.221 A  
HETATM   18  H2  UNL     1      -7.129  17.581  66.285  1.00  0.00     0.000 HD 
HETATM   19  H1  UNL     1      -6.325  17.529  67.730  1.00  0.00     0.000 HD 
HETATM   20  C   UNL     1      -9.590  15.550  69.053  1.00  0.00    -0.238 A  
ENDBRANCH   9  12
ENDBRANCH   7   9
ENDBRANCH   4   7
TORSDOF 3
ENDMDL
MODEL       59
REMARK 921   NORMALIZED FREE ENERGY PREDICTED BY IDOCK:   -4.80 KCAL/MOL
REMARK 922        TOTAL FREE ENERGY PREDICTED BY IDOCK:   -6.10 KCAL/MOL
REMARK 923 INTER-LIGAND FREE ENERGY PREDICTED BY IDOCK:   -5.93 KCAL/MOL
REMARK 924 INTRA-LIGAND FREE ENERGY PREDICTED BY IDOCK:   -0.17 KCAL/MOL
REMARK 927      BINDING AFFINITY PREDICTED BY RF-SCORE:    0.00 PKD
ROOT
HETATM    1  C   UNL     1     -10.280  11.453  62.718  1.00  0.00    -0.069 C  
HETATM    2  C   UNL     1     -11.096  12.229  63.670  1.00  0.00    -0.469 A  
HETATM    3  C   UNL     1     -10.845  13.299  64.493  1.00  0.00    -0.409 A  
HETATM    4  C   UNL     1     -12.063  13.511  65.165  1.00  0.00    -0.404 A  
HETATM    5  O   UNL     1     -12.386  11.830  63.837  1.00  0.00    -0.371 OA 
HETATM    6  N   UNL     1     -12.985  12.611  64.817  1.00  0.00    -0.867 NA 
ENDROOT
BRANCH   4   7
HETATM    7  N   UNL     1     -12.272  14.425  66.186  1.00  0.00    -0.380 N  
HETATM    8  H   UNL     1     -13.073  15.057  66.166  1.00  0.00     0.000 HD 
BRANCH   7   9
HETATM    9  S   UNL     1     -11.167  14.470  67.467  1.00  0.00    -0.335 S  
HETATM   10  O   UNL     1     -11.903  14.946  68.622  1.00  0.00    -0.325 OA 
HETATM   11  O   UNL     1     -10.443  13.218  67.494  1.00  0.00    -0.233 OA 
BRANCH   9  12
HETATM   12  C   UNL     1     -10.030  15.772  67.028  1.00  0.00    -0.239 A  
HETATM   13  C   UNL     1      -8.724  15.446  66.643  1.00  0.00    -0.332 A  
HETATM   14  C   UNL     1      -7.842  16.460  66.257  1.00  0.00    -0.212 A  
HETATM   15  C   UNL     1      -8.237  17.801  66.273  1.00  0.00    -0.217 A  
HETATM   16  N   UNL     1      -7.386  18.790  65.770  1.00  0.00    -0.469 NA 
HETATM   17  C   UNL     1      -9.570  18.101  66.574  1.00  0.00    -0.318 A  
HETATM   18  H2  UNL     1      -7.133  18.541  64.814  1.00  0.00     0.000 HD 
HETATM   19  H1  UNL     1      -7.675  19.768  65.781  1.00  0.00     0.000 HD 
HETATM   20  C   UNL     1     -10.463  17.097  66.974  1.00  0.00    -0.282 A  
ENDBRANCH   9  12
ENDBRANCH   7   9
ENDBRANCH   4   7
TORSDOF 3
ENDMDL
MODEL       60
REMARK 921   NORMALIZED FREE ENERGY PREDICTED BY IDOCK:   -4.77 KCAL/MOL
REMARK 922        TOTAL FREE ENERGY PREDICTED BY IDOCK:   -6.08 KCAL/MOL
REMARK 923 INTER-LIGAND FREE ENERGY PREDICTED BY IDOCK:   -5.91 KCAL/MOL
REMARK 924 INTRA-LIGAND FREE ENERGY PREDICTED BY IDOCK:   -0.16 KCAL/MOL
REMARK 927      BINDING AFFINITY PREDICTED BY RF-SCORE:    0.00 PKD
ROOT
HETATM    1  C   UNL     1     -14.388  14.484  71.773  1.00  0.00    -0.609 C  
HETATM    2  C   UNL     1     -13.114  14.937  71.184  1.00  0.00    -0.396 A  
HETATM    3  C   UNL     1     -12.295  14.455  70.194  1.00  0.00    -0.406 A  
HETATM    4  C   UNL     1     -11.217  15.358  70.168  1.00  0.00    -0.302 A  
HETATM    5  O   UNL     1     -12.561  16.062  71.714  1.00  0.00    -0.456 OA 
HETATM    6  N   UNL     1     -11.337  16.303  71.103  1.00  0.00    -0.340 NA 
ENDROOT
BRANCH   4   7
HETATM    7  N   UNL     1     -10.073  15.226  69.395  1.00  0.00    -0.252 N  
HETATM    8  H   UNL     1      -9.188  14.942  69.815  1.00  0.00     0.000 HD 
BRANCH   7   9
HETATM    9  S   UNL     1     -10.179  15.550  67.737  1.00  0.00    -0.246 S  
HETATM   10  O   UNL     1      -9.221  14.675  67.091  1.00  0.00    -0.202 OA 
HETATM   11  O   UNL     1     -11.575  15.554  67.358  1.00  0.00    -0.222 OA 
BRANCH   9  12
HETATM   12  C   UNL     1      -9.540  17.205  67.565  1.00  0.00    -0.254 A  
HETATM   13  C   UNL     1      -9.661  17.868  66.337  1.00  0.00    -0.321 A  
HETATM   14  C   UNL     1      -9.200  19.181  66.210  1.00  0.00    -0.335 A  
HETATM   15  C   UNL     1      -8.595  19.838  67.285  1.00  0.00    -0.321 A  
HETATM   16  N   UNL     1      -8.251  21.189  67.178  1.00  0.00    -0.588 NA 
HETATM   17  C   UNL     1      -8.562  19.196  68.527  1.00  0.00    -0.398 A  
HETATM   18  H2  UNL     1      -9.083  21.713  66.908  1.00  0.00     0.000 HD 
HETATM   19  H1  UNL     1      -7.809  21.668  67.963  1.00  0.00     0.000 HD 
HETATM   20  C   UNL     1      -9.010  17.875  68.669  1.00  0.00    -0.262 A  
ENDBRANCH   9  12
ENDBRANCH   7   9
ENDBRANCH   4   7
TORSDOF 3
ENDMDL
MODEL       61
REMARK 921   NORMALIZED FREE ENERGY PREDICTED BY IDOCK:   -4.75 KCAL/MOL
REMARK 922        TOTAL FREE ENERGY PREDICTED BY IDOCK:   -6.05 KCAL/MOL
REMARK 923 INTER-LIGAND FREE ENERGY PREDICTED BY IDOCK:   -5.81 KCAL/MOL
REMARK 924 INTRA-LIGAND FREE ENERGY PREDICTED BY IDOCK:   -0.24 KCAL/MOL
REMARK 927      BINDING AFFINITY PREDICTED BY RF-SCORE:    0.00 PKD
ROOT
HETATM    1  C   UNL     1      -5.890   8.978  68.864  1.00  0.00    -0.040 C  
HETATM    2  C   UNL     1      -6.885  10.051  68.683  1.00  0.00    -0.054 A  
HETATM    3  C   UNL     1      -8.213  10.186  69.002  1.00  0.00    -0.132 A  
HETATM    4  C   UNL     1      -8.561  11.455  68.505  1.00  0.00    -0.150 A  
HETATM    5  O   UNL     1      -6.464  11.174  68.039  1.00  0.00    -0.056 OA 
HETATM    6  N   UNL     1      -7.536  12.044  67.884  1.00  0.00    -0.104 NA 
ENDROOT
BRANCH   4   7
HETATM    7  N   UNL     1      -9.838  11.996  68.496  1.00  0.00    -0.295 N  
HETATM    8  H   UNL     1     -10.124  12.672  69.204  1.00  0.00     0.000 HD 
BRANCH   7   9
HETATM    9  S   UNL     1     -10.911  11.508  67.282  1.00  0.00    -0.287 S  
HETATM   10  O   UNL     1     -10.216  10.499  66.507  1.00  0.00    -0.217 OA 
HETATM   11  O   UNL     1     -12.199  11.243  67.885  1.00  0.00    -0.570 OA 
BRANCH   9  12
HETATM   12  C   UNL     1     -11.064  12.934  66.223  1.00  0.00    -0.288 A  
HETATM   13  C   UNL     1     -12.214  13.092  65.439  1.00  0.00    -0.510 A  
HETATM   14  C   UNL     1     -12.357  14.230  64.641  1.00  0.00    -0.433 A  
HETATM   15  C   UNL     1     -11.356  15.205  64.591  1.00  0.00    -0.356 A  
HETATM   16  N   UNL     1     -11.567  16.392  63.884  1.00  0.00    -1.602 NA 
HETATM   17  C   UNL     1     -10.257  15.076  65.446  1.00  0.00    -0.411 A  
HETATM   18  H2  UNL     1     -12.422  16.827  64.231  1.00  0.00     0.000 HD 
HETATM   19  H1  UNL     1     -10.836  17.104  63.848  1.00  0.00     0.000 HD 
HETATM   20  C   UNL     1     -10.092  13.936  66.245  1.00  0.00    -0.306 A  
ENDBRANCH   9  12
ENDBRANCH   7   9
ENDBRANCH   4   7
TORSDOF 3
ENDMDL
MODEL       62
REMARK 921   NORMALIZED FREE ENERGY PREDICTED BY IDOCK:   -4.72 KCAL/MOL
REMARK 922        TOTAL FREE ENERGY PREDICTED BY IDOCK:   -6.01 KCAL/MOL
REMARK 923 INTER-LIGAND FREE ENERGY PREDICTED BY IDOCK:   -5.99 KCAL/MOL
REMARK 924 INTRA-LIGAND FREE ENERGY PREDICTED BY IDOCK:   -0.02 KCAL/MOL
REMARK 927      BINDING AFFINITY PREDICTED BY RF-SCORE:    0.00 PKD
ROOT
HETATM    1  C   UNL     1     -11.741  16.053  72.125  1.00  0.00    -0.587 C  
HETATM    2  C   UNL     1     -11.591  15.383  70.820  1.00  0.00    -0.347 A  
HETATM    3  C   UNL     1     -12.459  14.751  69.965  1.00  0.00    -0.327 A  
HETATM    4  C   UNL     1     -11.641  14.300  68.913  1.00  0.00    -0.305 A  
HETATM    5  O   UNL     1     -10.332  15.317  70.308  1.00  0.00    -0.253 OA 
HETATM    6  N   UNL     1     -10.356  14.591  69.123  1.00  0.00    -0.221 NA 
ENDROOT
BRANCH   4   7
HETATM    7  N   UNL     1     -12.055  13.507  67.853  1.00  0.00    -0.323 N  
HETATM    8  H   UNL     1     -12.462  12.587  68.017  1.00  0.00     0.000 HD 
BRANCH   7   9
HETATM    9  S   UNL     1     -11.866  14.102  66.280  1.00  0.00    -0.425 S  
HETATM   10  O   UNL     1     -13.204  14.313  65.762  1.00  0.00    -0.427 OA 
HETATM   11  O   UNL     1     -10.889  15.169  66.306  1.00  0.00    -0.324 OA 
BRANCH   9  12
HETATM   12  C   UNL     1     -11.185  12.732  65.365  1.00  0.00    -0.292 A  
HETATM   13  C   UNL     1     -11.653  12.466  64.072  1.00  0.00    -0.488 A  
HETATM   14  C   UNL     1     -11.093  11.420  63.334  1.00  0.00    -0.308 A  
HETATM   15  C   UNL     1     -10.086  10.616  63.877  1.00  0.00    -0.289 A  
HETATM   16  N   UNL     1      -9.452   9.654  63.085  1.00  0.00    -0.523 NA 
HETATM   17  C   UNL     1      -9.568  10.951  65.133  1.00  0.00    -0.291 A  
HETATM   18  H2  UNL     1      -9.082  10.114  62.253  1.00  0.00     0.000 HD 
HETATM   19  H1  UNL     1      -8.716   9.068  63.481  1.00  0.00     0.000 HD 
HETATM   20  C   UNL     1     -10.127  11.990  65.890  1.00  0.00    -0.264 A  
ENDBRANCH   9  12
ENDBRANCH   7   9
ENDBRANCH   4   7
TORSDOF 3
ENDMDL
MODEL       63
REMARK 921   NORMALIZED FREE ENERGY PREDICTED BY IDOCK:   -4.71 KCAL/MOL
REMARK 922        TOTAL FREE ENERGY PREDICTED BY IDOCK:   -6.01 KCAL/MOL
REMARK 923 INTER-LIGAND FREE ENERGY PREDICTED BY IDOCK:   -5.66 KCAL/MOL
REMARK 924 INTRA-LIGAND FREE ENERGY PREDICTED BY IDOCK:   -0.34 KCAL/MOL
REMARK 927      BINDING AFFINITY PREDICTED BY RF-SCORE:    0.00 PKD
ROOT
HETATM    1  C   UNL     1      -8.782   9.717  62.962  1.00  0.00    -0.228 C  
HETATM    2  C   UNL     1      -9.666  10.689  63.633  1.00  0.00    -0.330 A  
HETATM    3  C   UNL     1     -10.302  10.721  64.849  1.00  0.00    -0.369 A  
HETATM    4  C   UNL     1     -11.021  11.930  64.831  1.00  0.00    -0.313 A  
HETATM    5  O   UNL     1      -9.982  11.813  62.933  1.00  0.00    -0.336 OA 
HETATM    6  N   UNL     1     -10.877  12.576  63.672  1.00  0.00    -0.443 NA 
ENDROOT
BRANCH   4   7
HETATM    7  N   UNL     1     -11.909  12.354  65.808  1.00  0.00    -0.421 N  
HETATM    8  H   UNL     1     -12.906  12.159  65.728  1.00  0.00     0.000 HD 
BRANCH   7   9
HETATM    9  S   UNL     1     -11.298  13.206  67.137  1.00  0.00    -0.333 S  
HETATM   10  O   UNL     1      -9.883  13.394  66.883  1.00  0.00    -0.242 OA 
HETATM   11  O   UNL     1     -12.172  14.326  67.407  1.00  0.00    -0.378 OA 
BRANCH   9  12
HETATM   12  C   UNL     1     -11.414  12.056  68.494  1.00  0.00    -0.293 A  
HETATM   13  C   UNL     1     -12.085  12.435  69.664  1.00  0.00    -0.271 A  
HETATM   14  C   UNL     1     -12.215  11.522  70.714  1.00  0.00    -0.463 A  
HETATM   15  C   UNL     1     -11.664  10.240  70.625  1.00  0.00    -0.348 A  
HETATM   16  N   UNL     1     -11.908   9.300  71.631  1.00  0.00    -0.360 NA 
HETATM   17  C   UNL     1     -11.077   9.848  69.418  1.00  0.00    -0.237 A  
HETATM   18  H2  UNL     1     -12.917   9.209  71.749  1.00  0.00     0.000 HD 
HETATM   19  H1  UNL     1     -11.506   8.365  71.566  1.00  0.00     0.000 HD 
HETATM   20  C   UNL     1     -10.928  10.755  68.360  1.00  0.00    -0.299 A  
ENDBRANCH   9  12
ENDBRANCH   7   9
ENDBRANCH   4   7
TORSDOF 3
ENDMDL
MODEL       64
REMARK 921   NORMALIZED FREE ENERGY PREDICTED BY IDOCK:   -4.71 KCAL/MOL
REMARK 922        TOTAL FREE ENERGY PREDICTED BY IDOCK:   -6.00 KCAL/MOL
REMARK 923 INTER-LIGAND FREE ENERGY PREDICTED BY IDOCK:   -5.80 KCAL/MOL
REMARK 924 INTRA-LIGAND FREE ENERGY PREDICTED BY IDOCK:   -0.20 KCAL/MOL
REMARK 927      BINDING AFFINITY PREDICTED BY RF-SCORE:    0.00 PKD
ROOT
HETATM    1  C   UNL     1     -10.644  19.526  65.725  1.00  0.00    -0.522 C  
HETATM    2  C   UNL     1     -10.504  18.254  66.456  1.00  0.00    -0.356 A  
HETATM    3  C   UNL     1     -10.256  16.957  66.078  1.00  0.00    -0.350 A  
HETATM    4  C   UNL     1     -10.294  16.233  67.284  1.00  0.00    -0.285 A  
HETATM    5  O   UNL     1     -10.675  18.301  67.805  1.00  0.00    -0.411 OA 
HETATM    6  N   UNL     1     -10.589  17.015  68.324  1.00  0.00    -0.357 NA 
ENDROOT
BRANCH   4   7
HETATM    7  N   UNL     1     -10.203  14.854  67.399  1.00  0.00    -0.233 N  
HETATM    8  H   UNL     1      -9.598  14.427  68.100  1.00  0.00     0.000 HD 
BRANCH   7   9
HETATM    9  S   UNL     1     -11.121  13.895  66.349  1.00  0.00    -0.315 S  
HETATM   10  O   UNL     1     -12.486  14.376  66.448  1.00  0.00    -0.389 OA 
HETATM   11  O   UNL     1     -10.437  13.821  65.077  1.00  0.00    -0.356 OA 
BRANCH   9  12
HETATM   12  C   UNL     1     -11.106  12.277  67.097  1.00  0.00    -0.278 A  
HETATM   13  C   UNL     1     -10.549  11.199  66.397  1.00  0.00    -0.315 A  
HETATM   14  C   UNL     1     -10.496   9.937  66.996  1.00  0.00    -0.296 A  
HETATM   15  C   UNL     1     -11.015   9.727  68.277  1.00  0.00    -0.164 A  
HETATM   16  N   UNL     1     -10.845   8.492  68.909  1.00  0.00    -0.428 NA 
HETATM   17  C   UNL     1     -11.485  10.831  68.996  1.00  0.00    -0.368 A  
HETATM   18  H2  UNL     1      -9.849   8.272  68.925  1.00  0.00     0.000 HD 
HETATM   19  H1  UNL     1     -11.223   8.339  69.845  1.00  0.00     0.000 HD 
HETATM   20  C   UNL     1     -11.556  12.100  68.406  1.00  0.00    -0.381 A  
ENDBRANCH   9  12
ENDBRANCH   7   9
ENDBRANCH   4   7
TORSDOF 3
ENDMDL
MODEL       65
REMARK 921   NORMALIZED FREE ENERGY PREDICTED BY IDOCK:   -4.71 KCAL/MOL
REMARK 922        TOTAL FREE ENERGY PREDICTED BY IDOCK:   -5.99 KCAL/MOL
REMARK 923 INTER-LIGAND FREE ENERGY PREDICTED BY IDOCK:   -5.90 KCAL/MOL
REMARK 924 INTRA-LIGAND FREE ENERGY PREDICTED BY IDOCK:   -0.09 KCAL/MOL
REMARK 927      BINDING AFFINITY PREDICTED BY RF-SCORE:    0.00 PKD
ROOT
HETATM    1  C   UNL     1     -12.483  15.257  73.772  1.00  0.00    -0.746 C  
HETATM    2  C   UNL     1     -12.388  15.204  72.302  1.00  0.00    -0.363 A  
HETATM    3  C   UNL     1     -12.729  14.270  71.356  1.00  0.00    -0.424 A  
HETATM    4  C   UNL     1     -12.325  14.848  70.139  1.00  0.00    -0.327 A  
HETATM    5  O   UNL     1     -11.820  16.277  71.687  1.00  0.00    -0.477 OA 
HETATM    6  N   UNL     1     -11.737  16.032  70.322  1.00  0.00    -0.330 NA 
ENDROOT
BRANCH   4   7
HETATM    7  N   UNL     1     -12.366  14.228  68.898  1.00  0.00    -0.570 N  
HETATM    8  H   UNL     1     -13.255  14.064  68.426  1.00  0.00     0.000 HD 
BRANCH   7   9
HETATM    9  S   UNL     1     -10.907  13.750  68.187  1.00  0.00    -0.253 S  
HETATM   10  O   UNL     1     -11.056  13.977  66.763  1.00  0.00    -0.297 OA 
HETATM   11  O   UNL     1      -9.816  14.336  68.936  1.00  0.00    -0.213 OA 
BRANCH   9  12
HETATM   12  C   UNL     1     -10.862  11.982  68.410  1.00  0.00    -0.233 A  
HETATM   13  C   UNL     1     -11.155  11.437  69.667  1.00  0.00    -0.241 A  
HETATM   14  C   UNL     1     -11.162  10.050  69.835  1.00  0.00    -0.327 A  
HETATM   15  C   UNL     1     -10.857   9.194  68.773  1.00  0.00    -0.060 A  
HETATM   16  N   UNL     1     -10.988   7.810  68.925  1.00  0.00    -0.425 NA 
HETATM   17  C   UNL     1     -10.655   9.750  67.505  1.00  0.00    -0.335 A  
HETATM   18  H2  UNL     1     -11.938   7.609  69.237  1.00  0.00     0.000 HD 
HETATM   19  H1  UNL     1     -10.765   7.186  68.149  1.00  0.00     0.000 HD 
HETATM   20  C   UNL     1     -10.633  11.139  67.321  1.00  0.00    -0.279 A  
ENDBRANCH   9  12
ENDBRANCH   7   9
ENDBRANCH   4   7
TORSDOF 3
ENDMDL
MODEL       66
REMARK 921   NORMALIZED FREE ENERGY PREDICTED BY IDOCK:   -4.70 KCAL/MOL
REMARK 922        TOTAL FREE ENERGY PREDICTED BY IDOCK:   -5.99 KCAL/MOL
REMARK 923 INTER-LIGAND FREE ENERGY PREDICTED BY IDOCK:   -5.69 KCAL/MOL
REMARK 924 INTRA-LIGAND FREE ENERGY PREDICTED BY IDOCK:   -0.30 KCAL/MOL
REMARK 927      BINDING AFFINITY PREDICTED BY RF-SCORE:    0.00 PKD
ROOT
HETATM    1  C   UNL     1      -7.886   7.848  68.931  1.00  0.00    -0.117 C  
HETATM    2  C   UNL     1      -8.543   9.152  68.729  1.00  0.00    -0.131 A  
HETATM    3  C   UNL     1      -8.883  10.189  69.562  1.00  0.00    -0.198 A  
HETATM    4  C   UNL     1      -9.525  11.114  68.718  1.00  0.00    -0.165 A  
HETATM    5  O   UNL     1      -8.953   9.442  67.464  1.00  0.00    -0.122 OA 
HETATM    6  N   UNL     1      -9.616  10.663  67.465  1.00  0.00    -0.160 NA 
ENDROOT
BRANCH   4   7
HETATM    7  N   UNL     1     -10.144  12.285  69.127  1.00  0.00    -0.403 N  
HETATM    8  H   UNL     1      -9.595  13.078  69.458  1.00  0.00     0.000 HD 
BRANCH   7   9
HETATM    9  S   UNL     1     -11.833  12.368  69.066  1.00  0.00    -0.269 S  
HETATM   10  O   UNL     1     -12.161  13.093  67.854  1.00  0.00    -0.321 OA 
HETATM   11  O   UNL     1     -12.369  11.049  69.326  1.00  0.00    -0.412 OA 
BRANCH   9  12
HETATM   12  C   UNL     1     -12.276  13.437  70.423  1.00  0.00    -0.345 A  
HETATM   13  C   UNL     1     -13.131  12.961  71.425  1.00  0.00    -0.331 A  
HETATM   14  C   UNL     1     -13.446  13.780  72.512  1.00  0.00    -0.682 A  
HETATM   15  C   UNL     1     -12.941  15.081  72.603  1.00  0.00    -0.400 A  
HETATM   16  N   UNL     1     -13.167  15.843  73.754  1.00  0.00    -0.815 NA 
HETATM   17  C   UNL     1     -12.020  15.508  71.642  1.00  0.00    -0.478 A  
HETATM   18  H2  UNL     1     -12.838  15.313  74.561  1.00  0.00     0.000 HD 
HETATM   19  H1  UNL     1     -12.798  16.792  73.820  1.00  0.00     0.000 HD 
HETATM   20  C   UNL     1     -11.702  14.703  70.539  1.00  0.00    -0.345 A  
ENDBRANCH   9  12
ENDBRANCH   7   9
ENDBRANCH   4   7
TORSDOF 3
ENDMDL
MODEL       67
REMARK 921   NORMALIZED FREE ENERGY PREDICTED BY IDOCK:   -4.70 KCAL/MOL
REMARK 922        TOTAL FREE ENERGY PREDICTED BY IDOCK:   -5.99 KCAL/MOL
REMARK 923 INTER-LIGAND FREE ENERGY PREDICTED BY IDOCK:   -5.66 KCAL/MOL
REMARK 924 INTRA-LIGAND FREE ENERGY PREDICTED BY IDOCK:   -0.33 KCAL/MOL
REMARK 927      BINDING AFFINITY PREDICTED BY RF-SCORE:    0.00 PKD
ROOT
HETATM    1  C   UNL     1      -8.256   5.817  69.258  1.00  0.00    -0.105 C  
HETATM    2  C   UNL     1      -9.591   6.189  69.761  1.00  0.00    -0.150 A  
HETATM    3  C   UNL     1     -10.424   7.261  69.556  1.00  0.00    -0.238 A  
HETATM    4  C   UNL     1     -11.533   7.000  70.381  1.00  0.00    -0.310 A  
HETATM    5  O   UNL     1     -10.170   5.337  70.650  1.00  0.00    -0.226 OA 
HETATM    6  N   UNL     1     -11.378   5.873  71.079  1.00  0.00    -0.222 NA 
ENDROOT
BRANCH   4   7
HETATM    7  N   UNL     1     -12.600   7.859  70.594  1.00  0.00    -0.433 N  
HETATM    8  H   UNL     1     -13.388   7.885  69.948  1.00  0.00     0.000 HD 
BRANCH   7   9
HETATM    9  S   UNL     1     -12.563   8.867  71.953  1.00  0.00    -0.406 S  
HETATM   10  O   UNL     1     -13.874   8.770  72.567  1.00  0.00    -0.422 OA 
HETATM   11  O   UNL     1     -11.357   8.588  72.701  1.00  0.00    -0.343 OA 
BRANCH   9  12
HETATM   12  C   UNL     1     -12.446  10.515  71.283  1.00  0.00    -0.419 A  
HETATM   13  C   UNL     1     -11.836  10.712  70.038  1.00  0.00    -0.403 A  
HETATM   14  C   UNL     1     -11.780  11.995  69.489  1.00  0.00    -0.408 A  
HETATM   15  C   UNL     1     -12.303  13.095  70.176  1.00  0.00    -0.213 A  
HETATM   16  N   UNL     1     -12.349  14.350  69.561  1.00  0.00    -0.509 NA 
HETATM   17  C   UNL     1     -12.987  12.869  71.374  1.00  0.00    -0.362 A  
HETATM   18  H2  UNL     1     -12.847  14.257  68.676  1.00  0.00     0.000 HD 
HETATM   19  H1  UNL     1     -12.731  15.152  70.063  1.00  0.00     0.000 HD 
HETATM   20  C   UNL     1     -13.042  11.589  71.944  1.00  0.00    -0.492 A  
ENDBRANCH   9  12
ENDBRANCH   7   9
ENDBRANCH   4   7
TORSDOF 3
ENDMDL
MODEL       68
REMARK 921   NORMALIZED FREE ENERGY PREDICTED BY IDOCK:   -4.69 KCAL/MOL
REMARK 922        TOTAL FREE ENERGY PREDICTED BY IDOCK:   -5.98 KCAL/MOL
REMARK 923 INTER-LIGAND FREE ENERGY PREDICTED BY IDOCK:   -5.68 KCAL/MOL
REMARK 924 INTRA-LIGAND FREE ENERGY PREDICTED BY IDOCK:   -0.30 KCAL/MOL
REMARK 927      BINDING AFFINITY PREDICTED BY RF-SCORE:    0.00 PKD
ROOT
HETATM    1  C   UNL     1     -10.712  14.902  65.332  1.00  0.00    -0.391 C  
HETATM    2  C   UNL     1     -10.555  14.123  66.573  1.00  0.00    -0.282 A  
HETATM    3  C   UNL     1     -10.152  12.841  66.852  1.00  0.00    -0.234 A  
HETATM    4  C   UNL     1     -10.275  12.736  68.249  1.00  0.00    -0.244 A  
HETATM    5  O   UNL     1     -10.893  14.747  67.734  1.00  0.00    -0.266 OA 
HETATM    6  N   UNL     1     -10.761  13.854  68.791  1.00  0.00    -0.260 NA 
ENDROOT
BRANCH   4   7
HETATM    7  N   UNL     1     -10.082  11.580  68.991  1.00  0.00    -0.395 N  
HETATM    8  H   UNL     1      -9.265  11.476  69.592  1.00  0.00     0.000 HD 
BRANCH   7   9
HETATM    9  S   UNL     1     -11.235  10.346  68.876  1.00  0.00    -0.214 S  
HETATM   10  O   UNL     1     -12.530  10.992  68.955  1.00  0.00    -0.449 OA 
HETATM   11  O   UNL     1     -10.883   9.490  67.764  1.00  0.00    -0.269 OA 
BRANCH   9  12
HETATM   12  C   UNL     1     -11.045   9.418  70.387  1.00  0.00    -0.261 A  
HETATM   13  C   UNL     1      -9.765   9.212  70.914  1.00  0.00    -0.352 A  
HETATM   14  C   UNL     1      -9.615   8.523  72.121  1.00  0.00    -0.382 A  
HETATM   15  C   UNL     1     -10.725   8.011  72.799  1.00  0.00    -0.362 A  
HETATM   16  N   UNL     1     -10.570   7.431  74.062  1.00  0.00    -0.536 NA 
HETATM   17  C   UNL     1     -12.001   8.302  72.306  1.00  0.00    -0.448 A  
HETATM   18  H2  UNL     1     -10.104   8.104  74.670  1.00  0.00     0.000 HD 
HETATM   19  H1  UNL     1     -11.381   7.058  74.557  1.00  0.00     0.000 HD 
HETATM   20  C   UNL     1     -12.168   8.983  71.092  1.00  0.00    -0.331 A  
ENDBRANCH   9  12
ENDBRANCH   7   9
ENDBRANCH   4   7
TORSDOF 3
ENDMDL
MODEL       69
REMARK 921   NORMALIZED FREE ENERGY PREDICTED BY IDOCK:   -4.67 KCAL/MOL
REMARK 922        TOTAL FREE ENERGY PREDICTED BY IDOCK:   -5.95 KCAL/MOL
REMARK 923 INTER-LIGAND FREE ENERGY PREDICTED BY IDOCK:   -5.76 KCAL/MOL
REMARK 924 INTRA-LIGAND FREE ENERGY PREDICTED BY IDOCK:   -0.19 KCAL/MOL
REMARK 927      BINDING AFFINITY PREDICTED BY RF-SCORE:    0.00 PKD
ROOT
HETATM    1  C   UNL     1     -11.779  15.994  64.235  1.00  0.00    -0.081 C  
HETATM    2  C   UNL     1     -11.774  14.536  64.454  1.00  0.00    -0.367 A  
HETATM    3  C   UNL     1     -10.803  13.567  64.406  1.00  0.00    -0.403 A  
HETATM    4  C   UNL     1     -11.494  12.373  64.681  1.00  0.00    -0.331 A  
HETATM    5  O   UNL     1     -12.970  13.957  64.746  1.00  0.00    -0.686 OA 
HETATM    6  N   UNL     1     -12.802  12.581  64.844  1.00  0.00    -0.800 NA 
ENDROOT
BRANCH   4   7
HETATM    7  N   UNL     1     -10.950  11.098  64.638  1.00  0.00    -0.234 N  
HETATM    8  H   UNL     1     -11.171  10.461  63.872  1.00  0.00     0.000 HD 
BRANCH   7   9
HETATM    9  S   UNL     1      -9.911  10.622  65.886  1.00  0.00    -0.267 S  
HETATM   10  O   UNL     1     -10.071   9.187  66.023  1.00  0.00    -0.284 OA 
HETATM   11  O   UNL     1      -8.614  11.219  65.657  1.00  0.00    -0.137 OA 
BRANCH   9  12
HETATM   12  C   UNL     1     -10.618  11.346  67.354  1.00  0.00    -0.218 A  
HETATM   13  C   UNL     1     -11.406  10.557  68.202  1.00  0.00    -0.324 A  
HETATM   14  C   UNL     1     -11.926  11.109  69.375  1.00  0.00    -0.420 A  
HETATM   15  C   UNL     1     -11.694  12.447  69.705  1.00  0.00    -0.291 A  
HETATM   16  N   UNL     1     -12.118  12.950  70.940  1.00  0.00    -0.457 NA 
HETATM   17  C   UNL     1     -10.833  13.195  68.896  1.00  0.00    -0.240 A  
HETATM   18  H2  UNL     1     -11.727  12.364  71.677  1.00  0.00     0.000 HD 
HETATM   19  H1  UNL     1     -11.947  13.927  71.181  1.00  0.00     0.000 HD 
HETATM   20  C   UNL     1     -10.312  12.660  67.709  1.00  0.00    -0.221 A  
ENDBRANCH   9  12
ENDBRANCH   7   9
ENDBRANCH   4   7
TORSDOF 3
ENDMDL
MODEL       70
REMARK 921   NORMALIZED FREE ENERGY PREDICTED BY IDOCK:   -4.64 KCAL/MOL
REMARK 922        TOTAL FREE ENERGY PREDICTED BY IDOCK:   -5.91 KCAL/MOL
REMARK 923 INTER-LIGAND FREE ENERGY PREDICTED BY IDOCK:   -5.57 KCAL/MOL
REMARK 924 INTRA-LIGAND FREE ENERGY PREDICTED BY IDOCK:   -0.35 KCAL/MOL
REMARK 927      BINDING AFFINITY PREDICTED BY RF-SCORE:    0.00 PKD
ROOT
HETATM    1  C   UNL     1     -10.317  13.022  65.851  1.00  0.00    -0.296 C  
HETATM    2  C   UNL     1     -10.319  11.580  66.160  1.00  0.00    -0.245 A  
HETATM    3  C   UNL     1     -10.969  10.803  67.085  1.00  0.00    -0.324 A  
HETATM    4  C   UNL     1     -10.477   9.506  66.853  1.00  0.00    -0.208 A  
HETATM    5  O   UNL     1      -9.491  10.795  65.418  1.00  0.00    -0.190 OA 
HETATM    6  N   UNL     1      -9.556   9.489  65.887  1.00  0.00    -0.242 NA 
ENDROOT
BRANCH   4   7
HETATM    7  N   UNL     1     -10.764   8.385  67.618  1.00  0.00    -0.476 N  
HETATM    8  H   UNL     1     -11.426   7.683  67.288  1.00  0.00     0.000 HD 
BRANCH   7   9
HETATM    9  S   UNL     1      -9.991   8.210  69.113  1.00  0.00    -0.197 S  
HETATM   10  O   UNL     1      -9.569   6.825  69.193  1.00  0.00    -0.141 OA 
HETATM   11  O   UNL     1      -9.051   9.297  69.276  1.00  0.00    -0.143 OA 
BRANCH   9  12
HETATM   12  C   UNL     1     -11.295   8.405  70.314  1.00  0.00    -0.129 A  
HETATM   13  C   UNL     1     -11.676   7.312  71.102  1.00  0.00    -0.334 A  
HETATM   14  C   UNL     1     -12.668   7.471  72.074  1.00  0.00    -0.246 A  
HETATM   15  C   UNL     1     -13.306   8.702  72.255  1.00  0.00    -0.375 A  
HETATM   16  N   UNL     1     -14.207   8.877  73.310  1.00  0.00    -1.237 NA 
HETATM   17  C   UNL     1     -12.852   9.803  71.523  1.00  0.00    -0.502 A  
HETATM   18  H2  UNL     1     -13.737   8.627  74.180  1.00  0.00     0.000 HD 
HETATM   19  H1  UNL     1     -14.672   9.776  73.443  1.00  0.00     0.000 HD 
HETATM   20  C   UNL     1     -11.866   9.658  70.537  1.00  0.00    -0.284 A  
ENDBRANCH   9  12
ENDBRANCH   7   9
ENDBRANCH   4   7
TORSDOF 3
ENDMDL
MODEL       71
REMARK 921   NORMALIZED FREE ENERGY PREDICTED BY IDOCK:   -4.63 KCAL/MOL
REMARK 922        TOTAL FREE ENERGY PREDICTED BY IDOCK:   -5.91 KCAL/MOL
REMARK 923 INTER-LIGAND FREE ENERGY PREDICTED BY IDOCK:   -6.12 KCAL/MOL
REMARK 924 INTRA-LIGAND FREE ENERGY PREDICTED BY IDOCK:    0.21 KCAL/MOL
REMARK 927      BINDING AFFINITY PREDICTED BY RF-SCORE:    0.00 PKD
ROOT
HETATM    1  C   UNL     1      -9.824  11.637  63.090  1.00  0.00    -0.407 C  
HETATM    2  C   UNL     1     -10.724  12.325  64.033  1.00  0.00    -0.396 A  
HETATM    3  C   UNL     1     -10.616  13.455  64.805  1.00  0.00    -0.420 A  
HETATM    4  C   UNL     1     -11.837  13.515  65.502  1.00  0.00    -0.363 A  
HETATM    5  O   UNL     1     -11.937  11.748  64.253  1.00  0.00    -0.280 OA 
HETATM    6  N   UNL     1     -12.623  12.475  65.217  1.00  0.00    -0.637 NA 
ENDROOT
BRANCH   4   7
HETATM    7  N   UNL     1     -12.156  14.433  66.492  1.00  0.00    -0.406 N  
HETATM    8  H   UNL     1     -12.983  15.024  66.409  1.00  0.00     0.000 HD 
BRANCH   7   9
HETATM    9  S   UNL     1     -11.141  14.550  67.840  1.00  0.00    -0.291 S  
HETATM   10  O   UNL     1      -9.786  14.607  67.326  1.00  0.00    -0.227 OA 
HETATM   11  O   UNL     1     -11.659  15.576  68.719  1.00  0.00    -0.342 OA 
BRANCH   9  12
HETATM   12  C   UNL     1     -11.299  12.972  68.656  1.00  0.00    -0.291 A  
HETATM   13  C   UNL     1     -12.056  12.875  69.830  1.00  0.00    -0.335 A  
HETATM   14  C   UNL     1     -12.219  11.633  70.449  1.00  0.00    -0.434 A  
HETATM   15  C   UNL     1     -11.615  10.485  69.926  1.00  0.00    -0.307 A  
HETATM   16  N   UNL     1     -11.887   9.232  70.486  1.00  0.00    -0.442 NA 
HETATM   17  C   UNL     1     -10.939  10.583  68.706  1.00  0.00    -0.296 A  
HETATM   18  H2  UNL     1     -12.897   9.092  70.487  1.00  0.00     0.000 HD 
HETATM   19  H1  UNL     1     -11.447   8.395  70.104  1.00  0.00     0.000 HD 
HETATM   20  C   UNL     1     -10.757  11.823  68.079  1.00  0.00    -0.244 A  
ENDBRANCH   9  12
ENDBRANCH   7   9
ENDBRANCH   4   7
TORSDOF 3
ENDMDL
MODEL       72
REMARK 921   NORMALIZED FREE ENERGY PREDICTED BY IDOCK:   -4.63 KCAL/MOL
REMARK 922        TOTAL FREE ENERGY PREDICTED BY IDOCK:   -5.90 KCAL/MOL
REMARK 923 INTER-LIGAND FREE ENERGY PREDICTED BY IDOCK:   -5.86 KCAL/MOL
REMARK 924 INTRA-LIGAND FREE ENERGY PREDICTED BY IDOCK:   -0.04 KCAL/MOL
REMARK 927      BINDING AFFINITY PREDICTED BY RF-SCORE:    0.00 PKD
ROOT
HETATM    1  C   UNL     1     -11.366  10.588  69.990  1.00  0.00    -0.392 C  
HETATM    2  C   UNL     1     -11.688  11.805  69.223  1.00  0.00    -0.335 A  
HETATM    3  C   UNL     1     -11.768  12.097  67.884  1.00  0.00    -0.403 A  
HETATM    4  C   UNL     1     -12.084  13.467  67.847  1.00  0.00    -0.251 A  
HETATM    5  O   UNL     1     -11.946  12.931  69.942  1.00  0.00    -0.324 OA 
HETATM    6  N   UNL     1     -12.151  13.994  69.071  1.00  0.00    -0.348 NA 
ENDROOT
BRANCH   4   7
HETATM    7  N   UNL     1     -12.165  14.246  66.703  1.00  0.00    -0.501 N  
HETATM    8  H   UNL     1     -13.058  14.629  66.393  1.00  0.00     0.000 HD 
BRANCH   7   9
HETATM    9  S   UNL     1     -10.746  14.544  65.830  1.00  0.00    -0.332 S  
HETATM   10  O   UNL     1     -11.104  15.482  64.783  1.00  0.00    -0.426 OA 
HETATM   11  O   UNL     1      -9.680  14.827  66.766  1.00  0.00    -0.236 OA 
BRANCH   9  12
HETATM   12  C   UNL     1     -10.391  12.998  65.016  1.00  0.00    -0.318 A  
HETATM   13  C   UNL     1     -10.919  12.751  63.743  1.00  0.00    -0.445 A  
HETATM   14  C   UNL     1     -10.608  11.559  63.083  1.00  0.00    -0.323 A  
HETATM   15  C   UNL     1      -9.795  10.595  63.686  1.00  0.00    -0.333 A  
HETATM   16  N   UNL     1      -9.395   9.464  62.966  1.00  0.00    -0.511 NA 
HETATM   17  C   UNL     1      -9.204  10.895  64.917  1.00  0.00    -0.230 A  
HETATM   18  H2  UNL     1      -8.943   9.773  62.106  1.00  0.00     0.000 HD 
HETATM   19  H1  UNL     1      -8.801   8.761  63.406  1.00  0.00     0.000 HD 
HETATM   20  C   UNL     1      -9.514  12.081  65.597  1.00  0.00    -0.150 A  
ENDBRANCH   9  12
ENDBRANCH   7   9
ENDBRANCH   4   7
TORSDOF 3
ENDMDL
MODEL       73
REMARK 921   NORMALIZED FREE ENERGY PREDICTED BY IDOCK:   -4.62 KCAL/MOL
REMARK 922        TOTAL FREE ENERGY PREDICTED BY IDOCK:   -5.90 KCAL/MOL
REMARK 923 INTER-LIGAND FREE ENERGY PREDICTED BY IDOCK:   -5.54 KCAL/MOL
REMARK 924 INTRA-LIGAND FREE ENERGY PREDICTED BY IDOCK:   -0.36 KCAL/MOL
REMARK 927      BINDING AFFINITY PREDICTED BY RF-SCORE:    0.00 PKD
ROOT
HETATM    1  C   UNL     1      -7.079   6.287  73.501  1.00  0.00    -0.083 C  
HETATM    2  C   UNL     1      -8.543   6.365  73.340  1.00  0.00    -0.124 A  
HETATM    3  C   UNL     1      -9.428   7.395  73.144  1.00  0.00    -0.249 A  
HETATM    4  C   UNL     1     -10.687   6.767  73.118  1.00  0.00    -0.296 A  
HETATM    5  O   UNL     1      -9.230   5.193  73.421  1.00  0.00    -0.130 OA 
HETATM    6  N   UNL     1     -10.592   5.453  73.327  1.00  0.00    -0.227 NA 
ENDROOT
BRANCH   4   7
HETATM    7  N   UNL     1     -11.911   7.417  73.049  1.00  0.00    -0.548 N  
HETATM    8  H   UNL     1     -12.363   7.770  73.892  1.00  0.00     0.000 HD 
BRANCH   7   9
HETATM    9  S   UNL     1     -12.636   7.609  71.532  1.00  0.00    -0.341 S  
HETATM   10  O   UNL     1     -11.776   6.934  70.581  1.00  0.00    -0.338 OA 
HETATM   11  O   UNL     1     -14.040   7.279  71.648  1.00  0.00    -0.412 OA 
BRANCH   9  12
HETATM   12  C   UNL     1     -12.491   9.353  71.187  1.00  0.00    -0.293 A  
HETATM   13  C   UNL     1     -13.232  10.270  71.943  1.00  0.00    -0.550 A  
HETATM   14  C   UNL     1     -13.089  11.639  71.705  1.00  0.00    -0.487 A  
HETATM   15  C   UNL     1     -12.234  12.110  70.704  1.00  0.00    -0.300 A  
HETATM   16  N   UNL     1     -12.010  13.483  70.560  1.00  0.00    -0.497 NA 
HETATM   17  C   UNL     1     -11.435  11.188  70.021  1.00  0.00    -0.376 A  
HETATM   18  H2  UNL     1     -11.691  13.853  71.456  1.00  0.00     0.000 HD 
HETATM   19  H1  UNL     1     -11.385  13.826  69.830  1.00  0.00     0.000 HD 
HETATM   20  C   UNL     1     -11.575   9.810  70.239  1.00  0.00    -0.283 A  
ENDBRANCH   9  12
ENDBRANCH   7   9
ENDBRANCH   4   7
TORSDOF 3
ENDMDL
MODEL       74
REMARK 921   NORMALIZED FREE ENERGY PREDICTED BY IDOCK:   -4.62 KCAL/MOL
REMARK 922        TOTAL FREE ENERGY PREDICTED BY IDOCK:   -5.89 KCAL/MOL
REMARK 923 INTER-LIGAND FREE ENERGY PREDICTED BY IDOCK:   -5.66 KCAL/MOL
REMARK 924 INTRA-LIGAND FREE ENERGY PREDICTED BY IDOCK:   -0.23 KCAL/MOL
REMARK 927      BINDING AFFINITY PREDICTED BY RF-SCORE:    0.00 PKD
ROOT
HETATM    1  C   UNL     1      -9.906   4.525  69.375  1.00  0.00    -0.260 C  
HETATM    2  C   UNL     1     -10.182   5.791  68.672  1.00  0.00    -0.197 A  
HETATM    3  C   UNL     1     -10.442   7.075  69.084  1.00  0.00    -0.218 A  
HETATM    4  C   UNL     1     -10.654   7.785  67.888  1.00  0.00    -0.156 A  
HETATM    5  O   UNL     1     -10.232   5.739  67.313  1.00  0.00    -0.161 OA 
HETATM    6  N   UNL     1     -10.576   6.990  66.818  1.00  0.00    -0.268 NA 
ENDROOT
BRANCH   4   7
HETATM    7  N   UNL     1     -11.057   9.109  67.796  1.00  0.00    -0.474 N  
HETATM    8  H   UNL     1     -12.035   9.367  67.924  1.00  0.00     0.000 HD 
BRANCH   7   9
HETATM    9  S   UNL     1      -9.886  10.286  67.466  1.00  0.00    -0.179 S  
HETATM   10  O   UNL     1      -9.779  11.098  68.662  1.00  0.00    -0.190 OA 
HETATM   11  O   UNL     1      -8.731   9.636  66.887  1.00  0.00    -0.129 OA 
BRANCH   9  12
HETATM   12  C   UNL     1     -10.636  11.322  66.223  1.00  0.00    -0.263 A  
HETATM   13  C   UNL     1     -10.375  11.075  64.870  1.00  0.00    -0.378 A  
HETATM   14  C   UNL     1     -10.994  11.857  63.891  1.00  0.00    -0.473 A  
HETATM   15  C   UNL     1     -11.852  12.903  64.243  1.00  0.00    -0.395 A  
HETATM   16  N   UNL     1     -12.557  13.596  63.254  1.00  0.00    -0.961 NA 
HETATM   17  C   UNL     1     -12.171  13.079  65.593  1.00  0.00    -0.521 A  
HETATM   18  H2  UNL     1     -13.083  12.921  62.700  1.00  0.00     0.000 HD 
HETATM   19  H1  UNL     1     -13.184  14.359  63.511  1.00  0.00     0.000 HD 
HETATM   20  C   UNL     1     -11.551  12.310  66.588  1.00  0.00    -0.438 A  
ENDBRANCH   9  12
ENDBRANCH   7   9
ENDBRANCH   4   7
TORSDOF 3
ENDMDL
MODEL       75
REMARK 921   NORMALIZED FREE ENERGY PREDICTED BY IDOCK:   -4.59 KCAL/MOL
REMARK 922        TOTAL FREE ENERGY PREDICTED BY IDOCK:   -5.86 KCAL/MOL
REMARK 923 INTER-LIGAND FREE ENERGY PREDICTED BY IDOCK:   -5.60 KCAL/MOL
REMARK 924 INTRA-LIGAND FREE ENERGY PREDICTED BY IDOCK:   -0.26 KCAL/MOL
REMARK 927      BINDING AFFINITY PREDICTED BY RF-SCORE:    0.00 PKD
ROOT
HETATM    1  C   UNL     1      -8.515  16.934  68.543  1.00  0.00    -0.258 C  
HETATM    2  C   UNL     1      -9.296  15.792  68.031  1.00  0.00    -0.197 A  
HETATM    3  C   UNL     1     -10.553  15.657  67.498  1.00  0.00    -0.297 A  
HETATM    4  C   UNL     1     -10.680  14.277  67.257  1.00  0.00    -0.277 A  
HETATM    5  O   UNL     1      -8.706  14.567  68.101  1.00  0.00    -0.158 OA 
HETATM    6  N   UNL     1      -9.600  13.602  67.654  1.00  0.00    -0.215 NA 
ENDROOT
BRANCH   4   7
HETATM    7  N   UNL     1     -11.829  13.638  66.816  1.00  0.00    -0.389 N  
HETATM    8  H   UNL     1     -12.519  13.285  67.480  1.00  0.00     0.000 HD 
BRANCH   7   9
HETATM    9  S   UNL     1     -12.060  13.454  65.149  1.00  0.00    -0.437 S  
HETATM   10  O   UNL     1     -13.399  12.924  64.981  1.00  0.00    -0.682 OA 
HETATM   11  O   UNL     1     -11.641  14.672  64.490  1.00  0.00    -0.397 OA 
BRANCH   9  12
HETATM   12  C   UNL     1     -10.941  12.145  64.686  1.00  0.00    -0.312 A  
HETATM   13  C   UNL     1     -10.755  11.059  65.550  1.00  0.00    -0.218 A  
HETATM   14  C   UNL     1      -9.912  10.010  65.173  1.00  0.00    -0.350 A  
HETATM   15  C   UNL     1      -9.230  10.039  63.953  1.00  0.00    -0.272 A  
HETATM   16  N   UNL     1      -8.488   8.930  63.536  1.00  0.00    -0.323 NA 
HETATM   17  C   UNL     1      -9.495  11.086  63.065  1.00  0.00    -0.379 A  
HETATM   18  H2  UNL     1      -9.099   8.113  63.544  1.00  0.00     0.000 HD 
HETATM   19  H1  UNL     1      -7.990   8.951  62.646  1.00  0.00     0.000 HD 
HETATM   20  C   UNL     1     -10.329  12.152  63.432  1.00  0.00    -0.438 A  
ENDBRANCH   9  12
ENDBRANCH   7   9
ENDBRANCH   4   7
TORSDOF 3
ENDMDL
MODEL       76
REMARK 921   NORMALIZED FREE ENERGY PREDICTED BY IDOCK:   -4.59 KCAL/MOL
REMARK 922        TOTAL FREE ENERGY PREDICTED BY IDOCK:   -5.86 KCAL/MOL
REMARK 923 INTER-LIGAND FREE ENERGY PREDICTED BY IDOCK:   -5.53 KCAL/MOL
REMARK 924 INTRA-LIGAND FREE ENERGY PREDICTED BY IDOCK:   -0.33 KCAL/MOL
REMARK 927      BINDING AFFINITY PREDICTED BY RF-SCORE:    0.00 PKD
ROOT
HETATM    1  C   UNL     1      -6.115  18.130  69.802  1.00  0.00    -0.202 C  
HETATM    2  C   UNL     1      -6.971  17.994  68.609  1.00  0.00    -0.260 A  
HETATM    3  C   UNL     1      -7.589  16.934  67.993  1.00  0.00    -0.182 A  
HETATM    4  C   UNL     1      -8.217  17.505  66.871  1.00  0.00    -0.228 A  
HETATM    5  O   UNL     1      -7.218  19.129  67.901  1.00  0.00    -0.234 OA 
HETATM    6  N   UNL     1      -7.969  18.813  66.775  1.00  0.00    -0.247 NA 
ENDROOT
BRANCH   4   7
HETATM    7  N   UNL     1      -8.884  16.805  65.877  1.00  0.00    -0.161 N  
HETATM    8  H   UNL     1      -8.368  16.336  65.132  1.00  0.00     0.000 HD 
BRANCH   7   9
HETATM    9  S   UNL     1     -10.574  16.748  65.926  1.00  0.00    -0.170 S  
HETATM   10  O   UNL     1     -10.981  17.663  66.975  1.00  0.00    -0.142 OA 
HETATM   11  O   UNL     1     -11.079  16.873  64.576  1.00  0.00    -1.054 OA 
BRANCH   9  12
HETATM   12  C   UNL     1     -10.947  15.109  66.521  1.00  0.00    -0.318 A  
HETATM   13  C   UNL     1     -11.643  14.954  67.726  1.00  0.00    -0.358 A  
HETATM   14  C   UNL     1     -11.974  13.673  68.174  1.00  0.00    -0.390 A  
HETATM   15  C   UNL     1     -11.600  12.538  67.449  1.00  0.00    -0.370 A  
HETATM   16  N   UNL     1     -12.043  11.272  67.847  1.00  0.00    -0.603 NA 
HETATM   17  C   UNL     1     -10.985  12.713  66.206  1.00  0.00    -0.314 A  
HETATM   18  H2  UNL     1     -13.061  11.293  67.909  1.00  0.00     0.000 HD 
HETATM   19  H1  UNL     1     -11.770  10.444  67.317  1.00  0.00     0.000 HD 
HETATM   20  C   UNL     1     -10.635  13.991  65.747  1.00  0.00    -0.303 A  
ENDBRANCH   9  12
ENDBRANCH   7   9
ENDBRANCH   4   7
TORSDOF 3
ENDMDL
MODEL       77
REMARK 921   NORMALIZED FREE ENERGY PREDICTED BY IDOCK:   -4.58 KCAL/MOL
REMARK 922        TOTAL FREE ENERGY PREDICTED BY IDOCK:   -5.85 KCAL/MOL
REMARK 923 INTER-LIGAND FREE ENERGY PREDICTED BY IDOCK:   -6.53 KCAL/MOL
REMARK 924 INTRA-LIGAND FREE ENERGY PREDICTED BY IDOCK:    0.68 KCAL/MOL
REMARK 927      BINDING AFFINITY PREDICTED BY RF-SCORE:    0.00 PKD
ROOT
HETATM    1  C   UNL     1      -9.970  10.558  63.288  1.00  0.00    -0.231 C  
HETATM    2  C   UNL     1     -10.723  11.794  63.568  1.00  0.00    -0.436 A  
HETATM    3  C   UNL     1     -10.369  13.061  63.962  1.00  0.00    -0.272 A  
HETATM    4  C   UNL     1     -11.594  13.741  64.082  1.00  0.00    -0.331 A  
HETATM    5  O   UNL     1     -12.078  11.724  63.455  1.00  0.00    -0.491 OA 
HETATM    6  N   UNL     1     -12.633  12.943  63.825  1.00  0.00    -0.710 NA 
ENDROOT
BRANCH   4   7
HETATM    7  N   UNL     1     -11.757  15.032  64.562  1.00  0.00    -0.596 N  
HETATM    8  H   UNL     1     -12.566  15.591  64.293  1.00  0.00     0.000 HD 
BRANCH   7   9
HETATM    9  S   UNL     1     -10.580  15.658  65.605  1.00  0.00    -0.393 S  
HETATM   10  O   UNL     1      -9.361  14.922  65.331  1.00  0.00    -0.056 OA 
HETATM   11  O   UNL     1     -10.623  17.102  65.533  1.00  0.00    -0.563 OA 
BRANCH   9  12
HETATM   12  C   UNL     1     -11.113  15.155  67.231  1.00  0.00    -0.332 A  
HETATM   13  C   UNL     1     -11.229  16.113  68.245  1.00  0.00    -0.343 A  
HETATM   14  C   UNL     1     -11.687  15.732  69.509  1.00  0.00    -0.369 A  
HETATM   15  C   UNL     1     -12.010  14.400  69.785  1.00  0.00    -0.332 A  
HETATM   16  N   UNL     1     -12.581  14.055  71.014  1.00  0.00    -0.346 NA 
HETATM   17  C   UNL     1     -11.974  13.473  68.738  1.00  0.00    -0.374 A  
HETATM   18  H2  UNL     1     -13.417  14.623  71.151  1.00  0.00     0.000 HD 
HETATM   19  H1  UNL     1     -12.817  13.083  71.215  1.00  0.00     0.000 HD 
HETATM   20  C   UNL     1     -11.506  13.838  67.468  1.00  0.00    -0.359 A  
ENDBRANCH   9  12
ENDBRANCH   7   9
ENDBRANCH   4   7
TORSDOF 3
ENDMDL
MODEL       78
REMARK 921   NORMALIZED FREE ENERGY PREDICTED BY IDOCK:   -4.58 KCAL/MOL
REMARK 922        TOTAL FREE ENERGY PREDICTED BY IDOCK:   -5.84 KCAL/MOL
REMARK 923 INTER-LIGAND FREE ENERGY PREDICTED BY IDOCK:   -5.55 KCAL/MOL
REMARK 924 INTRA-LIGAND FREE ENERGY PREDICTED BY IDOCK:   -0.29 KCAL/MOL
REMARK 927      BINDING AFFINITY PREDICTED BY RF-SCORE:    0.00 PKD
ROOT
HETATM    1  C   UNL     1     -10.193   4.933  70.696  1.00  0.00    -0.282 C  
HETATM    2  C   UNL     1     -10.632   6.281  71.098  1.00  0.00    -0.239 A  
HETATM    3  C   UNL     1     -10.542   7.526  70.526  1.00  0.00    -0.232 A  
HETATM    4  C   UNL     1     -11.134   8.384  71.471  1.00  0.00    -0.266 A  
HETATM    5  O   UNL     1     -11.244   6.389  72.309  1.00  0.00    -0.250 OA 
HETATM    6  N   UNL     1     -11.520   7.726  72.566  1.00  0.00    -0.355 NA 
ENDROOT
BRANCH   4   7
HETATM    7  N   UNL     1     -11.182   9.767  71.385  1.00  0.00    -0.352 N  
HETATM    8  H   UNL     1     -10.511  10.346  71.890  1.00  0.00     0.000 HD 
BRANCH   7   9
HETATM    9  S   UNL     1     -12.382  10.473  70.423  1.00  0.00    -0.314 S  
HETATM   10  O   UNL     1     -11.846  10.523  69.076  1.00  0.00    -0.227 OA 
HETATM   11  O   UNL     1     -13.643   9.826  70.710  1.00  0.00    -0.227 OA 
BRANCH   9  12
HETATM   12  C   UNL     1     -12.470  12.162  70.989  1.00  0.00    -0.269 A  
HETATM   13  C   UNL     1     -11.732  13.151  70.327  1.00  0.00    -0.203 A  
HETATM   14  C   UNL     1     -11.831  14.482  70.740  1.00  0.00    -0.367 A  
HETATM   15  C   UNL     1     -12.639  14.840  71.823  1.00  0.00    -0.334 A  
HETATM   16  N   UNL     1     -12.822  16.189  72.147  1.00  0.00    -0.448 NA 
HETATM   17  C   UNL     1     -13.437  13.856  72.415  1.00  0.00    -0.661 A  
HETATM   18  H2  UNL     1     -13.162  16.676  71.318  1.00  0.00     0.000 HD 
HETATM   19  H1  UNL     1     -13.412  16.450  72.937  1.00  0.00     0.000 HD 
HETATM   20  C   UNL     1     -13.341  12.515  72.020  1.00  0.00    -0.528 A  
ENDBRANCH   9  12
ENDBRANCH   7   9
ENDBRANCH   4   7
TORSDOF 3
ENDMDL
MODEL       79
REMARK 921   NORMALIZED FREE ENERGY PREDICTED BY IDOCK:   -4.57 KCAL/MOL
REMARK 922        TOTAL FREE ENERGY PREDICTED BY IDOCK:   -5.83 KCAL/MOL
REMARK 923 INTER-LIGAND FREE ENERGY PREDICTED BY IDOCK:   -5.51 KCAL/MOL
REMARK 924 INTRA-LIGAND FREE ENERGY PREDICTED BY IDOCK:   -0.32 KCAL/MOL
REMARK 927      BINDING AFFINITY PREDICTED BY RF-SCORE:    0.00 PKD
ROOT
HETATM    1  C   UNL     1      -9.781  20.058  66.876  1.00  0.00    -0.557 C  
HETATM    2  C   UNL     1      -9.564  18.843  67.681  1.00  0.00    -0.308 A  
HETATM    3  C   UNL     1      -8.498  17.997  67.866  1.00  0.00    -0.253 A  
HETATM    4  C   UNL     1      -8.988  17.009  68.739  1.00  0.00    -0.249 A  
HETATM    5  O   UNL     1     -10.624  18.390  68.404  1.00  0.00    -0.300 OA 
HETATM    6  N   UNL     1     -10.275  17.204  69.037  1.00  0.00    -0.317 NA 
ENDROOT
BRANCH   4   7
HETATM    7  N   UNL     1      -8.303  15.871  69.135  1.00  0.00    -0.242 N  
HETATM    8  H   UNL     1      -7.966  15.770  70.093  1.00  0.00     0.000 HD 
BRANCH   7   9
HETATM    9  S   UNL     1      -8.038  14.651  67.992  1.00  0.00    -0.147 S  
HETATM   10  O   UNL     1      -7.132  15.208  67.006  1.00  0.00    -0.199 OA 
HETATM   11  O   UNL     1      -7.730  13.423  68.692  1.00  0.00    -0.130 OA 
BRANCH   9  12
HETATM   12  C   UNL     1      -9.610  14.458  67.174  1.00  0.00    -0.250 A  
HETATM   13  C   UNL     1      -9.807  15.035  65.913  1.00  0.00    -0.369 A  
HETATM   14  C   UNL     1     -11.023  14.850  65.249  1.00  0.00    -0.389 A  
HETATM   15  C   UNL     1     -12.059  14.118  65.837  1.00  0.00    -0.426 A  
HETATM   16  N   UNL     1     -13.222  13.840  65.111  1.00  0.00    -0.682 NA 
HETATM   17  C   UNL     1     -11.815  13.476  67.055  1.00  0.00    -0.447 A  
HETATM   18  H2  UNL     1     -12.956  13.379  64.241  1.00  0.00     0.000 HD 
HETATM   19  H1  UNL     1     -13.977  13.305  65.540  1.00  0.00     0.000 HD 
HETATM   20  C   UNL     1     -10.605  13.660  67.739  1.00  0.00    -0.247 A  
ENDBRANCH   9  12
ENDBRANCH   7   9
ENDBRANCH   4   7
TORSDOF 3
ENDMDL
MODEL       80
REMARK 921   NORMALIZED FREE ENERGY PREDICTED BY IDOCK:   -4.56 KCAL/MOL
REMARK 922        TOTAL FREE ENERGY PREDICTED BY IDOCK:   -5.83 KCAL/MOL
REMARK 923 INTER-LIGAND FREE ENERGY PREDICTED BY IDOCK:   -5.65 KCAL/MOL
REMARK 924 INTRA-LIGAND FREE ENERGY PREDICTED BY IDOCK:   -0.17 KCAL/MOL
REMARK 927      BINDING AFFINITY PREDICTED BY RF-SCORE:    0.00 PKD
ROOT
HETATM    1  C   UNL     1      -9.888   4.056  71.844  1.00  0.00    -0.247 C  
HETATM    2  C   UNL     1     -10.531   5.239  71.243  1.00  0.00    -0.204 A  
HETATM    3  C   UNL     1     -11.193   6.328  71.753  1.00  0.00    -0.334 A  
HETATM    4  C   UNL     1     -11.587   7.056  70.615  1.00  0.00    -0.335 A  
HETATM    5  O   UNL     1     -10.526   5.315  69.884  1.00  0.00    -0.297 OA 
HETATM    6  N   UNL     1     -11.235   6.441  69.485  1.00  0.00    -0.397 NA 
ENDROOT
BRANCH   4   7
HETATM    7  N   UNL     1     -12.384   8.191  70.620  1.00  0.00    -0.481 N  
HETATM    8  H   UNL     1     -13.328   8.168  70.236  1.00  0.00     0.000 HD 
BRANCH   7   9
HETATM    9  S   UNL     1     -11.753   9.617  71.279  1.00  0.00    -0.403 S  
HETATM   10  O   UNL     1     -12.745  10.106  72.216  1.00  0.00    -0.307 OA 
HETATM   11  O   UNL     1     -10.386   9.371  71.685  1.00  0.00    -0.309 OA 
BRANCH   9  12
HETATM   12  C   UNL     1     -11.741  10.769  69.918  1.00  0.00    -0.333 A  
HETATM   13  C   UNL     1     -12.085  12.107  70.143  1.00  0.00    -0.368 A  
HETATM   14  C   UNL     1     -12.036  13.022  69.088  1.00  0.00    -0.320 A  
HETATM   15  C   UNL     1     -11.670  12.617  67.801  1.00  0.00    -0.356 A  
HETATM   16  N   UNL     1     -11.508  13.565  66.786  1.00  0.00    -0.331 NA 
HETATM   17  C   UNL     1     -11.244  11.299  67.612  1.00  0.00    -0.357 A  
HETATM   18  H2  UNL     1     -10.839  14.266  67.104  1.00  0.00     0.000 HD 
HETATM   19  H1  UNL     1     -11.241  13.269  65.847  1.00  0.00     0.000 HD 
HETATM   20  C   UNL     1     -11.298  10.365  68.657  1.00  0.00    -0.277 A  
ENDBRANCH   9  12
ENDBRANCH   7   9
ENDBRANCH   4   7
TORSDOF 3
ENDMDL
MODEL       81
REMARK 921   NORMALIZED FREE ENERGY PREDICTED BY IDOCK:   -4.53 KCAL/MOL
REMARK 922        TOTAL FREE ENERGY PREDICTED BY IDOCK:   -5.79 KCAL/MOL
REMARK 923 INTER-LIGAND FREE ENERGY PREDICTED BY IDOCK:   -5.51 KCAL/MOL
REMARK 924 INTRA-LIGAND FREE ENERGY PREDICTED BY IDOCK:   -0.28 KCAL/MOL
REMARK 927      BINDING AFFINITY PREDICTED BY RF-SCORE:    0.00 PKD
ROOT
HETATM    1  C   UNL     1     -13.770   9.554  71.552  1.00  0.00    -0.341 C  
HETATM    2  C   UNL     1     -12.941  10.607  70.937  1.00  0.00    -0.340 A  
HETATM    3  C   UNL     1     -11.996  10.620  69.941  1.00  0.00    -0.385 A  
HETATM    4  C   UNL     1     -11.569  11.959  69.887  1.00  0.00    -0.256 A  
HETATM    5  O   UNL     1     -13.073  11.864  71.444  1.00  0.00    -0.350 OA 
HETATM    6  N   UNL     1     -12.171  12.711  70.811  1.00  0.00    -0.331 NA 
ENDROOT
BRANCH   4   7
HETATM    7  N   UNL     1     -10.537  12.446  69.098  1.00  0.00    -0.427 N  
HETATM    8  H   UNL     1      -9.568  12.385  69.410  1.00  0.00     0.000 HD 
BRANCH   7   9
HETATM    9  S   UNL     1     -10.924  13.144  67.606  1.00  0.00    -0.270 S  
HETATM   10  O   UNL     1      -9.847  12.791  66.702  1.00  0.00    -0.238 OA 
HETATM   11  O   UNL     1     -12.303  12.834  67.296  1.00  0.00    -0.335 OA 
BRANCH   9  12
HETATM   12  C   UNL     1     -10.787  14.899  67.887  1.00  0.00    -0.276 A  
HETATM   13  C   UNL     1     -10.715  15.385  69.199  1.00  0.00    -0.246 A  
HETATM   14  C   UNL     1     -10.565  16.756  69.422  1.00  0.00    -0.318 A  
HETATM   15  C   UNL     1     -10.510  17.657  68.355  1.00  0.00    -0.359 A  
HETATM   16  N   UNL     1     -10.238  19.008  68.590  1.00  0.00    -0.450 NA 
HETATM   17  C   UNL     1     -10.494  17.148  67.052  1.00  0.00    -0.282 A  
HETATM   18  H2  UNL     1      -9.364  19.075  69.111  1.00  0.00     0.000 HD 
HETATM   19  H1  UNL     1     -10.198  19.666  67.811  1.00  0.00     0.000 HD 
HETATM   20  C   UNL     1     -10.655  15.777  66.810  1.00  0.00    -0.309 A  
ENDBRANCH   9  12
ENDBRANCH   7   9
ENDBRANCH   4   7
TORSDOF 3
ENDMDL
MODEL       82
REMARK 921   NORMALIZED FREE ENERGY PREDICTED BY IDOCK:   -4.53 KCAL/MOL
REMARK 922        TOTAL FREE ENERGY PREDICTED BY IDOCK:   -5.79 KCAL/MOL
REMARK 923 INTER-LIGAND FREE ENERGY PREDICTED BY IDOCK:   -5.57 KCAL/MOL
REMARK 924 INTRA-LIGAND FREE ENERGY PREDICTED BY IDOCK:   -0.22 KCAL/MOL
REMARK 927      BINDING AFFINITY PREDICTED BY RF-SCORE:    0.00 PKD
ROOT
HETATM    1  C   UNL     1     -13.373  11.833  71.840  1.00  0.00    -0.401 C  
HETATM    2  C   UNL     1     -12.412  12.028  70.738  1.00  0.00    -0.279 A  
HETATM    3  C   UNL     1     -11.788  13.124  70.197  1.00  0.00    -0.328 A  
HETATM    4  C   UNL     1     -11.027  12.600  69.137  1.00  0.00    -0.142 A  
HETATM    5  O   UNL     1     -12.042  10.916  70.046  1.00  0.00    -0.303 OA 
HETATM    6  N   UNL     1     -11.201  11.283  69.003  1.00  0.00    -0.234 NA 
ENDROOT
BRANCH   4   7
HETATM    7  N   UNL     1     -10.300  13.345  68.220  1.00  0.00    -0.244 N  
HETATM    8  H   UNL     1      -9.300  13.499  68.348  1.00  0.00     0.000 HD 
BRANCH   7   9
HETATM    9  S   UNL     1     -11.112  13.993  66.884  1.00  0.00    -0.311 S  
HETATM   10  O   UNL     1     -12.528  13.884  67.177  1.00  0.00    -0.289 OA 
HETATM   11  O   UNL     1     -10.505  15.263  66.548  1.00  0.00    -0.284 OA 
BRANCH   9  12
HETATM   12  C   UNL     1     -10.785  12.841  65.563  1.00  0.00    -0.278 A  
HETATM   13  C   UNL     1     -11.330  13.074  64.294  1.00  0.00    -0.419 A  
HETATM   14  C   UNL     1     -11.041  12.198  63.245  1.00  0.00    -0.408 A  
HETATM   15  C   UNL     1     -10.235  11.074  63.448  1.00  0.00    -0.346 A  
HETATM   16  N   UNL     1      -9.857  10.276  62.364  1.00  0.00    -0.732 NA 
HETATM   17  C   UNL     1      -9.627  10.905  64.696  1.00  0.00    -0.305 A  
HETATM   18  H2  UNL     1      -9.409  10.870  61.666  1.00  0.00     0.000 HD 
HETATM   19  H1  UNL     1      -9.268   9.456  62.512  1.00  0.00     0.000 HD 
HETATM   20  C   UNL     1      -9.915  11.769  65.762  1.00  0.00    -0.269 A  
ENDBRANCH   9  12
ENDBRANCH   7   9
ENDBRANCH   4   7
TORSDOF 3
ENDMDL
MODEL       83
REMARK 921   NORMALIZED FREE ENERGY PREDICTED BY IDOCK:   -4.53 KCAL/MOL
REMARK 922        TOTAL FREE ENERGY PREDICTED BY IDOCK:   -5.79 KCAL/MOL
REMARK 923 INTER-LIGAND FREE ENERGY PREDICTED BY IDOCK:   -5.41 KCAL/MOL
REMARK 924 INTRA-LIGAND FREE ENERGY PREDICTED BY IDOCK:   -0.38 KCAL/MOL
REMARK 927      BINDING AFFINITY PREDICTED BY RF-SCORE:    0.00 PKD
ROOT
HETATM    1  C   UNL     1      -7.957  14.735  69.029  1.00  0.00    -0.152 C  
HETATM    2  C   UNL     1      -9.250  14.284  68.483  1.00  0.00    -0.197 A  
HETATM    3  C   UNL     1      -9.650  13.193  67.752  1.00  0.00    -0.208 A  
HETATM    4  C   UNL     1     -11.023  13.408  67.532  1.00  0.00    -0.267 A  
HETATM    5  O   UNL     1     -10.321  15.098  68.691  1.00  0.00    -0.221 OA 
HETATM    6  N   UNL     1     -11.433  14.568  68.050  1.00  0.00    -0.305 NA 
ENDROOT
BRANCH   4   7
HETATM    7  N   UNL     1     -11.847  12.620  66.743  1.00  0.00    -0.397 N  
HETATM    8  H   UNL     1     -12.460  11.921  67.163  1.00  0.00     0.000 HD 
BRANCH   7   9
HETATM    9  S   UNL     1     -11.810  12.843  65.066  1.00  0.00    -0.399 S  
HETATM   10  O   UNL     1     -13.133  12.498  64.581  1.00  0.00    -0.845 OA 
HETATM   11  O   UNL     1     -11.216  14.132  64.785  1.00  0.00    -0.349 OA 
BRANCH   9  12
HETATM   12  C   UNL     1     -10.712  11.571  64.471  1.00  0.00    -0.329 A  
HETATM   13  C   UNL     1     -10.275  11.603  63.140  1.00  0.00    -0.396 A  
HETATM   14  C   UNL     1      -9.381  10.632  62.682  1.00  0.00    -0.332 A  
HETATM   15  C   UNL     1      -8.933   9.611  63.525  1.00  0.00    -0.217 A  
HETATM   16  N   UNL     1      -7.947   8.721  63.088  1.00  0.00    -0.151 NA 
HETATM   17  C   UNL     1      -9.308   9.645  64.872  1.00  0.00    -0.306 A  
HETATM   18  H2  UNL     1      -7.138   9.262  62.780  1.00  0.00     0.000 HD 
HETATM   19  H1  UNL     1      -7.619   7.976  63.704  1.00  0.00     0.000 HD 
HETATM   20  C   UNL     1     -10.213  10.605  65.345  1.00  0.00    -0.341 A  
ENDBRANCH   9  12
ENDBRANCH   7   9
ENDBRANCH   4   7
TORSDOF 3
ENDMDL
MODEL       84
REMARK 921   NORMALIZED FREE ENERGY PREDICTED BY IDOCK:   -4.52 KCAL/MOL
REMARK 922        TOTAL FREE ENERGY PREDICTED BY IDOCK:   -5.78 KCAL/MOL
REMARK 923 INTER-LIGAND FREE ENERGY PREDICTED BY IDOCK:   -5.58 KCAL/MOL
REMARK 924 INTRA-LIGAND FREE ENERGY PREDICTED BY IDOCK:   -0.20 KCAL/MOL
REMARK 927      BINDING AFFINITY PREDICTED BY RF-SCORE:    0.00 PKD
ROOT
HETATM    1  C   UNL     1      -8.208  17.485  67.661  1.00  0.00    -0.218 C  
HETATM    2  C   UNL     1      -8.680  16.093  67.777  1.00  0.00    -0.172 A  
HETATM    3  C   UNL     1      -9.422  15.411  68.709  1.00  0.00    -0.211 A  
HETATM    4  C   UNL     1      -9.467  14.094  68.217  1.00  0.00    -0.211 A  
HETATM    5  O   UNL     1      -8.308  15.236  66.787  1.00  0.00    -0.234 OA 
HETATM    6  N   UNL     1      -8.767  13.960  67.089  1.00  0.00    -0.221 NA 
ENDROOT
BRANCH   4   7
HETATM    7  N   UNL     1     -10.020  13.006  68.875  1.00  0.00    -0.424 N  
HETATM    8  H   UNL     1      -9.440  12.388  69.443  1.00  0.00     0.000 HD 
BRANCH   7   9
HETATM    9  S   UNL     1     -11.682  12.726  68.714  1.00  0.00    -0.321 S  
HETATM   10  O   UNL     1     -12.344  13.916  69.212  1.00  0.00    -0.323 OA 
HETATM   11  O   UNL     1     -11.936  12.220  67.383  1.00  0.00    -0.530 OA 
BRANCH   9  12
HETATM   12  C   UNL     1     -12.031  11.431  69.889  1.00  0.00    -0.359 A  
HETATM   13  C   UNL     1     -11.339  10.216  69.803  1.00  0.00    -0.312 A  
HETATM   14  C   UNL     1     -11.579   9.215  70.747  1.00  0.00    -0.329 A  
HETATM   15  C   UNL     1     -12.519   9.396  71.766  1.00  0.00    -0.391 A  
HETATM   16  N   UNL     1     -12.660   8.435  72.772  1.00  0.00    -0.613 NA 
HETATM   17  C   UNL     1     -13.135  10.646  71.891  1.00  0.00    -0.563 A  
HETATM   18  H2  UNL     1     -11.747   8.283  73.201  1.00  0.00     0.000 HD 
HETATM   19  H1  UNL     1     -13.346   8.568  73.515  1.00  0.00     0.000 HD 
HETATM   20  C   UNL     1     -12.915  11.657  70.945  1.00  0.00    -0.145 A  
ENDBRANCH   9  12
ENDBRANCH   7   9
ENDBRANCH   4   7
TORSDOF 3
ENDMDL
MODEL       85
REMARK 921   NORMALIZED FREE ENERGY PREDICTED BY IDOCK:   -4.52 KCAL/MOL
REMARK 922        TOTAL FREE ENERGY PREDICTED BY IDOCK:   -5.77 KCAL/MOL
REMARK 923 INTER-LIGAND FREE ENERGY PREDICTED BY IDOCK:   -5.44 KCAL/MOL
REMARK 924 INTRA-LIGAND FREE ENERGY PREDICTED BY IDOCK:   -0.33 KCAL/MOL
REMARK 927      BINDING AFFINITY PREDICTED BY RF-SCORE:    0.00 PKD
ROOT
HETATM    1  C   UNL     1      -5.300  17.923  69.755  1.00  0.00    -0.214 C  
HETATM    2  C   UNL     1      -6.180  17.075  68.930  1.00  0.00    -0.176 A  
HETATM    3  C   UNL     1      -7.383  16.451  69.147  1.00  0.00    -0.225 A  
HETATM    4  C   UNL     1      -7.640  15.768  67.945  1.00  0.00    -0.131 A  
HETATM    5  O   UNL     1      -5.747  16.786  67.672  1.00  0.00    -0.125 OA 
HETATM    6  N   UNL     1      -6.649  15.921  67.064  1.00  0.00    -0.290 NA 
ENDROOT
BRANCH   4   7
HETATM    7  N   UNL     1      -8.700  14.902  67.719  1.00  0.00    -0.161 N  
HETATM    8  H   UNL     1      -8.568  13.892  67.766  1.00  0.00     0.000 HD 
BRANCH   7   9
HETATM    9  S   UNL     1     -10.218  15.561  67.365  1.00  0.00    -0.260 S  
HETATM   10  O   UNL     1     -11.029  15.375  68.552  1.00  0.00    -0.254 OA 
HETATM   11  O   UNL     1     -10.026  16.869  66.778  1.00  0.00    -0.267 OA 
BRANCH   9  12
HETATM   12  C   UNL     1     -10.895  14.476  66.122  1.00  0.00    -0.317 A  
HETATM   13  C   UNL     1     -10.036  13.859  65.204  1.00  0.00    -0.330 A  
HETATM   14  C   UNL     1     -10.557  12.975  64.256  1.00  0.00    -0.434 A  
HETATM   15  C   UNL     1     -11.929  12.715  64.192  1.00  0.00    -0.426 A  
HETATM   16  N   UNL     1     -12.419  11.738  63.319  1.00  0.00    -0.904 NA 
HETATM   17  C   UNL     1     -12.760  13.269  65.170  1.00  0.00    -0.464 A  
HETATM   18  H2  UNL     1     -11.935  10.861  63.512  1.00  0.00     0.000 HD 
HETATM   19  H1  UNL     1     -13.421  11.548  63.273  1.00  0.00     0.000 HD 
HETATM   20  C   UNL     1     -12.255  14.167  66.122  1.00  0.00    -0.465 A  
ENDBRANCH   9  12
ENDBRANCH   7   9
ENDBRANCH   4   7
TORSDOF 3
ENDMDL
MODEL       86
REMARK 921   NORMALIZED FREE ENERGY PREDICTED BY IDOCK:   -4.50 KCAL/MOL
REMARK 922        TOTAL FREE ENERGY PREDICTED BY IDOCK:   -5.75 KCAL/MOL
REMARK 923 INTER-LIGAND FREE ENERGY PREDICTED BY IDOCK:   -5.42 KCAL/MOL
REMARK 924 INTRA-LIGAND FREE ENERGY PREDICTED BY IDOCK:   -0.33 KCAL/MOL
REMARK 927      BINDING AFFINITY PREDICTED BY RF-SCORE:    0.00 PKD
ROOT
HETATM    1  C   UNL     1     -10.694  15.408  65.107  1.00  0.00    -0.460 C  
HETATM    2  C   UNL     1     -10.542  14.422  66.192  1.00  0.00    -0.298 A  
HETATM    3  C   UNL     1     -10.973  14.360  67.494  1.00  0.00    -0.299 A  
HETATM    4  C   UNL     1     -10.436  13.154  67.979  1.00  0.00    -0.239 A  
HETATM    5  O   UNL     1      -9.796  13.318  65.916  1.00  0.00    -0.277 OA 
HETATM    6  N   UNL     1      -9.689  12.538  67.061  1.00  0.00    -0.208 NA 
ENDROOT
BRANCH   4   7
HETATM    7  N   UNL     1     -10.512  12.707  69.290  1.00  0.00    -0.423 N  
HETATM    8  H   UNL     1      -9.813  12.985  69.979  1.00  0.00     0.000 HD 
BRANCH   7   9
HETATM    9  S   UNL     1     -11.792  11.687  69.719  1.00  0.00    -0.359 S  
HETATM   10  O   UNL     1     -12.568  12.404  70.712  1.00  0.00    -0.303 OA 
HETATM   11  O   UNL     1     -12.400  11.176  68.510  1.00  0.00    -0.561 OA 
BRANCH   9  12
HETATM   12  C   UNL     1     -11.013  10.332  70.578  1.00  0.00    -0.270 A  
HETATM   13  C   UNL     1     -11.734   9.623  71.547  1.00  0.00    -0.472 A  
HETATM   14  C   UNL     1     -11.141   8.534  72.191  1.00  0.00    -0.436 A  
HETATM   15  C   UNL     1      -9.828   8.154  71.901  1.00  0.00    -0.212 A  
HETATM   16  N   UNL     1      -9.293   6.990  72.463  1.00  0.00    -0.138 NA 
HETATM   17  C   UNL     1      -9.154   8.814  70.869  1.00  0.00    -0.256 A  
HETATM   18  H2  UNL     1      -9.910   6.211  72.239  1.00  0.00     0.000 HD 
HETATM   19  H1  UNL     1      -8.334   6.713  72.251  1.00  0.00     0.000 HD 
HETATM   20  C   UNL     1      -9.730   9.916  70.220  1.00  0.00    -0.211 A  
ENDBRANCH   9  12
ENDBRANCH   7   9
ENDBRANCH   4   7
TORSDOF 3
ENDMDL
MODEL       87
REMARK 921   NORMALIZED FREE ENERGY PREDICTED BY IDOCK:   -4.49 KCAL/MOL
REMARK 922        TOTAL FREE ENERGY PREDICTED BY IDOCK:   -5.74 KCAL/MOL
REMARK 923 INTER-LIGAND FREE ENERGY PREDICTED BY IDOCK:   -5.51 KCAL/MOL
REMARK 924 INTRA-LIGAND FREE ENERGY PREDICTED BY IDOCK:   -0.22 KCAL/MOL
REMARK 927      BINDING AFFINITY PREDICTED BY RF-SCORE:    0.00 PKD
ROOT
HETATM    1  C   UNL     1      -8.293   6.997  69.931  1.00  0.00    -0.139 C  
HETATM    2  C   UNL     1      -9.362   8.013  69.944  1.00  0.00    -0.156 A  
HETATM    3  C   UNL     1     -10.206   8.524  68.990  1.00  0.00    -0.218 A  
HETATM    4  C   UNL     1     -10.953   9.499  69.675  1.00  0.00    -0.212 A  
HETATM    5  O   UNL     1      -9.593   8.642  71.128  1.00  0.00    -0.182 OA 
HETATM    6  N   UNL     1     -10.568   9.615  70.948  1.00  0.00    -0.320 NA 
ENDROOT
BRANCH   4   7
HETATM    7  N   UNL     1     -11.869  10.366  69.099  1.00  0.00    -0.518 N  
HETATM    8  H   UNL     1     -12.872  10.201  69.189  1.00  0.00     0.000 HD 
BRANCH   7   9
HETATM    9  S   UNL     1     -11.286  11.703  68.243  1.00  0.00    -0.288 S  
HETATM   10  O   UNL     1      -9.843  11.563  68.204  1.00  0.00    -0.181 OA 
HETATM   11  O   UNL     1     -12.064  11.850  67.032  1.00  0.00    -0.600 OA 
BRANCH   9  12
HETATM   12  C   UNL     1     -11.624  13.095  69.306  1.00  0.00    -0.314 A  
HETATM   13  C   UNL     1     -12.192  12.877  70.568  1.00  0.00    -0.395 A  
HETATM   14  C   UNL     1     -12.419  13.960  71.421  1.00  0.00    -0.424 A  
HETATM   15  C   UNL     1     -12.112  15.265  71.024  1.00  0.00    -0.342 A  
HETATM   16  N   UNL     1     -12.232  16.321  71.933  1.00  0.00    -0.604 NA 
HETATM   17  C   UNL     1     -11.465  15.455  69.799  1.00  0.00    -0.338 A  
HETATM   18  H2  UNL     1     -11.679  16.098  72.761  1.00  0.00     0.000 HD 
HETATM   19  H1  UNL     1     -12.007  17.273  71.643  1.00  0.00     0.000 HD 
HETATM   20  C   UNL     1     -11.240  14.381  68.927  1.00  0.00    -0.284 A  
ENDBRANCH   9  12
ENDBRANCH   7   9
ENDBRANCH   4   7
TORSDOF 3
ENDMDL
MODEL       88
REMARK 921   NORMALIZED FREE ENERGY PREDICTED BY IDOCK:   -4.48 KCAL/MOL
REMARK 922        TOTAL FREE ENERGY PREDICTED BY IDOCK:   -5.73 KCAL/MOL
REMARK 923 INTER-LIGAND FREE ENERGY PREDICTED BY IDOCK:   -5.55 KCAL/MOL
REMARK 924 INTRA-LIGAND FREE ENERGY PREDICTED BY IDOCK:   -0.18 KCAL/MOL
REMARK 927      BINDING AFFINITY PREDICTED BY RF-SCORE:    0.00 PKD
ROOT
HETATM    1  C   UNL     1      -6.086  20.878  65.462  1.00  0.00    -0.277 C  
HETATM    2  C   UNL     1      -7.062  19.810  65.748  1.00  0.00    -0.306 A  
HETATM    3  C   UNL     1      -8.268  19.767  66.403  1.00  0.00    -0.371 A  
HETATM    4  C   UNL     1      -8.647  18.414  66.341  1.00  0.00    -0.247 A  
HETATM    5  O   UNL     1      -6.743  18.559  65.317  1.00  0.00    -0.485 OA 
HETATM    6  N   UNL     1      -7.724  17.667  65.733  1.00  0.00    -0.535 NA 
ENDROOT
BRANCH   4   7
HETATM    7  N   UNL     1      -9.754  17.858  66.964  1.00  0.00    -0.287 N  
HETATM    8  H   UNL     1     -10.671  17.880  66.517  1.00  0.00     0.000 HD 
BRANCH   7   9
HETATM    9  S   UNL     1      -9.549  17.141  68.483  1.00  0.00    -0.297 S  
HETATM   10  O   UNL     1      -8.119  16.999  68.676  1.00  0.00    -0.237 OA 
HETATM   11  O   UNL     1     -10.375  17.845  69.440  1.00  0.00    -0.220 OA 
BRANCH   9  12
HETATM   12  C   UNL     1     -10.193  15.490  68.287  1.00  0.00    -0.222 A  
HETATM   13  C   UNL     1     -11.291  15.081  69.054  1.00  0.00    -0.306 A  
HETATM   14  C   UNL     1     -11.825  13.803  68.873  1.00  0.00    -0.396 A  
HETATM   15  C   UNL     1     -11.265  12.913  67.952  1.00  0.00    -0.269 A  
HETATM   16  N   UNL     1     -11.884  11.686  67.696  1.00  0.00    -0.615 NA 
HETATM   17  C   UNL     1     -10.227  13.367  67.132  1.00  0.00    -0.247 A  
HETATM   18  H2  UNL     1     -12.850  11.863  67.423  1.00  0.00     0.000 HD 
HETATM   19  H1  UNL     1     -11.475  11.036  67.023  1.00  0.00     0.000 HD 
HETATM   20  C   UNL     1      -9.672  14.642  67.309  1.00  0.00    -0.231 A  
ENDBRANCH   9  12
ENDBRANCH   7   9
ENDBRANCH   4   7
TORSDOF 3
ENDMDL
MODEL       89
REMARK 921   NORMALIZED FREE ENERGY PREDICTED BY IDOCK:   -4.48 KCAL/MOL
REMARK 922        TOTAL FREE ENERGY PREDICTED BY IDOCK:   -5.73 KCAL/MOL
REMARK 923 INTER-LIGAND FREE ENERGY PREDICTED BY IDOCK:   -5.42 KCAL/MOL
REMARK 924 INTRA-LIGAND FREE ENERGY PREDICTED BY IDOCK:   -0.31 KCAL/MOL
REMARK 927      BINDING AFFINITY PREDICTED BY RF-SCORE:    0.00 PKD
ROOT
HETATM    1  C   UNL     1     -12.394  12.517  63.775  1.00  0.00    -0.595 C  
HETATM    2  C   UNL     1     -11.589  13.497  64.526  1.00  0.00    -0.381 A  
HETATM    3  C   UNL     1     -11.601  14.866  64.628  1.00  0.00    -0.395 A  
HETATM    4  C   UNL     1     -10.528  15.158  65.490  1.00  0.00    -0.379 A  
HETATM    5  O   UNL     1     -10.573  13.002  65.284  1.00  0.00    -0.290 OA 
HETATM    6  N   UNL     1      -9.872  14.055  65.858  1.00  0.00    -0.301 NA 
ENDROOT
BRANCH   4   7
HETATM    7  N   UNL     1     -10.075  16.428  65.812  1.00  0.00    -0.341 N  
HETATM    8  H   UNL     1      -9.526  16.971  65.145  1.00  0.00     0.000 HD 
BRANCH   7   9
HETATM    9  S   UNL     1     -10.452  17.056  67.337  1.00  0.00    -0.296 S  
HETATM   10  O   UNL     1     -10.994  18.382  67.107  1.00  0.00    -0.311 OA 
HETATM   11  O   UNL     1     -11.190  16.056  68.077  1.00  0.00    -0.344 OA 
BRANCH   9  12
HETATM   12  C   UNL     1      -8.870  17.293  68.125  1.00  0.00    -0.239 A  
HETATM   13  C   UNL     1      -8.402  18.592  68.356  1.00  0.00    -0.355 A  
HETATM   14  C   UNL     1      -7.183  18.782  69.012  1.00  0.00    -0.309 A  
HETATM   15  C   UNL     1      -6.408  17.692  69.421  1.00  0.00    -0.243 A  
HETATM   16  N   UNL     1      -5.253  17.897  70.182  1.00  0.00    -0.212 NA 
HETATM   17  C   UNL     1      -6.932  16.405  69.263  1.00  0.00    -0.223 A  
HETATM   18  H2  UNL     1      -5.504  18.441  71.007  1.00  0.00     0.000 HD 
HETATM   19  H1  UNL     1      -4.689  17.102  70.481  1.00  0.00     0.000 HD 
HETATM   20  C   UNL     1      -8.148  16.196  68.597  1.00  0.00    -0.203 A  
ENDBRANCH   9  12
ENDBRANCH   7   9
ENDBRANCH   4   7
TORSDOF 3
ENDMDL
MODEL       90
REMARK 921   NORMALIZED FREE ENERGY PREDICTED BY IDOCK:   -4.46 KCAL/MOL
REMARK 922        TOTAL FREE ENERGY PREDICTED BY IDOCK:   -5.70 KCAL/MOL
REMARK 923 INTER-LIGAND FREE ENERGY PREDICTED BY IDOCK:   -5.56 KCAL/MOL
REMARK 924 INTRA-LIGAND FREE ENERGY PREDICTED BY IDOCK:   -0.15 KCAL/MOL
REMARK 927      BINDING AFFINITY PREDICTED BY RF-SCORE:    0.00 PKD
ROOT
HETATM    1  C   UNL     1     -10.455  18.757  66.991  1.00  0.00    -0.474 C  
HETATM    2  C   UNL     1     -10.328  17.296  66.832  1.00  0.00    -0.310 A  
HETATM    3  C   UNL     1     -10.561  16.222  67.654  1.00  0.00    -0.311 A  
HETATM    4  C   UNL     1     -10.192  15.108  66.879  1.00  0.00    -0.259 A  
HETATM    5  O   UNL     1      -9.854  16.850  65.637  1.00  0.00    -0.549 OA 
HETATM    6  N   UNL     1      -9.724  15.467  65.682  1.00  0.00    -0.337 NA 
ENDROOT
BRANCH   4   7
HETATM    7  N   UNL     1     -10.152  13.794  67.323  1.00  0.00    -0.237 N  
HETATM    8  H   UNL     1      -9.263  13.340  67.532  1.00  0.00     0.000 HD 
BRANCH   7   9
HETATM    9  S   UNL     1     -11.614  12.961  67.509  1.00  0.00    -0.369 S  
HETATM   10  O   UNL     1     -12.363  13.678  68.523  1.00  0.00    -0.248 OA 
HETATM   11  O   UNL     1     -12.169  12.706  66.198  1.00  0.00    -0.568 OA 
BRANCH   9  12
HETATM   12  C   UNL     1     -11.148  11.403  68.241  1.00  0.00    -0.244 A  
HETATM   13  C   UNL     1     -11.138  11.271  69.635  1.00  0.00    -0.273 A  
HETATM   14  C   UNL     1     -10.815  10.040  70.211  1.00  0.00    -0.370 A  
HETATM   15  C   UNL     1     -10.476   8.940  69.417  1.00  0.00    -0.222 A  
HETATM   16  N   UNL     1     -10.275   7.686  70.002  1.00  0.00    -0.208 NA 
HETATM   17  C   UNL     1     -10.577   9.064  68.027  1.00  0.00    -0.242 A  
HETATM   18  H2  UNL     1     -11.104   7.447  70.544  1.00  0.00     0.000 HD 
HETATM   19  H1  UNL     1     -10.028   6.884  69.422  1.00  0.00     0.000 HD 
HETATM   20  C   UNL     1     -10.889  10.295  67.433  1.00  0.00    -0.336 A  
ENDBRANCH   9  12
ENDBRANCH   7   9
ENDBRANCH   4   7
TORSDOF 3
ENDMDL
MODEL       91
REMARK 921   NORMALIZED FREE ENERGY PREDICTED BY IDOCK:   -4.44 KCAL/MOL
REMARK 922        TOTAL FREE ENERGY PREDICTED BY IDOCK:   -5.69 KCAL/MOL
REMARK 923 INTER-LIGAND FREE ENERGY PREDICTED BY IDOCK:   -5.43 KCAL/MOL
REMARK 924 INTRA-LIGAND FREE ENERGY PREDICTED BY IDOCK:   -0.26 KCAL/MOL
REMARK 927      BINDING AFFINITY PREDICTED BY RF-SCORE:    0.00 PKD
ROOT
HETATM    1  C   UNL     1     -13.880   9.080  72.391  1.00  0.00    -0.540 C  
HETATM    2  C   UNL     1     -12.738   9.497  71.557  1.00  0.00    -0.372 A  
HETATM    3  C   UNL     1     -12.211  10.713  71.198  1.00  0.00    -0.479 A  
HETATM    4  C   UNL     1     -11.141  10.387  70.345  1.00  0.00    -0.296 A  
HETATM    5  O   UNL     1     -12.023   8.506  70.959  1.00  0.00    -0.284 OA 
HETATM    6  N   UNL     1     -11.040   9.070  70.155  1.00  0.00    -0.232 NA 
ENDROOT
BRANCH   4   7
HETATM    7  N   UNL     1     -10.365  11.296  69.642  1.00  0.00    -0.426 N  
HETATM    8  H   UNL     1      -9.449  11.580  69.989  1.00  0.00     0.000 HD 
BRANCH   7   9
HETATM    9  S   UNL     1     -10.973  11.923  68.192  1.00  0.00    -0.246 S  
HETATM   10  O   UNL     1     -10.086  11.457  67.144  1.00  0.00    -0.193 OA 
HETATM   11  O   UNL     1     -12.397  11.673  68.144  1.00  0.00    -0.429 OA 
BRANCH   9  12
HETATM   12  C   UNL     1     -10.710  13.682  68.323  1.00  0.00    -0.254 A  
HETATM   13  C   UNL     1     -10.321  14.408  67.191  1.00  0.00    -0.262 A  
HETATM   14  C   UNL     1     -10.156  15.792  67.279  1.00  0.00    -0.247 A  
HETATM   15  C   UNL     1     -10.349  16.464  68.489  1.00  0.00    -0.270 A  
HETATM   16  N   UNL     1     -10.299  17.861  68.533  1.00  0.00    -0.375 NA 
HETATM   17  C   UNL     1     -10.823  15.739  69.587  1.00  0.00    -0.300 A  
HETATM   18  H2  UNL     1     -10.964  18.229  67.852  1.00  0.00     0.000 HD 
HETATM   19  H1  UNL     1     -10.441  18.351  69.416  1.00  0.00     0.000 HD 
HETATM   20  C   UNL     1     -10.983  14.348  69.519  1.00  0.00    -0.230 A  
ENDBRANCH   9  12
ENDBRANCH   7   9
ENDBRANCH   4   7
TORSDOF 3
ENDMDL
MODEL       92
REMARK 921   NORMALIZED FREE ENERGY PREDICTED BY IDOCK:   -4.42 KCAL/MOL
REMARK 922        TOTAL FREE ENERGY PREDICTED BY IDOCK:   -5.66 KCAL/MOL
REMARK 923 INTER-LIGAND FREE ENERGY PREDICTED BY IDOCK:   -5.45 KCAL/MOL
REMARK 924 INTRA-LIGAND FREE ENERGY PREDICTED BY IDOCK:   -0.21 KCAL/MOL
REMARK 927      BINDING AFFINITY PREDICTED BY RF-SCORE:    0.00 PKD
ROOT
HETATM    1  C   UNL     1      -9.226   4.609  68.621  1.00  0.00    -0.173 C  
HETATM    2  C   UNL     1     -10.200   5.302  69.484  1.00  0.00    -0.268 A  
HETATM    3  C   UNL     1     -11.104   6.314  69.282  1.00  0.00    -0.461 A  
HETATM    4  C   UNL     1     -11.686   6.516  70.548  1.00  0.00    -0.375 A  
HETATM    5  O   UNL     1     -10.242   4.919  70.790  1.00  0.00    -0.232 OA 
HETATM    6  N   UNL     1     -11.149   5.718  71.474  1.00  0.00    -0.248 NA 
ENDROOT
BRANCH   4   7
HETATM    7  N   UNL     1     -12.590   7.517  70.870  1.00  0.00    -0.554 N  
HETATM    8  H   UNL     1     -13.571   7.440  70.605  1.00  0.00     0.000 HD 
BRANCH   7   9
HETATM    9  S   UNL     1     -12.025   8.871  71.713  1.00  0.00    -0.385 S  
HETATM   10  O   UNL     1     -13.191   9.494  72.309  1.00  0.00    -0.422 OA 
HETATM   11  O   UNL     1     -10.888   8.473  72.515  1.00  0.00    -0.337 OA 
BRANCH   9  12
HETATM   12  C   UNL     1     -11.459   9.984  70.440  1.00  0.00    -0.314 A  
HETATM   13  C   UNL     1     -12.306  11.005  69.990  1.00  0.00    -0.377 A  
HETATM   14  C   UNL     1     -11.851  11.905  69.023  1.00  0.00    -0.368 A  
HETATM   15  C   UNL     1     -10.569  11.789  68.478  1.00  0.00    -0.217 A  
HETATM   16  N   UNL     1     -10.086  12.768  67.604  1.00  0.00    -0.216 NA 
HETATM   17  C   UNL     1      -9.706  10.822  69.003  1.00  0.00    -0.201 A  
HETATM   18  H2  UNL     1     -10.159  13.675  68.064  1.00  0.00     0.000 HD 
HETATM   19  H1  UNL     1      -9.150  12.683  67.207  1.00  0.00     0.000 HD 
HETATM   20  C   UNL     1     -10.150   9.903  69.964  1.00  0.00    -0.308 A  
ENDBRANCH   9  12
ENDBRANCH   7   9
ENDBRANCH   4   7
TORSDOF 3
ENDMDL
MODEL       93
REMARK 921   NORMALIZED FREE ENERGY PREDICTED BY IDOCK:   -4.42 KCAL/MOL
REMARK 922        TOTAL FREE ENERGY PREDICTED BY IDOCK:   -5.66 KCAL/MOL
REMARK 923 INTER-LIGAND FREE ENERGY PREDICTED BY IDOCK:   -5.37 KCAL/MOL
REMARK 924 INTRA-LIGAND FREE ENERGY PREDICTED BY IDOCK:   -0.28 KCAL/MOL
REMARK 927      BINDING AFFINITY PREDICTED BY RF-SCORE:    0.00 PKD
ROOT
HETATM    1  C   UNL     1     -10.560  19.926  67.281  1.00  0.00    -0.519 C  
HETATM    2  C   UNL     1     -10.140  18.553  66.948  1.00  0.00    -0.370 A  
HETATM    3  C   UNL     1     -10.533  17.306  67.367  1.00  0.00    -0.338 A  
HETATM    4  C   UNL     1      -9.684  16.425  66.673  1.00  0.00    -0.257 A  
HETATM    5  O   UNL     1      -9.121  18.424  66.055  1.00  0.00    -0.501 OA 
HETATM    6  N   UNL     1      -8.801  17.079  65.915  1.00  0.00    -0.532 NA 
ENDROOT
BRANCH   4   7
HETATM    7  N   UNL     1      -9.630  15.050  66.848  1.00  0.00    -0.230 N  
HETATM    8  H   UNL     1      -8.964  14.632  67.498  1.00  0.00     0.000 HD 
BRANCH   7   9
HETATM    9  S   UNL     1     -10.694  14.082  65.958  1.00  0.00    -0.300 S  
HETATM   10  O   UNL     1     -11.981  14.180  66.618  1.00  0.00    -0.408 OA 
HETATM   11  O   UNL     1     -10.538  14.396  64.554  1.00  0.00    -0.371 OA 
BRANCH   9  12
HETATM   12  C   UNL     1     -10.117  12.417  66.233  1.00  0.00    -0.240 A  
HETATM   13  C   UNL     1      -9.584  12.069  67.480  1.00  0.00    -0.177 A  
HETATM   14  C   UNL     1      -9.170  10.755  67.714  1.00  0.00    -0.155 A  
HETATM   15  C   UNL     1      -9.257   9.785  66.711  1.00  0.00    -0.148 A  
HETATM   16  N   UNL     1      -8.953   8.450  66.998  1.00  0.00    -0.138 NA 
HETATM   17  C   UNL     1      -9.872  10.126  65.503  1.00  0.00    -0.365 A  
HETATM   18  H2  UNL     1      -9.528   8.151  67.785  1.00  0.00     0.000 HD 
HETATM   19  H1  UNL     1      -9.017   7.742  66.266  1.00  0.00     0.000 HD 
HETATM   20  C   UNL     1     -10.283  11.442  65.249  1.00  0.00    -0.320 A  
ENDBRANCH   9  12
ENDBRANCH   7   9
ENDBRANCH   4   7
TORSDOF 3
ENDMDL
MODEL       94
REMARK 921   NORMALIZED FREE ENERGY PREDICTED BY IDOCK:   -4.41 KCAL/MOL
REMARK 922        TOTAL FREE ENERGY PREDICTED BY IDOCK:   -5.64 KCAL/MOL
REMARK 923 INTER-LIGAND FREE ENERGY PREDICTED BY IDOCK:   -5.28 KCAL/MOL
REMARK 924 INTRA-LIGAND FREE ENERGY PREDICTED BY IDOCK:   -0.36 KCAL/MOL
REMARK 927      BINDING AFFINITY PREDICTED BY RF-SCORE:    0.00 PKD
ROOT
HETATM    1  C   UNL     1     -14.411  14.461  71.787  1.00  0.00    -0.584 C  
HETATM    2  C   UNL     1     -13.090  14.898  71.300  1.00  0.00    -0.381 A  
HETATM    3  C   UNL     1     -12.205  14.410  70.370  1.00  0.00    -0.404 A  
HETATM    4  C   UNL     1     -11.114  15.296  70.434  1.00  0.00    -0.298 A  
HETATM    5  O   UNL     1     -12.560  16.009  71.881  1.00  0.00    -0.452 OA 
HETATM    6  N   UNL     1     -11.290  16.235  71.366  1.00  0.00    -0.295 NA 
ENDROOT
BRANCH   4   7
HETATM    7  N   UNL     1      -9.917  15.152  69.749  1.00  0.00    -0.440 N  
HETATM    8  H   UNL     1      -9.076  14.830  70.228  1.00  0.00     0.000 HD 
BRANCH   7   9
HETATM    9  S   UNL     1      -9.884  15.523  68.098  1.00  0.00    -0.217 S  
HETATM   10  O   UNL     1     -11.166  16.128  67.792  1.00  0.00    -0.299 OA 
HETATM   11  O   UNL     1      -8.639  16.199  67.803  1.00  0.00    -0.165 OA 
BRANCH   9  12
HETATM   12  C   UNL     1      -9.874  13.936  67.285  1.00  0.00    -0.244 A  
HETATM   13  C   UNL     1      -9.310  12.831  67.935  1.00  0.00    -0.208 A  
HETATM   14  C   UNL     1      -9.338  11.577  67.320  1.00  0.00    -0.170 A  
HETATM   15  C   UNL     1      -9.900  11.411  66.050  1.00  0.00    -0.223 A  
HETATM   16  N   UNL     1     -10.030  10.131  65.502  1.00  0.00    -0.292 NA 
HETATM   17  C   UNL     1     -10.537  12.504  65.454  1.00  0.00    -0.310 A  
HETATM   18  H2  UNL     1     -10.547   9.549  66.160  1.00  0.00     0.000 HD 
HETATM   19  H1  UNL     1     -10.440  10.011  64.575  1.00  0.00     0.000 HD 
HETATM   20  C   UNL     1     -10.508  13.771  66.053  1.00  0.00    -0.297 A  
ENDBRANCH   9  12
ENDBRANCH   7   9
ENDBRANCH   4   7
TORSDOF 3
ENDMDL
MODEL       95
REMARK 921   NORMALIZED FREE ENERGY PREDICTED BY IDOCK:   -4.35 KCAL/MOL
REMARK 922        TOTAL FREE ENERGY PREDICTED BY IDOCK:   -5.58 KCAL/MOL
REMARK 923 INTER-LIGAND FREE ENERGY PREDICTED BY IDOCK:   -5.15 KCAL/MOL
REMARK 924 INTRA-LIGAND FREE ENERGY PREDICTED BY IDOCK:   -0.43 KCAL/MOL
REMARK 927      BINDING AFFINITY PREDICTED BY RF-SCORE:    0.00 PKD
ROOT
HETATM    1  C   UNL     1     -12.202  12.869  65.416  1.00  0.00    -0.528 C  
HETATM    2  C   UNL     1     -11.634  12.493  66.724  1.00  0.00    -0.382 A  
HETATM    3  C   UNL     1     -11.609  11.332  67.456  1.00  0.00    -0.257 A  
HETATM    4  C   UNL     1     -10.932  11.684  68.638  1.00  0.00    -0.220 A  
HETATM    5  O   UNL     1     -11.006  13.476  67.424  1.00  0.00    -0.265 OA 
HETATM    6  N   UNL     1     -10.602  12.977  68.656  1.00  0.00    -0.251 NA 
ENDROOT
BRANCH   4   7
HETATM    7  N   UNL     1     -10.753  10.861  69.740  1.00  0.00    -0.434 N  
HETATM    8  H   UNL     1     -11.414  10.876  70.516  1.00  0.00     0.000 HD 
BRANCH   7   9
HETATM    9  S   UNL     1      -9.409   9.833  69.768  1.00  0.00    -0.227 S  
HETATM   10  O   UNL     1      -8.333  10.552  69.115  1.00  0.00    -0.144 OA 
HETATM   11  O   UNL     1      -9.261   9.305  71.107  1.00  0.00    -0.238 OA 
BRANCH   9  12
HETATM   12  C   UNL     1      -9.851   8.494  68.677  1.00  0.00    -0.170 A  
HETATM   13  C   UNL     1     -10.706   7.484  69.135  1.00  0.00    -0.163 A  
HETATM   14  C   UNL     1     -11.089   6.456  68.270  1.00  0.00    -0.359 A  
HETATM   15  C   UNL     1     -10.610   6.405  66.957  1.00  0.00    -0.327 A  
HETATM   16  N   UNL     1     -11.097   5.440  66.069  1.00  0.00    -0.789 NA 
HETATM   17  C   UNL     1      -9.830   7.467  66.489  1.00  0.00    -0.209 A  
HETATM   18  H2  UNL     1     -12.114   5.515  66.038  1.00  0.00     0.000 HD 
HETATM   19  H1  UNL     1     -10.748   5.403  65.111  1.00  0.00     0.000 HD 
HETATM   20  C   UNL     1      -9.428   8.500  67.347  1.00  0.00    -0.188 A  
ENDBRANCH   9  12
ENDBRANCH   7   9
ENDBRANCH   4   7
TORSDOF 3
ENDMDL
MODEL       96
REMARK 921   NORMALIZED FREE ENERGY PREDICTED BY IDOCK:   -4.31 KCAL/MOL
REMARK 922        TOTAL FREE ENERGY PREDICTED BY IDOCK:   -5.53 KCAL/MOL
REMARK 923 INTER-LIGAND FREE ENERGY PREDICTED BY IDOCK:   -5.14 KCAL/MOL
REMARK 924 INTRA-LIGAND FREE ENERGY PREDICTED BY IDOCK:   -0.39 KCAL/MOL
REMARK 927      BINDING AFFINITY PREDICTED BY RF-SCORE:    0.00 PKD
ROOT
HETATM    1  C   UNL     1     -12.342  13.491  63.666  1.00  0.00    -0.377 C  
HETATM    2  C   UNL     1     -11.439  12.528  64.321  1.00  0.00    -0.362 A  
HETATM    3  C   UNL     1     -11.461  11.862  65.521  1.00  0.00    -0.311 A  
HETATM    4  C   UNL     1     -10.261  11.127  65.531  1.00  0.00    -0.263 A  
HETATM    5  O   UNL     1     -10.298  12.206  63.653  1.00  0.00    -0.398 OA 
HETATM    6  N   UNL     1      -9.530  11.356  64.438  1.00  0.00    -0.181 NA 
ENDROOT
BRANCH   4   7
HETATM    7  N   UNL     1      -9.784  10.375  66.594  1.00  0.00    -0.183 N  
HETATM    8  H   UNL     1      -9.804   9.355  66.562  1.00  0.00     0.000 HD 
BRANCH   7   9
HETATM    9  S   UNL     1      -9.170  11.187  67.945  1.00  0.00    -0.159 S  
HETATM   10  O   UNL     1      -8.083  10.372  68.450  1.00  0.00    -0.105 OA 
HETATM   11  O   UNL     1      -8.974  12.578  67.596  1.00  0.00    -0.168 OA 
BRANCH   9  12
HETATM   12  C   UNL     1     -10.475  11.086  69.156  1.00  0.00    -0.210 A  
HETATM   13  C   UNL     1     -10.487  10.026  70.071  1.00  0.00    -0.337 A  
HETATM   14  C   UNL     1     -11.484   9.966  71.049  1.00  0.00    -0.466 A  
HETATM   15  C   UNL     1     -12.487  10.937  71.113  1.00  0.00    -0.405 A  
HETATM   16  N   UNL     1     -13.404  10.931  72.170  1.00  0.00    -0.580 NA 
HETATM   17  C   UNL     1     -12.410  12.036  70.251  1.00  0.00    -0.275 A  
HETATM   18  H2  UNL     1     -12.884  10.947  73.047  1.00  0.00     0.000 HD 
HETATM   19  H1  UNL     1     -14.136  11.640  72.217  1.00  0.00     0.000 HD 
HETATM   20  C   UNL     1     -11.424  12.105  69.257  1.00  0.00    -0.363 A  
ENDBRANCH   9  12
ENDBRANCH   7   9
ENDBRANCH   4   7
TORSDOF 3
ENDMDL
MODEL       97
REMARK 921   NORMALIZED FREE ENERGY PREDICTED BY IDOCK:   -4.29 KCAL/MOL
REMARK 922        TOTAL FREE ENERGY PREDICTED BY IDOCK:   -5.50 KCAL/MOL
REMARK 923 INTER-LIGAND FREE ENERGY PREDICTED BY IDOCK:   -5.23 KCAL/MOL
REMARK 924 INTRA-LIGAND FREE ENERGY PREDICTED BY IDOCK:   -0.27 KCAL/MOL
REMARK 927      BINDING AFFINITY PREDICTED BY RF-SCORE:    0.00 PKD
ROOT
HETATM    1  C   UNL     1      -7.228  17.846  68.772  1.00  0.00    -0.275 C  
HETATM    2  C   UNL     1      -8.337  16.899  68.554  1.00  0.00    -0.257 A  
HETATM    3  C   UNL     1      -9.454  16.904  67.755  1.00  0.00    -0.237 A  
HETATM    4  C   UNL     1     -10.111  15.701  68.073  1.00  0.00    -0.224 A  
HETATM    5  O   UNL     1      -8.326  15.761  69.299  1.00  0.00    -0.231 OA 
HETATM    6  N   UNL     1      -9.472  15.024  69.030  1.00  0.00    -0.210 NA 
ENDROOT
BRANCH   4   7
HETATM    7  N   UNL     1     -11.352  15.309  67.594  1.00  0.00    -0.329 N  
HETATM    8  H   UNL     1     -12.202  15.788  67.891  1.00  0.00     0.000 HD 
BRANCH   7   9
HETATM    9  S   UNL     1     -11.423  14.015  66.506  1.00  0.00    -0.373 S  
HETATM   10  O   UNL     1     -12.719  14.097  65.861  1.00  0.00    -0.487 OA 
HETATM   11  O   UNL     1     -10.197  13.990  65.739  1.00  0.00    -0.304 OA 
BRANCH   9  12
HETATM   12  C   UNL     1     -11.472  12.564  67.542  1.00  0.00    -0.336 A  
HETATM   13  C   UNL     1     -10.974  11.350  67.053  1.00  0.00    -0.347 A  
HETATM   14  C   UNL     1     -10.971  10.221  67.876  1.00  0.00    -0.350 A  
HETATM   15  C   UNL     1     -11.482  10.277  69.176  1.00  0.00    -0.147 A  
HETATM   16  N   UNL     1     -11.361   9.174  70.027  1.00  0.00    -0.421 NA 
HETATM   17  C   UNL     1     -11.893  11.516  69.679  1.00  0.00    -0.421 A  
HETATM   18  H2  UNL     1     -10.376   8.915  70.080  1.00  0.00     0.000 HD 
HETATM   19  H1  UNL     1     -11.734   9.216  70.976  1.00  0.00     0.000 HD 
HETATM   20  C   UNL     1     -11.913  12.655  68.863  1.00  0.00    -0.284 A  
ENDBRANCH   9  12
ENDBRANCH   7   9
ENDBRANCH   4   7
TORSDOF 3
ENDMDL
MODEL       98
REMARK 921   NORMALIZED FREE ENERGY PREDICTED BY IDOCK:   -4.28 KCAL/MOL
REMARK 922        TOTAL FREE ENERGY PREDICTED BY IDOCK:   -5.50 KCAL/MOL
REMARK 923 INTER-LIGAND FREE ENERGY PREDICTED BY IDOCK:   -5.29 KCAL/MOL
REMARK 924 INTRA-LIGAND FREE ENERGY PREDICTED BY IDOCK:   -0.21 KCAL/MOL
REMARK 927      BINDING AFFINITY PREDICTED BY RF-SCORE:    0.00 PKD
ROOT
HETATM    1  C   UNL     1     -10.286  12.280  63.423  1.00  0.00    -0.360 C  
HETATM    2  C   UNL     1     -10.565  11.558  64.678  1.00  0.00    -0.311 A  
HETATM    3  C   UNL     1     -11.369  11.805  65.763  1.00  0.00    -0.309 A  
HETATM    4  C   UNL     1     -11.125  10.722  66.626  1.00  0.00    -0.035 A  
HETATM    5  O   UNL     1      -9.886  10.396  64.879  1.00  0.00    -0.287 OA 
HETATM    6  N   UNL     1     -10.205   9.890  66.133  1.00  0.00    -0.237 NA 
ENDROOT
BRANCH   4   7
HETATM    7  N   UNL     1     -11.633  10.582  67.909  1.00  0.00    -0.400 N  
HETATM    8  H   UNL     1     -12.478  10.037  68.080  1.00  0.00     0.000 HD 
BRANCH   7   9
HETATM    9  S   UNL     1     -10.820  11.339  69.185  1.00  0.00    -0.207 S  
HETATM   10  O   UNL     1      -9.430  11.430  68.784  1.00  0.00    -0.186 OA 
HETATM   11  O   UNL     1     -11.571  12.511  69.580  1.00  0.00    -0.284 OA 
BRANCH   9  12
HETATM   12  C   UNL     1     -10.879  10.154  70.516  1.00  0.00    -0.273 A  
HETATM   13  C   UNL     1     -12.113   9.820  71.089  1.00  0.00    -0.460 A  
HETATM   14  C   UNL     1     -12.169   8.860  72.102  1.00  0.00    -0.437 A  
HETATM   15  C   UNL     1     -11.006   8.243  72.574  1.00  0.00    -0.354 A  
HETATM   16  N   UNL     1     -11.092   7.199  73.501  1.00  0.00    -0.547 NA 
HETATM   17  C   UNL     1      -9.796   8.521  71.931  1.00  0.00    -0.358 A  
HETATM   18  H2  UNL     1     -11.706   6.480  73.120  1.00  0.00     0.000 HD 
HETATM   19  H1  UNL     1     -10.243   6.749  73.844  1.00  0.00     0.000 HD 
HETATM   20  C   UNL     1      -9.720   9.489  70.920  1.00  0.00    -0.242 A  
ENDBRANCH   9  12
ENDBRANCH   7   9
ENDBRANCH   4   7
TORSDOF 3
ENDMDL
MODEL       99
REMARK 921   NORMALIZED FREE ENERGY PREDICTED BY IDOCK:   -4.28 KCAL/MOL
REMARK 922        TOTAL FREE ENERGY PREDICTED BY IDOCK:   -5.49 KCAL/MOL
REMARK 923 INTER-LIGAND FREE ENERGY PREDICTED BY IDOCK:   -5.25 KCAL/MOL
REMARK 924 INTRA-LIGAND FREE ENERGY PREDICTED BY IDOCK:   -0.25 KCAL/MOL
REMARK 927      BINDING AFFINITY PREDICTED BY RF-SCORE:    0.00 PKD
ROOT
HETATM    1  C   UNL     1      -9.949  11.569  64.334  1.00  0.00    -0.311 C  
HETATM    2  C   UNL     1     -10.589  12.636  65.125  1.00  0.00    -0.298 A  
HETATM    3  C   UNL     1     -11.188  12.681  66.359  1.00  0.00    -0.350 A  
HETATM    4  C   UNL     1     -11.624  14.013  66.482  1.00  0.00    -0.374 A  
HETATM    5  O   UNL     1     -10.658  13.867  64.549  1.00  0.00    -0.424 OA 
HETATM    6  N   UNL     1     -11.354  14.728  65.388  1.00  0.00    -0.348 NA 
ENDROOT
BRANCH   4   7
HETATM    7  N   UNL     1     -12.385  14.520  67.525  1.00  0.00    -0.582 N  
HETATM    8  H   UNL     1     -13.361  14.778  67.382  1.00  0.00     0.000 HD 
BRANCH   7   9
HETATM    9  S   UNL     1     -11.656  14.699  69.042  1.00  0.00    -0.317 S  
HETATM   10  O   UNL     1     -12.626  15.376  69.881  1.00  0.00    -0.291 OA 
HETATM   11  O   UNL     1     -11.077  13.431  69.428  1.00  0.00    -0.205 OA 
BRANCH   9  12
HETATM   12  C   UNL     1     -10.335  15.864  68.765  1.00  0.00    -0.228 A  
HETATM   13  C   UNL     1      -9.052  15.393  68.461  1.00  0.00    -0.197 A  
HETATM   14  C   UNL     1      -8.023  16.303  68.201  1.00  0.00    -0.157 A  
HETATM   15  C   UNL     1      -8.249  17.681  68.265  1.00  0.00    -0.276 A  
HETATM   16  N   UNL     1      -7.244  18.576  67.885  1.00  0.00    -0.234 NA 
HETATM   17  C   UNL     1      -9.554  18.134  68.483  1.00  0.00    -0.349 A  
HETATM   18  H2  UNL     1      -6.947  18.342  66.938  1.00  0.00     0.000 HD 
HETATM   19  H1  UNL     1      -7.409  19.581  67.932  1.00  0.00     0.000 HD 
HETATM   20  C   UNL     1     -10.595  17.235  68.756  1.00  0.00    -0.305 A  
ENDBRANCH   9  12
ENDBRANCH   7   9
ENDBRANCH   4   7
TORSDOF 3
ENDMDL
MODEL      100
REMARK 921   NORMALIZED FREE ENERGY PREDICTED BY IDOCK:   -4.25 KCAL/MOL
REMARK 922        TOTAL FREE ENERGY PREDICTED BY IDOCK:   -5.46 KCAL/MOL
REMARK 923 INTER-LIGAND FREE ENERGY PREDICTED BY IDOCK:   -5.24 KCAL/MOL
REMARK 924 INTRA-LIGAND FREE ENERGY PREDICTED BY IDOCK:   -0.21 KCAL/MOL
REMARK 927      BINDING AFFINITY PREDICTED BY RF-SCORE:    0.00 PKD
ROOT
HETATM    1  C   UNL     1     -10.215   3.119  72.257  1.00  0.00    -0.173 C  
HETATM    2  C   UNL     1     -10.440   4.570  72.391  1.00  0.00    -0.168 A  
HETATM    3  C   UNL     1     -11.404   5.336  72.998  1.00  0.00    -0.376 A  
HETATM    4  C   UNL     1     -11.030   6.659  72.702  1.00  0.00    -0.255 A  
HETATM    5  O   UNL     1      -9.542   5.387  71.774  1.00  0.00    -0.145 OA 
HETATM    6  N   UNL     1      -9.941   6.708  71.932  1.00  0.00    -0.177 NA 
ENDROOT
BRANCH   4   7
HETATM    7  N   UNL     1     -11.764   7.793  73.015  1.00  0.00    -0.611 N  
HETATM    8  H   UNL     1     -11.608   8.291  73.892  1.00  0.00     0.000 HD 
BRANCH   7   9
HETATM    9  S   UNL     1     -12.926   8.332  71.910  1.00  0.00    -0.343 S  
HETATM   10  O   UNL     1     -13.109   7.256  70.955  1.00  0.00    -0.295 OA 
HETATM   11  O   UNL     1     -14.041   8.886  72.647  1.00  0.00    -0.496 OA 
BRANCH   9  12
HETATM   12  C   UNL     1     -12.120   9.653  71.025  1.00  0.00    -0.337 A  
HETATM   13  C   UNL     1     -11.071   9.355  70.146  1.00  0.00    -0.277 A  
HETATM   14  C   UNL     1     -10.465  10.382  69.418  1.00  0.00    -0.261 A  
HETATM   15  C   UNL     1     -10.872  11.711  69.572  1.00  0.00    -0.029 A  
HETATM   16  N   UNL     1     -10.340  12.709  68.749  1.00  0.00    -0.390 NA 
HETATM   17  C   UNL     1     -11.978  11.980  70.385  1.00  0.00    -0.379 A  
HETATM   18  H2  UNL     1     -10.488  12.438  67.777  1.00  0.00     0.000 HD 
HETATM   19  H1  UNL     1     -10.638  13.678  68.862  1.00  0.00     0.000 HD 
HETATM   20  C   UNL     1     -12.590  10.963  71.130  1.00  0.00    -0.532 A  
ENDBRANCH   9  12
ENDBRANCH   7   9
ENDBRANCH   4   7
TORSDOF 3
ENDMDL
MODEL      101
REMARK 921   NORMALIZED FREE ENERGY PREDICTED BY IDOCK:   -4.25 KCAL/MOL
REMARK 922        TOTAL FREE ENERGY PREDICTED BY IDOCK:   -5.45 KCAL/MOL
REMARK 923 INTER-LIGAND FREE ENERGY PREDICTED BY IDOCK:   -5.09 KCAL/MOL
REMARK 924 INTRA-LIGAND FREE ENERGY PREDICTED BY IDOCK:   -0.36 KCAL/MOL
REMARK 927      BINDING AFFINITY PREDICTED BY RF-SCORE:    0.00 PKD
ROOT
HETATM    1  C   UNL     1     -12.186  14.774  64.258  1.00  0.00    -0.402 C  
HETATM    2  C   UNL     1     -11.325  14.420  65.402  1.00  0.00    -0.339 A  
HETATM    3  C   UNL     1     -11.096  14.979  66.634  1.00  0.00    -0.326 A  
HETATM    4  C   UNL     1     -10.118  14.149  67.213  1.00  0.00    -0.256 A  
HETATM    5  O   UNL     1     -10.536  13.320  65.256  1.00  0.00    -0.294 OA 
HETATM    6  N   UNL     1      -9.738  13.175  66.384  1.00  0.00    -0.267 NA 
ENDROOT
BRANCH   4   7
HETATM    7  N   UNL     1      -9.485  14.375  68.426  1.00  0.00    -0.203 N  
HETATM    8  H   UNL     1      -9.867  13.996  69.293  1.00  0.00     0.000 HD 
BRANCH   7   9
HETATM    9  S   UNL     1      -8.064  15.294  68.435  1.00  0.00    -0.144 S  
HETATM   10  O   UNL     1      -7.626  15.351  69.816  1.00  0.00    -0.192 OA 
HETATM   11  O   UNL     1      -7.195  14.807  67.386  1.00  0.00    -0.195 OA 
BRANCH   9  12
HETATM   12  C   UNL     1      -8.597  16.942  68.011  1.00  0.00    -0.214 A  
HETATM   13  C   UNL     1      -9.565  17.578  68.799  1.00  0.00    -0.277 A  
HETATM   14  C   UNL     1      -9.954  18.885  68.495  1.00  0.00    -0.463 A  
HETATM   15  C   UNL     1      -9.410  19.562  67.400  1.00  0.00    -0.319 A  
HETATM   16  N   UNL     1      -9.718  20.908  67.182  1.00  0.00    -0.654 NA 
HETATM   17  C   UNL     1      -8.382  18.947  66.679  1.00  0.00    -0.304 A  
HETATM   18  H2  UNL     1      -9.492  21.432  68.028  1.00  0.00     0.000 HD 
HETATM   19  H1  UNL     1      -9.321  21.402  66.383  1.00  0.00     0.000 HD 
HETATM   20  C   UNL     1      -7.987  17.632  66.963  1.00  0.00    -0.242 A  
ENDBRANCH   9  12
ENDBRANCH   7   9
ENDBRANCH   4   7
TORSDOF 3
ENDMDL
MODEL      102
REMARK 921   NORMALIZED FREE ENERGY PREDICTED BY IDOCK:   -4.24 KCAL/MOL
REMARK 922        TOTAL FREE ENERGY PREDICTED BY IDOCK:   -5.45 KCAL/MOL
REMARK 923 INTER-LIGAND FREE ENERGY PREDICTED BY IDOCK:   -5.12 KCAL/MOL
REMARK 924 INTRA-LIGAND FREE ENERGY PREDICTED BY IDOCK:   -0.33 KCAL/MOL
REMARK 927      BINDING AFFINITY PREDICTED BY RF-SCORE:    0.00 PKD
ROOT
HETATM    1  C   UNL     1     -10.144  19.332  68.507  1.00  0.00    -0.513 C  
HETATM    2  C   UNL     1      -9.976  17.902  68.189  1.00  0.00    -0.350 A  
HETATM    3  C   UNL     1     -10.224  16.736  68.870  1.00  0.00    -0.304 A  
HETATM    4  C   UNL     1      -9.793  15.725  67.993  1.00  0.00    -0.217 A  
HETATM    5  O   UNL     1      -9.434  17.604  66.977  1.00  0.00    -0.252 OA 
HETATM    6  N   UNL     1      -9.274  16.229  66.871  1.00  0.00    -0.209 NA 
ENDROOT
BRANCH   4   7
HETATM    7  N   UNL     1      -9.744  14.370  68.285  1.00  0.00    -0.216 N  
HETATM    8  H   UNL     1      -8.875  13.933  68.591  1.00  0.00     0.000 HD 
BRANCH   7   9
HETATM    9  S   UNL     1     -11.161  13.459  68.122  1.00  0.00    -0.292 S  
HETATM   10  O   UNL     1     -11.558  13.082  69.464  1.00  0.00    -0.283 OA 
HETATM   11  O   UNL     1     -12.062  14.164  67.237  1.00  0.00    -0.417 OA 
BRANCH   9  12
HETATM   12  C   UNL     1     -10.635  11.958  67.316  1.00  0.00    -0.228 A  
HETATM   13  C   UNL     1      -9.712  12.026  66.265  1.00  0.00    -0.251 A  
HETATM   14  C   UNL     1      -9.265  10.849  65.659  1.00  0.00    -0.227 A  
HETATM   15  C   UNL     1      -9.743   9.602  66.071  1.00  0.00    -0.264 A  
HETATM   16  N   UNL     1      -9.196   8.430  65.539  1.00  0.00    -0.416 NA 
HETATM   17  C   UNL     1     -10.594   9.545  67.179  1.00  0.00    -0.295 A  
HETATM   18  H2  UNL     1      -8.186   8.451  65.684  1.00  0.00     0.000 HD 
HETATM   19  H1  UNL     1      -9.545   7.519  65.840  1.00  0.00     0.000 HD 
HETATM   20  C   UNL     1     -11.061  10.717  67.791  1.00  0.00    -0.385 A  
ENDBRANCH   9  12
ENDBRANCH   7   9
ENDBRANCH   4   7
TORSDOF 3
ENDMDL
MODEL      103
REMARK 921   NORMALIZED FREE ENERGY PREDICTED BY IDOCK:   -4.21 KCAL/MOL
REMARK 922        TOTAL FREE ENERGY PREDICTED BY IDOCK:   -5.41 KCAL/MOL
REMARK 923 INTER-LIGAND FREE ENERGY PREDICTED BY IDOCK:   -5.20 KCAL/MOL
REMARK 924 INTRA-LIGAND FREE ENERGY PREDICTED BY IDOCK:   -0.21 KCAL/MOL
REMARK 927      BINDING AFFINITY PREDICTED BY RF-SCORE:    0.00 PKD
ROOT
HETATM    1  C   UNL     1     -10.310   6.567  71.605  1.00  0.00    -0.232 C  
HETATM    2  C   UNL     1     -10.103   7.782  70.796  1.00  0.00    -0.192 A  
HETATM    3  C   UNL     1     -10.386   9.113  70.981  1.00  0.00    -0.363 A  
HETATM    4  C   UNL     1      -9.956   9.726  69.790  1.00  0.00    -0.236 A  
HETATM    5  O   UNL     1      -9.534   7.612  69.571  1.00  0.00    -0.153 OA 
HETATM    6  N   UNL     1      -9.484   8.836  68.915  1.00  0.00    -0.145 NA 
ENDROOT
BRANCH   4   7
HETATM    7  N   UNL     1     -10.133  11.062  69.461  1.00  0.00    -0.441 N  
HETATM    8  H   UNL     1      -9.371  11.731  69.569  1.00  0.00     0.000 HD 
BRANCH   7   9
HETATM    9  S   UNL     1     -11.642  11.556  68.877  1.00  0.00    -0.350 S  
HETATM   10  O   UNL     1     -11.807  10.917  67.586  1.00  0.00    -0.572 OA 
HETATM   11  O   UNL     1     -12.619  11.392  69.932  1.00  0.00    -0.160 OA 
BRANCH   9  12
HETATM   12  C   UNL     1     -11.446  13.298  68.552  1.00  0.00    -0.312 A  
HETATM   13  C   UNL     1     -11.626  14.218  69.592  1.00  0.00    -0.351 A  
HETATM   14  C   UNL     1     -11.431  15.581  69.352  1.00  0.00    -0.345 A  
HETATM   15  C   UNL     1     -11.082  16.045  68.081  1.00  0.00    -0.344 A  
HETATM   16  N   UNL     1     -10.772  17.394  67.886  1.00  0.00    -0.384 NA 
HETATM   17  C   UNL     1     -10.819  15.107  67.077  1.00  0.00    -0.314 A  
HETATM   18  H2  UNL     1     -10.030  17.652  68.537  1.00  0.00     0.000 HD 
HETATM   19  H1  UNL     1     -10.517  17.732  66.958  1.00  0.00     0.000 HD 
HETATM   20  C   UNL     1     -11.020  13.737  67.298  1.00  0.00    -0.302 A  
ENDBRANCH   9  12
ENDBRANCH   7   9
ENDBRANCH   4   7
TORSDOF 3
ENDMDL
MODEL      104
REMARK 921   NORMALIZED FREE ENERGY PREDICTED BY IDOCK:   -4.21 KCAL/MOL
REMARK 922        TOTAL FREE ENERGY PREDICTED BY IDOCK:   -5.41 KCAL/MOL
REMARK 923 INTER-LIGAND FREE ENERGY PREDICTED BY IDOCK:   -5.62 KCAL/MOL
REMARK 924 INTRA-LIGAND FREE ENERGY PREDICTED BY IDOCK:    0.22 KCAL/MOL
REMARK 927      BINDING AFFINITY PREDICTED BY RF-SCORE:    0.00 PKD
ROOT
HETATM    1  C   UNL     1     -12.588  11.951  63.477  1.00  0.00    -0.579 C  
HETATM    2  C   UNL     1     -11.660  12.626  64.403  1.00  0.00    -0.357 A  
HETATM    3  C   UNL     1     -11.521  12.650  65.768  1.00  0.00    -0.399 A  
HETATM    4  C   UNL     1     -10.451  13.535  65.991  1.00  0.00    -0.299 A  
HETATM    5  O   UNL     1     -10.726  13.444  63.844  1.00  0.00    -0.254 OA 
HETATM    6  N   UNL     1      -9.991  14.056  64.852  1.00  0.00    -0.242 NA 
ENDROOT
BRANCH   4   7
HETATM    7  N   UNL     1     -10.006  13.966  67.232  1.00  0.00    -0.240 N  
HETATM    8  H   UNL     1      -9.078  13.712  67.571  1.00  0.00     0.000 HD 
BRANCH   7   9
HETATM    9  S   UNL     1     -11.038  14.922  68.172  1.00  0.00    -0.296 S  
HETATM   10  O   UNL     1     -12.369  14.741  67.626  1.00  0.00    -0.102 OA 
HETATM   11  O   UNL     1     -10.753  14.673  69.568  1.00  0.00    -0.236 OA 
BRANCH   9  12
HETATM   12  C   UNL     1     -10.565  16.598  67.787  1.00  0.00    -0.342 A  
HETATM   13  C   UNL     1     -10.282  16.948  66.461  1.00  0.00    -0.320 A  
HETATM   14  C   UNL     1      -9.953  18.270  66.149  1.00  0.00    -0.313 A  
HETATM   15  C   UNL     1      -9.876  19.247  67.147  1.00  0.00    -0.339 A  
HETATM   16  N   UNL     1      -9.665  20.586  66.803  1.00  0.00    -0.635 NA 
HETATM   17  C   UNL     1     -10.247  18.901  68.450  1.00  0.00    -0.433 A  
HETATM   18  H2  UNL     1     -10.384  20.864  66.136  1.00  0.00     0.000 HD 
HETATM   19  H1  UNL     1      -9.609  21.298  67.531  1.00  0.00     0.000 HD 
HETATM   20  C   UNL     1     -10.569  17.577  68.781  1.00  0.00    -0.241 A  
ENDBRANCH   9  12
ENDBRANCH   7   9
ENDBRANCH   4   7
TORSDOF 3
ENDMDL
MODEL      105
REMARK 921   NORMALIZED FREE ENERGY PREDICTED BY IDOCK:   -4.21 KCAL/MOL
REMARK 922        TOTAL FREE ENERGY PREDICTED BY IDOCK:   -5.41 KCAL/MOL
REMARK 923 INTER-LIGAND FREE ENERGY PREDICTED BY IDOCK:   -5.23 KCAL/MOL
REMARK 924 INTRA-LIGAND FREE ENERGY PREDICTED BY IDOCK:   -0.18 KCAL/MOL
REMARK 927      BINDING AFFINITY PREDICTED BY RF-SCORE:    0.00 PKD
ROOT
HETATM    1  C   UNL     1     -11.868   5.646  72.468  1.00  0.00    -0.194 C  
HETATM    2  C   UNL     1     -11.456   6.747  71.578  1.00  0.00    -0.287 A  
HETATM    3  C   UNL     1     -11.491   6.941  70.219  1.00  0.00    -0.373 A  
HETATM    4  C   UNL     1     -10.897   8.202  70.035  1.00  0.00    -0.233 A  
HETATM    5  O   UNL     1     -10.879   7.829  72.169  1.00  0.00    -0.228 OA 
HETATM    6  N   UNL     1     -10.483   8.730  71.189  1.00  0.00    -0.225 NA 
ENDROOT
BRANCH   4   7
HETATM    7  N   UNL     1     -10.610   8.788  68.811  1.00  0.00    -0.350 N  
HETATM    8  H   UNL     1     -10.214   8.238  68.049  1.00  0.00     0.000 HD 
BRANCH   7   9
HETATM    9  S   UNL     1     -10.933  10.437  68.611  1.00  0.00    -0.247 S  
HETATM   10  O   UNL     1     -12.347  10.610  68.878  1.00  0.00    -0.358 OA 
HETATM   11  O   UNL     1      -9.930  11.192  69.330  1.00  0.00    -0.083 OA 
BRANCH   9  12
HETATM   12  C   UNL     1     -10.714  10.725  66.865  1.00  0.00    -0.252 A  
HETATM   13  C   UNL     1     -10.056   9.766  66.084  1.00  0.00    -0.315 A  
HETATM   14  C   UNL     1      -9.921   9.967  64.708  1.00  0.00    -0.248 A  
HETATM   15  C   UNL     1     -10.411  11.126  64.099  1.00  0.00    -0.377 A  
HETATM   16  N   UNL     1     -10.376  11.257  62.708  1.00  0.00    -0.698 NA 
HETATM   17  C   UNL     1     -11.143  12.030  64.876  1.00  0.00    -0.368 A  
HETATM   18  H2  UNL     1     -10.850  10.453  62.297  1.00  0.00     0.000 HD 
HETATM   19  H1  UNL     1     -10.735  12.102  62.263  1.00  0.00     0.000 HD 
HETATM   20  C   UNL     1     -11.278  11.848  66.260  1.00  0.00    -0.392 A  
ENDBRANCH   9  12
ENDBRANCH   7   9
ENDBRANCH   4   7
TORSDOF 3
ENDMDL
MODEL      106
REMARK 921   NORMALIZED FREE ENERGY PREDICTED BY IDOCK:   -4.19 KCAL/MOL
REMARK 922        TOTAL FREE ENERGY PREDICTED BY IDOCK:   -5.39 KCAL/MOL
REMARK 923 INTER-LIGAND FREE ENERGY PREDICTED BY IDOCK:   -5.13 KCAL/MOL
REMARK 924 INTRA-LIGAND FREE ENERGY PREDICTED BY IDOCK:   -0.25 KCAL/MOL
REMARK 927      BINDING AFFINITY PREDICTED BY RF-SCORE:    0.00 PKD
ROOT
HETATM    1  C   UNL     1      -9.946   5.442  69.208  1.00  0.00    -0.277 C  
HETATM    2  C   UNL     1      -9.537   6.857  69.267  1.00  0.00    -0.149 A  
HETATM    3  C   UNL     1     -10.095   7.991  69.803  1.00  0.00    -0.196 A  
HETATM    4  C   UNL     1      -9.192   9.014  69.462  1.00  0.00    -0.152 A  
HETATM    5  O   UNL     1      -8.370   7.183  68.648  1.00  0.00    -0.124 OA 
HETATM    6  N   UNL     1      -8.174   8.556  68.730  1.00  0.00    -0.120 NA 
ENDROOT
BRANCH   4   7
HETATM    7  N   UNL     1      -9.381  10.368  69.696  1.00  0.00    -0.399 N  
HETATM    8  H   UNL     1      -8.891  10.840  70.455  1.00  0.00     0.000 HD 
BRANCH   7   9
HETATM    9  S   UNL     1     -10.447  11.219  68.693  1.00  0.00    -0.210 S  
HETATM   10  O   UNL     1      -9.677  12.298  68.105  1.00  0.00    -0.202 OA 
HETATM   11  O   UNL     1     -11.164  10.268  67.873  1.00  0.00    -0.301 OA 
BRANCH   9  12
HETATM   12  C   UNL     1     -11.601  11.983  69.817  1.00  0.00    -0.276 A  
HETATM   13  C   UNL     1     -12.195  11.213  70.825  1.00  0.00    -0.484 A  
HETATM   14  C   UNL     1     -13.067  11.818  71.734  1.00  0.00    -0.480 A  
HETATM   15  C   UNL     1     -13.378  13.177  71.638  1.00  0.00    -0.308 A  
HETATM   16  N   UNL     1     -14.155  13.792  72.625  1.00  0.00    -0.711 NA 
HETATM   17  C   UNL     1     -12.709  13.949  70.682  1.00  0.00    -0.351 A  
HETATM   18  H2  UNL     1     -13.716  13.626  73.530  1.00  0.00     0.000 HD 
HETATM   19  H1  UNL     1     -14.381  14.784  72.555  1.00  0.00     0.000 HD 
HETATM   20  C   UNL     1     -11.840  13.356  69.756  1.00  0.00    -0.393 A  
ENDBRANCH   9  12
ENDBRANCH   7   9
ENDBRANCH   4   7
TORSDOF 3
ENDMDL
MODEL      107
REMARK 921   NORMALIZED FREE ENERGY PREDICTED BY IDOCK:   -4.19 KCAL/MOL
REMARK 922        TOTAL FREE ENERGY PREDICTED BY IDOCK:   -5.39 KCAL/MOL
REMARK 923 INTER-LIGAND FREE ENERGY PREDICTED BY IDOCK:   -5.08 KCAL/MOL
REMARK 924 INTRA-LIGAND FREE ENERGY PREDICTED BY IDOCK:   -0.30 KCAL/MOL
REMARK 927      BINDING AFFINITY PREDICTED BY RF-SCORE:    0.00 PKD
ROOT
HETATM    1  C   UNL     1      -7.173  20.763  67.325  1.00  0.00    -0.415 C  
HETATM    2  C   UNL     1      -7.848  19.478  67.582  1.00  0.00    -0.279 A  
HETATM    3  C   UNL     1      -7.709  18.208  67.079  1.00  0.00    -0.237 A  
HETATM    4  C   UNL     1      -8.705  17.465  67.737  1.00  0.00    -0.232 A  
HETATM    5  O   UNL     1      -8.863  19.490  68.489  1.00  0.00    -0.350 OA 
HETATM    6  N   UNL     1      -9.436  18.227  68.554  1.00  0.00    -0.321 NA 
ENDROOT
BRANCH   4   7
HETATM    7  N   UNL     1      -9.027  16.141  67.479  1.00  0.00    -0.190 N  
HETATM    8  H   UNL     1      -8.431  15.383  67.813  1.00  0.00     0.000 HD 
BRANCH   7   9
HETATM    9  S   UNL     1     -10.432  15.810  66.595  1.00  0.00    -0.302 S  
HETATM   10  O   UNL     1     -11.520  15.796  67.553  1.00  0.00    -0.216 OA 
HETATM   11  O   UNL     1     -10.458  16.671  65.433  1.00  0.00    -0.571 OA 
BRANCH   9  12
HETATM   12  C   UNL     1     -10.227  14.125  66.048  1.00  0.00    -0.308 A  
HETATM   13  C   UNL     1      -9.253  13.318  66.649  1.00  0.00    -0.222 A  
HETATM   14  C   UNL     1      -9.118  11.985  66.252  1.00  0.00    -0.165 A  
HETATM   15  C   UNL     1      -9.925  11.449  65.245  1.00  0.00    -0.258 A  
HETATM   16  N   UNL     1      -9.861  10.084  64.945  1.00  0.00    -0.346 NA 
HETATM   17  C   UNL     1     -10.950  12.241  64.718  1.00  0.00    -0.346 A  
HETATM   18  H2  UNL     1     -10.025   9.558  65.803  1.00  0.00     0.000 HD 
HETATM   19  H1  UNL     1     -10.450   9.693  64.210  1.00  0.00     0.000 HD 
HETATM   20  C   UNL     1     -11.092  13.583  65.097  1.00  0.00    -0.326 A  
ENDBRANCH   9  12
ENDBRANCH   7   9
ENDBRANCH   4   7
TORSDOF 3
ENDMDL
MODEL      108
REMARK 921   NORMALIZED FREE ENERGY PREDICTED BY IDOCK:   -4.17 KCAL/MOL
REMARK 922        TOTAL FREE ENERGY PREDICTED BY IDOCK:   -5.37 KCAL/MOL
REMARK 923 INTER-LIGAND FREE ENERGY PREDICTED BY IDOCK:   -5.13 KCAL/MOL
REMARK 924 INTRA-LIGAND FREE ENERGY PREDICTED BY IDOCK:   -0.24 KCAL/MOL
REMARK 927      BINDING AFFINITY PREDICTED BY RF-SCORE:    0.00 PKD
ROOT
HETATM    1  C   UNL     1     -11.194   5.052  73.008  1.00  0.00    -0.383 C  
HETATM    2  C   UNL     1     -11.512   6.329  72.343  1.00  0.00    -0.293 A  
HETATM    3  C   UNL     1     -11.778   6.690  71.045  1.00  0.00    -0.415 A  
HETATM    4  C   UNL     1     -11.958   8.084  71.105  1.00  0.00    -0.277 A  
HETATM    5  O   UNL     1     -11.537   7.439  73.130  1.00  0.00    -0.177 OA 
HETATM    6  N   UNL     1     -11.773   8.556  72.339  1.00  0.00    -0.377 NA 
ENDROOT
BRANCH   4   7
HETATM    7  N   UNL     1     -12.144   8.920  70.014  1.00  0.00    -0.145 N  
HETATM    8  H   UNL     1     -13.080   9.219  69.739  1.00  0.00     0.000 HD 
BRANCH   7   9
HETATM    9  S   UNL     1     -10.783   9.433  69.150  1.00  0.00    -0.159 S  
HETATM   10  O   UNL     1      -9.701   9.522  70.111  1.00  0.00    -0.214 OA 
HETATM   11  O   UNL     1     -10.666   8.627  67.954  1.00  0.00    -0.194 OA 
BRANCH   9  12
HETATM   12  C   UNL     1     -11.165  11.107  68.670  1.00  0.00    -0.255 A  
HETATM   13  C   UNL     1     -11.210  11.442  67.311  1.00  0.00    -0.370 A  
HETATM   14  C   UNL     1     -11.551  12.742  66.929  1.00  0.00    -0.428 A  
HETATM   15  C   UNL     1     -11.824  13.724  67.886  1.00  0.00    -0.378 A  
HETATM   16  N   UNL     1     -12.281  14.985  67.488  1.00  0.00    -0.360 NA 
HETATM   17  C   UNL     1     -11.861  13.352  69.233  1.00  0.00    -0.385 A  
HETATM   18  H2  UNL     1     -13.112  14.858  66.911  1.00  0.00     0.000 HD 
HETATM   19  H1  UNL     1     -12.481  15.701  68.186  1.00  0.00     0.000 HD 
HETATM   20  C   UNL     1     -11.511  12.055  69.634  1.00  0.00    -0.322 A  
ENDBRANCH   9  12
ENDBRANCH   7   9
ENDBRANCH   4   7
TORSDOF 3
ENDMDL
MODEL      109
REMARK 921   NORMALIZED FREE ENERGY PREDICTED BY IDOCK:   -4.17 KCAL/MOL
REMARK 922        TOTAL FREE ENERGY PREDICTED BY IDOCK:   -5.36 KCAL/MOL
REMARK 923 INTER-LIGAND FREE ENERGY PREDICTED BY IDOCK:   -4.98 KCAL/MOL
REMARK 924 INTRA-LIGAND FREE ENERGY PREDICTED BY IDOCK:   -0.38 KCAL/MOL
REMARK 927      BINDING AFFINITY PREDICTED BY RF-SCORE:    0.00 PKD
ROOT
HETATM    1  C   UNL     1     -11.758  15.833  64.142  1.00  0.00    -0.070 C  
HETATM    2  C   UNL     1     -11.603  14.568  64.883  1.00  0.00    -0.401 A  
HETATM    3  C   UNL     1     -12.357  13.915  65.826  1.00  0.00    -0.518 A  
HETATM    4  C   UNL     1     -11.601  12.771  66.141  1.00  0.00    -0.379 A  
HETATM    5  O   UNL     1     -10.468  13.854  64.646  1.00  0.00    -0.425 OA 
HETATM    6  N   UNL     1     -10.444  12.741  65.476  1.00  0.00    -0.282 NA 
ENDROOT
BRANCH   4   7
HETATM    7  N   UNL     1     -11.907  11.850  67.132  1.00  0.00    -0.229 N  
HETATM    8  H   UNL     1     -12.597  11.117  66.969  1.00  0.00     0.000 HD 
BRANCH   7   9
HETATM    9  S   UNL     1     -11.108  11.970  68.619  1.00  0.00    -0.270 S  
HETATM   10  O   UNL     1     -12.053  11.527  69.625  1.00  0.00    -0.309 OA 
HETATM   11  O   UNL     1      -9.801  11.363  68.490  1.00  0.00    -0.189 OA 
BRANCH   9  12
HETATM   12  C   UNL     1     -10.896  13.723  68.870  1.00  0.00    -0.242 A  
HETATM   13  C   UNL     1     -11.938  14.470  69.433  1.00  0.00    -0.362 A  
HETATM   14  C   UNL     1     -11.761  15.835  69.671  1.00  0.00    -0.363 A  
HETATM   15  C   UNL     1     -10.565  16.476  69.332  1.00  0.00    -0.329 A  
HETATM   16  N   UNL     1     -10.359  17.812  69.687  1.00  0.00    -0.167 NA 
HETATM   17  C   UNL     1      -9.505  15.699  68.854  1.00  0.00    -0.228 A  
HETATM   18  H2  UNL     1     -10.499  17.904  70.693  1.00  0.00     0.000 HD 
HETATM   19  H1  UNL     1      -9.486  18.279  69.440  1.00  0.00     0.000 HD 
HETATM   20  C   UNL     1      -9.669  14.331  68.600  1.00  0.00    -0.213 A  
ENDBRANCH   9  12
ENDBRANCH   7   9
ENDBRANCH   4   7
TORSDOF 3
ENDMDL
MODEL      110
REMARK 921   NORMALIZED FREE ENERGY PREDICTED BY IDOCK:   -4.16 KCAL/MOL
REMARK 922        TOTAL FREE ENERGY PREDICTED BY IDOCK:   -5.36 KCAL/MOL
REMARK 923 INTER-LIGAND FREE ENERGY PREDICTED BY IDOCK:   -5.09 KCAL/MOL
REMARK 924 INTRA-LIGAND FREE ENERGY PREDICTED BY IDOCK:   -0.27 KCAL/MOL
REMARK 927      BINDING AFFINITY PREDICTED BY RF-SCORE:    0.00 PKD
ROOT
HETATM    1  C   UNL     1     -13.506  11.616  72.048  1.00  0.00    -0.304 C  
HETATM    2  C   UNL     1     -12.554  11.857  70.948  1.00  0.00    -0.266 A  
HETATM    3  C   UNL     1     -11.666  11.066  70.262  1.00  0.00    -0.445 A  
HETATM    4  C   UNL     1     -11.042  11.949  69.362  1.00  0.00    -0.153 A  
HETATM    5  O   UNL     1     -12.468  13.133  70.483  1.00  0.00    -0.313 OA 
HETATM    6  N   UNL     1     -11.478  13.201  69.511  1.00  0.00    -0.253 NA 
ENDROOT
BRANCH   4   7
HETATM    7  N   UNL     1      -9.986  11.630  68.522  1.00  0.00    -0.197 N  
HETATM    8  H   UNL     1      -9.098  11.299  68.900  1.00  0.00     0.000 HD 
BRANCH   7   9
HETATM    9  S   UNL     1     -10.203  11.803  66.852  1.00  0.00    -0.213 S  
HETATM   10  O   UNL     1      -9.044  11.197  66.227  1.00  0.00    -0.181 OA 
HETATM   11  O   UNL     1     -11.547  11.386  66.518  1.00  0.00    -0.408 OA 
BRANCH   9  12
HETATM   12  C   UNL     1     -10.066  13.558  66.565  1.00  0.00    -0.282 A  
HETATM   13  C   UNL     1      -8.967  14.257  67.081  1.00  0.00    -0.237 A  
HETATM   14  C   UNL     1      -8.833  15.624  66.822  1.00  0.00    -0.304 A  
HETATM   15  C   UNL     1      -9.794  16.312  66.075  1.00  0.00    -0.343 A  
HETATM   16  N   UNL     1      -9.585  17.649  65.723  1.00  0.00    -0.515 NA 
HETATM   17  C   UNL     1     -10.836  15.582  65.494  1.00  0.00    -0.372 A  
HETATM   18  H2  UNL     1      -8.691  17.718  65.237  1.00  0.00     0.000 HD 
HETATM   19  H1  UNL     1     -10.286  18.151  65.178  1.00  0.00     0.000 HD 
HETATM   20  C   UNL     1     -10.991  14.213  65.753  1.00  0.00    -0.301 A  
ENDBRANCH   9  12
ENDBRANCH   7   9
ENDBRANCH   4   7
TORSDOF 3
ENDMDL
MODEL      111
REMARK 921   NORMALIZED FREE ENERGY PREDICTED BY IDOCK:   -4.16 KCAL/MOL
REMARK 922        TOTAL FREE ENERGY PREDICTED BY IDOCK:   -5.36 KCAL/MOL
REMARK 923 INTER-LIGAND FREE ENERGY PREDICTED BY IDOCK:   -5.02 KCAL/MOL
REMARK 924 INTRA-LIGAND FREE ENERGY PREDICTED BY IDOCK:   -0.34 KCAL/MOL
REMARK 927      BINDING AFFINITY PREDICTED BY RF-SCORE:    0.00 PKD
ROOT
HETATM    1  C   UNL     1      -5.977  17.405  69.528  1.00  0.00    -0.246 C  
HETATM    2  C   UNL     1      -6.993  16.656  68.767  1.00  0.00    -0.185 A  
HETATM    3  C   UNL     1      -7.921  15.700  69.097  1.00  0.00    -0.227 A  
HETATM    4  C   UNL     1      -8.541  15.384  67.874  1.00  0.00    -0.155 A  
HETATM    5  O   UNL     1      -7.058  16.900  67.429  1.00  0.00    -0.141 OA 
HETATM    6  N   UNL     1      -8.006  16.062  66.856  1.00  0.00    -0.223 NA 
ENDROOT
BRANCH   4   7
HETATM    7  N   UNL     1      -9.482  14.384  67.681  1.00  0.00    -0.210 N  
HETATM    8  H   UNL     1      -9.194  13.414  67.549  1.00  0.00     0.000 HD 
BRANCH   7   9
HETATM    9  S   UNL     1     -11.120  14.809  67.670  1.00  0.00    -0.317 S  
HETATM   10  O   UNL     1     -11.176  16.220  68.000  1.00  0.00    -0.334 OA 
HETATM   11  O   UNL     1     -11.722  14.291  66.461  1.00  0.00    -0.363 OA 
BRANCH   9  12
HETATM   12  C   UNL     1     -11.815  13.942  69.065  1.00  0.00    -0.358 A  
HETATM   13  C   UNL     1     -11.701  12.548  69.136  1.00  0.00    -0.375 A  
HETATM   14  C   UNL     1     -12.206  11.868  70.248  1.00  0.00    -0.353 A  
HETATM   15  C   UNL     1     -12.848  12.557  71.282  1.00  0.00    -0.241 A  
HETATM   16  N   UNL     1     -13.238  11.879  72.441  1.00  0.00    -0.466 NA 
HETATM   17  C   UNL     1     -12.874  13.954  71.237  1.00  0.00    -0.435 A  
HETATM   18  H2  UNL     1     -12.422  11.406  72.828  1.00  0.00     0.000 HD 
HETATM   19  H1  UNL     1     -13.706  12.381  73.195  1.00  0.00     0.000 HD 
HETATM   20  C   UNL     1     -12.382  14.650  70.124  1.00  0.00    -0.390 A  
ENDBRANCH   9  12
ENDBRANCH   7   9
ENDBRANCH   4   7
TORSDOF 3
ENDMDL
MODEL      112
REMARK 921   NORMALIZED FREE ENERGY PREDICTED BY IDOCK:   -4.15 KCAL/MOL
REMARK 922        TOTAL FREE ENERGY PREDICTED BY IDOCK:   -5.34 KCAL/MOL
REMARK 923 INTER-LIGAND FREE ENERGY PREDICTED BY IDOCK:   -4.89 KCAL/MOL
REMARK 924 INTRA-LIGAND FREE ENERGY PREDICTED BY IDOCK:   -0.45 KCAL/MOL
REMARK 927      BINDING AFFINITY PREDICTED BY RF-SCORE:    0.00 PKD
ROOT
HETATM    1  C   UNL     1     -12.138  13.703  64.104  1.00  0.00    -0.484 C  
HETATM    2  C   UNL     1     -11.130  13.709  65.180  1.00  0.00    -0.318 A  
HETATM    3  C   UNL     1     -10.139  14.581  65.557  1.00  0.00    -0.394 A  
HETATM    4  C   UNL     1      -9.518  13.948  66.648  1.00  0.00    -0.285 A  
HETATM    5  O   UNL     1     -11.104  12.623  66.000  1.00  0.00    -0.271 OA 
HETATM    6  N   UNL     1     -10.054  12.752  66.900  1.00  0.00    -0.229 NA 
ENDROOT
BRANCH   4   7
HETATM    7  N   UNL     1      -8.383  14.401  67.305  1.00  0.00    -0.203 N  
HETATM    8  H   UNL     1      -7.463  14.026  67.076  1.00  0.00     0.000 HD 
BRANCH   7   9
HETATM    9  S   UNL     1      -8.562  15.590  68.496  1.00  0.00    -0.187 S  
HETATM   10  O   UNL     1      -9.962  15.580  68.873  1.00  0.00    -0.199 OA 
HETATM   11  O   UNL     1      -7.513  15.419  69.477  1.00  0.00    -0.204 OA 
BRANCH   9  12
HETATM   12  C   UNL     1      -8.287  17.127  67.635  1.00  0.00    -0.192 A  
HETATM   13  C   UNL     1      -9.083  18.239  67.936  1.00  0.00    -0.288 A  
HETATM   14  C   UNL     1      -8.843  19.457  67.295  1.00  0.00    -0.342 A  
HETATM   15  C   UNL     1      -7.833  19.578  66.336  1.00  0.00    -0.306 A  
HETATM   16  N   UNL     1      -7.526  20.830  65.793  1.00  0.00    -0.445 NA 
HETATM   17  C   UNL     1      -6.991  18.485  66.111  1.00  0.00    -0.295 A  
HETATM   18  H2  UNL     1      -7.320  21.471  66.559  1.00  0.00     0.000 HD 
HETATM   19  H1  UNL     1      -6.789  20.918  65.093  1.00  0.00     0.000 HD 
HETATM   20  C   UNL     1      -7.225  17.252  66.738  1.00  0.00    -0.249 A  
ENDBRANCH   9  12
ENDBRANCH   7   9
ENDBRANCH   4   7
TORSDOF 3
ENDMDL
MODEL      113
REMARK 921   NORMALIZED FREE ENERGY PREDICTED BY IDOCK:   -4.13 KCAL/MOL
REMARK 922        TOTAL FREE ENERGY PREDICTED BY IDOCK:   -5.32 KCAL/MOL
REMARK 923 INTER-LIGAND FREE ENERGY PREDICTED BY IDOCK:   -5.06 KCAL/MOL
REMARK 924 INTRA-LIGAND FREE ENERGY PREDICTED BY IDOCK:   -0.27 KCAL/MOL
REMARK 927      BINDING AFFINITY PREDICTED BY RF-SCORE:    0.00 PKD
ROOT
HETATM    1  C   UNL     1      -9.041  17.578  68.342  1.00  0.00    -0.276 C  
HETATM    2  C   UNL     1      -9.828  16.348  68.546  1.00  0.00    -0.231 A  
HETATM    3  C   UNL     1      -9.764  15.310  69.442  1.00  0.00    -0.248 A  
HETATM    4  C   UNL     1     -10.796  14.443  69.041  1.00  0.00    -0.252 A  
HETATM    5  O   UNL     1     -10.841  16.117  67.667  1.00  0.00    -0.318 OA 
HETATM    6  N   UNL     1     -11.424  14.889  67.951  1.00  0.00    -0.330 NA 
ENDROOT
BRANCH   4   7
HETATM    7  N   UNL     1     -11.057  13.194  69.584  1.00  0.00    -0.467 N  
HETATM    8  H   UNL     1     -11.335  13.097  70.561  1.00  0.00     0.000 HD 
BRANCH   7   9
HETATM    9  S   UNL     1     -10.903  11.834  68.589  1.00  0.00    -0.231 S  
HETATM   10  O   UNL     1     -12.236  11.532  68.105  1.00  0.00    -0.576 OA 
HETATM   11  O   UNL     1      -9.801  12.053  67.678  1.00  0.00    -0.184 OA 
BRANCH   9  12
HETATM   12  C   UNL     1     -10.464  10.514  69.704  1.00  0.00    -0.219 A  
HETATM   13  C   UNL     1      -9.208   9.905  69.591  1.00  0.00    -0.246 A  
HETATM   14  C   UNL     1      -8.844   8.899  70.490  1.00  0.00    -0.221 A  
HETATM   15  C   UNL     1      -9.725   8.472  71.488  1.00  0.00    -0.234 A  
HETATM   16  N   UNL     1      -9.301   7.552  72.452  1.00  0.00    -0.143 NA 
HETATM   17  C   UNL     1     -10.938   9.150  71.642  1.00  0.00    -0.445 A  
HETATM   18  H2  UNL     1      -8.461   7.920  72.900  1.00  0.00     0.000 HD 
HETATM   19  H1  UNL     1      -9.944   7.241  73.181  1.00  0.00     0.000 HD 
HETATM   20  C   UNL     1     -11.323  10.154  70.742  1.00  0.00    -0.436 A  
ENDBRANCH   9  12
ENDBRANCH   7   9
ENDBRANCH   4   7
TORSDOF 3
ENDMDL
MODEL      114
REMARK 921   NORMALIZED FREE ENERGY PREDICTED BY IDOCK:   -4.13 KCAL/MOL
REMARK 922        TOTAL FREE ENERGY PREDICTED BY IDOCK:   -5.31 KCAL/MOL
REMARK 923 INTER-LIGAND FREE ENERGY PREDICTED BY IDOCK:   -5.04 KCAL/MOL
REMARK 924 INTRA-LIGAND FREE ENERGY PREDICTED BY IDOCK:   -0.27 KCAL/MOL
REMARK 927      BINDING AFFINITY PREDICTED BY RF-SCORE:    0.00 PKD
ROOT
HETATM    1  C   UNL     1     -12.656  11.760  63.536  1.00  0.00    -0.485 C  
HETATM    2  C   UNL     1     -11.715  12.347  64.508  1.00  0.00    -0.362 A  
HETATM    3  C   UNL     1     -11.438  12.109  65.832  1.00  0.00    -0.418 A  
HETATM    4  C   UNL     1     -10.453  13.061  66.154  1.00  0.00    -0.279 A  
HETATM    5  O   UNL     1     -10.940  13.374  64.067  1.00  0.00    -0.358 OA 
HETATM    6  N   UNL     1     -10.174  13.857  65.120  1.00  0.00    -0.367 NA 
ENDROOT
BRANCH   4   7
HETATM    7  N   UNL     1      -9.930  13.283  67.419  1.00  0.00    -0.230 N  
HETATM    8  H   UNL     1      -8.923  13.259  67.580  1.00  0.00     0.000 HD 
BRANCH   7   9
HETATM    9  S   UNL     1     -11.002  13.595  68.691  1.00  0.00    -0.274 S  
HETATM   10  O   UNL     1     -10.261  14.372  69.666  1.00  0.00     0.003 OA 
HETATM   11  O   UNL     1     -12.250  14.071  68.136  1.00  0.00    -0.325 OA 
BRANCH   9  12
HETATM   12  C   UNL     1     -11.286  11.999  69.435  1.00  0.00    -0.196 A  
HETATM   13  C   UNL     1     -12.476  11.766  70.135  1.00  0.00    -0.182 A  
HETATM   14  C   UNL     1     -12.722  10.504  70.683  1.00  0.00    -0.441 A  
HETATM   15  C   UNL     1     -11.783   9.474  70.565  1.00  0.00    -0.222 A  
HETATM   16  N   UNL     1     -12.095   8.186  71.012  1.00  0.00    -0.427 NA 
HETATM   17  C   UNL     1     -10.642   9.696  69.789  1.00  0.00    -0.267 A  
HETATM   18  H2  UNL     1     -12.958   7.888  70.557  1.00  0.00     0.000 HD 
HETATM   19  H1  UNL     1     -11.410   7.435  70.925  1.00  0.00     0.000 HD 
HETATM   20  C   UNL     1     -10.375  10.960  69.242  1.00  0.00    -0.211 A  
ENDBRANCH   9  12
ENDBRANCH   7   9
ENDBRANCH   4   7
TORSDOF 3
ENDMDL
MODEL      115
REMARK 921   NORMALIZED FREE ENERGY PREDICTED BY IDOCK:   -4.12 KCAL/MOL
REMARK 922        TOTAL FREE ENERGY PREDICTED BY IDOCK:   -5.31 KCAL/MOL
REMARK 923 INTER-LIGAND FREE ENERGY PREDICTED BY IDOCK:   -4.97 KCAL/MOL
REMARK 924 INTRA-LIGAND FREE ENERGY PREDICTED BY IDOCK:   -0.34 KCAL/MOL
REMARK 927      BINDING AFFINITY PREDICTED BY RF-SCORE:    0.00 PKD
ROOT
HETATM    1  C   UNL     1      -8.623  10.257  63.911  1.00  0.00    -0.191 C  
HETATM    2  C   UNL     1      -8.690   9.676  65.264  1.00  0.00    -0.160 A  
HETATM    3  C   UNL     1      -9.548   9.824  66.325  1.00  0.00    -0.271 A  
HETATM    4  C   UNL     1      -9.000   9.004  67.329  1.00  0.00    -0.127 A  
HETATM    5  O   UNL     1      -7.693   8.818  65.612  1.00  0.00    -0.088 OA 
HETATM    6  N   UNL     1      -7.863   8.428  66.934  1.00  0.00    -0.095 NA 
ENDROOT
BRANCH   4   7
HETATM    7  N   UNL     1      -9.463   8.907  68.633  1.00  0.00    -0.150 N  
HETATM    8  H   UNL     1      -9.427   9.709  69.261  1.00  0.00     0.000 HD 
BRANCH   7   9
HETATM    9  S   UNL     1     -10.089   7.424  69.157  1.00  0.00    -0.194 S  
HETATM   10  O   UNL     1     -10.798   6.859  68.025  1.00  0.00    -0.222 OA 
HETATM   11  O   UNL     1      -9.039   6.694  69.832  1.00  0.00    -0.143 OA 
BRANCH   9  12
HETATM   12  C   UNL     1     -11.334   7.866  70.356  1.00  0.00    -0.194 A  
HETATM   13  C   UNL     1     -11.437   9.194  70.786  1.00  0.00    -0.337 A  
HETATM   14  C   UNL     1     -12.438   9.553  71.692  1.00  0.00    -0.476 A  
HETATM   15  C   UNL     1     -13.325   8.599  72.199  1.00  0.00    -0.396 A  
HETATM   16  N   UNL     1     -14.394   8.994  73.009  1.00  0.00    -1.139 NA 
HETATM   17  C   UNL     1     -13.265   7.296  71.693  1.00  0.00    -0.421 A  
HETATM   18  H2  UNL     1     -14.933   9.700  72.509  1.00  0.00     0.000 HD 
HETATM   19  H1  UNL     1     -15.042   8.297  73.378  1.00  0.00     0.000 HD 
HETATM   20  C   UNL     1     -12.260   6.918  70.791  1.00  0.00    -0.364 A  
ENDBRANCH   9  12
ENDBRANCH   7   9
ENDBRANCH   4   7
TORSDOF 3
ENDMDL
MODEL      116
REMARK 921   NORMALIZED FREE ENERGY PREDICTED BY IDOCK:   -4.12 KCAL/MOL
REMARK 922        TOTAL FREE ENERGY PREDICTED BY IDOCK:   -5.30 KCAL/MOL
REMARK 923 INTER-LIGAND FREE ENERGY PREDICTED BY IDOCK:   -5.03 KCAL/MOL
REMARK 924 INTRA-LIGAND FREE ENERGY PREDICTED BY IDOCK:   -0.28 KCAL/MOL
REMARK 927      BINDING AFFINITY PREDICTED BY RF-SCORE:    0.00 PKD
ROOT
HETATM    1  C   UNL     1     -11.229  16.089  64.611  1.00  0.00    -0.340 C  
HETATM    2  C   UNL     1     -11.409  14.740  65.179  1.00  0.00    -0.379 A  
HETATM    3  C   UNL     1     -10.548  13.749  65.577  1.00  0.00    -0.312 A  
HETATM    4  C   UNL     1     -11.392  12.701  65.986  1.00  0.00    -0.327 A  
HETATM    5  O   UNL     1     -12.690  14.312  65.344  1.00  0.00    -0.507 OA 
HETATM    6  N   UNL     1     -12.680  13.004  65.811  1.00  0.00    -0.434 NA 
ENDROOT
BRANCH   4   7
HETATM    7  N   UNL     1     -10.978  11.436  66.375  1.00  0.00    -0.282 N  
HETATM    8  H   UNL     1     -10.731  10.730  65.681  1.00  0.00     0.000 HD 
BRANCH   7   9
HETATM    9  S   UNL     1     -10.892  11.089  68.029  1.00  0.00    -0.251 S  
HETATM   10  O   UNL     1      -9.830  11.919  68.564  1.00  0.00    -0.208 OA 
HETATM   11  O   UNL     1     -12.230  11.126  68.578  1.00  0.00    -0.600 OA 
BRANCH   9  12
HETATM   12  C   UNL     1     -10.297   9.409  68.101  1.00  0.00    -0.211 A  
HETATM   13  C   UNL     1     -10.511   8.554  67.013  1.00  0.00    -0.362 A  
HETATM   14  C   UNL     1     -10.009   7.251  67.047  1.00  0.00    -0.293 A  
HETATM   15  C   UNL     1      -9.316   6.776  68.165  1.00  0.00    -0.122 A  
HETATM   16  N   UNL     1      -8.717   5.513  68.135  1.00  0.00    -0.103 NA 
HETATM   17  C   UNL     1      -9.035   7.668  69.204  1.00  0.00    -0.135 A  
HETATM   18  H2  UNL     1      -8.094   5.471  67.329  1.00  0.00     0.000 HD 
HETATM   19  H1  UNL     1      -8.211   5.167  68.951  1.00  0.00     0.000 HD 
HETATM   20  C   UNL     1      -9.540   8.976  69.190  1.00  0.00    -0.161 A  
ENDBRANCH   9  12
ENDBRANCH   7   9
ENDBRANCH   4   7
TORSDOF 3
ENDMDL
MODEL      117
REMARK 921   NORMALIZED FREE ENERGY PREDICTED BY IDOCK:   -4.11 KCAL/MOL
REMARK 922        TOTAL FREE ENERGY PREDICTED BY IDOCK:   -5.29 KCAL/MOL
REMARK 923 INTER-LIGAND FREE ENERGY PREDICTED BY IDOCK:   -5.61 KCAL/MOL
REMARK 924 INTRA-LIGAND FREE ENERGY PREDICTED BY IDOCK:    0.32 KCAL/MOL
REMARK 927      BINDING AFFINITY PREDICTED BY RF-SCORE:    0.00 PKD
ROOT
HETATM    1  C   UNL     1     -12.830   9.357  72.271  1.00  0.00    -0.452 C  
HETATM    2  C   UNL     1     -12.555  10.446  71.317  1.00  0.00    -0.419 A  
HETATM    3  C   UNL     1     -11.956  10.506  70.083  1.00  0.00    -0.398 A  
HETATM    4  C   UNL     1     -11.989  11.872  69.749  1.00  0.00    -0.307 A  
HETATM    5  O   UNL     1     -12.927  11.699  71.694  1.00  0.00    -0.432 OA 
HETATM    6  N   UNL     1     -12.528  12.609  70.723  1.00  0.00    -0.324 NA 
ENDROOT
BRANCH   4   7
HETATM    7  N   UNL     1     -11.401  12.444  68.631  1.00  0.00    -0.264 N  
HETATM    8  H   UNL     1     -11.913  13.112  68.055  1.00  0.00     0.000 HD 
BRANCH   7   9
HETATM    9  S   UNL     1      -9.812  12.008  68.244  1.00  0.00    -0.200 S  
HETATM   10  O   UNL     1      -9.012  13.207  68.400  1.00  0.00    -0.187 OA 
HETATM   11  O   UNL     1      -9.487  10.785  68.946  1.00  0.00    -0.179 OA 
BRANCH   9  12
HETATM   12  C   UNL     1      -9.859  11.662  66.495  1.00  0.00    -0.204 A  
HETATM   13  C   UNL     1      -8.951  10.747  65.949  1.00  0.00    -0.200 A  
HETATM   14  C   UNL     1      -9.012  10.441  64.586  1.00  0.00    -0.235 A  
HETATM   15  C   UNL     1      -9.951  11.055  63.753  1.00  0.00    -0.350 A  
HETATM   16  N   UNL     1     -10.079  10.649  62.421  1.00  0.00    -0.744 NA 
HETATM   17  C   UNL     1     -10.907  11.897  64.330  1.00  0.00    -0.396 A  
HETATM   18  H2  UNL     1     -10.245   9.643  62.405  1.00  0.00     0.000 HD 
HETATM   19  H1  UNL     1     -10.765  11.097  61.813  1.00  0.00     0.000 HD 
HETATM   20  C   UNL     1     -10.853  12.224  65.692  1.00  0.00    -0.321 A  
ENDBRANCH   9  12
ENDBRANCH   7   9
ENDBRANCH   4   7
TORSDOF 3
ENDMDL
MODEL      118
REMARK 921   NORMALIZED FREE ENERGY PREDICTED BY IDOCK:   -4.11 KCAL/MOL
REMARK 922        TOTAL FREE ENERGY PREDICTED BY IDOCK:   -5.29 KCAL/MOL
REMARK 923 INTER-LIGAND FREE ENERGY PREDICTED BY IDOCK:   -5.09 KCAL/MOL
REMARK 924 INTRA-LIGAND FREE ENERGY PREDICTED BY IDOCK:   -0.20 KCAL/MOL
REMARK 927      BINDING AFFINITY PREDICTED BY RF-SCORE:    0.00 PKD
ROOT
HETATM    1  C   UNL     1      -7.557   5.207  64.236  1.00  0.00    -0.069 C  
HETATM    2  C   UNL     1      -8.666   5.486  65.166  1.00  0.00    -0.117 A  
HETATM    3  C   UNL     1      -9.002   6.555  65.959  1.00  0.00    -0.139 A  
HETATM    4  C   UNL     1     -10.169   6.138  66.625  1.00  0.00    -0.178 A  
HETATM    5  O   UNL     1      -9.579   4.493  65.345  1.00  0.00    -0.163 OA 
HETATM    6  N   UNL     1     -10.505   4.887  66.303  1.00  0.00    -0.308 NA 
ENDROOT
BRANCH   4   7
HETATM    7  N   UNL     1     -10.826   6.846  67.621  1.00  0.00    -0.412 N  
HETATM    8  H   UNL     1     -11.805   7.109  67.515  1.00  0.00     0.000 HD 
BRANCH   7   9
HETATM    9  S   UNL     1      -9.964   7.262  69.016  1.00  0.00    -0.182 S  
HETATM   10  O   UNL     1      -9.466   6.019  69.573  1.00  0.00    -0.137 OA 
HETATM   11  O   UNL     1      -9.074   8.357  68.697  1.00  0.00    -0.140 OA 
BRANCH   9  12
HETATM   12  C   UNL     1     -11.208   7.854  70.148  1.00  0.00    -0.152 A  
HETATM   13  C   UNL     1     -12.064   6.939  70.772  1.00  0.00    -0.400 A  
HETATM   14  C   UNL     1     -13.012   7.394  71.692  1.00  0.00    -0.409 A  
HETATM   15  C   UNL     1     -13.138   8.756  71.982  1.00  0.00    -0.392 A  
HETATM   16  N   UNL     1     -14.006   9.183  72.992  1.00  0.00    -1.110 NA 
HETATM   17  C   UNL     1     -12.218   9.646  71.418  1.00  0.00    -0.471 A  
HETATM   18  H2  UNL     1     -13.764   8.692  73.853  1.00  0.00     0.000 HD 
HETATM   19  H1  UNL     1     -14.097  10.177  73.203  1.00  0.00     0.000 HD 
HETATM   20  C   UNL     1     -11.268   9.207  70.485  1.00  0.00    -0.309 A  
ENDBRANCH   9  12
ENDBRANCH   7   9
ENDBRANCH   4   7
TORSDOF 3
ENDMDL
MODEL      119
REMARK 921   NORMALIZED FREE ENERGY PREDICTED BY IDOCK:   -4.10 KCAL/MOL
REMARK 922        TOTAL FREE ENERGY PREDICTED BY IDOCK:   -5.28 KCAL/MOL
REMARK 923 INTER-LIGAND FREE ENERGY PREDICTED BY IDOCK:   -5.06 KCAL/MOL
REMARK 924 INTRA-LIGAND FREE ENERGY PREDICTED BY IDOCK:   -0.23 KCAL/MOL
REMARK 927      BINDING AFFINITY PREDICTED BY RF-SCORE:    0.00 PKD
ROOT
HETATM    1  C   UNL     1      -7.614   9.496  63.476  1.00  0.00    -0.118 C  
HETATM    2  C   UNL     1      -8.715   9.816  64.403  1.00  0.00    -0.206 A  
HETATM    3  C   UNL     1      -9.488  10.929  64.620  1.00  0.00    -0.285 A  
HETATM    4  C   UNL     1     -10.328  10.564  65.688  1.00  0.00    -0.204 A  
HETATM    5  O   UNL     1      -9.075   8.843  65.284  1.00  0.00    -0.203 OA 
HETATM    6  N   UNL     1     -10.065   9.332  66.128  1.00  0.00    -0.276 NA 
ENDROOT
BRANCH   4   7
HETATM    7  N   UNL     1     -11.220  11.405  66.337  1.00  0.00    -0.248 N  
HETATM    8  H   UNL     1     -12.225  11.244  66.279  1.00  0.00     0.000 HD 
BRANCH   7   9
HETATM    9  S   UNL     1     -10.600  12.705  67.226  1.00  0.00    -0.230 S  
HETATM   10  O   UNL     1      -9.197  12.415  67.445  1.00  0.00    -0.173 OA 
HETATM   11  O   UNL     1     -11.029  13.936  66.599  1.00  0.00    -0.297 OA 
BRANCH   9  12
HETATM   12  C   UNL     1     -11.393  12.573  68.818  1.00  0.00    -0.293 A  
HETATM   13  C   UNL     1     -11.813  13.734  69.478  1.00  0.00    -0.394 A  
HETATM   14  C   UNL     1     -12.473  13.633  70.705  1.00  0.00    -0.432 A  
HETATM   15  C   UNL     1     -12.699  12.388  71.300  1.00  0.00    -0.248 A  
HETATM   16  N   UNL     1     -13.466  12.296  72.465  1.00  0.00    -0.563 NA 
HETATM   17  C   UNL     1     -12.353  11.236  70.587  1.00  0.00    -0.477 A  
HETATM   18  H2  UNL     1     -14.368  12.738  72.293  1.00  0.00     0.000 HD 
HETATM   19  H1  UNL     1     -13.631  11.387  72.899  1.00  0.00     0.000 HD 
HETATM   20  C   UNL     1     -11.681  11.320  69.360  1.00  0.00    -0.409 A  
ENDBRANCH   9  12
ENDBRANCH   7   9
ENDBRANCH   4   7
TORSDOF 3
ENDMDL
MODEL      120
REMARK 921   NORMALIZED FREE ENERGY PREDICTED BY IDOCK:   -4.07 KCAL/MOL
REMARK 922        TOTAL FREE ENERGY PREDICTED BY IDOCK:   -5.25 KCAL/MOL
REMARK 923 INTER-LIGAND FREE ENERGY PREDICTED BY IDOCK:   -5.34 KCAL/MOL
REMARK 924 INTRA-LIGAND FREE ENERGY PREDICTED BY IDOCK:    0.09 KCAL/MOL
REMARK 927      BINDING AFFINITY PREDICTED BY RF-SCORE:    0.00 PKD
ROOT
HETATM    1  C   UNL     1     -10.785   9.585  67.147  1.00  0.00    -0.252 C  
HETATM    2  C   UNL     1     -11.091  11.020  67.289  1.00  0.00    -0.294 A  
HETATM    3  C   UNL     1     -10.545  12.169  66.773  1.00  0.00    -0.256 A  
HETATM    4  C   UNL     1     -11.301  13.203  67.355  1.00  0.00    -0.306 A  
HETATM    5  O   UNL     1     -12.114  11.348  68.124  1.00  0.00    -0.623 OA 
HETATM    6  N   UNL     1     -12.218  12.731  68.202  1.00  0.00    -0.128 NA 
ENDROOT
BRANCH   4   7
HETATM    7  N   UNL     1     -11.052  14.560  67.217  1.00  0.00    -0.302 N  
HETATM    8  H   UNL     1     -11.607  15.247  67.727  1.00  0.00     0.000 HD 
BRANCH   7   9
HETATM    9  S   UNL     1      -9.806  15.050  66.182  1.00  0.00    -0.320 S  
HETATM   10  O   UNL     1      -8.589  14.461  66.706  1.00  0.00    -0.201 OA 
HETATM   11  O   UNL     1     -10.227  14.827  64.816  1.00  0.00    -0.349 OA 
BRANCH   9  12
HETATM   12  C   UNL     1      -9.668  16.807  66.453  1.00  0.00    -0.290 A  
HETATM   13  C   UNL     1     -10.678  17.479  67.152  1.00  0.00    -0.191 A  
HETATM   14  C   UNL     1     -10.554  18.848  67.403  1.00  0.00    -0.534 A  
HETATM   15  C   UNL     1      -9.444  19.565  66.946  1.00  0.00    -0.344 A  
HETATM   16  N   UNL     1      -9.276  20.905  67.309  1.00  0.00    -0.582 NA 
HETATM   17  C   UNL     1      -8.404  18.864  66.329  1.00  0.00    -0.274 A  
HETATM   18  H2  UNL     1      -9.302  20.968  68.327  1.00  0.00     0.000 HD 
HETATM   19  H1  UNL     1      -8.466  21.428  66.975  1.00  0.00     0.000 HD 
HETATM   20  C   UNL     1      -8.518  17.493  66.059  1.00  0.00    -0.099 A  
ENDBRANCH   9  12
ENDBRANCH   7   9
ENDBRANCH   4   7
TORSDOF 3
ENDMDL
MODEL      121
REMARK 921   NORMALIZED FREE ENERGY PREDICTED BY IDOCK:   -4.04 KCAL/MOL
REMARK 922        TOTAL FREE ENERGY PREDICTED BY IDOCK:   -5.22 KCAL/MOL
REMARK 923 INTER-LIGAND FREE ENERGY PREDICTED BY IDOCK:   -4.89 KCAL/MOL
REMARK 924 INTRA-LIGAND FREE ENERGY PREDICTED BY IDOCK:   -0.33 KCAL/MOL
REMARK 927      BINDING AFFINITY PREDICTED BY RF-SCORE:    0.00 PKD
ROOT
HETATM    1  C   UNL     1     -10.748   9.221  67.154  1.00  0.00    -0.222 C  
HETATM    2  C   UNL     1     -10.802  10.619  67.618  1.00  0.00    -0.292 A  
HETATM    3  C   UNL     1      -9.972  11.704  67.482  1.00  0.00    -0.202 A  
HETATM    4  C   UNL     1     -10.612  12.722  68.211  1.00  0.00    -0.238 A  
HETATM    5  O   UNL     1     -11.875  10.970  68.378  1.00  0.00    -0.503 OA 
HETATM    6  N   UNL     1     -11.733  12.288  68.793  1.00  0.00    -0.324 NA 
ENDROOT
BRANCH   4   7
HETATM    7  N   UNL     1     -10.096  13.986  68.456  1.00  0.00    -0.235 N  
HETATM    8  H   UNL     1      -9.266  14.108  69.035  1.00  0.00     0.000 HD 
BRANCH   7   9
HETATM    9  S   UNL     1     -10.876  15.322  67.770  1.00  0.00    -0.303 S  
HETATM   10  O   UNL     1     -11.236  14.933  66.420  1.00  0.00    -0.339 OA 
HETATM   11  O   UNL     1     -11.867  15.807  68.706  1.00  0.00    -0.387 OA 
BRANCH   9  12
HETATM   12  C   UNL     1      -9.596  16.553  67.612  1.00  0.00    -0.235 A  
HETATM   13  C   UNL     1      -9.651  17.710  68.398  1.00  0.00    -0.310 A  
HETATM   14  C   UNL     1      -8.627  18.657  68.309  1.00  0.00    -0.347 A  
HETATM   15  C   UNL     1      -7.558  18.479  67.426  1.00  0.00    -0.219 A  
HETATM   16  N   UNL     1      -6.483  19.373  67.436  1.00  0.00    -0.196 NA 
HETATM   17  C   UNL     1      -7.472  17.278  66.715  1.00  0.00    -0.258 A  
HETATM   18  H2  UNL     1      -6.112  19.420  68.385  1.00  0.00     0.000 HD 
HETATM   19  H1  UNL     1      -5.702  19.243  66.792  1.00  0.00     0.000 HD 
HETATM   20  C   UNL     1      -8.496  16.323  66.784  1.00  0.00    -0.283 A  
ENDBRANCH   9  12
ENDBRANCH   7   9
ENDBRANCH   4   7
TORSDOF 3
ENDMDL
MODEL      122
REMARK 921   NORMALIZED FREE ENERGY PREDICTED BY IDOCK:   -4.03 KCAL/MOL
REMARK 922        TOTAL FREE ENERGY PREDICTED BY IDOCK:   -5.20 KCAL/MOL
REMARK 923 INTER-LIGAND FREE ENERGY PREDICTED BY IDOCK:   -5.05 KCAL/MOL
REMARK 924 INTRA-LIGAND FREE ENERGY PREDICTED BY IDOCK:   -0.15 KCAL/MOL
REMARK 927      BINDING AFFINITY PREDICTED BY RF-SCORE:    0.00 PKD
ROOT
HETATM    1  C   UNL     1      -9.057  19.723  68.228  1.00  0.00    -0.365 C  
HETATM    2  C   UNL     1      -9.601  18.353  68.181  1.00  0.00    -0.316 A  
HETATM    3  C   UNL     1      -9.162  17.135  68.638  1.00  0.00    -0.263 A  
HETATM    4  C   UNL     1     -10.154  16.231  68.216  1.00  0.00    -0.243 A  
HETATM    5  O   UNL     1     -10.784  18.186  67.530  1.00  0.00    -0.412 OA 
HETATM    6  N   UNL     1     -11.111  16.836  67.511  1.00  0.00    -0.124 NA 
ENDROOT
BRANCH   4   7
HETATM    7  N   UNL     1     -10.098  14.852  68.353  1.00  0.00    -0.220 N  
HETATM    8  H   UNL     1     -10.679  14.372  69.041  1.00  0.00     0.000 HD 
BRANCH   7   9
HETATM    9  S   UNL     1      -9.044  13.984  67.354  1.00  0.00    -0.220 S  
HETATM   10  O   UNL     1      -8.181  14.964  66.724  1.00  0.00    -0.191 OA 
HETATM   11  O   UNL     1      -8.503  12.874  68.108  1.00  0.00    -0.164 OA 
BRANCH   9  12
HETATM   12  C   UNL     1     -10.088  13.335  66.062  1.00  0.00    -0.299 A  
HETATM   13  C   UNL     1     -11.458  13.167  66.301  1.00  0.00    -0.372 A  
HETATM   14  C   UNL     1     -12.287  12.700  65.278  1.00  0.00    -0.528 A  
HETATM   15  C   UNL     1     -11.766  12.372  64.023  1.00  0.00    -0.420 A  
HETATM   16  N   UNL     1     -12.625  12.022  62.976  1.00  0.00    -0.768 NA 
HETATM   17  C   UNL     1     -10.415  12.629  63.774  1.00  0.00    -0.411 A  
HETATM   18  H2  UNL     1     -13.307  12.771  62.855  1.00  0.00     0.000 HD 
HETATM   19  H1  UNL     1     -12.244  11.783  62.060  1.00  0.00     0.000 HD 
HETATM   20  C   UNL     1      -9.567  13.087  64.792  1.00  0.00     0.268 A  
ENDBRANCH   9  12
ENDBRANCH   7   9
ENDBRANCH   4   7
TORSDOF 3
ENDMDL
MODEL      123
REMARK 921   NORMALIZED FREE ENERGY PREDICTED BY IDOCK:   -4.00 KCAL/MOL
REMARK 922        TOTAL FREE ENERGY PREDICTED BY IDOCK:   -5.17 KCAL/MOL
REMARK 923 INTER-LIGAND FREE ENERGY PREDICTED BY IDOCK:   -5.09 KCAL/MOL
REMARK 924 INTRA-LIGAND FREE ENERGY PREDICTED BY IDOCK:   -0.07 KCAL/MOL
REMARK 927      BINDING AFFINITY PREDICTED BY RF-SCORE:    0.00 PKD
ROOT
HETATM    1  C   UNL     1      -5.251  12.275  67.372  1.00  0.00    -0.105 C  
HETATM    2  C   UNL     1      -6.633  12.670  67.701  1.00  0.00    -0.143 A  
HETATM    3  C   UNL     1      -7.615  12.135  68.497  1.00  0.00    -0.124 A  
HETATM    4  C   UNL     1      -8.710  13.000  68.323  1.00  0.00    -0.173 A  
HETATM    5  O   UNL     1      -7.111  13.789  67.092  1.00  0.00    -0.080 OA 
HETATM    6  N   UNL     1      -8.441  13.972  67.449  1.00  0.00    -0.189 NA 
ENDROOT
BRANCH   4   7
HETATM    7  N   UNL     1      -9.980  12.809  68.848  1.00  0.00    -0.420 N  
HETATM    8  H   UNL     1     -10.322  13.392  69.612  1.00  0.00     0.000 HD 
BRANCH   7   9
HETATM    9  S   UNL     1     -10.948  11.587  68.191  1.00  0.00    -0.249 S  
HETATM   10  O   UNL     1     -12.049  12.255  67.525  1.00  0.00    -0.514 OA 
HETATM   11  O   UNL     1     -10.097  10.651  67.491  1.00  0.00    -0.174 OA 
BRANCH   9  12
HETATM   12  C   UNL     1     -11.648  10.764  69.610  1.00  0.00    -0.316 A  
HETATM   13  C   UNL     1     -11.134   9.524  70.012  1.00  0.00    -0.268 A  
HETATM   14  C   UNL     1     -11.651   8.896  71.148  1.00  0.00    -0.360 A  
HETATM   15  C   UNL     1     -12.693   9.475  71.879  1.00  0.00    -0.411 A  
HETATM   16  N   UNL     1     -13.115   8.895  73.079  1.00  0.00    -0.783 NA 
HETATM   17  C   UNL     1     -13.133  10.752  71.517  1.00  0.00    -0.517 A  
HETATM   18  H2  UNL     1     -12.306   8.800  73.693  1.00  0.00     0.000 HD 
HETATM   19  H1  UNL     1     -13.875   9.317  73.612  1.00  0.00     0.000 HD 
HETATM   20  C   UNL     1     -12.634  11.391  70.374  1.00  0.00    -0.267 A  
ENDBRANCH   9  12
ENDBRANCH   7   9
ENDBRANCH   4   7
TORSDOF 3
ENDMDL
MODEL      124
REMARK 921   NORMALIZED FREE ENERGY PREDICTED BY IDOCK:   -3.97 KCAL/MOL
REMARK 922        TOTAL FREE ENERGY PREDICTED BY IDOCK:   -5.13 KCAL/MOL
REMARK 923 INTER-LIGAND FREE ENERGY PREDICTED BY IDOCK:   -4.63 KCAL/MOL
REMARK 924 INTRA-LIGAND FREE ENERGY PREDICTED BY IDOCK:   -0.50 KCAL/MOL
REMARK 927      BINDING AFFINITY PREDICTED BY RF-SCORE:    0.00 PKD
ROOT
HETATM    1  C   UNL     1     -13.477   9.835  71.719  1.00  0.00    -0.463 C  
HETATM    2  C   UNL     1     -13.028  11.237  71.628  1.00  0.00    -0.432 A  
HETATM    3  C   UNL     1     -12.138  11.905  70.825  1.00  0.00    -0.325 A  
HETATM    4  C   UNL     1     -12.162  13.226  71.306  1.00  0.00    -0.020 A  
HETATM    5  O   UNL     1     -13.556  12.108  72.531  1.00  0.00    -0.277 OA 
HETATM    6  N   UNL     1     -12.973  13.357  72.358  1.00  0.00    -0.312 NA 
ENDROOT
BRANCH   4   7
HETATM    7  N   UNL     1     -11.341  14.257  70.875  1.00  0.00    -0.497 N  
HETATM    8  H   UNL     1     -10.460  14.456  71.350  1.00  0.00     0.000 HD 
BRANCH   7   9
HETATM    9  S   UNL     1     -11.833  15.177  69.544  1.00  0.00    -0.335 S  
HETATM   10  O   UNL     1     -13.282  15.209  69.585  1.00  0.00     0.344 OA 
HETATM   11  O   UNL     1     -11.051  16.394  69.510  1.00  0.00    -0.316 OA 
BRANCH   9  12
HETATM   12  C   UNL     1     -11.396  14.183  68.129  1.00  0.00    -0.290 A  
HETATM   13  C   UNL     1     -10.078  13.731  67.985  1.00  0.00    -0.245 A  
HETATM   14  C   UNL     1      -9.740  12.916  66.901  1.00  0.00    -0.240 A  
HETATM   15  C   UNL     1     -10.694  12.565  65.941  1.00  0.00    -0.264 A  
HETATM   16  N   UNL     1     -10.371  11.652  64.932  1.00  0.00    -0.269 NA 
HETATM   17  C   UNL     1     -12.022  12.950  66.147  1.00  0.00    -0.491 A  
HETATM   18  H2  UNL     1     -10.025  10.798  65.368  1.00  0.00     0.000 HD 
HETATM   19  H1  UNL     1     -11.067  11.396  64.231  1.00  0.00     0.000 HD 
HETATM   20  C   UNL     1     -12.376  13.777  67.223  1.00  0.00    -0.203 A  
ENDBRANCH   9  12
ENDBRANCH   7   9
ENDBRANCH   4   7
TORSDOF 3
ENDMDL
MODEL      125
REMARK 921   NORMALIZED FREE ENERGY PREDICTED BY IDOCK:   -3.97 KCAL/MOL
REMARK 922        TOTAL FREE ENERGY PREDICTED BY IDOCK:   -5.13 KCAL/MOL
REMARK 923 INTER-LIGAND FREE ENERGY PREDICTED BY IDOCK:   -4.82 KCAL/MOL
REMARK 924 INTRA-LIGAND FREE ENERGY PREDICTED BY IDOCK:   -0.31 KCAL/MOL
REMARK 927      BINDING AFFINITY PREDICTED BY RF-SCORE:    0.00 PKD
ROOT
HETATM    1  C   UNL     1      -5.765  16.368  69.349  1.00  0.00    -0.149 C  
HETATM    2  C   UNL     1      -7.224  16.352  69.137  1.00  0.00    -0.222 A  
HETATM    3  C   UNL     1      -8.219  15.448  69.414  1.00  0.00    -0.250 A  
HETATM    4  C   UNL     1      -9.385  16.052  68.907  1.00  0.00    -0.231 A  
HETATM    5  O   UNL     1      -7.763  17.431  68.507  1.00  0.00    -0.246 OA 
HETATM    6  N   UNL     1      -9.123  17.221  68.320  1.00  0.00    -0.254 NA 
ENDROOT
BRANCH   4   7
HETATM    7  N   UNL     1     -10.640  15.465  68.857  1.00  0.00    -0.235 N  
HETATM    8  H   UNL     1     -11.353  15.699  69.548  1.00  0.00     0.000 HD 
BRANCH   7   9
HETATM    9  S   UNL     1     -10.963  14.352  67.624  1.00  0.00    -0.296 S  
HETATM   10  O   UNL     1     -12.263  14.705  67.088  1.00  0.00    -0.301 OA 
HETATM   11  O   UNL     1      -9.795  14.256  66.775  1.00  0.00    -0.254 OA 
BRANCH   9  12
HETATM   12  C   UNL     1     -11.177  12.798  68.472  1.00  0.00    -0.279 A  
HETATM   13  C   UNL     1     -11.904  12.759  69.668  1.00  0.00    -0.384 A  
HETATM   14  C   UNL     1     -12.111  11.537  70.313  1.00  0.00    -0.444 A  
HETATM   15  C   UNL     1     -11.581  10.352  69.795  1.00  0.00    -0.269 A  
HETATM   16  N   UNL     1     -11.898   9.124  70.385  1.00  0.00    -0.466 NA 
HETATM   17  C   UNL     1     -10.935  10.395  68.556  1.00  0.00    -0.302 A  
HETATM   18  H2  UNL     1     -12.914   9.035  70.417  1.00  0.00     0.000 HD 
HETATM   19  H1  UNL     1     -11.512   8.259  70.006  1.00  0.00     0.000 HD 
HETATM   20  C   UNL     1     -10.709  11.614  67.901  1.00  0.00    -0.241 A  
ENDBRANCH   9  12
ENDBRANCH   7   9
ENDBRANCH   4   7
TORSDOF 3
ENDMDL
MODEL      126
REMARK 921   NORMALIZED FREE ENERGY PREDICTED BY IDOCK:   -3.96 KCAL/MOL
REMARK 922        TOTAL FREE ENERGY PREDICTED BY IDOCK:   -5.12 KCAL/MOL
REMARK 923 INTER-LIGAND FREE ENERGY PREDICTED BY IDOCK:   -4.93 KCAL/MOL
REMARK 924 INTRA-LIGAND FREE ENERGY PREDICTED BY IDOCK:   -0.19 KCAL/MOL
REMARK 927      BINDING AFFINITY PREDICTED BY RF-SCORE:    0.00 PKD
ROOT
HETATM    1  C   UNL     1      -6.313   8.480  70.205  1.00  0.00    -0.038 C  
HETATM    2  C   UNL     1      -7.506   8.174  71.015  1.00  0.00    -0.067 A  
HETATM    3  C   UNL     1      -8.506   7.238  70.928  1.00  0.00    -0.128 A  
HETATM    4  C   UNL     1      -9.355   7.537  72.010  1.00  0.00    -0.133 A  
HETATM    5  O   UNL     1      -7.741   8.981  72.086  1.00  0.00    -0.351 OA 
HETATM    6  N   UNL     1      -8.936   8.606  72.689  1.00  0.00    -0.375 NA 
ENDROOT
BRANCH   4   7
HETATM    7  N   UNL     1     -10.570   6.923  72.275  1.00  0.00    -0.212 N  
HETATM    8  H   UNL     1     -10.686   6.328  73.095  1.00  0.00     0.000 HD 
BRANCH   7   9
HETATM    9  S   UNL     1     -11.856   7.186  71.207  1.00  0.00    -0.337 S  
HETATM   10  O   UNL     1     -11.469   6.577  69.949  1.00  0.00    -0.390 OA 
HETATM   11  O   UNL     1     -13.088   6.827  71.873  1.00  0.00    -0.308 OA 
BRANCH   9  12
HETATM   12  C   UNL     1     -11.853   8.948  70.931  1.00  0.00    -0.240 A  
HETATM   13  C   UNL     1     -11.110   9.479  69.870  1.00  0.00    -0.244 A  
HETATM   14  C   UNL     1     -11.139  10.854  69.624  1.00  0.00    -0.328 A  
HETATM   15  C   UNL     1     -11.881  11.715  70.439  1.00  0.00    -0.293 A  
HETATM   16  N   UNL     1     -11.997  13.068  70.108  1.00  0.00    -0.453 NA 
HETATM   17  C   UNL     1     -12.687  11.159  71.437  1.00  0.00    -0.524 A  
HETATM   18  H2  UNL     1     -12.357  13.137  69.156  1.00  0.00     0.000 HD 
HETATM   19  H1  UNL     1     -12.539  13.696  70.702  1.00  0.00     0.000 HD 
HETATM   20  C   UNL     1     -12.660   9.783  71.704  1.00  0.00    -0.509 A  
ENDBRANCH   9  12
ENDBRANCH   7   9
ENDBRANCH   4   7
TORSDOF 3
ENDMDL
MODEL      127
REMARK 921   NORMALIZED FREE ENERGY PREDICTED BY IDOCK:   -3.94 KCAL/MOL
REMARK 922        TOTAL FREE ENERGY PREDICTED BY IDOCK:   -5.10 KCAL/MOL
REMARK 923 INTER-LIGAND FREE ENERGY PREDICTED BY IDOCK:   -4.78 KCAL/MOL
REMARK 924 INTRA-LIGAND FREE ENERGY PREDICTED BY IDOCK:   -0.31 KCAL/MOL
REMARK 927      BINDING AFFINITY PREDICTED BY RF-SCORE:    0.00 PKD
ROOT
HETATM    1  C   UNL     1      -6.466  17.298  66.303  1.00  0.00    -0.232 C  
HETATM    2  C   UNL     1      -7.750  16.629  66.580  1.00  0.00    -0.302 A  
HETATM    3  C   UNL     1      -8.168  15.710  67.510  1.00  0.00    -0.185 A  
HETATM    4  C   UNL     1      -9.514  15.471  67.179  1.00  0.00    -0.215 A  
HETATM    5  O   UNL     1      -8.785  16.924  65.746  1.00  0.00    -0.512 OA 
HETATM    6  N   UNL     1      -9.889  16.156  66.097  1.00  0.00    -0.310 NA 
ENDROOT
BRANCH   4   7
HETATM    7  N   UNL     1     -10.336  14.527  67.776  1.00  0.00    -0.236 N  
HETATM    8  H   UNL     1     -10.700  14.672  68.718  1.00  0.00     0.000 HD 
BRANCH   7   9
HETATM    9  S   UNL     1     -10.721  13.127  66.906  1.00  0.00    -0.265 S  
HETATM   10  O   UNL     1     -12.039  13.348  66.343  1.00  0.00    -0.404 OA 
HETATM   11  O   UNL     1      -9.591  12.778  66.072  1.00  0.00    -0.246 OA 
BRANCH   9  12
HETATM   12  C   UNL     1     -10.914  11.867  68.153  1.00  0.00    -0.227 A  
HETATM   13  C   UNL     1      -9.815  11.079  68.514  1.00  0.00    -0.194 A  
HETATM   14  C   UNL     1      -9.951  10.120  69.521  1.00  0.00    -0.257 A  
HETATM   15  C   UNL     1     -11.178   9.916  70.159  1.00  0.00    -0.289 A  
HETATM   16  N   UNL     1     -11.269   9.040  71.245  1.00  0.00    -0.287 NA 
HETATM   17  C   UNL     1     -12.241  10.770  69.849  1.00  0.00    -0.384 A  
HETATM   18  H2  UNL     1     -10.586   9.325  71.946  1.00  0.00     0.000 HD 
HETATM   19  H1  UNL     1     -12.164   8.891  71.710  1.00  0.00     0.000 HD 
HETATM   20  C   UNL     1     -12.125  11.730  68.834  1.00  0.00    -0.238 A  
ENDBRANCH   9  12
ENDBRANCH   7   9
ENDBRANCH   4   7
TORSDOF 3
ENDMDL
MODEL      128
REMARK 921   NORMALIZED FREE ENERGY PREDICTED BY IDOCK:   -3.93 KCAL/MOL
REMARK 922        TOTAL FREE ENERGY PREDICTED BY IDOCK:   -5.08 KCAL/MOL
REMARK 923 INTER-LIGAND FREE ENERGY PREDICTED BY IDOCK:   -4.84 KCAL/MOL
REMARK 924 INTRA-LIGAND FREE ENERGY PREDICTED BY IDOCK:   -0.24 KCAL/MOL
REMARK 927      BINDING AFFINITY PREDICTED BY RF-SCORE:    0.00 PKD
ROOT
HETATM    1  C   UNL     1      -6.032   9.216  71.340  1.00  0.00    -0.069 C  
HETATM    2  C   UNL     1      -7.054   9.256  70.278  1.00  0.00    -0.084 A  
HETATM    3  C   UNL     1      -7.715  10.267  69.626  1.00  0.00    -0.166 A  
HETATM    4  C   UNL     1      -8.591   9.599  68.752  1.00  0.00    -0.125 A  
HETATM    5  O   UNL     1      -7.505   8.057  69.818  1.00  0.00    -0.085 OA 
HETATM    6  N   UNL     1      -8.511   8.273  68.885  1.00  0.00    -0.127 NA 
ENDROOT
BRANCH   4   7
HETATM    7  N   UNL     1      -9.550  10.204  67.953  1.00  0.00    -0.148 N  
HETATM    8  H   UNL     1     -10.130  10.960  68.315  1.00  0.00     0.000 HD 
BRANCH   7   9
HETATM    9  S   UNL     1      -9.735   9.656  66.362  1.00  0.00    -0.242 S  
HETATM   10  O   UNL     1      -8.406   9.628  65.785  1.00  0.00    -0.123 OA 
HETATM   11  O   UNL     1     -10.579   8.482  66.375  1.00  0.00    -0.100 OA 
BRANCH   9  12
HETATM   12  C   UNL     1     -10.610  10.974  65.537  1.00  0.00    -0.200 A  
HETATM   13  C   UNL     1     -11.411  11.845  66.286  1.00  0.00    -0.394 A  
HETATM   14  C   UNL     1     -12.064  12.904  65.651  1.00  0.00    -0.511 A  
HETATM   15  C   UNL     1     -11.950  13.094  64.270  1.00  0.00    -0.411 A  
HETATM   16  N   UNL     1     -12.509  14.227  63.669  1.00  0.00    -1.083 NA 
HETATM   17  C   UNL     1     -11.077  12.271  63.552  1.00  0.00    -0.533 A  
HETATM   18  H2  UNL     1     -12.143  15.054  64.139  1.00  0.00     0.000 HD 
HETATM   19  H1  UNL     1     -12.426  14.365  62.662  1.00  0.00     0.000 HD 
HETATM   20  C   UNL     1     -10.424  11.197  64.173  1.00  0.00    -0.442 A  
ENDBRANCH   9  12
ENDBRANCH   7   9
ENDBRANCH   4   7
TORSDOF 3
ENDMDL
MODEL      129
REMARK 921   NORMALIZED FREE ENERGY PREDICTED BY IDOCK:   -3.91 KCAL/MOL
REMARK 922        TOTAL FREE ENERGY PREDICTED BY IDOCK:   -5.07 KCAL/MOL
REMARK 923 INTER-LIGAND FREE ENERGY PREDICTED BY IDOCK:   -5.14 KCAL/MOL
REMARK 924 INTRA-LIGAND FREE ENERGY PREDICTED BY IDOCK:    0.08 KCAL/MOL
REMARK 927      BINDING AFFINITY PREDICTED BY RF-SCORE:    0.00 PKD
ROOT
HETATM    1  C   UNL     1      -7.843   7.135  74.205  1.00  0.00    -0.141 C  
HETATM    2  C   UNL     1      -8.926   7.677  73.365  1.00  0.00    -0.227 A  
HETATM    3  C   UNL     1      -8.969   8.552  72.309  1.00  0.00    -0.299 A  
HETATM    4  C   UNL     1     -10.338   8.660  72.005  1.00  0.00    -0.346 A  
HETATM    5  O   UNL     1     -10.193   7.282  73.670  1.00  0.00    -0.321 OA 
HETATM    6  N   UNL     1     -11.091   7.940  72.839  1.00  0.00    -0.402 NA 
ENDROOT
BRANCH   4   7
HETATM    7  N   UNL     1     -10.891   9.521  71.069  1.00  0.00    -0.329 N  
HETATM    8  H   UNL     1     -11.652  10.151  71.323  1.00  0.00     0.000 HD 
BRANCH   7   9
HETATM    9  S   UNL     1     -10.275   9.501  69.492  1.00  0.00    -0.228 S  
HETATM   10  O   UNL     1      -8.853   9.754  69.609  1.00  0.00    -0.178 OA 
HETATM   11  O   UNL     1     -10.781   8.327  68.815  1.00  0.00    -0.161 OA 
BRANCH   9  12
HETATM   12  C   UNL     1     -10.979  10.946  68.721  1.00  0.00    -0.237 A  
HETATM   13  C   UNL     1     -11.386  12.024  69.517  1.00  0.00    -0.298 A  
HETATM   14  C   UNL     1     -11.898  13.176  68.914  1.00  0.00    -0.361 A  
HETATM   15  C   UNL     1     -12.035  13.261  67.526  1.00  0.00    -0.324 A  
HETATM   16  N   UNL     1     -12.435  14.462  66.931  1.00  0.00    -0.510 NA 
HETATM   17  C   UNL     1     -11.543  12.213  66.741  1.00  0.00    -0.412 A  
HETATM   18  H2  UNL     1     -11.799  15.199  67.237  1.00  0.00     0.000 HD 
HETATM   19  H1  UNL     1     -12.534  14.523  65.918  1.00  0.00     0.000 HD 
HETATM   20  C   UNL     1     -11.037  11.046  67.331  1.00  0.00    -0.370 A  
ENDBRANCH   9  12
ENDBRANCH   7   9
ENDBRANCH   4   7
TORSDOF 3
ENDMDL
MODEL      130
REMARK 921   NORMALIZED FREE ENERGY PREDICTED BY IDOCK:   -3.90 KCAL/MOL
REMARK 922        TOTAL FREE ENERGY PREDICTED BY IDOCK:   -5.05 KCAL/MOL
REMARK 923 INTER-LIGAND FREE ENERGY PREDICTED BY IDOCK:   -5.57 KCAL/MOL
REMARK 924 INTRA-LIGAND FREE ENERGY PREDICTED BY IDOCK:    0.52 KCAL/MOL
REMARK 927      BINDING AFFINITY PREDICTED BY RF-SCORE:    0.00 PKD
ROOT
HETATM    1  C   UNL     1     -13.610   9.008  72.477  1.00  0.00    -0.492 C  
HETATM    2  C   UNL     1     -12.460   9.427  71.655  1.00  0.00    -0.378 A  
HETATM    3  C   UNL     1     -12.330   9.992  70.410  1.00  0.00    -0.210 A  
HETATM    4  C   UNL     1     -10.940  10.092  70.220  1.00  0.00    -0.316 A  
HETATM    5  O   UNL     1     -11.223   9.208  72.177  1.00  0.00    -0.326 OA 
HETATM    6  N   UNL     1     -10.260   9.586  71.250  1.00  0.00    -0.259 NA 
ENDROOT
BRANCH   4   7
HETATM    7  N   UNL     1     -10.314  10.507  69.054  1.00  0.00    -0.200 N  
HETATM    8  H   UNL     1      -9.422  10.104  68.768  1.00  0.00     0.000 HD 
BRANCH   7   9
HETATM    9  S   UNL     1     -11.063  11.702  68.118  1.00  0.00    -0.266 S  
HETATM   10  O   UNL     1     -12.491  11.505  68.276  1.00  0.00    -0.295 OA 
HETATM   11  O   UNL     1     -10.439  12.974  68.409  1.00  0.00    -0.242 OA 
BRANCH   9  12
HETATM   12  C   UNL     1     -10.680  11.254  66.436  1.00  0.00    -0.267 A  
HETATM   13  C   UNL     1     -11.104  12.081  65.388  1.00  0.00    -0.369 A  
HETATM   14  C   UNL     1     -10.768  11.757  64.071  1.00  0.00    -0.434 A  
HETATM   15  C   UNL     1     -10.036  10.603  63.778  1.00  0.00    -0.317 A  
HETATM   16  N   UNL     1      -9.605  10.357  62.471  1.00  0.00    -0.581 NA 
HETATM   17  C   UNL     1      -9.545   9.837  64.840  1.00  0.00    -0.316 A  
HETATM   18  H2  UNL     1      -9.073  11.166  62.149  1.00  0.00     0.000 HD 
HETATM   19  H1  UNL     1      -9.070   9.515  62.258  1.00  0.00     0.000 HD 
HETATM   20  C   UNL     1      -9.881  10.142  66.166  1.00  0.00    -0.297 A  
ENDBRANCH   9  12
ENDBRANCH   7   9
ENDBRANCH   4   7
TORSDOF 3
ENDMDL
MODEL      131
REMARK 921   NORMALIZED FREE ENERGY PREDICTED BY IDOCK:   -3.90 KCAL/MOL
REMARK 922        TOTAL FREE ENERGY PREDICTED BY IDOCK:   -5.04 KCAL/MOL
REMARK 923 INTER-LIGAND FREE ENERGY PREDICTED BY IDOCK:   -4.65 KCAL/MOL
REMARK 924 INTRA-LIGAND FREE ENERGY PREDICTED BY IDOCK:   -0.39 KCAL/MOL
REMARK 927      BINDING AFFINITY PREDICTED BY RF-SCORE:    0.00 PKD
ROOT
HETATM    1  C   UNL     1     -13.201  11.194  71.777  1.00  0.00    -0.486 C  
HETATM    2  C   UNL     1     -12.194  10.282  71.205  1.00  0.00    -0.395 A  
HETATM    3  C   UNL     1     -11.611   9.114  71.631  1.00  0.00    -0.449 A  
HETATM    4  C   UNL     1     -10.697   8.792  70.611  1.00  0.00    -0.225 A  
HETATM    5  O   UNL     1     -11.664  10.632  70.002  1.00  0.00    -0.270 OA 
HETATM    6  N   UNL     1     -10.684   9.714  69.647  1.00  0.00    -0.229 NA 
ENDROOT
BRANCH   4   7
HETATM    7  N   UNL     1      -9.790   7.743  70.643  1.00  0.00    -0.182 N  
HETATM    8  H   UNL     1      -8.889   7.846  71.110  1.00  0.00     0.000 HD 
BRANCH   7   9
HETATM    9  S   UNL     1     -10.213   6.289  69.887  1.00  0.00    -0.198 S  
HETATM   10  O   UNL     1     -11.570   6.460  69.407  1.00  0.00    -0.382 OA 
HETATM   11  O   UNL     1      -9.139   5.905  68.996  1.00  0.00    -0.121 OA 
BRANCH   9  12
HETATM   12  C   UNL     1     -10.298   5.105  71.216  1.00  0.00    -0.205 A  
HETATM   13  C   UNL     1     -10.970   5.441  72.398  1.00  0.00    -0.298 A  
HETATM   14  C   UNL     1     -11.075   4.500  73.426  1.00  0.00    -0.408 A  
HETATM   15  C   UNL     1     -10.498   3.233  73.304  1.00  0.00    -0.166 A  
HETATM   16  N   UNL     1     -10.717   2.264  74.288  1.00  0.00    -0.149 NA 
HETATM   17  C   UNL     1      -9.909   2.883  72.085  1.00  0.00    -0.239 A  
HETATM   18  H2  UNL     1     -11.723   2.148  74.409  1.00  0.00     0.000 HD 
HETATM   19  H1  UNL     1     -10.296   1.339  74.198  1.00  0.00     0.000 HD 
HETATM   20  C   UNL     1      -9.785   3.818  71.048  1.00  0.00    -0.248 A  
ENDBRANCH   9  12
ENDBRANCH   7   9
ENDBRANCH   4   7
TORSDOF 3
ENDMDL
MODEL      132
REMARK 921   NORMALIZED FREE ENERGY PREDICTED BY IDOCK:   -3.85 KCAL/MOL
REMARK 922        TOTAL FREE ENERGY PREDICTED BY IDOCK:   -4.99 KCAL/MOL
REMARK 923 INTER-LIGAND FREE ENERGY PREDICTED BY IDOCK:   -4.69 KCAL/MOL
REMARK 924 INTRA-LIGAND FREE ENERGY PREDICTED BY IDOCK:   -0.30 KCAL/MOL
REMARK 927      BINDING AFFINITY PREDICTED BY RF-SCORE:    0.00 PKD
ROOT
HETATM    1  C   UNL     1     -14.405   8.582  72.448  1.00  0.00    -0.412 C  
HETATM    2  C   UNL     1     -13.109   8.886  71.815  1.00  0.00    -0.374 A  
HETATM    3  C   UNL     1     -12.439  10.048  71.520  1.00  0.00    -0.516 A  
HETATM    4  C   UNL     1     -11.265   9.616  70.876  1.00  0.00    -0.352 A  
HETATM    5  O   UNL     1     -12.377   7.825  71.377  1.00  0.00    -0.312 OA 
HETATM    6  N   UNL     1     -11.232   8.289  70.742  1.00  0.00    -0.263 NA 
ENDROOT
BRANCH   4   7
HETATM    7  N   UNL     1     -10.314  10.441  70.294  1.00  0.00    -0.428 N  
HETATM    8  H   UNL     1      -9.502  10.756  70.824  1.00  0.00     0.000 HD 
BRANCH   7   9
HETATM    9  S   UNL     1     -10.534  10.913  68.684  1.00  0.00    -0.206 S  
HETATM   10  O   UNL     1     -11.943  10.729  68.396  1.00  0.00    -0.508 OA 
HETATM   11  O   UNL     1      -9.883  12.190  68.486  1.00  0.00    -0.209 OA 
BRANCH   9  12
HETATM   12  C   UNL     1      -9.664   9.680  67.735  1.00  0.00    -0.146 A  
HETATM   13  C   UNL     1      -8.264   9.657  67.752  1.00  0.00    -0.114 A  
HETATM   14  C   UNL     1      -7.579   8.666  67.045  1.00  0.00    -0.084 A  
HETATM   15  C   UNL     1      -8.270   7.708  66.297  1.00  0.00    -0.120 A  
HETATM   16  N   UNL     1      -7.578   6.652  65.695  1.00  0.00    -0.082 NA 
HETATM   17  C   UNL     1      -9.667   7.690  66.363  1.00  0.00    -0.197 A  
HETATM   18  H2  UNL     1      -7.037   6.171  66.414  1.00  0.00     0.000 HD 
HETATM   19  H1  UNL     1      -8.082   5.953  65.150  1.00  0.00     0.000 HD 
HETATM   20  C   UNL     1     -10.370   8.684  67.059  1.00  0.00    -0.368 A  
ENDBRANCH   9  12
ENDBRANCH   7   9
ENDBRANCH   4   7
TORSDOF 3
ENDMDL
MODEL      133
REMARK 921   NORMALIZED FREE ENERGY PREDICTED BY IDOCK:   -3.85 KCAL/MOL
REMARK 922        TOTAL FREE ENERGY PREDICTED BY IDOCK:   -4.99 KCAL/MOL
REMARK 923 INTER-LIGAND FREE ENERGY PREDICTED BY IDOCK:   -4.82 KCAL/MOL
REMARK 924 INTRA-LIGAND FREE ENERGY PREDICTED BY IDOCK:   -0.16 KCAL/MOL
REMARK 927      BINDING AFFINITY PREDICTED BY RF-SCORE:    0.00 PKD
ROOT
HETATM    1  C   UNL     1     -12.410  14.446  63.724  1.00  0.00     0.031 C  
HETATM    2  C   UNL     1     -11.516  13.629  64.566  1.00  0.00    -0.379 A  
HETATM    3  C   UNL     1     -10.198  13.730  64.938  1.00  0.00    -0.374 A  
HETATM    4  C   UNL     1      -9.973  12.585  65.724  1.00  0.00    -0.259 A  
HETATM    5  O   UNL     1     -12.046  12.496  65.102  1.00  0.00    -0.417 OA 
HETATM    6  N   UNL     1     -11.057  11.811  65.796  1.00  0.00    -0.313 NA 
ENDROOT
BRANCH   4   7
HETATM    7  N   UNL     1      -8.748  12.191  66.241  1.00  0.00    -0.397 N  
HETATM    8  H   UNL     1      -8.162  11.521  65.743  1.00  0.00     0.000 HD 
BRANCH   7   9
HETATM    9  S   UNL     1      -8.248  12.847  67.719  1.00  0.00    -0.189 S  
HETATM   10  O   UNL     1      -7.984  11.722  68.594  1.00  0.00    -0.147 OA 
HETATM   11  O   UNL     1      -7.244  13.855  67.459  1.00  0.00    -0.170 OA 
BRANCH   9  12
HETATM   12  C   UNL     1      -9.704  13.651  68.364  1.00  0.00    -0.217 A  
HETATM   13  C   UNL     1     -10.681  12.889  69.015  1.00  0.00    -0.132 A  
HETATM   14  C   UNL     1     -11.803  13.520  69.560  1.00  0.00    -0.392 A  
HETATM   15  C   UNL     1     -11.978  14.902  69.442  1.00  0.00    -0.301 A  
HETATM   16  N   UNL     1     -13.041  15.533  70.096  1.00  0.00    -0.682 NA 
HETATM   17  C   UNL     1     -10.951  15.659  68.868  1.00  0.00    -0.266 A  
HETATM   18  H2  UNL     1     -12.994  15.298  71.087  1.00  0.00     0.000 HD 
HETATM   19  H1  UNL     1     -13.168  16.542  70.010  1.00  0.00     0.000 HD 
HETATM   20  C   UNL     1      -9.825  15.040  68.307  1.00  0.00    -0.219 A  
ENDBRANCH   9  12
ENDBRANCH   7   9
ENDBRANCH   4   7
TORSDOF 3
ENDMDL
MODEL      134
REMARK 921   NORMALIZED FREE ENERGY PREDICTED BY IDOCK:   -3.85 KCAL/MOL
REMARK 922        TOTAL FREE ENERGY PREDICTED BY IDOCK:   -4.99 KCAL/MOL
REMARK 923 INTER-LIGAND FREE ENERGY PREDICTED BY IDOCK:   -4.86 KCAL/MOL
REMARK 924 INTRA-LIGAND FREE ENERGY PREDICTED BY IDOCK:   -0.12 KCAL/MOL
REMARK 927      BINDING AFFINITY PREDICTED BY RF-SCORE:    0.00 PKD
ROOT
HETATM    1  C   UNL     1     -11.831  11.919  69.732  1.00  0.00    -0.411 C  
HETATM    2  C   UNL     1     -11.181  10.694  70.235  1.00  0.00    -0.285 A  
HETATM    3  C   UNL     1     -11.513   9.758  71.183  1.00  0.00    -0.472 A  
HETATM    4  C   UNL     1     -10.422   8.870  71.187  1.00  0.00    -0.266 A  
HETATM    5  O   UNL     1      -9.968  10.382  69.703  1.00  0.00    -0.229 OA 
HETATM    6  N   UNL     1      -9.466   9.253  70.338  1.00  0.00    -0.227 NA 
ENDROOT
BRANCH   4   7
HETATM    7  N   UNL     1     -10.249   7.809  72.063  1.00  0.00    -0.192 N  
HETATM    8  H   UNL     1      -9.575   7.867  72.827  1.00  0.00     0.000 HD 
BRANCH   7   9
HETATM    9  S   UNL     1     -11.180   6.415  71.836  1.00  0.00    -0.295 S  
HETATM   10  O   UNL     1     -10.666   5.427  72.763  1.00  0.00    -0.216 OA 
HETATM   11  O   UNL     1     -12.577   6.791  71.830  1.00  0.00    -0.357 OA 
BRANCH   9  12
HETATM   12  C   UNL     1     -10.740   5.847  70.204  1.00  0.00    -0.318 A  
HETATM   13  C   UNL     1      -9.924   4.717  70.064  1.00  0.00    -0.302 A  
HETATM   14  C   UNL     1      -9.612   4.243  68.787  1.00  0.00    -0.219 A  
HETATM   15  C   UNL     1     -10.080   4.895  67.643  1.00  0.00    -0.116 A  
HETATM   16  N   UNL     1      -9.860   4.340  66.378  1.00  0.00    -0.223 NA 
HETATM   17  C   UNL     1     -10.964   5.967  67.800  1.00  0.00    -0.333 A  
HETATM   18  H2  UNL     1     -10.225   3.388  66.377  1.00  0.00     0.000 HD 
HETATM   19  H1  UNL     1     -10.203   4.816  65.543  1.00  0.00     0.000 HD 
HETATM   20  C   UNL     1     -11.279   6.462  69.074  1.00  0.00    -0.402 A  
ENDBRANCH   9  12
ENDBRANCH   7   9
ENDBRANCH   4   7
TORSDOF 3
ENDMDL
MODEL      135
REMARK 921   NORMALIZED FREE ENERGY PREDICTED BY IDOCK:   -3.84 KCAL/MOL
REMARK 922        TOTAL FREE ENERGY PREDICTED BY IDOCK:   -4.97 KCAL/MOL
REMARK 923 INTER-LIGAND FREE ENERGY PREDICTED BY IDOCK:   -4.75 KCAL/MOL
REMARK 924 INTRA-LIGAND FREE ENERGY PREDICTED BY IDOCK:   -0.23 KCAL/MOL
REMARK 927      BINDING AFFINITY PREDICTED BY RF-SCORE:    0.00 PKD
ROOT
HETATM    1  C   UNL     1     -10.894  15.646  64.891  1.00  0.00    -0.438 C  
HETATM    2  C   UNL     1     -10.773  15.019  66.220  1.00  0.00    -0.322 A  
HETATM    3  C   UNL     1     -10.207  13.855  66.679  1.00  0.00    -0.276 A  
HETATM    4  C   UNL     1     -10.490  13.854  68.057  1.00  0.00    -0.243 A  
HETATM    5  O   UNL     1     -11.354  15.674  67.261  1.00  0.00    -0.255 OA 
HETATM    6  N   UNL     1     -11.215  14.915  68.416  1.00  0.00    -0.278 NA 
ENDROOT
BRANCH   4   7
HETATM    7  N   UNL     1     -10.209  12.819  68.936  1.00  0.00    -0.429 N  
HETATM    8  H   UNL     1      -9.357  12.826  69.497  1.00  0.00     0.000 HD 
BRANCH   7   9
HETATM    9  S   UNL     1     -11.314  11.543  69.059  1.00  0.00    -0.305 S  
HETATM   10  O   UNL     1     -11.854  11.601  70.403  1.00  0.00    -0.343 OA 
HETATM   11  O   UNL     1     -12.175  11.566  67.897  1.00  0.00    -0.586 OA 
BRANCH   9  12
HETATM   12  C   UNL     1     -10.306  10.074  68.988  1.00  0.00    -0.206 A  
HETATM   13  C   UNL     1      -9.290   9.887  69.933  1.00  0.00    -0.250 A  
HETATM   14  C   UNL     1      -8.526   8.718  69.907  1.00  0.00    -0.131 A  
HETATM   15  C   UNL     1      -8.743   7.738  68.934  1.00  0.00    -0.135 A  
HETATM   16  N   UNL     1      -8.055   6.522  68.995  1.00  0.00    -0.111 NA 
HETATM   17  C   UNL     1      -9.818   7.898  68.054  1.00  0.00    -0.195 A  
HETATM   18  H2  UNL     1      -8.217   6.106  69.912  1.00  0.00     0.000 HD 
HETATM   19  H1  UNL     1      -8.214   5.807  68.285  1.00  0.00     0.000 HD 
HETATM   20  C   UNL     1     -10.587   9.070  68.059  1.00  0.00    -0.242 A  
ENDBRANCH   9  12
ENDBRANCH   7   9
ENDBRANCH   4   7
TORSDOF 3
ENDMDL
MODEL      136
REMARK 921   NORMALIZED FREE ENERGY PREDICTED BY IDOCK:   -3.84 KCAL/MOL
REMARK 922        TOTAL FREE ENERGY PREDICTED BY IDOCK:   -4.97 KCAL/MOL
REMARK 923 INTER-LIGAND FREE ENERGY PREDICTED BY IDOCK:   -4.65 KCAL/MOL
REMARK 924 INTRA-LIGAND FREE ENERGY PREDICTED BY IDOCK:   -0.33 KCAL/MOL
REMARK 927      BINDING AFFINITY PREDICTED BY RF-SCORE:    0.00 PKD
ROOT
HETATM    1  C   UNL     1     -11.176   3.656  73.630  1.00  0.00    -0.278 C  
HETATM    2  C   UNL     1     -10.874   5.072  73.352  1.00  0.00    -0.299 A  
HETATM    3  C   UNL     1     -11.066   5.895  72.271  1.00  0.00    -0.330 A  
HETATM    4  C   UNL     1     -10.503   7.122  72.667  1.00  0.00    -0.237 A  
HETATM    5  O   UNL     1     -10.240   5.766  74.336  1.00  0.00    -0.255 OA 
HETATM    6  N   UNL     1      -9.963   7.051  73.885  1.00  0.00    -0.313 NA 
ENDROOT
BRANCH   4   7
HETATM    7  N   UNL     1     -10.362   8.242  71.861  1.00  0.00    -0.233 N  
HETATM    8  H   UNL     1     -11.035   9.007  71.906  1.00  0.00     0.000 HD 
BRANCH   7   9
HETATM    9  S   UNL     1      -9.045   8.310  70.800  1.00  0.00    -0.157 S  
HETATM   10  O   UNL     1      -8.886   9.705  70.439  1.00  0.00    -0.235 OA 
HETATM   11  O   UNL     1      -7.955   7.547  71.368  1.00  0.00    -0.092 OA 
BRANCH   9  12
HETATM   12  C   UNL     1      -9.615   7.475  69.330  1.00  0.00    -0.155 A  
HETATM   13  C   UNL     1      -9.463   6.087  69.223  1.00  0.00    -0.152 A  
HETATM   14  C   UNL     1      -9.947   5.424  68.092  1.00  0.00    -0.207 A  
HETATM   15  C   UNL     1     -10.559   6.128  67.051  1.00  0.00    -0.315 A  
HETATM   16  N   UNL     1     -11.145   5.438  65.986  1.00  0.00    -0.789 NA 
HETATM   17  C   UNL     1     -10.782   7.499  67.214  1.00  0.00    -0.365 A  
HETATM   18  H2  UNL     1     -11.820   4.773  66.364  1.00  0.00     0.000 HD 
HETATM   19  H1  UNL     1     -11.592   5.952  65.226  1.00  0.00     0.000 HD 
HETATM   20  C   UNL     1     -10.294   8.182  68.337  1.00  0.00    -0.236 A  
ENDBRANCH   9  12
ENDBRANCH   7   9
ENDBRANCH   4   7
TORSDOF 3
ENDMDL
MODEL      137
REMARK 921   NORMALIZED FREE ENERGY PREDICTED BY IDOCK:   -3.82 KCAL/MOL
REMARK 922        TOTAL FREE ENERGY PREDICTED BY IDOCK:   -4.96 KCAL/MOL
REMARK 923 INTER-LIGAND FREE ENERGY PREDICTED BY IDOCK:   -4.68 KCAL/MOL
REMARK 924 INTRA-LIGAND FREE ENERGY PREDICTED BY IDOCK:   -0.28 KCAL/MOL
REMARK 927      BINDING AFFINITY PREDICTED BY RF-SCORE:    0.00 PKD
ROOT
HETATM    1  C   UNL     1      -8.703   9.237  63.697  1.00  0.00    -0.188 C  
HETATM    2  C   UNL     1      -9.434  10.125  64.620  1.00  0.00    -0.297 A  
HETATM    3  C   UNL     1     -10.067   9.938  65.824  1.00  0.00    -0.317 A  
HETATM    4  C   UNL     1     -10.595  11.204  66.136  1.00  0.00    -0.248 A  
HETATM    5  O   UNL     1      -9.573  11.424  64.239  1.00  0.00    -0.229 OA 
HETATM    6  N   UNL     1     -10.347  12.097  65.175  1.00  0.00    -0.271 NA 
ENDROOT
BRANCH   4   7
HETATM    7  N   UNL     1     -11.416  11.491  67.217  1.00  0.00    -0.295 N  
HETATM    8  H   UNL     1     -12.431  11.463  67.124  1.00  0.00     0.000 HD 
BRANCH   7   9
HETATM    9  S   UNL     1     -10.693  11.892  68.693  1.00  0.00    -0.236 S  
HETATM   10  O   UNL     1     -11.646  11.529  69.724  1.00  0.00    -0.291 OA 
HETATM   11  O   UNL     1      -9.341  11.377  68.699  1.00  0.00    -0.185 OA 
BRANCH   9  12
HETATM   12  C   UNL     1     -10.620  13.674  68.685  1.00  0.00    -0.248 A  
HETATM   13  C   UNL     1     -11.783  14.413  68.931  1.00  0.00    -0.357 A  
HETATM   14  C   UNL     1     -11.722  15.808  68.968  1.00  0.00    -0.405 A  
HETATM   15  C   UNL     1     -10.519  16.482  68.736  1.00  0.00    -0.309 A  
HETATM   16  N   UNL     1     -10.449  17.870  68.896  1.00  0.00    -0.398 NA 
HETATM   17  C   UNL     1      -9.351  15.728  68.581  1.00  0.00    -0.206 A  
HETATM   18  H2  UNL     1     -10.772  18.102  69.835  1.00  0.00     0.000 HD 
HETATM   19  H1  UNL     1      -9.571  18.361  68.728  1.00  0.00     0.000 HD 
HETATM   20  C   UNL     1      -9.397  14.328  68.530  1.00  0.00    -0.200 A  
ENDBRANCH   9  12
ENDBRANCH   7   9
ENDBRANCH   4   7
TORSDOF 3
ENDMDL
MODEL      138
REMARK 921   NORMALIZED FREE ENERGY PREDICTED BY IDOCK:   -3.80 KCAL/MOL
REMARK 922        TOTAL FREE ENERGY PREDICTED BY IDOCK:   -4.93 KCAL/MOL
REMARK 923 INTER-LIGAND FREE ENERGY PREDICTED BY IDOCK:   -4.55 KCAL/MOL
REMARK 924 INTRA-LIGAND FREE ENERGY PREDICTED BY IDOCK:   -0.38 KCAL/MOL
REMARK 927      BINDING AFFINITY PREDICTED BY RF-SCORE:    0.00 PKD
ROOT
HETATM    1  C   UNL     1      -9.015   3.258  69.955  1.00  0.00    -0.173 C  
HETATM    2  C   UNL     1      -9.903   4.423  70.123  1.00  0.00    -0.217 A  
HETATM    3  C   UNL     1     -10.600   4.947  71.183  1.00  0.00    -0.096 A  
HETATM    4  C   UNL     1     -11.282   6.050  70.636  1.00  0.00    -0.277 A  
HETATM    5  O   UNL     1     -10.150   5.169  69.012  1.00  0.00    -0.187 OA 
HETATM    6  N   UNL     1     -11.059   6.172  69.326  1.00  0.00    -0.385 NA 
ENDROOT
BRANCH   4   7
HETATM    7  N   UNL     1     -12.206   6.839  71.304  1.00  0.00    -0.370 N  
HETATM    8  H   UNL     1     -13.207   6.663  71.211  1.00  0.00     0.000 HD 
BRANCH   7   9
HETATM    9  S   UNL     1     -11.636   8.101  72.276  1.00  0.00    -0.396 S  
HETATM   10  O   UNL     1     -12.774   8.960  72.535  1.00  0.00    -0.390 OA 
HETATM   11  O   UNL     1     -10.855   7.534  73.355  1.00  0.00    -0.394 OA 
BRANCH   9  12
HETATM   12  C   UNL     1     -10.543   9.024  71.212  1.00  0.00    -0.308 A  
HETATM   13  C   UNL     1      -9.161   8.819  71.297  1.00  0.00    -0.300 A  
HETATM   14  C   UNL     1      -8.304   9.509  70.435  1.00  0.00    -0.226 A  
HETATM   15  C   UNL     1      -8.805  10.423  69.503  1.00  0.00    -0.092 A  
HETATM   16  N   UNL     1      -7.948  11.013  68.568  1.00  0.00    -0.129 NA 
HETATM   17  C   UNL     1     -10.191  10.550  69.370  1.00  0.00    -0.245 A  
HETATM   18  H2  UNL     1      -7.463  10.272  68.063  1.00  0.00     0.000 HD 
HETATM   19  H1  UNL     1      -8.314  11.679  67.887  1.00  0.00     0.000 HD 
HETATM   20  C   UNL     1     -11.064   9.873  70.234  1.00  0.00    -0.368 A  
ENDBRANCH   9  12
ENDBRANCH   7   9
ENDBRANCH   4   7
TORSDOF 3
ENDMDL
MODEL      139
REMARK 921   NORMALIZED FREE ENERGY PREDICTED BY IDOCK:   -3.79 KCAL/MOL
REMARK 922        TOTAL FREE ENERGY PREDICTED BY IDOCK:   -4.92 KCAL/MOL
REMARK 923 INTER-LIGAND FREE ENERGY PREDICTED BY IDOCK:   -4.53 KCAL/MOL
REMARK 924 INTRA-LIGAND FREE ENERGY PREDICTED BY IDOCK:   -0.39 KCAL/MOL
REMARK 927      BINDING AFFINITY PREDICTED BY RF-SCORE:    0.00 PKD
ROOT
HETATM    1  C   UNL     1      -7.180   9.742  65.207  1.00  0.00    -0.120 C  
HETATM    2  C   UNL     1      -8.000  10.057  66.391  1.00  0.00    -0.116 A  
HETATM    3  C   UNL     1      -8.463  11.223  66.949  1.00  0.00    -0.152 A  
HETATM    4  C   UNL     1      -9.154  10.804  68.100  1.00  0.00    -0.151 A  
HETATM    5  O   UNL     1      -8.395   9.006  67.159  1.00  0.00    -0.109 OA 
HETATM    6  N   UNL     1      -9.086   9.481  68.267  1.00  0.00    -0.127 NA 
ENDROOT
BRANCH   4   7
HETATM    7  N   UNL     1      -9.712  11.640  69.055  1.00  0.00    -0.413 N  
HETATM    8  H   UNL     1      -9.162  11.963  69.852  1.00  0.00     0.000 HD 
BRANCH   7   9
HETATM    9  S   UNL     1     -11.326  12.112  68.870  1.00  0.00    -0.305 S  
HETATM   10  O   UNL     1     -11.792  11.495  67.644  1.00  0.00    -0.595 OA 
HETATM   11  O   UNL     1     -12.013  11.908  70.127  1.00  0.00    -0.330 OA 
BRANCH   9  12
HETATM   12  C   UNL     1     -11.244  13.864  68.549  1.00  0.00    -0.270 A  
HETATM   13  C   UNL     1     -11.507  14.769  69.585  1.00  0.00    -0.327 A  
HETATM   14  C   UNL     1     -11.402  16.142  69.348  1.00  0.00    -0.323 A  
HETATM   15  C   UNL     1     -11.061  16.630  68.083  1.00  0.00    -0.285 A  
HETATM   16  N   UNL     1     -10.841  17.998  67.894  1.00  0.00    -0.307 NA 
HETATM   17  C   UNL     1     -10.714  15.714  67.086  1.00  0.00    -0.314 A  
HETATM   18  H2  UNL     1     -10.131  18.305  68.559  1.00  0.00     0.000 HD 
HETATM   19  H1  UNL     1     -10.591  18.354  66.971  1.00  0.00     0.000 HD 
HETATM   20  C   UNL     1     -10.825  14.333  67.303  1.00  0.00    -0.285 A  
ENDBRANCH   9  12
ENDBRANCH   7   9
ENDBRANCH   4   7
TORSDOF 3
ENDMDL
MODEL      140
REMARK 921   NORMALIZED FREE ENERGY PREDICTED BY IDOCK:   -3.79 KCAL/MOL
REMARK 922        TOTAL FREE ENERGY PREDICTED BY IDOCK:   -4.91 KCAL/MOL
REMARK 923 INTER-LIGAND FREE ENERGY PREDICTED BY IDOCK:   -4.50 KCAL/MOL
REMARK 924 INTRA-LIGAND FREE ENERGY PREDICTED BY IDOCK:   -0.41 KCAL/MOL
REMARK 927      BINDING AFFINITY PREDICTED BY RF-SCORE:    0.00 PKD
ROOT
HETATM    1  C   UNL     1      -6.310   9.513  70.565  1.00  0.00    -0.080 C  
HETATM    2  C   UNL     1      -7.648   9.144  71.065  1.00  0.00    -0.096 A  
HETATM    3  C   UNL     1      -8.893   9.063  70.492  1.00  0.00    -0.242 A  
HETATM    4  C   UNL     1      -9.737   8.688  71.553  1.00  0.00    -0.263 A  
HETATM    5  O   UNL     1      -7.743   8.832  72.386  1.00  0.00    -0.343 OA 
HETATM    6  N   UNL     1      -9.072   8.588  72.706  1.00  0.00    -0.322 NA 
ENDROOT
BRANCH   4   7
HETATM    7  N   UNL     1     -11.118   8.583  71.486  1.00  0.00    -0.257 N  
HETATM    8  H   UNL     1     -11.703   9.416  71.426  1.00  0.00     0.000 HD 
BRANCH   7   9
HETATM    9  S   UNL     1     -11.811   7.039  71.505  1.00  0.00    -0.335 S  
HETATM   10  O   UNL     1     -11.344   6.399  72.719  1.00  0.00    -0.251 OA 
HETATM   11  O   UNL     1     -13.222   7.164  71.212  1.00  0.00    -0.377 OA 
BRANCH   9  12
HETATM   12  C   UNL     1     -11.026   6.181  70.154  1.00  0.00    -0.358 A  
HETATM   13  C   UNL     1     -10.236   5.055  70.417  1.00  0.00    -0.324 A  
HETATM   14  C   UNL     1      -9.654   4.354  69.358  1.00  0.00    -0.269 A  
HETATM   15  C   UNL     1      -9.826   4.776  68.036  1.00  0.00    -0.126 A  
HETATM   16  N   UNL     1      -9.339   3.997  66.982  1.00  0.00    -0.169 NA 
HETATM   17  C   UNL     1     -10.688   5.847  67.784  1.00  0.00    -0.346 A  
HETATM   18  H2  UNL     1      -9.723   3.056  67.072  1.00  0.00     0.000 HD 
HETATM   19  H1  UNL     1      -9.465   4.304  66.017  1.00  0.00     0.000 HD 
HETATM   20  C   UNL     1     -11.271   6.568  68.836  1.00  0.00    -0.341 A  
ENDBRANCH   9  12
ENDBRANCH   7   9
ENDBRANCH   4   7
TORSDOF 3
ENDMDL
MODEL      141
REMARK 921   NORMALIZED FREE ENERGY PREDICTED BY IDOCK:   -3.78 KCAL/MOL
REMARK 922        TOTAL FREE ENERGY PREDICTED BY IDOCK:   -4.91 KCAL/MOL
REMARK 923 INTER-LIGAND FREE ENERGY PREDICTED BY IDOCK:   -4.66 KCAL/MOL
REMARK 924 INTRA-LIGAND FREE ENERGY PREDICTED BY IDOCK:   -0.25 KCAL/MOL
REMARK 927      BINDING AFFINITY PREDICTED BY RF-SCORE:    0.00 PKD
ROOT
HETATM    1  C   UNL     1      -6.642   2.944  68.884  1.00  0.00    -0.033 C  
HETATM    2  C   UNL     1      -7.799   3.857  68.894  1.00  0.00    -0.056 A  
HETATM    3  C   UNL     1      -8.055   5.081  68.326  1.00  0.00    -0.086 A  
HETATM    4  C   UNL     1      -9.347   5.407  68.776  1.00  0.00    -0.128 A  
HETATM    5  O   UNL     1      -8.875   3.475  69.634  1.00  0.00    -0.074 OA 
HETATM    6  N   UNL     1      -9.837   4.476  69.598  1.00  0.00    -0.218 NA 
ENDROOT
BRANCH   4   7
HETATM    7  N   UNL     1     -10.000   6.609  68.549  1.00  0.00    -0.146 N  
HETATM    8  H   UNL     1     -10.709   6.689  67.820  1.00  0.00     0.000 HD 
BRANCH   7   9
HETATM    9  S   UNL     1      -9.594   7.941  69.511  1.00  0.00    -0.161 S  
HETATM   10  O   UNL     1      -8.571   7.482  70.430  1.00  0.00    -0.139 OA 
HETATM   11  O   UNL     1      -9.378   9.083  68.649  1.00  0.00    -0.137 OA 
BRANCH   9  12
HETATM   12  C   UNL     1     -11.051   8.241  70.494  1.00  0.00    -0.249 A  
HETATM   13  C   UNL     1     -11.847   7.162  70.895  1.00  0.00    -0.379 A  
HETATM   14  C   UNL     1     -12.966   7.388  71.701  1.00  0.00    -0.409 A  
HETATM   15  C   UNL     1     -13.319   8.682  72.095  1.00  0.00    -0.396 A  
HETATM   16  N   UNL     1     -14.367   8.880  72.999  1.00  0.00    -1.154 NA 
HETATM   17  C   UNL     1     -12.465   9.738  71.761  1.00  0.00    -0.485 A  
HETATM   18  H2  UNL     1     -14.178   8.330  73.837  1.00  0.00     0.000 HD 
HETATM   19  H1  UNL     1     -14.624   9.825  73.286  1.00  0.00     0.000 HD 
HETATM   20  C   UNL     1     -11.345   9.529  70.943  1.00  0.00    -0.410 A  
ENDBRANCH   9  12
ENDBRANCH   7   9
ENDBRANCH   4   7
TORSDOF 3
ENDMDL
MODEL      142
REMARK 921   NORMALIZED FREE ENERGY PREDICTED BY IDOCK:   -3.78 KCAL/MOL
REMARK 922        TOTAL FREE ENERGY PREDICTED BY IDOCK:   -4.91 KCAL/MOL
REMARK 923 INTER-LIGAND FREE ENERGY PREDICTED BY IDOCK:   -4.53 KCAL/MOL
REMARK 924 INTRA-LIGAND FREE ENERGY PREDICTED BY IDOCK:   -0.38 KCAL/MOL
REMARK 927      BINDING AFFINITY PREDICTED BY RF-SCORE:    0.00 PKD
ROOT
HETATM    1  C   UNL     1     -12.653  10.245  71.668  1.00  0.00    -0.534 C  
HETATM    2  C   UNL     1     -12.373  11.281  70.657  1.00  0.00    -0.383 A  
HETATM    3  C   UNL     1     -12.137  11.257  69.305  1.00  0.00    -0.372 A  
HETATM    4  C   UNL     1     -11.903  12.604  68.971  1.00  0.00    -0.294 A  
HETATM    5  O   UNL     1     -12.290  12.565  71.102  1.00  0.00    -0.309 OA 
HETATM    6  N   UNL     1     -11.947  13.396  70.044  1.00  0.00    -0.338 NA 
ENDROOT
BRANCH   4   7
HETATM    7  N   UNL     1     -11.512  13.070  67.725  1.00  0.00    -0.295 N  
HETATM    8  H   UNL     1     -12.198  13.437  67.065  1.00  0.00     0.000 HD 
BRANCH   7   9
HETATM    9  S   UNL     1      -9.869  13.014  67.323  1.00  0.00    -0.231 S  
HETATM   10  O   UNL     1      -9.761  13.548  65.979  1.00  0.00    -0.275 OA 
HETATM   11  O   UNL     1      -9.107  13.570  68.420  1.00  0.00    -0.193 OA 
BRANCH   9  12
HETATM   12  C   UNL     1      -9.499  11.274  67.200  1.00  0.00    -0.170 A  
HETATM   13  C   UNL     1     -10.115  10.506  66.205  1.00  0.00    -0.306 A  
HETATM   14  C   UNL     1      -9.796   9.152  66.078  1.00  0.00    -0.342 A  
HETATM   15  C   UNL     1      -8.887   8.543  66.948  1.00  0.00    -0.137 A  
HETATM   16  N   UNL     1      -8.487   7.220  66.733  1.00  0.00    -0.118 NA 
HETATM   17  C   UNL     1      -8.214   9.342  67.878  1.00  0.00    -0.115 A  
HETATM   18  H2  UNL     1      -8.123   7.144  65.783  1.00  0.00     0.000 HD 
HETATM   19  H1  UNL     1      -7.823   6.776  67.367  1.00  0.00     0.000 HD 
HETATM   20  C   UNL     1      -8.531  10.700  68.025  1.00  0.00    -0.119 A  
ENDBRANCH   9  12
ENDBRANCH   7   9
ENDBRANCH   4   7
TORSDOF 3
ENDMDL
MODEL      143
REMARK 921   NORMALIZED FREE ENERGY PREDICTED BY IDOCK:   -3.77 KCAL/MOL
REMARK 922        TOTAL FREE ENERGY PREDICTED BY IDOCK:   -4.90 KCAL/MOL
REMARK 923 INTER-LIGAND FREE ENERGY PREDICTED BY IDOCK:   -4.56 KCAL/MOL
REMARK 924 INTRA-LIGAND FREE ENERGY PREDICTED BY IDOCK:   -0.34 KCAL/MOL
REMARK 927      BINDING AFFINITY PREDICTED BY RF-SCORE:    0.00 PKD
ROOT
HETATM    1  C   UNL     1      -5.344   8.659  68.805  1.00  0.00    -0.033 C  
HETATM    2  C   UNL     1      -6.600   9.432  68.813  1.00  0.00    -0.052 A  
HETATM    3  C   UNL     1      -7.229  10.243  67.902  1.00  0.00    -0.085 A  
HETATM    4  C   UNL     1      -8.377  10.695  68.576  1.00  0.00    -0.130 A  
HETATM    5  O   UNL     1      -7.331   9.398  69.961  1.00  0.00    -0.075 OA 
HETATM    6  N   UNL     1      -8.432  10.234  69.828  1.00  0.00    -0.125 NA 
ENDROOT
BRANCH   4   7
HETATM    7  N   UNL     1      -9.279  11.632  68.094  1.00  0.00    -0.178 N  
HETATM    8  H   UNL     1      -8.988  12.592  67.912  1.00  0.00     0.000 HD 
BRANCH   7   9
HETATM    9  S   UNL     1     -10.876  11.144  67.817  1.00  0.00    -0.260 S  
HETATM   10  O   UNL     1     -11.366  11.961  66.723  1.00  0.00    -0.310 OA 
HETATM   11  O   UNL     1     -10.912   9.699  67.756  1.00  0.00    -0.260 OA 
BRANCH   9  12
HETATM   12  C   UNL     1     -11.762  11.673  69.271  1.00  0.00    -0.331 A  
HETATM   13  C   UNL     1     -12.248  10.714  70.169  1.00  0.00    -0.398 A  
HETATM   14  C   UNL     1     -12.905  11.125  71.332  1.00  0.00    -0.544 A  
HETATM   15  C   UNL     1     -13.108  12.482  71.602  1.00  0.00    -0.315 A  
HETATM   16  N   UNL     1     -13.658  12.880  72.825  1.00  0.00    -0.708 NA 
HETATM   17  C   UNL     1     -12.540  13.426  70.741  1.00  0.00    -0.369 A  
HETATM   18  H2  UNL     1     -13.093  12.484  73.576  1.00  0.00     0.000 HD 
HETATM   19  H1  UNL     1     -13.806  13.870  73.022  1.00  0.00     0.000 HD 
HETATM   20  C   UNL     1     -11.888  13.031  69.565  1.00  0.00    -0.385 A  
ENDBRANCH   9  12
ENDBRANCH   7   9
ENDBRANCH   4   7
TORSDOF 3
ENDMDL
MODEL      144
REMARK 921   NORMALIZED FREE ENERGY PREDICTED BY IDOCK:   -3.76 KCAL/MOL
REMARK 922        TOTAL FREE ENERGY PREDICTED BY IDOCK:   -4.88 KCAL/MOL
REMARK 923 INTER-LIGAND FREE ENERGY PREDICTED BY IDOCK:   -4.59 KCAL/MOL
REMARK 924 INTRA-LIGAND FREE ENERGY PREDICTED BY IDOCK:   -0.29 KCAL/MOL
REMARK 927      BINDING AFFINITY PREDICTED BY RF-SCORE:    0.00 PKD
ROOT
HETATM    1  C   UNL     1     -13.233   9.567  72.274  1.00  0.00    -0.507 C  
HETATM    2  C   UNL     1     -12.560  10.482  71.332  1.00  0.00    -0.434 A  
HETATM    3  C   UNL     1     -12.879  11.704  70.796  1.00  0.00    -0.197 A  
HETATM    4  C   UNL     1     -11.806  11.993  69.932  1.00  0.00    -0.331 A  
HETATM    5  O   UNL     1     -11.368  10.068  70.824  1.00  0.00    -0.311 OA 
HETATM    6  N   UNL     1     -10.912  11.002  69.902  1.00  0.00    -0.205 NA 
ENDROOT
BRANCH   4   7
HETATM    7  N   UNL     1     -11.729  13.083  69.079  1.00  0.00    -0.311 N  
HETATM    8  H   UNL     1     -11.693  12.954  68.068  1.00  0.00     0.000 HD 
BRANCH   7   9
HETATM    9  S   UNL     1     -11.693  14.634  69.754  1.00  0.00    -0.332 S  
HETATM   10  O   UNL     1     -13.035  15.167  69.620  1.00  0.00     0.086 OA 
HETATM   11  O   UNL     1     -11.034  14.562  71.040  1.00  0.00     0.108 OA 
BRANCH   9  12
HETATM   12  C   UNL     1     -10.666  15.580  68.644  1.00  0.00    -0.252 A  
HETATM   13  C   UNL     1      -9.792  14.913  67.777  1.00  0.00    -0.217 A  
HETATM   14  C   UNL     1      -9.017  15.648  66.876  1.00  0.00    -0.267 A  
HETATM   15  C   UNL     1      -9.082  17.044  66.843  1.00  0.00    -0.236 A  
HETATM   16  N   UNL     1      -8.393  17.756  65.856  1.00  0.00    -0.531 NA 
HETATM   17  C   UNL     1     -10.023  17.688  67.652  1.00  0.00    -0.323 A  
HETATM   18  H2  UNL     1      -8.677  17.399  64.944  1.00  0.00     0.000 HD 
HETATM   19  H1  UNL     1      -8.441  18.774  65.832  1.00  0.00     0.000 HD 
HETATM   20  C   UNL     1     -10.801  16.967  68.569  1.00  0.00    -0.335 A  
ENDBRANCH   9  12
ENDBRANCH   7   9
ENDBRANCH   4   7
TORSDOF 3
ENDMDL
MODEL      145
REMARK 921   NORMALIZED FREE ENERGY PREDICTED BY IDOCK:   -3.73 KCAL/MOL
REMARK 922        TOTAL FREE ENERGY PREDICTED BY IDOCK:   -4.84 KCAL/MOL
REMARK 923 INTER-LIGAND FREE ENERGY PREDICTED BY IDOCK:   -4.51 KCAL/MOL
REMARK 924 INTRA-LIGAND FREE ENERGY PREDICTED BY IDOCK:   -0.33 KCAL/MOL
REMARK 927      BINDING AFFINITY PREDICTED BY RF-SCORE:    0.00 PKD
ROOT
HETATM    1  C   UNL     1      -6.776   4.588  68.538  1.00  0.00    -0.047 C  
HETATM    2  C   UNL     1      -8.138   4.777  69.070  1.00  0.00    -0.078 A  
HETATM    3  C   UNL     1      -9.061   5.790  68.994  1.00  0.00    -0.123 A  
HETATM    4  C   UNL     1     -10.142   5.331  69.769  1.00  0.00    -0.264 A  
HETATM    5  O   UNL     1      -8.639   3.773  69.839  1.00  0.00    -0.058 OA 
HETATM    6  N   UNL     1      -9.889   4.143  70.320  1.00  0.00    -0.204 NA 
ENDROOT
BRANCH   4   7
HETATM    7  N   UNL     1     -11.279   6.061  70.079  1.00  0.00    -0.382 N  
HETATM    8  H   UNL     1     -12.059   6.117  69.424  1.00  0.00     0.000 HD 
BRANCH   7   9
HETATM    9  S   UNL     1     -11.343   6.860  71.570  1.00  0.00    -0.281 S  
HETATM   10  O   UNL     1     -12.612   6.498  72.171  1.00  0.00    -0.269 OA 
HETATM   11  O   UNL     1     -10.091   6.645  72.261  1.00  0.00    -0.175 OA 
BRANCH   9  12
HETATM   12  C   UNL     1     -11.466   8.587  71.145  1.00  0.00    -0.276 A  
HETATM   13  C   UNL     1     -10.659   9.106  70.125  1.00  0.00    -0.258 A  
HETATM   14  C   UNL     1     -10.783  10.449  69.759  1.00  0.00    -0.325 A  
HETATM   15  C   UNL     1     -11.685  11.293  70.415  1.00  0.00    -0.304 A  
HETATM   16  N   UNL     1     -11.883  12.599  69.958  1.00  0.00    -0.481 NA 
HETATM   17  C   UNL     1     -12.545  10.739  71.368  1.00  0.00    -0.516 A  
HETATM   18  H2  UNL     1     -12.139  12.560  68.971  1.00  0.00     0.000 HD 
HETATM   19  H1  UNL     1     -12.542  13.214  70.436  1.00  0.00     0.000 HD 
HETATM   20  C   UNL     1     -12.426   9.396  71.754  1.00  0.00    -0.471 A  
ENDBRANCH   9  12
ENDBRANCH   7   9
ENDBRANCH   4   7
TORSDOF 3
ENDMDL
MODEL      146
REMARK 921   NORMALIZED FREE ENERGY PREDICTED BY IDOCK:   -3.71 KCAL/MOL
REMARK 922        TOTAL FREE ENERGY PREDICTED BY IDOCK:   -4.82 KCAL/MOL
REMARK 923 INTER-LIGAND FREE ENERGY PREDICTED BY IDOCK:   -4.54 KCAL/MOL
REMARK 924 INTRA-LIGAND FREE ENERGY PREDICTED BY IDOCK:   -0.29 KCAL/MOL
REMARK 927      BINDING AFFINITY PREDICTED BY RF-SCORE:    0.00 PKD
ROOT
HETATM    1  C   UNL     1      -7.105  16.191  67.002  1.00  0.00    -0.248 C  
HETATM    2  C   UNL     1      -8.427  15.570  66.800  1.00  0.00    -0.279 A  
HETATM    3  C   UNL     1      -9.056  14.469  67.326  1.00  0.00    -0.217 A  
HETATM    4  C   UNL     1     -10.295  14.428  66.662  1.00  0.00    -0.275 A  
HETATM    5  O   UNL     1      -9.244  16.154  65.881  1.00  0.00    -0.341 OA 
HETATM    6  N   UNL     1     -10.408  15.405  65.760  1.00  0.00    -0.333 NA 
ENDROOT
BRANCH   4   7
HETATM    7  N   UNL     1     -11.243  13.423  66.783  1.00  0.00    -0.302 N  
HETATM    8  H   UNL     1     -11.916  13.429  67.549  1.00  0.00     0.000 HD 
BRANCH   7   9
HETATM    9  S   UNL     1     -11.255  12.184  65.630  1.00  0.00    -0.337 S  
HETATM   10  O   UNL     1     -12.650  11.874  65.382  1.00  0.00    -0.172 OA 
HETATM   11  O   UNL     1     -10.358  12.547  64.555  1.00  0.00    -0.313 OA 
BRANCH   9  12
HETATM   12  C   UNL     1     -10.575  10.774  66.484  1.00  0.00    -0.218 A  
HETATM   13  C   UNL     1     -10.793  10.629  67.860  1.00  0.00    -0.328 A  
HETATM   14  C   UNL     1     -10.298   9.504  68.525  1.00  0.00    -0.234 A  
HETATM   15  C   UNL     1      -9.565   8.530  67.842  1.00  0.00    -0.152 A  
HETATM   16  N   UNL     1      -9.182   7.353  68.494  1.00  0.00    -0.143 NA 
HETATM   17  C   UNL     1      -9.432   8.644  66.455  1.00  0.00    -0.295 A  
HETATM   18  H2  UNL     1     -10.017   6.914  68.882  1.00  0.00     0.000 HD 
HETATM   19  H1  UNL     1      -8.647   6.642  67.995  1.00  0.00     0.000 HD 
HETATM   20  C   UNL     1      -9.913   9.772  65.774  1.00  0.00    -0.349 A  
ENDBRANCH   9  12
ENDBRANCH   7   9
ENDBRANCH   4   7
TORSDOF 3
ENDMDL
MODEL      147
REMARK 921   NORMALIZED FREE ENERGY PREDICTED BY IDOCK:   -3.70 KCAL/MOL
REMARK 922        TOTAL FREE ENERGY PREDICTED BY IDOCK:   -4.81 KCAL/MOL
REMARK 923 INTER-LIGAND FREE ENERGY PREDICTED BY IDOCK:   -4.46 KCAL/MOL
REMARK 924 INTRA-LIGAND FREE ENERGY PREDICTED BY IDOCK:   -0.35 KCAL/MOL
REMARK 927      BINDING AFFINITY PREDICTED BY RF-SCORE:    0.00 PKD
ROOT
HETATM    1  C   UNL     1     -10.337   5.548  71.679  1.00  0.00    -0.277 C  
HETATM    2  C   UNL     1      -9.715   6.226  70.527  1.00  0.00    -0.173 A  
HETATM    3  C   UNL     1      -9.724   7.516  70.058  1.00  0.00    -0.172 A  
HETATM    4  C   UNL     1      -8.951   7.462  68.884  1.00  0.00    -0.130 A  
HETATM    5  O   UNL     1      -8.977   5.450  69.686  1.00  0.00    -0.107 OA 
HETATM    6  N   UNL     1      -8.532   6.222  68.621  1.00  0.00    -0.122 NA 
ENDROOT
BRANCH   4   7
HETATM    7  N   UNL     1      -8.760   8.509  67.995  1.00  0.00    -0.141 N  
HETATM    8  H   UNL     1      -7.991   9.167  68.120  1.00  0.00     0.000 HD 
BRANCH   7   9
HETATM    9  S   UNL     1      -9.835   8.672  66.698  1.00  0.00    -0.285 S  
HETATM   10  O   UNL     1      -9.021   8.707  65.498  1.00  0.00    -0.192 OA 
HETATM   11  O   UNL     1     -10.901   7.708  66.860  1.00  0.00    -0.328 OA 
BRANCH   9  12
HETATM   12  C   UNL     1     -10.517  10.309  66.887  1.00  0.00    -0.229 A  
HETATM   13  C   UNL     1     -10.554  11.172  65.785  1.00  0.00    -0.289 A  
HETATM   14  C   UNL     1     -11.127  12.440  65.919  1.00  0.00    -0.349 A  
HETATM   15  C   UNL     1     -11.642  12.872  67.144  1.00  0.00    -0.363 A  
HETATM   16  N   UNL     1     -12.319  14.092  67.231  1.00  0.00    -0.576 NA 
HETATM   17  C   UNL     1     -11.677  11.966  68.209  1.00  0.00    -0.385 A  
HETATM   18  H2  UNL     1     -13.076  14.090  66.547  1.00  0.00     0.000 HD 
HETATM   19  H1  UNL     1     -12.695  14.406  68.126  1.00  0.00     0.000 HD 
HETATM   20  C   UNL     1     -11.097  10.695  68.096  1.00  0.00    -0.343 A  
ENDBRANCH   9  12
ENDBRANCH   7   9
ENDBRANCH   4   7
TORSDOF 3
ENDMDL
MODEL      148
REMARK 921   NORMALIZED FREE ENERGY PREDICTED BY IDOCK:   -3.69 KCAL/MOL
REMARK 922        TOTAL FREE ENERGY PREDICTED BY IDOCK:   -4.80 KCAL/MOL
REMARK 923 INTER-LIGAND FREE ENERGY PREDICTED BY IDOCK:   -4.62 KCAL/MOL
REMARK 924 INTRA-LIGAND FREE ENERGY PREDICTED BY IDOCK:   -0.18 KCAL/MOL
REMARK 927      BINDING AFFINITY PREDICTED BY RF-SCORE:    0.00 PKD
ROOT
HETATM    1  C   UNL     1     -12.490  10.117  71.416  1.00  0.00    -0.524 C  
HETATM    2  C   UNL     1     -11.436  10.370  70.417  1.00  0.00    -0.337 A  
HETATM    3  C   UNL     1     -11.369  11.116  69.267  1.00  0.00    -0.349 A  
HETATM    4  C   UNL     1     -10.073  10.879  68.776  1.00  0.00    -0.194 A  
HETATM    5  O   UNL     1     -10.249   9.730  70.603  1.00  0.00    -0.279 OA 
HETATM    6  N   UNL     1      -9.402  10.015  69.540  1.00  0.00    -0.220 NA 
ENDROOT
BRANCH   4   7
HETATM    7  N   UNL     1      -9.572  11.338  67.566  1.00  0.00    -0.169 N  
HETATM    8  H   UNL     1      -9.994  11.050  66.683  1.00  0.00     0.000 HD 
BRANCH   7   9
HETATM    9  S   UNL     1      -8.243  12.385  67.589  1.00  0.00    -0.182 S  
HETATM   10  O   UNL     1      -7.887  12.559  68.984  1.00  0.00     0.058 OA 
HETATM   11  O   UNL     1      -7.278  11.926  66.614  1.00  0.00    -0.062 OA 
BRANCH   9  12
HETATM   12  C   UNL     1      -8.900  13.950  67.042  1.00  0.00    -0.218 A  
HETATM   13  C   UNL     1      -8.104  15.099  67.124  1.00  0.00    -0.245 A  
HETATM   14  C   UNL     1      -8.600  16.319  66.657  1.00  0.00    -0.302 A  
HETATM   15  C   UNL     1      -9.891  16.417  66.130  1.00  0.00    -0.338 A  
HETATM   16  N   UNL     1     -10.327  17.616  65.556  1.00  0.00    -0.632 NA 
HETATM   17  C   UNL     1     -10.638  15.246  65.973  1.00  0.00    -0.327 A  
HETATM   18  H2  UNL     1      -9.662  17.886  64.831  1.00  0.00     0.000 HD 
HETATM   19  H1  UNL     1     -11.269  17.687  65.171  1.00  0.00     0.000 HD 
HETATM   20  C   UNL     1     -10.161  14.016  66.447  1.00  0.00    -0.299 A  
ENDBRANCH   9  12
ENDBRANCH   7   9
ENDBRANCH   4   7
TORSDOF 3
ENDMDL
MODEL      149
REMARK 921   NORMALIZED FREE ENERGY PREDICTED BY IDOCK:   -3.68 KCAL/MOL
REMARK 922        TOTAL FREE ENERGY PREDICTED BY IDOCK:   -4.79 KCAL/MOL
REMARK 923 INTER-LIGAND FREE ENERGY PREDICTED BY IDOCK:   -5.37 KCAL/MOL
REMARK 924 INTRA-LIGAND FREE ENERGY PREDICTED BY IDOCK:    0.58 KCAL/MOL
REMARK 927      BINDING AFFINITY PREDICTED BY RF-SCORE:    0.00 PKD
ROOT
HETATM    1  C   UNL     1      -7.986   9.408  63.541  1.00  0.00    -0.141 C  
HETATM    2  C   UNL     1      -9.149  10.297  63.716  1.00  0.00    -0.256 A  
HETATM    3  C   UNL     1      -9.932  10.646  64.789  1.00  0.00    -0.391 A  
HETATM    4  C   UNL     1     -10.900  11.509  64.244  1.00  0.00    -0.359 A  
HETATM    5  O   UNL     1      -9.618  10.919  62.600  1.00  0.00    -0.289 OA 
HETATM    6  N   UNL     1     -10.754  11.649  62.925  1.00  0.00    -0.068 NA 
ENDROOT
BRANCH   4   7
HETATM    7  N   UNL     1     -11.983  12.040  64.927  1.00  0.00    -0.274 N  
HETATM    8  H   UNL     1     -12.537  11.462  65.559  1.00  0.00     0.000 HD 
BRANCH   7   9
HETATM    9  S   UNL     1     -12.366  13.671  64.688  1.00  0.00    -0.346 S  
HETATM   10  O   UNL     1     -12.300  13.898  63.258  1.00  0.00    -0.749 OA 
HETATM   11  O   UNL     1     -13.558  13.980  65.448  1.00  0.00    -0.593 OA 
BRANCH   9  12
HETATM   12  C   UNL     1     -10.994  14.560  65.400  1.00  0.00    -0.342 A  
HETATM   13  C   UNL     1      -9.940  13.848  65.985  1.00  0.00    -0.325 A  
HETATM   14  C   UNL     1      -8.843  14.539  66.506  1.00  0.00    -0.156 A  
HETATM   15  C   UNL     1      -8.791  15.935  66.474  1.00  0.00    -0.305 A  
HETATM   16  N   UNL     1      -7.635  16.605  66.888  1.00  0.00    -0.201 NA 
HETATM   17  C   UNL     1      -9.808  16.626  65.808  1.00  0.00    -0.241 A  
HETATM   18  H2  UNL     1      -6.845  16.242  66.355  1.00  0.00     0.000 HD 
HETATM   19  H1  UNL     1      -7.597  17.624  66.864  1.00  0.00     0.000 HD 
HETATM   20  C   UNL     1     -10.921  15.949  65.290  1.00  0.00    -0.334 A  
ENDBRANCH   9  12
ENDBRANCH   7   9
ENDBRANCH   4   7
TORSDOF 3
ENDMDL
MODEL      150
REMARK 921   NORMALIZED FREE ENERGY PREDICTED BY IDOCK:   -3.68 KCAL/MOL
REMARK 922        TOTAL FREE ENERGY PREDICTED BY IDOCK:   -4.78 KCAL/MOL
REMARK 923 INTER-LIGAND FREE ENERGY PREDICTED BY IDOCK:   -4.64 KCAL/MOL
REMARK 924 INTRA-LIGAND FREE ENERGY PREDICTED BY IDOCK:   -0.14 KCAL/MOL
REMARK 927      BINDING AFFINITY PREDICTED BY RF-SCORE:    0.00 PKD
ROOT
HETATM    1  C   UNL     1     -12.066  14.825  64.373  1.00  0.00    -0.457 C  
HETATM    2  C   UNL     1     -11.299  13.651  64.828  1.00  0.00    -0.354 A  
HETATM    3  C   UNL     1     -11.018  13.112  66.059  1.00  0.00    -0.295 A  
HETATM    4  C   UNL     1     -10.194  12.008  65.773  1.00  0.00    -0.242 A  
HETATM    5  O   UNL     1     -10.684  12.911  63.865  1.00  0.00    -0.406 OA 
HETATM    6  N   UNL     1      -9.946  11.898  64.466  1.00  0.00    -0.249 NA 
ENDROOT
BRANCH   4   7
HETATM    7  N   UNL     1      -9.565  11.206  66.713  1.00  0.00    -0.189 N  
HETATM    8  H   UNL     1      -8.589  11.362  66.963  1.00  0.00     0.000 HD 
BRANCH   7   9
HETATM    9  S   UNL     1     -10.455   9.961  67.436  1.00  0.00    -0.272 S  
HETATM   10  O   UNL     1     -11.714  10.550  67.850  1.00  0.00    -0.453 OA 
HETATM   11  O   UNL     1     -10.411   8.802  66.571  1.00  0.00    -0.279 OA 
BRANCH   9  12
HETATM   12  C   UNL     1      -9.562   9.587  68.933  1.00  0.00    -0.156 A  
HETATM   13  C   UNL     1      -8.187   9.845  68.999  1.00  0.00    -0.124 A  
HETATM   14  C   UNL     1      -7.492   9.594  70.185  1.00  0.00    -0.157 A  
HETATM   15  C   UNL     1      -8.143   9.062  71.302  1.00  0.00    -0.094 A  
HETATM   16  N   UNL     1      -7.462   8.930  72.516  1.00  0.00    -0.345 NA 
HETATM   17  C   UNL     1      -9.530   8.893  71.248  1.00  0.00    -0.343 A  
HETATM   18  H2  UNL     1      -7.078   9.840  72.770  1.00  0.00     0.000 HD 
HETATM   19  H1  UNL     1      -7.937   8.543  73.331  1.00  0.00     0.000 HD 
HETATM   20  C   UNL     1     -10.241   9.131  70.063  1.00  0.00    -0.229 A  
ENDBRANCH   9  12
ENDBRANCH   7   9
ENDBRANCH   4   7
TORSDOF 3
ENDMDL
MODEL      151
REMARK 921   NORMALIZED FREE ENERGY PREDICTED BY IDOCK:   -3.68 KCAL/MOL
REMARK 922        TOTAL FREE ENERGY PREDICTED BY IDOCK:   -4.78 KCAL/MOL
REMARK 923 INTER-LIGAND FREE ENERGY PREDICTED BY IDOCK:   -4.43 KCAL/MOL
REMARK 924 INTRA-LIGAND FREE ENERGY PREDICTED BY IDOCK:   -0.36 KCAL/MOL
REMARK 927      BINDING AFFINITY PREDICTED BY RF-SCORE:    0.00 PKD
ROOT
HETATM    1  C   UNL     1      -9.512  16.906  67.658  1.00  0.00    -0.241 C  
HETATM    2  C   UNL     1     -10.249  15.727  68.148  1.00  0.00    -0.230 A  
HETATM    3  C   UNL     1     -10.087  14.871  69.210  1.00  0.00    -0.201 A  
HETATM    4  C   UNL     1     -11.127  13.936  69.062  1.00  0.00    -0.268 A  
HETATM    5  O   UNL     1     -11.324  15.329  67.414  1.00  0.00    -0.333 OA 
HETATM    6  N   UNL     1     -11.852  14.168  67.966  1.00  0.00    -0.360 NA 
ENDROOT
BRANCH   4   7
HETATM    7  N   UNL     1     -11.312  12.805  69.843  1.00  0.00    -0.504 N  
HETATM    8  H   UNL     1     -11.481  12.885  70.846  1.00  0.00     0.000 HD 
BRANCH   7   9
HETATM    9  S   UNL     1     -11.251  11.289  69.095  1.00  0.00    -0.300 S  
HETATM   10  O   UNL     1     -10.972  10.329  70.144  1.00  0.00    -0.278 OA 
HETATM   11  O   UNL     1     -12.405  11.154  68.233  1.00  0.00    -0.532 OA 
BRANCH   9  12
HETATM   12  C   UNL     1      -9.789  11.354  68.076  1.00  0.00    -0.184 A  
HETATM   13  C   UNL     1      -8.526  11.260  68.675  1.00  0.00    -0.143 A  
HETATM   14  C   UNL     1      -7.379  11.268  67.877  1.00  0.00    -0.092 A  
HETATM   15  C   UNL     1      -7.470  11.394  66.487  1.00  0.00    -0.068 A  
HETATM   16  N   UNL     1      -6.324  11.278  65.695  1.00  0.00    -0.361 NA 
HETATM   17  C   UNL     1      -8.739  11.397  65.899  1.00  0.00    -0.101 A  
HETATM   18  H2  UNL     1      -5.874  10.388  65.908  1.00  0.00     0.000 HD 
HETATM   19  H1  UNL     1      -6.391  11.369  64.681  1.00  0.00     0.000 HD 
HETATM   20  C   UNL     1      -9.900  11.401  66.686  1.00  0.00    -0.233 A  
ENDBRANCH   9  12
ENDBRANCH   7   9
ENDBRANCH   4   7
TORSDOF 3
ENDMDL
MODEL      152
REMARK 921   NORMALIZED FREE ENERGY PREDICTED BY IDOCK:   -3.67 KCAL/MOL
REMARK 922        TOTAL FREE ENERGY PREDICTED BY IDOCK:   -4.78 KCAL/MOL
REMARK 923 INTER-LIGAND FREE ENERGY PREDICTED BY IDOCK:   -4.47 KCAL/MOL
REMARK 924 INTRA-LIGAND FREE ENERGY PREDICTED BY IDOCK:   -0.31 KCAL/MOL
REMARK 927      BINDING AFFINITY PREDICTED BY RF-SCORE:    0.00 PKD
ROOT
HETATM    1  C   UNL     1      -9.122   5.389  67.534  1.00  0.00    -0.107 C  
HETATM    2  C   UNL     1     -10.045   5.647  68.654  1.00  0.00    -0.183 A  
HETATM    3  C   UNL     1     -11.057   6.549  68.870  1.00  0.00    -0.371 A  
HETATM    4  C   UNL     1     -11.498   6.268  70.176  1.00  0.00    -0.382 A  
HETATM    5  O   UNL     1      -9.894   4.871  69.762  1.00  0.00    -0.182 OA 
HETATM    6  N   UNL     1     -10.783   5.294  70.743  1.00  0.00    -0.183 NA 
ENDROOT
BRANCH   4   7
HETATM    7  N   UNL     1     -12.445   6.995  70.882  1.00  0.00    -0.543 N  
HETATM    8  H   UNL     1     -13.396   6.645  70.993  1.00  0.00     0.000 HD 
BRANCH   7   9
HETATM    9  S   UNL     1     -11.985   8.479  71.553  1.00  0.00    -0.319 S  
HETATM   10  O   UNL     1     -11.890   9.413  70.448  1.00  0.00    -0.212 OA 
HETATM   11  O   UNL     1     -12.827   8.746  72.699  1.00  0.00    -0.383 OA 
BRANCH   9  12
HETATM   12  C   UNL     1     -10.318   8.211  72.126  1.00  0.00    -0.274 A  
HETATM   13  C   UNL     1      -9.242   8.682  71.362  1.00  0.00    -0.303 A  
HETATM   14  C   UNL     1      -7.936   8.512  71.828  1.00  0.00    -0.177 A  
HETATM   15  C   UNL     1      -7.682   7.855  73.036  1.00  0.00    -0.127 A  
HETATM   16  N   UNL     1      -6.381   7.801  73.547  1.00  0.00    -0.070 NA 
HETATM   17  C   UNL     1      -8.769   7.471  73.828  1.00  0.00    -0.270 A  
HETATM   18  H2  UNL     1      -6.023   8.753  73.617  1.00  0.00     0.000 HD 
HETATM   19  H1  UNL     1      -6.197   7.322  74.428  1.00  0.00     0.000 HD 
HETATM   20  C   UNL     1     -10.085   7.624  73.370  1.00  0.00    -0.379 A  
ENDBRANCH   9  12
ENDBRANCH   7   9
ENDBRANCH   4   7
TORSDOF 3
ENDMDL
MODEL      153
REMARK 921   NORMALIZED FREE ENERGY PREDICTED BY IDOCK:   -3.65 KCAL/MOL
REMARK 922        TOTAL FREE ENERGY PREDICTED BY IDOCK:   -4.75 KCAL/MOL
REMARK 923 INTER-LIGAND FREE ENERGY PREDICTED BY IDOCK:   -4.46 KCAL/MOL
REMARK 924 INTRA-LIGAND FREE ENERGY PREDICTED BY IDOCK:   -0.29 KCAL/MOL
REMARK 927      BINDING AFFINITY PREDICTED BY RF-SCORE:    0.00 PKD
ROOT
HETATM    1  C   UNL     1     -12.133  13.308  63.425  1.00  0.00    -0.508 C  
HETATM    2  C   UNL     1     -11.374  12.372  64.275  1.00  0.00    -0.360 A  
HETATM    3  C   UNL     1     -10.934  12.405  65.575  1.00  0.00    -0.328 A  
HETATM    4  C   UNL     1     -10.234  11.195  65.733  1.00  0.00    -0.257 A  
HETATM    5  O   UNL     1     -10.965  11.212  63.694  1.00  0.00    -0.349 OA 
HETATM    6  N   UNL     1     -10.204  10.487  64.602  1.00  0.00    -0.340 NA 
ENDROOT
BRANCH   4   7
HETATM    7  N   UNL     1      -9.512  10.822  66.857  1.00  0.00    -0.167 N  
HETATM    8  H   UNL     1      -8.509  10.996  66.916  1.00  0.00     0.000 HD 
BRANCH   7   9
HETATM    9  S   UNL     1     -10.335  10.069  68.130  1.00  0.00    -0.207 S  
HETATM   10  O   UNL     1      -9.632  10.436  69.343  1.00  0.00    -0.217 OA 
HETATM   11  O   UNL     1     -11.752  10.317  67.973  1.00  0.00    -0.293 OA 
BRANCH   9  12
HETATM   12  C   UNL     1     -10.035   8.328  67.886  1.00  0.00    -0.183 A  
HETATM   13  C   UNL     1      -8.991   7.704  68.579  1.00  0.00    -0.129 A  
HETATM   14  C   UNL     1      -8.779   6.332  68.424  1.00  0.00    -0.116 A  
HETATM   15  C   UNL     1      -9.580   5.573  67.565  1.00  0.00    -0.122 A  
HETATM   16  N   UNL     1      -9.434   4.183  67.513  1.00  0.00    -0.175 NA 
HETATM   17  C   UNL     1     -10.672   6.193  66.950  1.00  0.00    -0.413 A  
HETATM   18  H2  UNL     1      -9.536   3.813  68.458  1.00  0.00     0.000 HD 
HETATM   19  H1  UNL     1     -10.019   3.630  66.886  1.00  0.00     0.000 HD 
HETATM   20  C   UNL     1     -10.892   7.570  67.086  1.00  0.00    -0.298 A  
ENDBRANCH   9  12
ENDBRANCH   7   9
ENDBRANCH   4   7
TORSDOF 3
ENDMDL
MODEL      154
REMARK 921   NORMALIZED FREE ENERGY PREDICTED BY IDOCK:   -3.64 KCAL/MOL
REMARK 922        TOTAL FREE ENERGY PREDICTED BY IDOCK:   -4.74 KCAL/MOL
REMARK 923 INTER-LIGAND FREE ENERGY PREDICTED BY IDOCK:   -4.56 KCAL/MOL
REMARK 924 INTRA-LIGAND FREE ENERGY PREDICTED BY IDOCK:   -0.19 KCAL/MOL
REMARK 927      BINDING AFFINITY PREDICTED BY RF-SCORE:    0.00 PKD
ROOT
HETATM    1  C   UNL     1      -6.049   9.940  68.992  1.00  0.00    -0.040 C  
HETATM    2  C   UNL     1      -7.160  10.672  68.357  1.00  0.00    -0.078 A  
HETATM    3  C   UNL     1      -8.519  10.699  68.550  1.00  0.00    -0.136 A  
HETATM    4  C   UNL     1      -8.989  11.590  67.567  1.00  0.00    -0.159 A  
HETATM    5  O   UNL     1      -6.838  11.498  67.326  1.00  0.00    -0.097 OA 
HETATM    6  N   UNL     1      -8.000  12.044  66.795  1.00  0.00    -0.111 NA 
ENDROOT
BRANCH   4   7
HETATM    7  N   UNL     1     -10.322  11.862  67.297  1.00  0.00    -0.203 N  
HETATM    8  H   UNL     1     -10.937  11.140  66.922  1.00  0.00     0.000 HD 
BRANCH   7   9
HETATM    9  S   UNL     1     -10.904  13.421  67.603  1.00  0.00    -0.264 S  
HETATM   10  O   UNL     1      -9.738  14.253  67.829  1.00  0.00    -0.215 OA 
HETATM   11  O   UNL     1     -11.885  13.753  66.593  1.00  0.00    -0.366 OA 
BRANCH   9  12
HETATM   12  C   UNL     1     -11.733  13.286  69.176  1.00  0.00    -0.329 A  
HETATM   13  C   UNL     1     -12.306  14.426  69.754  1.00  0.00    -0.333 A  
HETATM   14  C   UNL     1     -12.994  14.316  70.965  1.00  0.00    -0.411 A  
HETATM   15  C   UNL     1     -13.099  13.088  71.624  1.00  0.00    -0.347 A  
HETATM   16  N   UNL     1     -13.892  12.971  72.770  1.00  0.00    -0.688 NA 
HETATM   17  C   UNL     1     -12.599  11.945  70.991  1.00  0.00    -0.381 A  
HETATM   18  H2  UNL     1     -14.832  13.296  72.546  1.00  0.00     0.000 HD 
HETATM   19  H1  UNL     1     -13.969  12.074  73.251  1.00  0.00     0.000 HD 
HETATM   20  C   UNL     1     -11.897  12.040  69.781  1.00  0.00    -0.401 A  
ENDBRANCH   9  12
ENDBRANCH   7   9
ENDBRANCH   4   7
TORSDOF 3
ENDMDL
MODEL      155
REMARK 921   NORMALIZED FREE ENERGY PREDICTED BY IDOCK:   -3.64 KCAL/MOL
REMARK 922        TOTAL FREE ENERGY PREDICTED BY IDOCK:   -4.74 KCAL/MOL
REMARK 923 INTER-LIGAND FREE ENERGY PREDICTED BY IDOCK:   -4.42 KCAL/MOL
REMARK 924 INTRA-LIGAND FREE ENERGY PREDICTED BY IDOCK:   -0.32 KCAL/MOL
REMARK 927      BINDING AFFINITY PREDICTED BY RF-SCORE:    0.00 PKD
ROOT
HETATM    1  C   UNL     1     -13.092  10.459  71.744  1.00  0.00    -0.567 C  
HETATM    2  C   UNL     1     -12.299   9.249  71.461  1.00  0.00    -0.360 A  
HETATM    3  C   UNL     1     -11.006   9.027  71.055  1.00  0.00    -0.352 A  
HETATM    4  C   UNL     1     -10.916   7.628  70.938  1.00  0.00    -0.250 A  
HETATM    5  O   UNL     1     -12.940   8.054  71.583  1.00  0.00    -0.321 OA 
HETATM    6  N   UNL     1     -12.079   7.031  71.208  1.00  0.00    -0.342 NA 
ENDROOT
BRANCH   4   7
HETATM    7  N   UNL     1      -9.823   6.929  70.451  1.00  0.00    -0.179 N  
HETATM    8  H   UNL     1      -9.039   6.694  71.059  1.00  0.00     0.000 HD 
BRANCH   7   9
HETATM    9  S   UNL     1      -9.819   6.474  68.821  1.00  0.00    -0.144 S  
HETATM   10  O   UNL     1      -8.629   5.669  68.626  1.00  0.00    -0.104 OA 
HETATM   11  O   UNL     1     -11.133   5.975  68.479  1.00  0.00    -0.313 OA 
BRANCH   9  12
HETATM   12  C   UNL     1      -9.542   7.996  67.934  1.00  0.00    -0.155 A  
HETATM   13  C   UNL     1      -8.232   8.445  67.726  1.00  0.00    -0.126 A  
HETATM   14  C   UNL     1      -8.009   9.615  66.995  1.00  0.00    -0.109 A  
HETATM   15  C   UNL     1      -9.077  10.361  66.488  1.00  0.00    -0.155 A  
HETATM   16  N   UNL     1      -8.835  11.460  65.658  1.00  0.00    -0.369 NA 
HETATM   17  C   UNL     1     -10.372   9.853  66.628  1.00  0.00    -0.275 A  
HETATM   18  H2  UNL     1      -8.258  11.151  64.875  1.00  0.00     0.000 HD 
HETATM   19  H1  UNL     1      -9.614  12.004  65.287  1.00  0.00     0.000 HD 
HETATM   20  C   UNL     1     -10.614   8.687  67.368  1.00  0.00    -0.298 A  
ENDBRANCH   9  12
ENDBRANCH   7   9
ENDBRANCH   4   7
TORSDOF 3
ENDMDL
MODEL      156
REMARK 921   NORMALIZED FREE ENERGY PREDICTED BY IDOCK:   -3.61 KCAL/MOL
REMARK 922        TOTAL FREE ENERGY PREDICTED BY IDOCK:   -4.70 KCAL/MOL
REMARK 923 INTER-LIGAND FREE ENERGY PREDICTED BY IDOCK:   -4.36 KCAL/MOL
REMARK 924 INTRA-LIGAND FREE ENERGY PREDICTED BY IDOCK:   -0.34 KCAL/MOL
REMARK 927      BINDING AFFINITY PREDICTED BY RF-SCORE:    0.00 PKD
ROOT
HETATM    1  C   UNL     1      -7.321  16.235  66.731  1.00  0.00    -0.244 C  
HETATM    2  C   UNL     1      -8.588  15.501  66.901  1.00  0.00    -0.256 A  
HETATM    3  C   UNL     1      -9.098  14.689  67.884  1.00  0.00    -0.189 A  
HETATM    4  C   UNL     1     -10.350  14.287  67.384  1.00  0.00    -0.259 A  
HETATM    5  O   UNL     1      -9.483  15.581  65.879  1.00  0.00    -0.331 OA 
HETATM    6  N   UNL     1     -10.579  14.776  66.164  1.00  0.00    -0.301 NA 
ENDROOT
BRANCH   4   7
HETATM    7  N   UNL     1     -11.199  13.368  67.982  1.00  0.00    -0.256 N  
HETATM    8  H   UNL     1     -11.621  13.560  68.890  1.00  0.00     0.000 HD 
BRANCH   7   9
HETATM    9  S   UNL     1     -11.518  11.918  67.170  1.00  0.00    -0.292 S  
HETATM   10  O   UNL     1     -12.160  11.045  68.133  1.00  0.00    -0.610 OA 
HETATM   11  O   UNL     1     -12.139  12.228  65.900  1.00  0.00    -0.609 OA 
BRANCH   9  12
HETATM   12  C   UNL     1      -9.908  11.219  66.857  1.00  0.00    -0.193 A  
HETATM   13  C   UNL     1      -9.177  10.669  67.917  1.00  0.00    -0.150 A  
HETATM   14  C   UNL     1      -7.933  10.082  67.669  1.00  0.00    -0.105 A  
HETATM   15  C   UNL     1      -7.393  10.057  66.380  1.00  0.00    -0.104 A  
HETATM   16  N   UNL     1      -6.207   9.360  66.128  1.00  0.00    -0.066 NA 
HETATM   17  C   UNL     1      -8.174  10.530  65.320  1.00  0.00    -0.146 A  
HETATM   18  H2  UNL     1      -6.325   8.399  66.445  1.00  0.00     0.000 HD 
HETATM   19  H1  UNL     1      -5.814   9.342  65.187  1.00  0.00     0.000 HD 
HETATM   20  C   UNL     1      -9.419  11.132  65.553  1.00  0.00    -0.251 A  
ENDBRANCH   9  12
ENDBRANCH   7   9
ENDBRANCH   4   7
TORSDOF 3
ENDMDL
MODEL      157
REMARK 921   NORMALIZED FREE ENERGY PREDICTED BY IDOCK:   -3.59 KCAL/MOL
REMARK 922        TOTAL FREE ENERGY PREDICTED BY IDOCK:   -4.69 KCAL/MOL
REMARK 923 INTER-LIGAND FREE ENERGY PREDICTED BY IDOCK:   -4.85 KCAL/MOL
REMARK 924 INTRA-LIGAND FREE ENERGY PREDICTED BY IDOCK:    0.16 KCAL/MOL
REMARK 927      BINDING AFFINITY PREDICTED BY RF-SCORE:    0.00 PKD
ROOT
HETATM    1  C   UNL     1     -13.843   8.625  72.201  1.00  0.00    -0.482 C  
HETATM    2  C   UNL     1     -12.689   9.250  71.528  1.00  0.00    -0.350 A  
HETATM    3  C   UNL     1     -12.500  10.430  70.854  1.00  0.00    -0.478 A  
HETATM    4  C   UNL     1     -11.160  10.376  70.430  1.00  0.00    -0.296 A  
HETATM    5  O   UNL     1     -11.530   8.536  71.513  1.00  0.00    -0.258 OA 
HETATM    6  N   UNL     1     -10.575   9.228  70.778  1.00  0.00    -0.259 NA 
ENDROOT
BRANCH   4   7
HETATM    7  N   UNL     1     -10.534  11.305  69.613  1.00  0.00    -0.445 N  
HETATM    8  H   UNL     1      -9.592  11.138  69.258  1.00  0.00     0.000 HD 
BRANCH   7   9
HETATM    9  S   UNL     1     -11.369  12.723  69.218  1.00  0.00    -0.215 S  
HETATM   10  O   UNL     1     -12.181  12.407  68.059  1.00  0.00    -0.356 OA 
HETATM   11  O   UNL     1     -11.953  13.265  70.426  1.00  0.00    -0.332 OA 
BRANCH   9  12
HETATM   12  C   UNL     1     -10.102  13.842  68.651  1.00  0.00    -0.203 A  
HETATM   13  C   UNL     1      -9.967  15.097  69.258  1.00  0.00    -0.243 A  
HETATM   14  C   UNL     1      -8.948  15.960  68.846  1.00  0.00    -0.228 A  
HETATM   15  C   UNL     1      -8.074  15.600  67.816  1.00  0.00    -0.146 A  
HETATM   16  N   UNL     1      -6.987  16.421  67.498  1.00  0.00    -0.134 NA 
HETATM   17  C   UNL     1      -8.166  14.311  67.281  1.00  0.00    -0.212 A  
HETATM   18  H2  UNL     1      -6.440  16.573  68.345  1.00  0.00     0.000 HD 
HETATM   19  H1  UNL     1      -6.349  16.158  66.746  1.00  0.00     0.000 HD 
HETATM   20  C   UNL     1      -9.189  13.438  67.676  1.00  0.00    -0.212 A  
ENDBRANCH   9  12
ENDBRANCH   7   9
ENDBRANCH   4   7
TORSDOF 3
ENDMDL
MODEL      158
REMARK 921   NORMALIZED FREE ENERGY PREDICTED BY IDOCK:   -3.58 KCAL/MOL
REMARK 922        TOTAL FREE ENERGY PREDICTED BY IDOCK:   -4.67 KCAL/MOL
REMARK 923 INTER-LIGAND FREE ENERGY PREDICTED BY IDOCK:   -4.58 KCAL/MOL
REMARK 924 INTRA-LIGAND FREE ENERGY PREDICTED BY IDOCK:   -0.10 KCAL/MOL
REMARK 927      BINDING AFFINITY PREDICTED BY RF-SCORE:    0.00 PKD
ROOT
HETATM    1  C   UNL     1      -9.776   8.229  73.029  1.00  0.00    -0.276 C  
HETATM    2  C   UNL     1     -10.533   8.689  71.850  1.00  0.00    -0.340 A  
HETATM    3  C   UNL     1     -10.185   9.046  70.571  1.00  0.00    -0.268 A  
HETATM    4  C   UNL     1     -11.401   9.425  69.976  1.00  0.00    -0.141 A  
HETATM    5  O   UNL     1     -11.876   8.841  72.007  1.00  0.00    -0.333 OA 
HETATM    6  N   UNL     1     -12.420   9.351  70.835  1.00  0.00    -0.222 NA 
ENDROOT
BRANCH   4   7
HETATM    7  N   UNL     1     -11.544   9.968  68.707  1.00  0.00    -0.502 N  
HETATM    8  H   UNL     1     -11.650   9.367  67.891  1.00  0.00     0.000 HD 
BRANCH   7   9
HETATM    9  S   UNL     1     -11.536  11.653  68.546  1.00  0.00    -0.327 S  
HETATM   10  O   UNL     1     -12.267  11.948  67.330  1.00  0.00    -0.495 OA 
HETATM   11  O   UNL     1     -11.911  12.238  69.815  1.00  0.00    -0.314 OA 
BRANCH   9  12
HETATM   12  C   UNL     1      -9.832  12.060  68.217  1.00  0.00    -0.204 A  
HETATM   13  C   UNL     1      -8.873  11.040  68.180  1.00  0.00    -0.141 A  
HETATM   14  C   UNL     1      -7.544  11.350  67.879  1.00  0.00    -0.108 A  
HETATM   15  C   UNL     1      -7.149  12.669  67.639  1.00  0.00    -0.139 A  
HETATM   16  N   UNL     1      -5.844  12.947  67.221  1.00  0.00    -0.370 NA 
HETATM   17  C   UNL     1      -8.133  13.662  67.592  1.00  0.00    -0.179 A  
HETATM   18  H2  UNL     1      -5.649  12.396  66.385  1.00  0.00     0.000 HD 
HETATM   19  H1  UNL     1      -5.556  13.910  67.045  1.00  0.00     0.000 HD 
HETATM   20  C   UNL     1      -9.469  13.370  67.902  1.00  0.00    -0.216 A  
ENDBRANCH   9  12
ENDBRANCH   7   9
ENDBRANCH   4   7
TORSDOF 3
ENDMDL
MODEL      159
REMARK 921   NORMALIZED FREE ENERGY PREDICTED BY IDOCK:   -3.57 KCAL/MOL
REMARK 922        TOTAL FREE ENERGY PREDICTED BY IDOCK:   -4.66 KCAL/MOL
REMARK 923 INTER-LIGAND FREE ENERGY PREDICTED BY IDOCK:   -4.81 KCAL/MOL
REMARK 924 INTRA-LIGAND FREE ENERGY PREDICTED BY IDOCK:    0.15 KCAL/MOL
REMARK 927      BINDING AFFINITY PREDICTED BY RF-SCORE:    0.00 PKD
ROOT
HETATM    1  C   UNL     1     -14.048  15.497  72.221  1.00  0.00    -0.637 C  
HETATM    2  C   UNL     1     -12.923  15.202  71.314  1.00  0.00    -0.407 A  
HETATM    3  C   UNL     1     -12.597  14.137  70.512  1.00  0.00    -0.410 A  
HETATM    4  C   UNL     1     -11.360  14.496  69.947  1.00  0.00    -0.241 A  
HETATM    5  O   UNL     1     -11.942  16.142  71.230  1.00  0.00    -0.427 OA 
HETATM    6  N   UNL     1     -10.930  15.675  70.400  1.00  0.00    -0.326 NA 
ENDROOT
BRANCH   4   7
HETATM    7  N   UNL     1     -10.575  13.683  69.143  1.00  0.00    -0.429 N  
HETATM    8  H   UNL     1      -9.696  14.026  68.754  1.00  0.00     0.000 HD 
BRANCH   7   9
HETATM    9  S   UNL     1     -11.109  12.111  68.819  1.00  0.00    -0.265 S  
HETATM   10  O   UNL     1     -11.364  11.495  70.107  1.00  0.00    -0.215 OA 
HETATM   11  O   UNL     1     -12.130  12.173  67.796  1.00  0.00    -0.508 OA 
BRANCH   9  12
HETATM   12  C   UNL     1      -9.680  11.285  68.144  1.00  0.00    -0.185 A  
HETATM   13  C   UNL     1      -8.870  10.511  68.984  1.00  0.00    -0.174 A  
HETATM   14  C   UNL     1      -7.774   9.827  68.451  1.00  0.00    -0.081 A  
HETATM   15  C   UNL     1      -7.457   9.924  67.093  1.00  0.00    -0.091 A  
HETATM   16  N   UNL     1      -6.433   9.140  66.554  1.00  0.00    -0.066 NA 
HETATM   17  C   UNL     1      -8.326  10.628  66.253  1.00  0.00    -0.155 A  
HETATM   18  H2  UNL     1      -6.628   8.162  66.769  1.00  0.00     0.000 HD 
HETATM   19  H1  UNL     1      -6.202   9.210  65.562  1.00  0.00     0.000 HD 
HETATM   20  C   UNL     1      -9.423  11.328  66.773  1.00  0.00    -0.196 A  
ENDBRANCH   9  12
ENDBRANCH   7   9
ENDBRANCH   4   7
TORSDOF 3
ENDMDL
MODEL      160
REMARK 921   NORMALIZED FREE ENERGY PREDICTED BY IDOCK:   -3.57 KCAL/MOL
REMARK 922        TOTAL FREE ENERGY PREDICTED BY IDOCK:   -4.66 KCAL/MOL
REMARK 923 INTER-LIGAND FREE ENERGY PREDICTED BY IDOCK:   -4.63 KCAL/MOL
REMARK 924 INTRA-LIGAND FREE ENERGY PREDICTED BY IDOCK:   -0.03 KCAL/MOL
REMARK 927      BINDING AFFINITY PREDICTED BY RF-SCORE:    0.00 PKD
ROOT
HETATM    1  C   UNL     1     -12.255   6.595  72.153  1.00  0.00    -0.269 C  
HETATM    2  C   UNL     1     -11.959   7.937  71.618  1.00  0.00    -0.294 A  
HETATM    3  C   UNL     1     -10.922   8.469  70.893  1.00  0.00    -0.292 A  
HETATM    4  C   UNL     1     -11.258   9.828  70.755  1.00  0.00    -0.348 A  
HETATM    5  O   UNL     1     -12.861   8.918  71.893  1.00  0.00    -0.332 OA 
HETATM    6  N   UNL     1     -12.395  10.125  71.387  1.00  0.00    -0.388 NA 
ENDROOT
BRANCH   4   7
HETATM    7  N   UNL     1     -10.455  10.803  70.183  1.00  0.00    -0.400 N  
HETATM    8  H   UNL     1      -9.609  11.125  70.652  1.00  0.00     0.000 HD 
BRANCH   7   9
HETATM    9  S   UNL     1     -10.913  11.447  68.686  1.00  0.00    -0.240 S  
HETATM   10  O   UNL     1     -12.304  11.086  68.497  1.00  0.00    -0.536 OA 
HETATM   11  O   UNL     1     -10.474  12.825  68.625  1.00  0.00    -0.244 OA 
BRANCH   9  12
HETATM   12  C   UNL     1      -9.984  10.503  67.492  1.00  0.00    -0.172 A  
HETATM   13  C   UNL     1      -9.652   9.172  67.773  1.00  0.00    -0.173 A  
HETATM   14  C   UNL     1      -8.962   8.415  66.823  1.00  0.00    -0.172 A  
HETATM   15  C   UNL     1      -8.573   8.975  65.602  1.00  0.00    -0.166 A  
HETATM   16  N   UNL     1      -7.992   8.173  64.615  1.00  0.00    -0.142 NA 
HETATM   17  C   UNL     1      -8.989  10.276  65.301  1.00  0.00    -0.214 A  
HETATM   18  H2  UNL     1      -8.619   7.391  64.425  1.00  0.00     0.000 HD 
HETATM   19  H1  UNL     1      -7.709   8.581  63.724  1.00  0.00     0.000 HD 
HETATM   20  C   UNL     1      -9.672  11.052  66.248  1.00  0.00    -0.244 A  
ENDBRANCH   9  12
ENDBRANCH   7   9
ENDBRANCH   4   7
TORSDOF 3
ENDMDL
MODEL      161
REMARK 921   NORMALIZED FREE ENERGY PREDICTED BY IDOCK:   -3.57 KCAL/MOL
REMARK 922        TOTAL FREE ENERGY PREDICTED BY IDOCK:   -4.66 KCAL/MOL
REMARK 923 INTER-LIGAND FREE ENERGY PREDICTED BY IDOCK:   -4.29 KCAL/MOL
REMARK 924 INTRA-LIGAND FREE ENERGY PREDICTED BY IDOCK:   -0.36 KCAL/MOL
REMARK 927      BINDING AFFINITY PREDICTED BY RF-SCORE:    0.00 PKD
ROOT
HETATM    1  C   UNL     1      -5.515   8.806  71.122  1.00  0.00    -0.035 C  
HETATM    2  C   UNL     1      -6.796   8.501  71.785  1.00  0.00    -0.086 A  
HETATM    3  C   UNL     1      -7.952   7.877  71.388  1.00  0.00    -0.099 A  
HETATM    4  C   UNL     1      -8.795   7.965  72.510  1.00  0.00    -0.164 A  
HETATM    5  O   UNL     1      -6.938   8.931  73.068  1.00  0.00    -0.331 OA 
HETATM    6  N   UNL     1      -8.220   8.633  73.512  1.00  0.00    -0.385 NA 
ENDROOT
BRANCH   4   7
HETATM    7  N   UNL     1     -10.122   7.564  72.556  1.00  0.00    -0.196 N  
HETATM    8  H   UNL     1     -10.415   6.795  73.158  1.00  0.00     0.000 HD 
BRANCH   7   9
HETATM    9  S   UNL     1     -11.244   8.380  71.587  1.00  0.00    -0.301 S  
HETATM   10  O   UNL     1     -12.551   7.888  71.977  1.00  0.00    -0.312 OA 
HETATM   11  O   UNL     1     -10.931   9.792  71.610  1.00  0.00    -0.240 OA 
BRANCH   9  12
HETATM   12  C   UNL     1     -10.947   7.760  69.942  1.00  0.00    -0.190 A  
HETATM   13  C   UNL     1     -10.476   8.630  68.951  1.00  0.00    -0.211 A  
HETATM   14  C   UNL     1     -10.200   8.139  67.672  1.00  0.00    -0.296 A  
HETATM   15  C   UNL     1     -10.412   6.794  67.357  1.00  0.00    -0.262 A  
HETATM   16  N   UNL     1     -10.018   6.294  66.112  1.00  0.00    -0.399 NA 
HETATM   17  C   UNL     1     -10.797   5.921  68.380  1.00  0.00    -0.322 A  
HETATM   18  H2  UNL     1      -9.028   6.503  65.979  1.00  0.00     0.000 HD 
HETATM   19  H1  UNL     1     -10.172   5.312  65.883  1.00  0.00     0.000 HD 
HETATM   20  C   UNL     1     -11.088   6.399  69.665  1.00  0.00    -0.465 A  
ENDBRANCH   9  12
ENDBRANCH   7   9
ENDBRANCH   4   7
TORSDOF 3
ENDMDL
MODEL      162
REMARK 921   NORMALIZED FREE ENERGY PREDICTED BY IDOCK:   -3.55 KCAL/MOL
REMARK 922        TOTAL FREE ENERGY PREDICTED BY IDOCK:   -4.64 KCAL/MOL
REMARK 923 INTER-LIGAND FREE ENERGY PREDICTED BY IDOCK:   -4.61 KCAL/MOL
REMARK 924 INTRA-LIGAND FREE ENERGY PREDICTED BY IDOCK:   -0.02 KCAL/MOL
REMARK 927      BINDING AFFINITY PREDICTED BY RF-SCORE:    0.00 PKD
ROOT
HETATM    1  C   UNL     1     -12.746  15.681  74.303  1.00  0.00    -0.594 C  
HETATM    2  C   UNL     1     -12.724  15.268  72.887  1.00  0.00    -0.421 A  
HETATM    3  C   UNL     1     -12.091  14.267  72.194  1.00  0.00    -0.062 A  
HETATM    4  C   UNL     1     -12.479  14.472  70.858  1.00  0.00    -0.345 A  
HETATM    5  O   UNL     1     -13.451  16.022  72.018  1.00  0.00    -0.328 OA 
HETATM    6  N   UNL     1     -13.259  15.547  70.727  1.00  0.00    -0.481 NA 
ENDROOT
BRANCH   4   7
HETATM    7  N   UNL     1     -12.004  13.767  69.762  1.00  0.00    -0.325 N  
HETATM    8  H   UNL     1     -12.001  12.748  69.759  1.00  0.00     0.000 HD 
BRANCH   7   9
HETATM    9  S   UNL     1     -11.429  14.639  68.431  1.00  0.00    -0.327 S  
HETATM   10  O   UNL     1     -12.402  14.453  67.372  1.00  0.00    -0.300 OA 
HETATM   11  O   UNL     1     -11.041  15.959  68.878  1.00  0.00    -0.274 OA 
BRANCH   9  12
HETATM   12  C   UNL     1      -9.964  13.760  67.922  1.00  0.00    -0.240 A  
HETATM   13  C   UNL     1      -8.793  14.475  67.640  1.00  0.00    -0.189 A  
HETATM   14  C   UNL     1      -7.631  13.786  67.282  1.00  0.00    -0.075 A  
HETATM   15  C   UNL     1      -7.623  12.392  67.178  1.00  0.00    -0.104 A  
HETATM   16  N   UNL     1      -6.425  11.712  66.939  1.00  0.00    -0.190 NA 
HETATM   17  C   UNL     1      -8.774  11.689  67.549  1.00  0.00    -0.156 A  
HETATM   18  H2  UNL     1      -5.752  11.984  67.655  1.00  0.00     0.000 HD 
HETATM   19  H1  UNL     1      -6.420  10.695  66.862  1.00  0.00     0.000 HD 
HETATM   20  C   UNL     1      -9.951  12.365  67.899  1.00  0.00    -0.204 A  
ENDBRANCH   9  12
ENDBRANCH   7   9
ENDBRANCH   4   7
TORSDOF 3
ENDMDL
MODEL      163
REMARK 921   NORMALIZED FREE ENERGY PREDICTED BY IDOCK:   -3.55 KCAL/MOL
REMARK 922        TOTAL FREE ENERGY PREDICTED BY IDOCK:   -4.63 KCAL/MOL
REMARK 923 INTER-LIGAND FREE ENERGY PREDICTED BY IDOCK:   -4.29 KCAL/MOL
REMARK 924 INTRA-LIGAND FREE ENERGY PREDICTED BY IDOCK:   -0.35 KCAL/MOL
REMARK 927      BINDING AFFINITY PREDICTED BY RF-SCORE:    0.00 PKD
ROOT
HETATM    1  C   UNL     1     -10.208  12.951  65.662  1.00  0.00    -0.295 C  
HETATM    2  C   UNL     1     -10.029  11.488  65.605  1.00  0.00    -0.236 A  
HETATM    3  C   UNL     1     -10.457  10.442  66.385  1.00  0.00    -0.246 A  
HETATM    4  C   UNL     1      -9.888   9.306  65.781  1.00  0.00    -0.231 A  
HETATM    5  O   UNL     1      -9.255  11.005  64.595  1.00  0.00    -0.204 OA 
HETATM    6  N   UNL     1      -9.127   9.629  64.733  1.00  0.00    -0.225 NA 
ENDROOT
BRANCH   4   7
HETATM    7  N   UNL     1      -9.951   8.013  66.277  1.00  0.00    -0.476 N  
HETATM    8  H   UNL     1     -10.604   7.334  65.885  1.00  0.00     0.000 HD 
BRANCH   7   9
HETATM    9  S   UNL     1      -8.919   7.585  67.548  1.00  0.00    -0.126 S  
HETATM   10  O   UNL     1      -8.467   6.236  67.268  1.00  0.00    -0.109 OA 
HETATM   11  O   UNL     1      -7.982   8.666  67.763  1.00  0.00    -0.105 OA 
BRANCH   9  12
HETATM   12  C   UNL     1      -9.988   7.470  68.970  1.00  0.00    -0.175 A  
HETATM   13  C   UNL     1     -11.000   6.503  68.996  1.00  0.00    -0.378 A  
HETATM   14  C   UNL     1     -11.813   6.381  70.126  1.00  0.00    -0.254 A  
HETATM   15  C   UNL     1     -11.648   7.228  71.225  1.00  0.00    -0.286 A  
HETATM   16  N   UNL     1     -12.386   7.015  72.394  1.00  0.00    -0.509 NA 
HETATM   17  C   UNL     1     -10.577   8.128  71.220  1.00  0.00    -0.258 A  
HETATM   18  H2  UNL     1     -12.231   6.055  72.702  1.00  0.00     0.000 HD 
HETATM   19  H1  UNL     1     -12.265   7.634  73.196  1.00  0.00     0.000 HD 
HETATM   20  C   UNL     1      -9.760   8.271  70.090  1.00  0.00    -0.176 A  
ENDBRANCH   9  12
ENDBRANCH   7   9
ENDBRANCH   4   7
TORSDOF 3
ENDMDL
MODEL      164
REMARK 921   NORMALIZED FREE ENERGY PREDICTED BY IDOCK:   -3.54 KCAL/MOL
REMARK 922        TOTAL FREE ENERGY PREDICTED BY IDOCK:   -4.62 KCAL/MOL
REMARK 923 INTER-LIGAND FREE ENERGY PREDICTED BY IDOCK:   -4.34 KCAL/MOL
REMARK 924 INTRA-LIGAND FREE ENERGY PREDICTED BY IDOCK:   -0.28 KCAL/MOL
REMARK 927      BINDING AFFINITY PREDICTED BY RF-SCORE:    0.00 PKD
ROOT
HETATM    1  C   UNL     1      -9.799   4.549  72.805  1.00  0.00    -0.191 C  
HETATM    2  C   UNL     1     -10.127   5.717  71.967  1.00  0.00    -0.185 A  
HETATM    3  C   UNL     1     -10.788   5.883  70.776  1.00  0.00    -0.352 A  
HETATM    4  C   UNL     1     -10.704   7.264  70.523  1.00  0.00    -0.232 A  
HETATM    5  O   UNL     1      -9.680   6.927  72.402  1.00  0.00    -0.154 OA 
HETATM    6  N   UNL     1     -10.005   7.900  71.466  1.00  0.00    -0.170 NA 
ENDROOT
BRANCH   4   7
HETATM    7  N   UNL     1     -11.140   7.901  69.371  1.00  0.00    -0.439 N  
HETATM    8  H   UNL     1     -11.984   8.474  69.378  1.00  0.00     0.000 HD 
BRANCH   7   9
HETATM    9  S   UNL     1     -10.238   7.706  67.953  1.00  0.00    -0.208 S  
HETATM   10  O   UNL     1      -8.916   7.276  68.367  1.00  0.00    -0.128 OA 
HETATM   11  O   UNL     1     -11.022   6.938  67.010  1.00  0.00    -0.379 OA 
BRANCH   9  12
HETATM   12  C   UNL     1     -10.048   9.361  67.315  1.00  0.00    -0.226 A  
HETATM   13  C   UNL     1      -9.616   9.546  65.995  1.00  0.00    -0.316 A  
HETATM   14  C   UNL     1      -9.507  10.840  65.478  1.00  0.00    -0.253 A  
HETATM   15  C   UNL     1      -9.798  11.957  66.267  1.00  0.00    -0.225 A  
HETATM   16  N   UNL     1      -9.802  13.235  65.700  1.00  0.00    -0.446 NA 
HETATM   17  C   UNL     1     -10.312  11.752  67.551  1.00  0.00    -0.217 A  
HETATM   18  H2  UNL     1     -10.436  13.232  64.901  1.00  0.00     0.000 HD 
HETATM   19  H1  UNL     1     -10.015  14.050  66.276  1.00  0.00     0.000 HD 
HETATM   20  C   UNL     1     -10.417  10.461  68.089  1.00  0.00    -0.221 A  
ENDBRANCH   9  12
ENDBRANCH   7   9
ENDBRANCH   4   7
TORSDOF 3
ENDMDL
MODEL      165
REMARK 921   NORMALIZED FREE ENERGY PREDICTED BY IDOCK:   -3.50 KCAL/MOL
REMARK 922        TOTAL FREE ENERGY PREDICTED BY IDOCK:   -4.58 KCAL/MOL
REMARK 923 INTER-LIGAND FREE ENERGY PREDICTED BY IDOCK:   -4.54 KCAL/MOL
REMARK 924 INTRA-LIGAND FREE ENERGY PREDICTED BY IDOCK:   -0.04 KCAL/MOL
REMARK 927      BINDING AFFINITY PREDICTED BY RF-SCORE:    0.00 PKD
ROOT
HETATM    1  C   UNL     1      -6.044   9.185  65.106  1.00  0.00    -0.060 C  
HETATM    2  C   UNL     1      -7.016   9.647  66.113  1.00  0.00    -0.093 A  
HETATM    3  C   UNL     1      -7.193  10.821  66.803  1.00  0.00    -0.128 A  
HETATM    4  C   UNL     1      -8.293  10.566  67.641  1.00  0.00    -0.114 A  
HETATM    5  O   UNL     1      -7.957   8.748  66.512  1.00  0.00    -0.101 OA 
HETATM    6  N   UNL     1      -8.737   9.314  67.513  1.00  0.00    -0.116 NA 
ENDROOT
BRANCH   4   7
HETATM    7  N   UNL     1      -8.785  11.428  68.610  1.00  0.00    -0.250 N  
HETATM    8  H   UNL     1      -8.165  11.835  69.310  1.00  0.00     0.000 HD 
BRANCH   7   9
HETATM    9  S   UNL     1     -10.439  11.788  68.605  1.00  0.00    -0.207 S  
HETATM   10  O   UNL     1     -10.554  13.173  69.017  1.00  0.00    -0.176 OA 
HETATM   11  O   UNL     1     -11.008  11.319  67.360  1.00  0.00    -0.247 OA 
BRANCH   9  12
HETATM   12  C   UNL     1     -11.111  10.812  69.938  1.00  0.00    -0.271 A  
HETATM   13  C   UNL     1     -12.363  11.141  70.471  1.00  0.00    -0.454 A  
HETATM   14  C   UNL     1     -12.912  10.354  71.486  1.00  0.00    -0.562 A  
HETATM   15  C   UNL     1     -12.219   9.253  71.997  1.00  0.00    -0.348 A  
HETATM   16  N   UNL     1     -12.832   8.405  72.925  1.00  0.00    -0.686 NA 
HETATM   17  C   UNL     1     -11.012   8.886  71.394  1.00  0.00    -0.380 A  
HETATM   18  H2  UNL     1     -13.711   8.075  72.527  1.00  0.00     0.000 HD 
HETATM   19  H1  UNL     1     -12.326   7.602  73.298  1.00  0.00     0.000 HD 
HETATM   20  C   UNL     1     -10.441   9.671  70.383  1.00  0.00    -0.352 A  
ENDBRANCH   9  12
ENDBRANCH   7   9
ENDBRANCH   4   7
TORSDOF 3
ENDMDL
MODEL      166
REMARK 921   NORMALIZED FREE ENERGY PREDICTED BY IDOCK:   -3.50 KCAL/MOL
REMARK 922        TOTAL FREE ENERGY PREDICTED BY IDOCK:   -4.58 KCAL/MOL
REMARK 923 INTER-LIGAND FREE ENERGY PREDICTED BY IDOCK:   -4.57 KCAL/MOL
REMARK 924 INTRA-LIGAND FREE ENERGY PREDICTED BY IDOCK:   -0.01 KCAL/MOL
REMARK 927      BINDING AFFINITY PREDICTED BY RF-SCORE:    0.00 PKD
ROOT
HETATM    1  C   UNL     1     -12.246  10.692  70.595  1.00  0.00    -0.459 C  
HETATM    2  C   UNL     1     -11.142  10.057  69.852  1.00  0.00    -0.288 A  
HETATM    3  C   UNL     1     -10.696  10.132  68.556  1.00  0.00    -0.264 A  
HETATM    4  C   UNL     1      -9.617   9.230  68.510  1.00  0.00    -0.147 A  
HETATM    5  O   UNL     1     -10.374   9.168  70.539  1.00  0.00    -0.203 OA 
HETATM    6  N   UNL     1      -9.437   8.610  69.678  1.00  0.00    -0.161 NA 
ENDROOT
BRANCH   4   7
HETATM    7  N   UNL     1      -8.907   8.880  67.371  1.00  0.00    -0.129 N  
HETATM    8  H   UNL     1      -9.001   7.951  66.962  1.00  0.00     0.000 HD 
BRANCH   7   9
HETATM    9  S   UNL     1      -7.879  10.031  66.676  1.00  0.00    -0.113 S  
HETATM   10  O   UNL     1      -7.472  10.914  67.752  1.00  0.00    -0.091 OA 
HETATM   11  O   UNL     1      -6.908   9.344  65.853  1.00  0.00    -0.085 OA 
BRANCH   9  12
HETATM   12  C   UNL     1      -8.941  10.993  65.615  1.00  0.00    -0.199 A  
HETATM   13  C   UNL     1      -8.986  10.711  64.244  1.00  0.00    -0.214 A  
HETATM   14  C   UNL     1      -9.848  11.434  63.416  1.00  0.00    -0.422 A  
HETATM   15  C   UNL     1     -10.653  12.455  63.932  1.00  0.00    -0.437 A  
HETATM   16  N   UNL     1     -11.597  13.085  63.115  1.00  0.00    -0.786 NA 
HETATM   17  C   UNL     1     -10.662  12.664  65.314  1.00  0.00    -0.318 A  
HETATM   18  H2  UNL     1     -12.203  12.370  62.713  1.00  0.00     0.000 HD 
HETATM   19  H1  UNL     1     -12.184  13.830  63.491  1.00  0.00     0.000 HD 
HETATM   20  C   UNL     1      -9.795  11.955  66.157  1.00  0.00    -0.254 A  
ENDBRANCH   9  12
ENDBRANCH   7   9
ENDBRANCH   4   7
TORSDOF 3
ENDMDL
MODEL      167
REMARK 921   NORMALIZED FREE ENERGY PREDICTED BY IDOCK:   -3.48 KCAL/MOL
REMARK 922        TOTAL FREE ENERGY PREDICTED BY IDOCK:   -4.55 KCAL/MOL
REMARK 923 INTER-LIGAND FREE ENERGY PREDICTED BY IDOCK:   -4.62 KCAL/MOL
REMARK 924 INTRA-LIGAND FREE ENERGY PREDICTED BY IDOCK:    0.07 KCAL/MOL
REMARK 927      BINDING AFFINITY PREDICTED BY RF-SCORE:    0.00 PKD
ROOT
HETATM    1  C   UNL     1      -5.343  21.178  63.702  1.00  0.00    -0.256 C  
HETATM    2  C   UNL     1      -6.278  20.427  64.560  1.00  0.00    -0.293 A  
HETATM    3  C   UNL     1      -7.159  20.781  65.551  1.00  0.00     0.025 A  
HETATM    4  C   UNL     1      -7.705  19.558  65.981  1.00  0.00    -0.312 A  
HETATM    5  O   UNL     1      -6.300  19.075  64.405  1.00  0.00    -0.468 OA 
HETATM    6  N   UNL     1      -7.169  18.520  65.336  1.00  0.00    -0.510 NA 
ENDROOT
BRANCH   4   7
HETATM    7  N   UNL     1      -8.573  19.393  67.050  1.00  0.00    -0.279 N  
HETATM    8  H   UNL     1      -9.528  19.751  67.007  1.00  0.00     0.000 HD 
BRANCH   7   9
HETATM    9  S   UNL     1      -8.012  18.587  68.428  1.00  0.00    -0.321 S  
HETATM   10  O   UNL     1      -6.709  18.054  68.084  1.00  0.00    -0.193 OA 
HETATM   11  O   UNL     1      -8.198  19.450  69.574  1.00  0.00    -0.055 OA 
BRANCH   9  12
HETATM   12  C   UNL     1      -9.099  17.182  68.594  1.00  0.00    -0.268 A  
HETATM   13  C   UNL     1     -10.485  17.372  68.539  1.00  0.00    -0.370 A  
HETATM   14  C   UNL     1     -11.339  16.269  68.626  1.00  0.00    -0.333 A  
HETATM   15  C   UNL     1     -10.830  14.978  68.793  1.00  0.00    -0.249 A  
HETATM   16  N   UNL     1     -11.689  13.875  68.757  1.00  0.00    -0.334 NA 
HETATM   17  C   UNL     1      -9.444  14.796  68.758  1.00  0.00    -0.206 A  
HETATM   18  H2  UNL     1     -12.213  13.903  67.882  1.00  0.00     0.000 HD 
HETATM   19  H1  UNL     1     -11.318  12.932  68.879  1.00  0.00     0.000 HD 
HETATM   20  C   UNL     1      -8.574  15.892  68.682  1.00  0.00    -0.198 A  
ENDBRANCH   9  12
ENDBRANCH   7   9
ENDBRANCH   4   7
TORSDOF 3
ENDMDL
MODEL      168
REMARK 921   NORMALIZED FREE ENERGY PREDICTED BY IDOCK:   -3.47 KCAL/MOL
REMARK 922        TOTAL FREE ENERGY PREDICTED BY IDOCK:   -4.54 KCAL/MOL
REMARK 923 INTER-LIGAND FREE ENERGY PREDICTED BY IDOCK:   -4.97 KCAL/MOL
REMARK 924 INTRA-LIGAND FREE ENERGY PREDICTED BY IDOCK:    0.43 KCAL/MOL
REMARK 927      BINDING AFFINITY PREDICTED BY RF-SCORE:    0.00 PKD
ROOT
HETATM    1  C   UNL     1     -11.838   8.660  71.518  1.00  0.00    -0.366 C  
HETATM    2  C   UNL     1     -11.604   9.670  70.470  1.00  0.00    -0.272 A  
HETATM    3  C   UNL     1     -10.484  10.143  69.832  1.00  0.00    -0.322 A  
HETATM    4  C   UNL     1     -10.974  11.137  68.966  1.00  0.00    -0.235 A  
HETATM    5  O   UNL     1     -12.696  10.337  70.008  1.00  0.00    -0.141 OA 
HETATM    6  N   UNL     1     -12.293  11.298  69.089  1.00  0.00    -0.400 NA 
ENDROOT
BRANCH   4   7
HETATM    7  N   UNL     1     -10.197  11.978  68.183  1.00  0.00    -0.196 N  
HETATM    8  H   UNL     1      -9.319  12.357  68.536  1.00  0.00     0.000 HD 
BRANCH   7   9
HETATM    9  S   UNL     1     -10.742  12.362  66.627  1.00  0.00    -0.242 S  
HETATM   10  O   UNL     1     -12.160  12.059  66.607  1.00  0.00    -0.615 OA 
HETATM   11  O   UNL     1     -10.245  13.675  66.276  1.00  0.00    -0.282 OA 
BRANCH   9  12
HETATM   12  C   UNL     1      -9.958  11.158  65.571  1.00  0.00    -0.249 A  
HETATM   13  C   UNL     1      -9.599   9.910  66.095  1.00  0.00    -0.275 A  
HETATM   14  C   UNL     1      -9.024   8.948  65.261  1.00  0.00    -0.213 A  
HETATM   15  C   UNL     1      -8.776   9.221  63.913  1.00  0.00    -0.168 A  
HETATM   16  N   UNL     1      -8.314   8.210  63.065  1.00  0.00    -0.377 NA 
HETATM   17  C   UNL     1      -9.221  10.437  63.385  1.00  0.00    -0.311 A  
HETATM   18  H2  UNL     1      -8.960   7.422  63.120  1.00  0.00     0.000 HD 
HETATM   19  H1  UNL     1      -8.133   8.409  62.081  1.00  0.00     0.000 HD 
HETATM   20  C   UNL     1      -9.790  11.417  64.210  1.00  0.00    -0.301 A  
ENDBRANCH   9  12
ENDBRANCH   7   9
ENDBRANCH   4   7
TORSDOF 3
ENDMDL
MODEL      169
REMARK 921   NORMALIZED FREE ENERGY PREDICTED BY IDOCK:   -3.47 KCAL/MOL
REMARK 922        TOTAL FREE ENERGY PREDICTED BY IDOCK:   -4.54 KCAL/MOL
REMARK 923 INTER-LIGAND FREE ENERGY PREDICTED BY IDOCK:   -4.18 KCAL/MOL
REMARK 924 INTRA-LIGAND FREE ENERGY PREDICTED BY IDOCK:   -0.36 KCAL/MOL
REMARK 927      BINDING AFFINITY PREDICTED BY RF-SCORE:    0.00 PKD
ROOT
HETATM    1  C   UNL     1     -14.344   7.782  71.584  1.00  0.00    -0.607 C  
HETATM    2  C   UNL     1     -12.882   7.925  71.461  1.00  0.00    -0.317 A  
HETATM    3  C   UNL     1     -11.883   7.128  70.961  1.00  0.00    -0.373 A  
HETATM    4  C   UNL     1     -10.706   7.862  71.197  1.00  0.00    -0.227 A  
HETATM    5  O   UNL     1     -12.335   9.067  71.960  1.00  0.00    -0.350 OA 
HETATM    6  N   UNL     1     -10.953   9.007  71.835  1.00  0.00    -0.367 NA 
ENDROOT
BRANCH   4   7
HETATM    7  N   UNL     1      -9.415   7.414  70.958  1.00  0.00    -0.158 N  
HETATM    8  H   UNL     1      -9.013   7.453  70.021  1.00  0.00     0.000 HD 
BRANCH   7   9
HETATM    9  S   UNL     1      -8.521   6.800  72.257  1.00  0.00    -0.104 S  
HETATM   10  O   UNL     1      -7.235   6.408  71.716  1.00  0.00    -0.083 OA 
HETATM   11  O   UNL     1      -8.625   7.724  73.365  1.00  0.00    -0.166 OA 
BRANCH   9  12
HETATM   12  C   UNL     1      -9.359   5.289  72.699  1.00  0.00    -0.137 A  
HETATM   13  C   UNL     1     -10.208   5.271  73.813  1.00  0.00    -0.250 A  
HETATM   14  C   UNL     1     -10.900   4.101  74.137  1.00  0.00    -0.252 A  
HETATM   15  C   UNL     1     -10.738   2.937  73.381  1.00  0.00    -0.184 A  
HETATM   16  N   UNL     1     -11.528   1.813  73.644  1.00  0.00    -0.195 NA 
HETATM   17  C   UNL     1      -9.957   2.996  72.222  1.00  0.00    -0.237 A  
HETATM   18  H2  UNL     1     -12.508   2.090  73.601  1.00  0.00     0.000 HD 
HETATM   19  H1  UNL     1     -11.410   0.963  73.092  1.00  0.00     0.000 HD 
HETATM   20  C   UNL     1      -9.248   4.158  71.889  1.00  0.00    -0.176 A  
ENDBRANCH   9  12
ENDBRANCH   7   9
ENDBRANCH   4   7
TORSDOF 3
ENDMDL
MODEL      170
REMARK 921   NORMALIZED FREE ENERGY PREDICTED BY IDOCK:   -3.47 KCAL/MOL
REMARK 922        TOTAL FREE ENERGY PREDICTED BY IDOCK:   -4.54 KCAL/MOL
REMARK 923 INTER-LIGAND FREE ENERGY PREDICTED BY IDOCK:   -4.69 KCAL/MOL
REMARK 924 INTRA-LIGAND FREE ENERGY PREDICTED BY IDOCK:    0.15 KCAL/MOL
REMARK 927      BINDING AFFINITY PREDICTED BY RF-SCORE:    0.00 PKD
ROOT
HETATM    1  C   UNL     1      -9.518   4.216  67.890  1.00  0.00    -0.219 C  
HETATM    2  C   UNL     1      -9.801   5.544  68.463  1.00  0.00    -0.146 A  
HETATM    3  C   UNL     1     -10.787   6.479  68.268  1.00  0.00    -0.359 A  
HETATM    4  C   UNL     1     -10.427   7.543  69.114  1.00  0.00    -0.215 A  
HETATM    5  O   UNL     1      -8.908   6.021  69.374  1.00  0.00    -0.120 OA 
HETATM    6  N   UNL     1      -9.279   7.305  69.751  1.00  0.00    -0.141 NA 
ENDROOT
BRANCH   4   7
HETATM    7  N   UNL     1     -11.069   8.771  69.184  1.00  0.00    -0.426 N  
HETATM    8  H   UNL     1     -12.061   8.829  69.415  1.00  0.00     0.000 HD 
BRANCH   7   9
HETATM    9  S   UNL     1     -10.168  10.170  68.876  1.00  0.00    -0.213 S  
HETATM   10  O   UNL     1     -10.874  11.258  69.525  1.00  0.00    -0.226 OA 
HETATM   11  O   UNL     1      -8.777   9.894  69.161  1.00  0.00    -0.137 OA 
BRANCH   9  12
HETATM   12  C   UNL     1     -10.345  10.436  67.121  1.00  0.00    -0.238 A  
HETATM   13  C   UNL     1     -10.966  11.603  66.659  1.00  0.00    -0.349 A  
HETATM   14  C   UNL     1     -11.068  11.835  65.285  1.00  0.00    -0.333 A  
HETATM   15  C   UNL     1     -10.581  10.907  64.361  1.00  0.00    -0.273 A  
HETATM   16  N   UNL     1     -10.581  11.210  62.995  1.00  0.00    -0.801 NA 
HETATM   17  C   UNL     1      -9.885   9.792  64.838  1.00  0.00    -0.183 A  
HETATM   18  H2  UNL     1     -10.084  12.090  62.860  1.00  0.00     0.000 HD 
HETATM   19  H1  UNL     1     -10.225  10.532  62.321  1.00  0.00     0.000 HD 
HETATM   20  C   UNL     1      -9.784   9.538  66.213  1.00  0.00    -0.310 A  
ENDBRANCH   9  12
ENDBRANCH   7   9
ENDBRANCH   4   7
TORSDOF 3
ENDMDL
MODEL      171
REMARK 921   NORMALIZED FREE ENERGY PREDICTED BY IDOCK:   -3.47 KCAL/MOL
REMARK 922        TOTAL FREE ENERGY PREDICTED BY IDOCK:   -4.54 KCAL/MOL
REMARK 923 INTER-LIGAND FREE ENERGY PREDICTED BY IDOCK:   -4.23 KCAL/MOL
REMARK 924 INTRA-LIGAND FREE ENERGY PREDICTED BY IDOCK:   -0.30 KCAL/MOL
REMARK 927      BINDING AFFINITY PREDICTED BY RF-SCORE:    0.00 PKD
ROOT
HETATM    1  C   UNL     1     -11.004  14.255  64.853  1.00  0.00    -0.413 C  
HETATM    2  C   UNL     1     -10.618  12.858  64.584  1.00  0.00    -0.363 A  
HETATM    3  C   UNL     1     -10.615  11.707  65.332  1.00  0.00    -0.331 A  
HETATM    4  C   UNL     1     -10.080  10.735  64.467  1.00  0.00    -0.350 A  
HETATM    5  O   UNL     1     -10.119  12.589  63.347  1.00  0.00    -0.396 OA 
HETATM    6  N   UNL     1      -9.736  11.255  63.287  1.00  0.00    -0.346 NA 
ENDROOT
BRANCH   4   7
HETATM    7  N   UNL     1      -9.781   9.425  64.812  1.00  0.00    -0.378 N  
HETATM    8  H   UNL     1     -10.405   8.661  64.553  1.00  0.00     0.000 HD 
BRANCH   7   9
HETATM    9  S   UNL     1      -8.355   9.124  65.673  1.00  0.00    -0.133 S  
HETATM   10  O   UNL     1      -7.686   8.038  64.984  1.00  0.00    -0.097 OA 
HETATM   11  O   UNL     1      -7.692  10.386  65.920  1.00  0.00    -0.134 OA 
BRANCH   9  12
HETATM   12  C   UNL     1      -8.910   8.461  67.233  1.00  0.00    -0.130 A  
HETATM   13  C   UNL     1     -10.174   7.864  67.318  1.00  0.00    -0.343 A  
HETATM   14  C   UNL     1     -10.595   7.305  68.528  1.00  0.00    -0.207 A  
HETATM   15  C   UNL     1      -9.782   7.353  69.664  1.00  0.00    -0.163 A  
HETATM   16  N   UNL     1     -10.165   6.683  70.831  1.00  0.00    -0.195 NA 
HETATM   17  C   UNL     1      -8.489   7.871  69.539  1.00  0.00    -0.133 A  
HETATM   18  H2  UNL     1     -10.336   5.705  70.599  1.00  0.00     0.000 HD 
HETATM   19  H1  UNL     1      -9.571   6.718  71.660  1.00  0.00     0.000 HD 
HETATM   20  C   UNL     1      -8.055   8.447  68.336  1.00  0.00    -0.123 A  
ENDBRANCH   9  12
ENDBRANCH   7   9
ENDBRANCH   4   7
TORSDOF 3
ENDMDL
MODEL      172
REMARK 921   NORMALIZED FREE ENERGY PREDICTED BY IDOCK:   -3.47 KCAL/MOL
REMARK 922        TOTAL FREE ENERGY PREDICTED BY IDOCK:   -4.54 KCAL/MOL
REMARK 923 INTER-LIGAND FREE ENERGY PREDICTED BY IDOCK:   -4.27 KCAL/MOL
REMARK 924 INTRA-LIGAND FREE ENERGY PREDICTED BY IDOCK:   -0.27 KCAL/MOL
REMARK 927      BINDING AFFINITY PREDICTED BY RF-SCORE:    0.00 PKD
ROOT
HETATM    1  C   UNL     1      -8.992   8.481  65.810  1.00  0.00    -0.229 C  
HETATM    2  C   UNL     1      -9.727   9.758  65.850  1.00  0.00    -0.266 A  
HETATM    3  C   UNL     1     -10.543  10.362  66.775  1.00  0.00    -0.270 A  
HETATM    4  C   UNL     1     -10.943  11.558  66.153  1.00  0.00    -0.266 A  
HETATM    5  O   UNL     1      -9.642  10.549  64.746  1.00  0.00    -0.233 OA 
HETATM    6  N   UNL     1     -10.449  11.667  64.918  1.00  0.00    -0.274 NA 
ENDROOT
BRANCH   4   7
HETATM    7  N   UNL     1     -11.865  12.462  66.661  1.00  0.00    -0.370 N  
HETATM    8  H   UNL     1     -12.772  12.591  66.212  1.00  0.00     0.000 HD 
BRANCH   7   9
HETATM    9  S   UNL     1     -11.450  13.346  68.042  1.00  0.00    -0.326 S  
HETATM   10  O   UNL     1     -12.520  14.303  68.249  1.00  0.00    -0.098 OA 
HETATM   11  O   UNL     1     -11.053  12.420  69.080  1.00  0.00    -0.244 OA 
BRANCH   9  12
HETATM   12  C   UNL     1     -10.021  14.294  67.552  1.00  0.00    -0.235 A  
HETATM   13  C   UNL     1     -10.127  15.206  66.495  1.00  0.00    -0.279 A  
HETATM   14  C   UNL     1      -9.022  15.981  66.135  1.00  0.00    -0.381 A  
HETATM   15  C   UNL     1      -7.799  15.842  66.799  1.00  0.00    -0.238 A  
HETATM   16  N   UNL     1      -6.740  16.708  66.510  1.00  0.00    -0.228 NA 
HETATM   17  C   UNL     1      -7.735  14.993  67.908  1.00  0.00    -0.145 A  
HETATM   18  H2  UNL     1      -7.066  17.667  66.632  1.00  0.00     0.000 HD 
HETATM   19  H1  UNL     1      -5.849  16.607  66.995  1.00  0.00     0.000 HD 
HETATM   20  C   UNL     1      -8.831  14.200  68.275  1.00  0.00    -0.187 A  
ENDBRANCH   9  12
ENDBRANCH   7   9
ENDBRANCH   4   7
TORSDOF 3
ENDMDL
MODEL      173
REMARK 921   NORMALIZED FREE ENERGY PREDICTED BY IDOCK:   -3.43 KCAL/MOL
REMARK 922        TOTAL FREE ENERGY PREDICTED BY IDOCK:   -4.50 KCAL/MOL
REMARK 923 INTER-LIGAND FREE ENERGY PREDICTED BY IDOCK:   -4.37 KCAL/MOL
REMARK 924 INTRA-LIGAND FREE ENERGY PREDICTED BY IDOCK:   -0.13 KCAL/MOL
REMARK 927      BINDING AFFINITY PREDICTED BY RF-SCORE:    0.00 PKD
ROOT
HETATM    1  C   UNL     1     -10.140  19.693  68.106  1.00  0.00    -0.556 C  
HETATM    2  C   UNL     1     -10.323  18.398  67.427  1.00  0.00    -0.391 A  
HETATM    3  C   UNL     1     -10.205  17.088  67.820  1.00  0.00    -0.312 A  
HETATM    4  C   UNL     1     -10.484  16.351  66.654  1.00  0.00    -0.274 A  
HETATM    5  O   UNL     1     -10.657  18.440  66.108  1.00  0.00    -0.409 OA 
HETATM    6  N   UNL     1     -10.714  17.146  65.607  1.00  0.00    -0.425 NA 
ENDROOT
BRANCH   4   7
HETATM    7  N   UNL     1     -10.385  14.974  66.527  1.00  0.00    -0.276 N  
HETATM    8  H   UNL     1     -11.112  14.439  66.053  1.00  0.00     0.000 HD 
BRANCH   7   9
HETATM    9  S   UNL     1      -9.028  14.200  67.180  1.00  0.00    -0.232 S  
HETATM   10  O   UNL     1      -7.877  14.749  66.489  1.00  0.00     0.273 OA 
HETATM   11  O   UNL     1      -9.130  14.231  68.622  1.00  0.00    -0.195 OA 
BRANCH   9  12
HETATM   12  C   UNL     1      -9.177  12.508  66.637  1.00  0.00    -0.223 A  
HETATM   13  C   UNL     1     -10.384  12.065  66.083  1.00  0.00    -0.257 A  
HETATM   14  C   UNL     1     -10.492  10.752  65.618  1.00  0.00    -0.255 A  
HETATM   15  C   UNL     1      -9.418   9.863  65.719  1.00  0.00    -0.222 A  
HETATM   16  N   UNL     1      -9.500   8.592  65.140  1.00  0.00    -0.355 NA 
HETATM   17  C   UNL     1      -8.194  10.346  66.192  1.00  0.00    -0.144 A  
HETATM   18  H2  UNL     1      -9.734   8.703  64.154  1.00  0.00     0.000 HD 
HETATM   19  H1  UNL     1      -8.716   7.944  65.214  1.00  0.00     0.000 HD 
HETATM   20  C   UNL     1      -8.072  11.657  66.674  1.00  0.00    -0.121 A  
ENDBRANCH   9  12
ENDBRANCH   7   9
ENDBRANCH   4   7
TORSDOF 3
ENDMDL
MODEL      174
REMARK 921   NORMALIZED FREE ENERGY PREDICTED BY IDOCK:   -3.41 KCAL/MOL
REMARK 922        TOTAL FREE ENERGY PREDICTED BY IDOCK:   -4.47 KCAL/MOL
REMARK 923 INTER-LIGAND FREE ENERGY PREDICTED BY IDOCK:   -4.10 KCAL/MOL
REMARK 924 INTRA-LIGAND FREE ENERGY PREDICTED BY IDOCK:   -0.37 KCAL/MOL
REMARK 927      BINDING AFFINITY PREDICTED BY RF-SCORE:    0.00 PKD
ROOT
HETATM    1  C   UNL     1     -11.937  13.058  63.399  1.00  0.00    -0.592 C  
HETATM    2  C   UNL     1     -11.559  12.763  64.793  1.00  0.00    -0.325 A  
HETATM    3  C   UNL     1     -10.361  12.593  65.442  1.00  0.00    -0.311 A  
HETATM    4  C   UNL     1     -10.726  12.292  66.767  1.00  0.00    -0.240 A  
HETATM    5  O   UNL     1     -12.576  12.579  65.678  1.00  0.00    -0.612 OA 
HETATM    6  N   UNL     1     -12.050  12.235  66.917  1.00  0.00    -0.553 NA 
ENDROOT
BRANCH   4   7
HETATM    7  N   UNL     1      -9.852  11.933  67.782  1.00  0.00    -0.180 N  
HETATM    8  H   UNL     1      -9.428  12.641  68.381  1.00  0.00     0.000 HD 
BRANCH   7   9
HETATM    9  S   UNL     1      -9.505  10.291  68.004  1.00  0.00    -0.147 S  
HETATM   10  O   UNL     1      -8.856  10.184  69.296  1.00  0.00    -0.161 OA 
HETATM   11  O   UNL     1     -10.689   9.523  67.686  1.00  0.00    -0.274 OA 
BRANCH   9  12
HETATM   12  C   UNL     1      -8.253   9.933  66.785  1.00  0.00    -0.124 A  
HETATM   13  C   UNL     1      -7.201  10.835  66.591  1.00  0.00    -0.134 A  
HETATM   14  C   UNL     1      -6.195  10.538  65.667  1.00  0.00    -0.129 A  
HETATM   15  C   UNL     1      -6.235   9.361  64.914  1.00  0.00    -0.072 A  
HETATM   16  N   UNL     1      -5.162   9.021  64.085  1.00  0.00    -0.054 NA 
HETATM   17  C   UNL     1      -7.244   8.430  65.183  1.00  0.00    -0.080 A  
HETATM   18  H2  UNL     1      -4.311   9.013  64.647  1.00  0.00     0.000 HD 
HETATM   19  H1  UNL     1      -5.192   8.162  63.535  1.00  0.00     0.000 HD 
HETATM   20  C   UNL     1      -8.266   8.718  66.098  1.00  0.00    -0.117 A  
ENDBRANCH   9  12
ENDBRANCH   7   9
ENDBRANCH   4   7
TORSDOF 3
ENDMDL
MODEL      175
REMARK 921   NORMALIZED FREE ENERGY PREDICTED BY IDOCK:   -3.40 KCAL/MOL
REMARK 922        TOTAL FREE ENERGY PREDICTED BY IDOCK:   -4.46 KCAL/MOL
REMARK 923 INTER-LIGAND FREE ENERGY PREDICTED BY IDOCK:   -4.49 KCAL/MOL
REMARK 924 INTRA-LIGAND FREE ENERGY PREDICTED BY IDOCK:    0.03 KCAL/MOL
REMARK 927      BINDING AFFINITY PREDICTED BY RF-SCORE:    0.00 PKD
ROOT
HETATM    1  C   UNL     1     -11.409  15.981  64.655  1.00  0.00    -0.312 C  
HETATM    2  C   UNL     1     -11.259  14.618  65.198  1.00  0.00    -0.374 A  
HETATM    3  C   UNL     1     -10.183  13.806  65.458  1.00  0.00    -0.332 A  
HETATM    4  C   UNL     1     -10.758  12.613  65.932  1.00  0.00    -0.266 A  
HETATM    5  O   UNL     1     -12.406  13.952  65.502  1.00  0.00    -0.422 OA 
HETATM    6  N   UNL     1     -12.091  12.666  65.924  1.00  0.00    -0.563 NA 
ENDROOT
BRANCH   4   7
HETATM    7  N   UNL     1     -10.067  11.447  66.228  1.00  0.00    -0.217 N  
HETATM    8  H   UNL     1      -9.669  10.873  65.485  1.00  0.00     0.000 HD 
BRANCH   7   9
HETATM    9  S   UNL     1      -9.901  10.999  67.851  1.00  0.00    -0.175 S  
HETATM   10  O   UNL     1     -10.852   9.927  68.076  1.00  0.00    -0.248 OA 
HETATM   11  O   UNL     1      -8.494  10.834  68.141  1.00  0.00    -0.117 OA 
BRANCH   9  12
HETATM   12  C   UNL     1     -10.507  12.404  68.766  1.00  0.00    -0.154 A  
HETATM   13  C   UNL     1      -9.704  13.545  68.890  1.00  0.00     0.089 A  
HETATM   14  C   UNL     1     -10.192  14.664  69.569  1.00  0.00    -0.040 A  
HETATM   15  C   UNL     1     -11.464  14.656  70.150  1.00  0.00    -0.259 A  
HETATM   16  N   UNL     1     -11.984  15.822  70.720  1.00  0.00    -0.385 NA 
HETATM   17  C   UNL     1     -12.286  13.544  69.941  1.00  0.00    -0.356 A  
HETATM   18  H2  UNL     1     -11.956  16.563  70.019  1.00  0.00     0.000 HD 
HETATM   19  H1  UNL     1     -12.912  15.816  71.143  1.00  0.00     0.000 HD 
HETATM   20  C   UNL     1     -11.808  12.408  69.272  1.00  0.00    -0.361 A  
ENDBRANCH   9  12
ENDBRANCH   7   9
ENDBRANCH   4   7
TORSDOF 3
ENDMDL
MODEL      176
REMARK 921   NORMALIZED FREE ENERGY PREDICTED BY IDOCK:   -3.39 KCAL/MOL
REMARK 922        TOTAL FREE ENERGY PREDICTED BY IDOCK:   -4.45 KCAL/MOL
REMARK 923 INTER-LIGAND FREE ENERGY PREDICTED BY IDOCK:   -4.30 KCAL/MOL
REMARK 924 INTRA-LIGAND FREE ENERGY PREDICTED BY IDOCK:   -0.14 KCAL/MOL
REMARK 927      BINDING AFFINITY PREDICTED BY RF-SCORE:    0.00 PKD
ROOT
HETATM    1  C   UNL     1     -11.378  10.243  69.611  1.00  0.00    -0.315 C  
HETATM    2  C   UNL     1     -11.638  11.513  68.908  1.00  0.00    -0.320 A  
HETATM    3  C   UNL     1     -11.999  11.838  67.624  1.00  0.00    -0.106 A  
HETATM    4  C   UNL     1     -12.036  13.244  67.621  1.00  0.00    -0.249 A  
HETATM    5  O   UNL     1     -11.474  12.656  69.629  1.00  0.00    -0.250 OA 
HETATM    6  N   UNL     1     -11.681  13.753  68.803  1.00  0.00    -0.333 NA 
ENDROOT
BRANCH   4   7
HETATM    7  N   UNL     1     -12.251  14.043  66.508  1.00  0.00    -0.459 N  
HETATM    8  H   UNL     1     -13.178  14.417  66.305  1.00  0.00     0.000 HD 
BRANCH   7   9
HETATM    9  S   UNL     1     -10.940  14.383  65.494  1.00  0.00    -0.348 S  
HETATM   10  O   UNL     1     -10.721  13.190  64.700  1.00  0.00    -0.335 OA 
HETATM   11  O   UNL     1     -11.158  15.673  64.877  1.00  0.00    -0.411 OA 
BRANCH   9  12
HETATM   12  C   UNL     1      -9.545  14.511  66.598  1.00  0.00    -0.276 A  
HETATM   13  C   UNL     1      -8.784  13.370  66.883  1.00  0.00    -0.154 A  
HETATM   14  C   UNL     1      -7.665  13.475  67.714  1.00  0.00    -0.163 A  
HETATM   15  C   UNL     1      -7.306  14.698  68.286  1.00  0.00    -0.117 A  
HETATM   16  N   UNL     1      -6.117  14.811  69.014  1.00  0.00    -0.091 NA 
HETATM   17  C   UNL     1      -8.022  15.842  67.920  1.00  0.00    -0.146 A  
HETATM   18  H2  UNL     1      -5.348  14.494  68.425  1.00  0.00     0.000 HD 
HETATM   19  H1  UNL     1      -5.855  15.704  69.431  1.00  0.00     0.000 HD 
HETATM   20  C   UNL     1      -9.154  15.753  67.098  1.00  0.00    -0.228 A  
ENDBRANCH   9  12
ENDBRANCH   7   9
ENDBRANCH   4   7
TORSDOF 3
ENDMDL
MODEL      177
REMARK 921   NORMALIZED FREE ENERGY PREDICTED BY IDOCK:   -3.37 KCAL/MOL
REMARK 922        TOTAL FREE ENERGY PREDICTED BY IDOCK:   -4.43 KCAL/MOL
REMARK 923 INTER-LIGAND FREE ENERGY PREDICTED BY IDOCK:   -4.10 KCAL/MOL
REMARK 924 INTRA-LIGAND FREE ENERGY PREDICTED BY IDOCK:   -0.33 KCAL/MOL
REMARK 927      BINDING AFFINITY PREDICTED BY RF-SCORE:    0.00 PKD
ROOT
HETATM    1  C   UNL     1      -9.679  18.065  68.692  1.00  0.00    -0.356 C  
HETATM    2  C   UNL     1      -9.635  16.591  68.690  1.00  0.00    -0.241 A  
HETATM    3  C   UNL     1     -10.570  15.608  68.480  1.00  0.00    -0.256 A  
HETATM    4  C   UNL     1      -9.858  14.409  68.669  1.00  0.00    -0.231 A  
HETATM    5  O   UNL     1      -8.438  16.014  68.982  1.00  0.00    -0.218 OA 
HETATM    6  N   UNL     1      -8.589  14.634  69.014  1.00  0.00    -0.139 NA 
ENDROOT
BRANCH   4   7
HETATM    7  N   UNL     1     -10.408  13.136  68.665  1.00  0.00    -0.345 N  
HETATM    8  H   UNL     1     -10.648  12.668  69.539  1.00  0.00     0.000 HD 
BRANCH   7   9
HETATM    9  S   UNL     1     -10.670  12.376  67.176  1.00  0.00    -0.241 S  
HETATM   10  O   UNL     1     -12.100  12.150  67.082  1.00  0.00    -0.575 OA 
HETATM   11  O   UNL     1      -9.951  13.104  66.154  1.00  0.00    -0.281 OA 
BRANCH   9  12
HETATM   12  C   UNL     1      -9.921  10.768  67.359  1.00  0.00    -0.184 A  
HETATM   13  C   UNL     1      -8.568  10.673  67.706  1.00  0.00    -0.123 A  
HETATM   14  C   UNL     1      -7.987   9.416  67.893  1.00  0.00    -0.092 A  
HETATM   15  C   UNL     1      -8.732   8.246  67.714  1.00  0.00    -0.134 A  
HETATM   16  N   UNL     1      -8.171   7.002  68.022  1.00  0.00    -0.118 NA 
HETATM   17  C   UNL     1     -10.101   8.360  67.455  1.00  0.00    -0.279 A  
HETATM   18  H2  UNL     1      -7.841   7.028  68.986  1.00  0.00     0.000 HD 
HETATM   19  H1  UNL     1      -8.715   6.149  67.891  1.00  0.00     0.000 HD 
HETATM   20  C   UNL     1     -10.697   9.613  67.254  1.00  0.00    -0.284 A  
ENDBRANCH   9  12
ENDBRANCH   7   9
ENDBRANCH   4   7
TORSDOF 3
ENDMDL
MODEL      178
REMARK 921   NORMALIZED FREE ENERGY PREDICTED BY IDOCK:   -3.37 KCAL/MOL
REMARK 922        TOTAL FREE ENERGY PREDICTED BY IDOCK:   -4.42 KCAL/MOL
REMARK 923 INTER-LIGAND FREE ENERGY PREDICTED BY IDOCK:   -3.97 KCAL/MOL
REMARK 924 INTRA-LIGAND FREE ENERGY PREDICTED BY IDOCK:   -0.45 KCAL/MOL
REMARK 927      BINDING AFFINITY PREDICTED BY RF-SCORE:    0.00 PKD
ROOT
HETATM    1  C   UNL     1     -13.276  11.247  71.745  1.00  0.00    -0.480 C  
HETATM    2  C   UNL     1     -12.215  11.118  70.729  1.00  0.00    -0.385 A  
HETATM    3  C   UNL     1     -11.207  10.212  70.511  1.00  0.00    -0.411 A  
HETATM    4  C   UNL     1     -10.531  10.712  69.384  1.00  0.00    -0.225 A  
HETATM    5  O   UNL     1     -12.147  12.097  69.787  1.00  0.00    -0.290 OA 
HETATM    6  N   UNL     1     -11.053  11.866  68.963  1.00  0.00    -0.240 NA 
ENDROOT
BRANCH   4   7
HETATM    7  N   UNL     1      -9.365  10.190  68.845  1.00  0.00    -0.169 N  
HETATM    8  H   UNL     1      -8.454  10.565  69.108  1.00  0.00     0.000 HD 
BRANCH   7   9
HETATM    9  S   UNL     1      -9.488   8.914  67.740  1.00  0.00    -0.144 S  
HETATM   10  O   UNL     1     -10.831   8.977  67.196  1.00  0.00    -0.210 OA 
HETATM   11  O   UNL     1      -8.323   8.934  66.882  1.00  0.00    -0.110 OA 
BRANCH   9  12
HETATM   12  C   UNL     1      -9.426   7.444  68.747  1.00  0.00    -0.143 A  
HETATM   13  C   UNL     1     -10.618   6.864  69.195  1.00  0.00    -0.245 A  
HETATM   14  C   UNL     1     -10.576   5.688  69.949  1.00  0.00    -0.399 A  
HETATM   15  C   UNL     1      -9.356   5.093  70.286  1.00  0.00    -0.156 A  
HETATM   16  N   UNL     1      -9.334   3.855  70.935  1.00  0.00    -0.137 NA 
HETATM   17  C   UNL     1      -8.180   5.635  69.757  1.00  0.00    -0.106 A  
HETATM   18  H2  UNL     1      -9.872   3.190  70.379  1.00  0.00     0.000 HD 
HETATM   19  H1  UNL     1      -8.443   3.421  71.180  1.00  0.00     0.000 HD 
HETATM   20  C   UNL     1      -8.205   6.820  69.008  1.00  0.00    -0.117 A  
ENDBRANCH   9  12
ENDBRANCH   7   9
ENDBRANCH   4   7
TORSDOF 3
ENDMDL
MODEL      179
REMARK 921   NORMALIZED FREE ENERGY PREDICTED BY IDOCK:   -3.36 KCAL/MOL
REMARK 922        TOTAL FREE ENERGY PREDICTED BY IDOCK:   -4.41 KCAL/MOL
REMARK 923 INTER-LIGAND FREE ENERGY PREDICTED BY IDOCK:   -3.99 KCAL/MOL
REMARK 924 INTRA-LIGAND FREE ENERGY PREDICTED BY IDOCK:   -0.43 KCAL/MOL
REMARK 927      BINDING AFFINITY PREDICTED BY RF-SCORE:    0.00 PKD
ROOT
HETATM    1  C   UNL     1     -12.598  11.089  70.986  1.00  0.00    -0.512 C  
HETATM    2  C   UNL     1     -11.558  11.114  69.942  1.00  0.00    -0.337 A  
HETATM    3  C   UNL     1     -10.716  10.170  69.409  1.00  0.00    -0.266 A  
HETATM    4  C   UNL     1      -9.945  10.883  68.473  1.00  0.00    -0.182 A  
HETATM    5  O   UNL     1     -11.308  12.317  69.356  1.00  0.00    -0.258 OA 
HETATM    6  N   UNL     1     -10.256  12.181  68.459  1.00  0.00    -0.219 NA 
ENDROOT
BRANCH   4   7
HETATM    7  N   UNL     1      -8.877  10.373  67.751  1.00  0.00    -0.128 N  
HETATM    8  H   UNL     1      -7.935  10.371  68.143  1.00  0.00     0.000 HD 
BRANCH   7   9
HETATM    9  S   UNL     1      -9.171   9.753  66.204  1.00  0.00    -0.190 S  
HETATM   10  O   UNL     1     -10.479  10.242  65.813  1.00  0.00    -0.196 OA 
HETATM   11  O   UNL     1      -8.001   9.986  65.385  1.00  0.00    -0.129 OA 
BRANCH   9  12
HETATM   12  C   UNL     1      -9.347   7.997  66.455  1.00  0.00    -0.200 A  
HETATM   13  C   UNL     1      -8.224   7.168  66.347  1.00  0.00    -0.120 A  
HETATM   14  C   UNL     1      -8.349   5.797  66.584  1.00  0.00    -0.109 A  
HETATM   15  C   UNL     1      -9.587   5.232  66.904  1.00  0.00    -0.145 A  
HETATM   16  N   UNL     1      -9.674   3.882  67.257  1.00  0.00    -0.214 NA 
HETATM   17  C   UNL     1     -10.680   6.084  67.095  1.00  0.00    -0.409 A  
HETATM   18  H2  UNL     1      -9.033   3.710  68.031  1.00  0.00     0.000 HD 
HETATM   19  H1  UNL     1     -10.578   3.471  67.491  1.00  0.00     0.000 HD 
HETATM   20  C   UNL     1     -10.574   7.461  66.850  1.00  0.00    -0.375 A  
ENDBRANCH   9  12
ENDBRANCH   7   9
ENDBRANCH   4   7
TORSDOF 3
ENDMDL
MODEL      180
REMARK 921   NORMALIZED FREE ENERGY PREDICTED BY IDOCK:   -3.36 KCAL/MOL
REMARK 922        TOTAL FREE ENERGY PREDICTED BY IDOCK:   -4.41 KCAL/MOL
REMARK 923 INTER-LIGAND FREE ENERGY PREDICTED BY IDOCK:   -4.14 KCAL/MOL
REMARK 924 INTRA-LIGAND FREE ENERGY PREDICTED BY IDOCK:   -0.27 KCAL/MOL
REMARK 927      BINDING AFFINITY PREDICTED BY RF-SCORE:    0.00 PKD
ROOT
HETATM    1  C   UNL     1      -7.421   9.077  67.606  1.00  0.00    -0.085 C  
HETATM    2  C   UNL     1      -8.625   9.341  68.415  1.00  0.00    -0.124 A  
HETATM    3  C   UNL     1      -8.983  10.325  69.303  1.00  0.00    -0.190 A  
HETATM    4  C   UNL     1     -10.262   9.943  69.745  1.00  0.00    -0.246 A  
HETATM    5  O   UNL     1      -9.632   8.430  68.328  1.00  0.00    -0.141 OA 
HETATM    6  N   UNL     1     -10.650   8.786  69.205  1.00  0.00    -0.221 NA 
ENDROOT
BRANCH   4   7
HETATM    7  N   UNL     1     -10.994  10.576  70.738  1.00  0.00    -0.338 N  
HETATM    8  H   UNL     1     -10.689  10.547  71.711  1.00  0.00     0.000 HD 
BRANCH   7   9
HETATM    9  S   UNL     1     -12.407  11.397  70.299  1.00  0.00    -0.271 S  
HETATM   10  O   UNL     1     -13.157  10.491  69.451  1.00  0.00     0.126 OA 
HETATM   11  O   UNL     1     -12.992  11.976  71.489  1.00  0.00    -0.397 OA 
BRANCH   9  12
HETATM   12  C   UNL     1     -11.844  12.719  69.244  1.00  0.00    -0.303 A  
HETATM   13  C   UNL     1     -11.797  12.523  67.858  1.00  0.00    -0.383 A  
HETATM   14  C   UNL     1     -11.397  13.570  67.024  1.00  0.00    -0.348 A  
HETATM   15  C   UNL     1     -11.018  14.807  67.553  1.00  0.00    -0.304 A  
HETATM   16  N   UNL     1     -10.738  15.880  66.701  1.00  0.00    -0.303 NA 
HETATM   17  C   UNL     1     -11.156  15.015  68.929  1.00  0.00    -0.274 A  
HETATM   18  H2  UNL     1     -11.542  16.025  66.091  1.00  0.00     0.000 HD 
HETATM   19  H1  UNL     1     -10.462  16.783  67.088  1.00  0.00     0.000 HD 
HETATM   20  C   UNL     1     -11.545  13.971  69.781  1.00  0.00    -0.344 A  
ENDBRANCH   9  12
ENDBRANCH   7   9
ENDBRANCH   4   7
TORSDOF 3
ENDMDL
MODEL      181
REMARK 921   NORMALIZED FREE ENERGY PREDICTED BY IDOCK:   -3.33 KCAL/MOL
REMARK 922        TOTAL FREE ENERGY PREDICTED BY IDOCK:   -4.38 KCAL/MOL
REMARK 923 INTER-LIGAND FREE ENERGY PREDICTED BY IDOCK:   -4.23 KCAL/MOL
REMARK 924 INTRA-LIGAND FREE ENERGY PREDICTED BY IDOCK:   -0.15 KCAL/MOL
REMARK 927      BINDING AFFINITY PREDICTED BY RF-SCORE:    0.00 PKD
ROOT
HETATM    1  C   UNL     1      -8.850   2.889  71.611  1.00  0.00    -0.124 C  
HETATM    2  C   UNL     1      -9.728   3.981  72.070  1.00  0.00    -0.165 A  
HETATM    3  C   UNL     1      -9.755   5.338  71.861  1.00  0.00    -0.204 A  
HETATM    4  C   UNL     1     -10.841   5.785  72.635  1.00  0.00    -0.254 A  
HETATM    5  O   UNL     1     -10.740   3.640  72.914  1.00  0.00    -0.164 OA 
HETATM    6  N   UNL     1     -11.416   4.787  73.308  1.00  0.00    -0.330 NA 
ENDROOT
BRANCH   4   7
HETATM    7  N   UNL     1     -11.201   7.111  72.829  1.00  0.00    -0.388 N  
HETATM    8  H   UNL     1     -10.839   7.640  73.622  1.00  0.00     0.000 HD 
BRANCH   7   9
HETATM    9  S   UNL     1     -12.257   7.830  71.719  1.00  0.00    -0.318 S  
HETATM   10  O   UNL     1     -13.433   6.982  71.669  1.00  0.00    -0.365 OA 
HETATM   11  O   UNL     1     -12.355   9.240  72.024  1.00  0.00    -0.365 OA 
BRANCH   9  12
HETATM   12  C   UNL     1     -11.441   7.646  70.144  1.00  0.00    -0.066 A  
HETATM   13  C   UNL     1     -11.708   6.519  69.356  1.00  0.00    -0.088 A  
HETATM   14  C   UNL     1     -11.104   6.392  68.103  1.00  0.00    -0.358 A  
HETATM   15  C   UNL     1     -10.214   7.362  67.631  1.00  0.00    -0.201 A  
HETATM   16  N   UNL     1      -9.713   7.282  66.328  1.00  0.00    -0.413 NA 
HETATM   17  C   UNL     1     -10.027   8.522  68.391  1.00  0.00    -0.208 A  
HETATM   18  H2  UNL     1     -10.501   7.228  65.683  1.00  0.00     0.000 HD 
HETATM   19  H1  UNL     1      -9.064   7.990  65.985  1.00  0.00     0.000 HD 
HETATM   20  C   UNL     1     -10.617   8.660  69.655  1.00  0.00    -0.219 A  
ENDBRANCH   9  12
ENDBRANCH   7   9
ENDBRANCH   4   7
TORSDOF 3
ENDMDL
MODEL      182
REMARK 921   NORMALIZED FREE ENERGY PREDICTED BY IDOCK:   -3.32 KCAL/MOL
REMARK 922        TOTAL FREE ENERGY PREDICTED BY IDOCK:   -4.37 KCAL/MOL
REMARK 923 INTER-LIGAND FREE ENERGY PREDICTED BY IDOCK:   -4.07 KCAL/MOL
REMARK 924 INTRA-LIGAND FREE ENERGY PREDICTED BY IDOCK:   -0.30 KCAL/MOL
REMARK 927      BINDING AFFINITY PREDICTED BY RF-SCORE:    0.00 PKD
ROOT
HETATM    1  C   UNL     1     -12.375  13.205  63.265  1.00  0.00    -0.366 C  
HETATM    2  C   UNL     1     -11.361  12.718  64.218  1.00  0.00    -0.367 A  
HETATM    3  C   UNL     1     -10.432  13.331  65.022  1.00  0.00    -0.367 A  
HETATM    4  C   UNL     1      -9.758  12.266  65.646  1.00  0.00    -0.192 A  
HETATM    5  O   UNL     1     -11.251  11.368  64.358  1.00  0.00    -0.304 OA 
HETATM    6  N   UNL     1     -10.206  11.081  65.226  1.00  0.00    -0.270 NA 
ENDROOT
BRANCH   4   7
HETATM    7  N   UNL     1      -8.653  12.386  66.475  1.00  0.00    -0.398 N  
HETATM    8  H   UNL     1      -7.708  12.304  66.102  1.00  0.00     0.000 HD 
BRANCH   7   9
HETATM    9  S   UNL     1      -8.910  12.671  68.124  1.00  0.00    -0.182 S  
HETATM   10  O   UNL     1      -7.653  13.165  68.651  1.00  0.00    -0.126 OA 
HETATM   11  O   UNL     1     -10.139  13.419  68.275  1.00  0.00    -0.237 OA 
BRANCH   9  12
HETATM   12  C   UNL     1      -9.144  11.048  68.825  1.00  0.00    -0.157 A  
HETATM   13  C   UNL     1      -8.064  10.400  69.438  1.00  0.00    -0.161 A  
HETATM   14  C   UNL     1      -8.253   9.147  70.027  1.00  0.00    -0.146 A  
HETATM   15  C   UNL     1      -9.501   8.516  69.992  1.00  0.00    -0.164 A  
HETATM   16  N   UNL     1      -9.703   7.321  70.689  1.00  0.00    -0.176 NA 
HETATM   17  C   UNL     1     -10.587   9.215  69.455  1.00  0.00    -0.233 A  
HETATM   18  H2  UNL     1      -9.446   7.470  71.665  1.00  0.00     0.000 HD 
HETATM   19  H1  UNL     1     -10.614   6.861  70.664  1.00  0.00     0.000 HD 
HETATM   20  C   UNL     1     -10.412  10.468  68.851  1.00  0.00    -0.226 A  
ENDBRANCH   9  12
ENDBRANCH   7   9
ENDBRANCH   4   7
TORSDOF 3
ENDMDL
MODEL      183
REMARK 921   NORMALIZED FREE ENERGY PREDICTED BY IDOCK:   -3.31 KCAL/MOL
REMARK 922        TOTAL FREE ENERGY PREDICTED BY IDOCK:   -4.36 KCAL/MOL
REMARK 923 INTER-LIGAND FREE ENERGY PREDICTED BY IDOCK:   -4.51 KCAL/MOL
REMARK 924 INTRA-LIGAND FREE ENERGY PREDICTED BY IDOCK:    0.15 KCAL/MOL
REMARK 927      BINDING AFFINITY PREDICTED BY RF-SCORE:    0.00 PKD
ROOT
HETATM    1  C   UNL     1      -5.704   9.230  70.947  1.00  0.00    -0.051 C  
HETATM    2  C   UNL     1      -6.927   8.899  71.700  1.00  0.00    -0.041 A  
HETATM    3  C   UNL     1      -8.245   8.732  71.355  1.00  0.00    -0.203 A  
HETATM    4  C   UNL     1      -8.891   8.466  72.576  1.00  0.00    -0.225 A  
HETATM    5  O   UNL     1      -6.793   8.740  73.045  1.00  0.00    -0.303 OA 
HETATM    6  N   UNL     1      -8.043   8.511  73.606  1.00  0.00    -0.404 NA 
ENDROOT
BRANCH   4   7
HETATM    7  N   UNL     1     -10.260   8.331  72.752  1.00  0.00    -0.294 N  
HETATM    8  H   UNL     1     -10.704   8.606  73.628  1.00  0.00     0.000 HD 
BRANCH   7   9
HETATM    9  S   UNL     1     -11.177   7.698  71.478  1.00  0.00    -0.252 S  
HETATM   10  O   UNL     1     -10.365   6.665  70.867  1.00  0.00    -0.204 OA 
HETATM   11  O   UNL     1     -12.511   7.422  71.965  1.00  0.00    -0.297 OA 
BRANCH   9  12
HETATM   12  C   UNL     1     -11.271   9.028  70.294  1.00  0.00    -0.205 A  
HETATM   13  C   UNL     1     -10.818   8.818  68.985  1.00  0.00    -0.052 A  
HETATM   14  C   UNL     1     -10.929   9.844  68.042  1.00  0.00    -0.269 A  
HETATM   15  C   UNL     1     -11.463  11.088  68.391  1.00  0.00    -0.308 A  
HETATM   16  N   UNL     1     -11.679  12.060  67.410  1.00  0.00    -0.541 NA 
HETATM   17  C   UNL     1     -11.991  11.251  69.676  1.00  0.00    -0.423 A  
HETATM   18  H2  UNL     1     -12.262  11.654  66.677  1.00  0.00     0.000 HD 
HETATM   19  H1  UNL     1     -12.069  12.967  67.665  1.00  0.00     0.000 HD 
HETATM   20  C   UNL     1     -11.878  10.236  70.637  1.00  0.00    -0.439 A  
ENDBRANCH   9  12
ENDBRANCH   7   9
ENDBRANCH   4   7
TORSDOF 3
ENDMDL
MODEL      184
REMARK 921   NORMALIZED FREE ENERGY PREDICTED BY IDOCK:   -3.26 KCAL/MOL
REMARK 922        TOTAL FREE ENERGY PREDICTED BY IDOCK:   -4.29 KCAL/MOL
REMARK 923 INTER-LIGAND FREE ENERGY PREDICTED BY IDOCK:   -3.89 KCAL/MOL
REMARK 924 INTRA-LIGAND FREE ENERGY PREDICTED BY IDOCK:   -0.40 KCAL/MOL
REMARK 927      BINDING AFFINITY PREDICTED BY RF-SCORE:    0.00 PKD
ROOT
HETATM    1  C   UNL     1      -9.856   4.853  67.134  1.00  0.00    -0.215 C  
HETATM    2  C   UNL     1      -9.213   5.326  68.374  1.00  0.00    -0.113 A  
HETATM    3  C   UNL     1      -8.920   6.566  68.885  1.00  0.00    -0.128 A  
HETATM    4  C   UNL     1      -8.264   6.293  70.098  1.00  0.00    -0.121 A  
HETATM    5  O   UNL     1      -8.763   4.371  69.233  1.00  0.00    -0.083 OA 
HETATM    6  N   UNL     1      -8.121   4.982  70.302  1.00  0.00    -0.083 NA 
ENDROOT
BRANCH   4   7
HETATM    7  N   UNL     1      -7.679   7.237  70.929  1.00  0.00    -0.091 N  
HETATM    8  H   UNL     1      -6.861   7.765  70.625  1.00  0.00     0.000 HD 
BRANCH   7   9
HETATM    9  S   UNL     1      -8.353   7.492  72.460  1.00  0.00    -0.119 S  
HETATM   10  O   UNL     1      -8.313   6.212  73.140  1.00  0.00    -0.118 OA 
HETATM   11  O   UNL     1      -7.751   8.674  73.038  1.00  0.00    -0.361 OA 
BRANCH   9  12
HETATM   12  C   UNL     1     -10.073   7.833  72.138  1.00  0.00    -0.210 A  
HETATM   13  C   UNL     1     -10.426   8.983  71.419  1.00  0.00    -0.395 A  
HETATM   14  C   UNL     1     -11.770   9.231  71.127  1.00  0.00    -0.394 A  
HETATM   15  C   UNL     1     -12.774   8.362  71.564  1.00  0.00    -0.308 A  
HETATM   16  N   UNL     1     -14.098   8.559  71.160  1.00  0.00    -0.621 NA 
HETATM   17  C   UNL     1     -12.398   7.175  72.201  1.00  0.00    -0.228 A  
HETATM   18  H2  UNL     1     -14.123   8.594  70.141  1.00  0.00     0.000 HD 
HETATM   19  H1  UNL     1     -14.830   7.924  71.478  1.00  0.00     0.000 HD 
HETATM   20  C   UNL     1     -11.056   6.916  72.511  1.00  0.00    -0.302 A  
ENDBRANCH   9  12
ENDBRANCH   7   9
ENDBRANCH   4   7
TORSDOF 3
ENDMDL
MODEL      185
REMARK 921   NORMALIZED FREE ENERGY PREDICTED BY IDOCK:   -3.25 KCAL/MOL
REMARK 922        TOTAL FREE ENERGY PREDICTED BY IDOCK:   -4.28 KCAL/MOL
REMARK 923 INTER-LIGAND FREE ENERGY PREDICTED BY IDOCK:   -3.93 KCAL/MOL
REMARK 924 INTRA-LIGAND FREE ENERGY PREDICTED BY IDOCK:   -0.35 KCAL/MOL
REMARK 927      BINDING AFFINITY PREDICTED BY RF-SCORE:    0.00 PKD
ROOT
HETATM    1  C   UNL     1     -14.388   8.220  71.500  1.00  0.00    -0.525 C  
HETATM    2  C   UNL     1     -12.941   8.072  71.260  1.00  0.00    -0.179 A  
HETATM    3  C   UNL     1     -11.966   8.900  70.763  1.00  0.00    -0.184 A  
HETATM    4  C   UNL     1     -10.804   8.107  70.767  1.00  0.00    -0.228 A  
HETATM    5  O   UNL     1     -12.394   6.859  71.547  1.00  0.00    -0.343 OA 
HETATM    6  N   UNL     1     -11.051   6.866  71.192  1.00  0.00    -0.250 NA 
ENDROOT
BRANCH   4   7
HETATM    7  N   UNL     1      -9.572   8.478  70.250  1.00  0.00    -0.164 N  
HETATM    8  H   UNL     1      -8.860   8.899  70.848  1.00  0.00     0.000 HD 
BRANCH   7   9
HETATM    9  S   UNL     1      -9.277   8.219  68.604  1.00  0.00    -0.142 S  
HETATM   10  O   UNL     1      -7.843   8.052  68.470  1.00  0.00    -0.110 OA 
HETATM   11  O   UNL     1     -10.203   7.217  68.123  1.00  0.00    -0.173 OA 
BRANCH   9  12
HETATM   12  C   UNL     1      -9.674   9.776  67.830  1.00  0.00    -0.144 A  
HETATM   13  C   UNL     1      -9.849   9.831  66.442  1.00  0.00    -0.298 A  
HETATM   14  C   UNL     1     -10.202  11.040  65.836  1.00  0.00    -0.309 A  
HETATM   15  C   UNL     1     -10.359  12.204  66.593  1.00  0.00    -0.208 A  
HETATM   16  N   UNL     1     -10.830  13.375  65.990  1.00  0.00    -0.273 NA 
HETATM   17  C   UNL     1     -10.269  12.113  67.985  1.00  0.00    -0.203 A  
HETATM   18  H2  UNL     1     -11.717  13.167  65.532  1.00  0.00     0.000 HD 
HETATM   19  H1  UNL     1     -10.946  14.225  66.543  1.00  0.00     0.000 HD 
HETATM   20  C   UNL     1      -9.904  10.911  68.608  1.00  0.00    -0.194 A  
ENDBRANCH   9  12
ENDBRANCH   7   9
ENDBRANCH   4   7
TORSDOF 3
ENDMDL
MODEL      186
REMARK 921   NORMALIZED FREE ENERGY PREDICTED BY IDOCK:   -3.22 KCAL/MOL
REMARK 922        TOTAL FREE ENERGY PREDICTED BY IDOCK:   -4.25 KCAL/MOL
REMARK 923 INTER-LIGAND FREE ENERGY PREDICTED BY IDOCK:   -3.90 KCAL/MOL
REMARK 924 INTRA-LIGAND FREE ENERGY PREDICTED BY IDOCK:   -0.36 KCAL/MOL
REMARK 927      BINDING AFFINITY PREDICTED BY RF-SCORE:    0.00 PKD
ROOT
HETATM    1  C   UNL     1      -7.699   3.568  64.811  1.00  0.00    -0.078 C  
HETATM    2  C   UNL     1      -8.015   4.628  65.786  1.00  0.00    -0.099 A  
HETATM    3  C   UNL     1      -8.269   5.973  65.686  1.00  0.00    -0.139 A  
HETATM    4  C   UNL     1      -8.454   6.389  67.017  1.00  0.00    -0.112 A  
HETATM    5  O   UNL     1      -8.052   4.262  67.097  1.00  0.00    -0.099 OA 
HETATM    6  N   UNL     1      -8.284   5.386  67.880  1.00  0.00    -0.100 NA 
ENDROOT
BRANCH   4   7
HETATM    7  N   UNL     1      -8.633   7.700  67.435  1.00  0.00    -0.124 N  
HETATM    8  H   UNL     1      -7.833   8.284  67.679  1.00  0.00     0.000 HD 
BRANCH   7   9
HETATM    9  S   UNL     1     -10.209   8.308  67.530  1.00  0.00    -0.263 S  
HETATM   10  O   UNL     1     -11.070   7.298  66.946  1.00  0.00    -0.287 OA 
HETATM   11  O   UNL     1     -10.429   8.806  68.870  1.00  0.00    -0.215 OA 
BRANCH   9  12
HETATM   12  C   UNL     1     -10.222   9.689  66.403  1.00  0.00    -0.217 A  
HETATM   13  C   UNL     1     -11.031  10.799  66.680  1.00  0.00    -0.173 A  
HETATM   14  C   UNL     1     -11.012  11.901  65.821  1.00  0.00    -0.359 A  
HETATM   15  C   UNL     1     -10.215  11.905  64.673  1.00  0.00    -0.278 A  
HETATM   16  N   UNL     1     -10.114  13.061  63.892  1.00  0.00    -0.757 NA 
HETATM   17  C   UNL     1      -9.348  10.829  64.459  1.00  0.00    -0.273 A  
HETATM   18  H2  UNL     1      -9.818  13.830  64.492  1.00  0.00     0.000 HD 
HETATM   19  H1  UNL     1      -9.532  13.063  63.054  1.00  0.00     0.000 HD 
HETATM   20  C   UNL     1      -9.362   9.710  65.304  1.00  0.00    -0.322 A  
ENDBRANCH   9  12
ENDBRANCH   7   9
ENDBRANCH   4   7
TORSDOF 3
ENDMDL
MODEL      187
REMARK 921   NORMALIZED FREE ENERGY PREDICTED BY IDOCK:   -3.22 KCAL/MOL
REMARK 922        TOTAL FREE ENERGY PREDICTED BY IDOCK:   -4.25 KCAL/MOL
REMARK 923 INTER-LIGAND FREE ENERGY PREDICTED BY IDOCK:   -3.96 KCAL/MOL
REMARK 924 INTRA-LIGAND FREE ENERGY PREDICTED BY IDOCK:   -0.29 KCAL/MOL
REMARK 927      BINDING AFFINITY PREDICTED BY RF-SCORE:    0.00 PKD
ROOT
HETATM    1  C   UNL     1      -7.486   3.989  63.937  1.00  0.00    -0.062 C  
HETATM    2  C   UNL     1      -7.918   4.775  65.108  1.00  0.00    -0.097 A  
HETATM    3  C   UNL     1      -8.384   6.055  65.280  1.00  0.00    -0.148 A  
HETATM    4  C   UNL     1      -8.568   6.171  66.669  1.00  0.00    -0.118 A  
HETATM    5  O   UNL     1      -7.833   4.164  66.321  1.00  0.00    -0.093 OA 
HETATM    6  N   UNL     1      -8.201   5.062  67.314  1.00  0.00    -0.107 NA 
ENDROOT
BRANCH   4   7
HETATM    7  N   UNL     1      -8.930   7.330  67.341  1.00  0.00    -0.122 N  
HETATM    8  H   UNL     1      -8.222   7.938  67.752  1.00  0.00     0.000 HD 
BRANCH   7   9
HETATM    9  S   UNL     1     -10.574   7.711  67.463  1.00  0.00    -0.226 S  
HETATM   10  O   UNL     1     -10.704   9.091  67.039  1.00  0.00    -0.242 OA 
HETATM   11  O   UNL     1     -11.339   6.653  66.840  1.00  0.00    -0.333 OA 
BRANCH   9  12
HETATM   12  C   UNL     1     -10.906   7.693  69.215  1.00  0.00    -0.099 A  
HETATM   13  C   UNL     1     -11.341   6.509  69.823  1.00  0.00    -0.456 A  
HETATM   14  C   UNL     1     -11.561   6.479  71.203  1.00  0.00    -0.390 A  
HETATM   15  C   UNL     1     -11.378   7.623  71.985  1.00  0.00    -0.278 A  
HETATM   16  N   UNL     1     -11.484   7.546  73.377  1.00  0.00    -0.597 NA 
HETATM   17  C   UNL     1     -10.859   8.771  71.378  1.00  0.00    -0.359 A  
HETATM   18  H2  UNL     1     -10.845   6.824  73.710  1.00  0.00     0.000 HD 
HETATM   19  H1  UNL     1     -11.350   8.381  73.948  1.00  0.00     0.000 HD 
HETATM   20  C   UNL     1     -10.643   8.821  69.994  1.00  0.00    -0.232 A  
ENDBRANCH   9  12
ENDBRANCH   7   9
ENDBRANCH   4   7
TORSDOF 3
ENDMDL
MODEL      188
REMARK 921   NORMALIZED FREE ENERGY PREDICTED BY IDOCK:   -3.22 KCAL/MOL
REMARK 922        TOTAL FREE ENERGY PREDICTED BY IDOCK:   -4.25 KCAL/MOL
REMARK 923 INTER-LIGAND FREE ENERGY PREDICTED BY IDOCK:   -4.06 KCAL/MOL
REMARK 924 INTRA-LIGAND FREE ENERGY PREDICTED BY IDOCK:   -0.19 KCAL/MOL
REMARK 927      BINDING AFFINITY PREDICTED BY RF-SCORE:    0.00 PKD
ROOT
HETATM    1  C   UNL     1     -12.805  11.870  71.833  1.00  0.00    -0.341 C  
HETATM    2  C   UNL     1     -12.367  12.159  70.455  1.00  0.00    -0.272 A  
HETATM    3  C   UNL     1     -12.107  11.383  69.353  1.00  0.00    -0.358 A  
HETATM    4  C   UNL     1     -11.687  12.303  68.375  1.00  0.00    -0.337 A  
HETATM    5  O   UNL     1     -12.122  13.463  70.152  1.00  0.00    -0.333 OA 
HETATM    6  N   UNL     1     -11.647  13.549  68.849  1.00  0.00    -0.299 NA 
ENDROOT
BRANCH   4   7
HETATM    7  N   UNL     1     -11.211  11.977  67.114  1.00  0.00    -0.296 N  
HETATM    8  H   UNL     1     -11.814  12.044  66.294  1.00  0.00     0.000 HD 
BRANCH   7   9
HETATM    9  S   UNL     1      -9.604  11.466  66.966  1.00  0.00    -0.177 S  
HETATM   10  O   UNL     1      -9.492  10.851  65.658  1.00  0.00    -0.195 OA 
HETATM   11  O   UNL     1      -8.737  12.552  67.369  1.00  0.00    -0.171 OA 
BRANCH   9  12
HETATM   12  C   UNL     1      -9.446  10.145  68.154  1.00  0.00    -0.142 A  
HETATM   13  C   UNL     1     -10.079   8.920  67.911  1.00  0.00    -0.255 A  
HETATM   14  C   UNL     1      -9.923   7.868  68.818  1.00  0.00    -0.194 A  
HETATM   15  C   UNL     1      -9.164   8.028  69.981  1.00  0.00    -0.156 A  
HETATM   16  N   UNL     1      -8.917   6.933  70.815  1.00  0.00    -0.150 NA 
HETATM   17  C   UNL     1      -8.467   9.226  70.164  1.00  0.00    -0.206 A  
HETATM   18  H2  UNL     1      -8.497   6.190  70.256  1.00  0.00     0.000 HD 
HETATM   19  H1  UNL     1      -8.363   7.049  71.663  1.00  0.00     0.000 HD 
HETATM   20  C   UNL     1      -8.622  10.295  69.270  1.00  0.00    -0.175 A  
ENDBRANCH   9  12
ENDBRANCH   7   9
ENDBRANCH   4   7
TORSDOF 3
ENDMDL
MODEL      189
REMARK 921   NORMALIZED FREE ENERGY PREDICTED BY IDOCK:   -3.21 KCAL/MOL
REMARK 922        TOTAL FREE ENERGY PREDICTED BY IDOCK:   -4.24 KCAL/MOL
REMARK 923 INTER-LIGAND FREE ENERGY PREDICTED BY IDOCK:   -4.23 KCAL/MOL
REMARK 924 INTRA-LIGAND FREE ENERGY PREDICTED BY IDOCK:   -0.01 KCAL/MOL
REMARK 927      BINDING AFFINITY PREDICTED BY RF-SCORE:    0.00 PKD
ROOT
HETATM    1  C   UNL     1     -13.259  11.192  71.831  1.00  0.00    -0.488 C  
HETATM    2  C   UNL     1     -12.121  10.712  71.025  1.00  0.00    -0.368 A  
HETATM    3  C   UNL     1     -11.320   9.598  71.072  1.00  0.00    -0.444 A  
HETATM    4  C   UNL     1     -10.397   9.793  70.028  1.00  0.00    -0.263 A  
HETATM    5  O   UNL     1     -11.704  11.520  70.013  1.00  0.00    -0.311 OA 
HETATM    6  N   UNL     1     -10.584  10.961  69.410  1.00  0.00    -0.218 NA 
ENDROOT
BRANCH   4   7
HETATM    7  N   UNL     1      -9.313   8.975  69.747  1.00  0.00    -0.164 N  
HETATM    8  H   UNL     1      -8.430   9.089  70.245  1.00  0.00     0.000 HD 
BRANCH   7   9
HETATM    9  S   UNL     1      -9.489   7.783  68.559  1.00  0.00    -0.149 S  
HETATM   10  O   UNL     1      -8.321   6.931  68.662  1.00  0.00    -0.120 OA 
HETATM   11  O   UNL     1     -10.829   7.242  68.644  1.00  0.00    -0.170 OA 
BRANCH   9  12
HETATM   12  C   UNL     1      -9.331   8.664  67.017  1.00  0.00    -0.159 A  
HETATM   13  C   UNL     1     -10.366   9.507  66.594  1.00  0.00    -0.280 A  
HETATM   14  C   UNL     1     -10.228  10.233  65.408  1.00  0.00    -0.312 A  
HETATM   15  C   UNL     1      -9.079  10.112  64.621  1.00  0.00    -0.227 A  
HETATM   16  N   UNL     1      -8.904  10.934  63.503  1.00  0.00    -0.336 NA 
HETATM   17  C   UNL     1      -8.019   9.336  65.101  1.00  0.00    -0.116 A  
HETATM   18  H2  UNL     1      -8.988  11.905  63.802  1.00  0.00     0.000 HD 
HETATM   19  H1  UNL     1      -8.065  10.846  62.929  1.00  0.00     0.000 HD 
HETATM   20  C   UNL     1      -8.146   8.593  66.283  1.00  0.00    -0.103 A  
ENDBRANCH   9  12
ENDBRANCH   7   9
ENDBRANCH   4   7
TORSDOF 3
ENDMDL
MODEL      190
REMARK 921   NORMALIZED FREE ENERGY PREDICTED BY IDOCK:   -3.18 KCAL/MOL
REMARK 922        TOTAL FREE ENERGY PREDICTED BY IDOCK:   -4.21 KCAL/MOL
REMARK 923 INTER-LIGAND FREE ENERGY PREDICTED BY IDOCK:   -3.84 KCAL/MOL
REMARK 924 INTRA-LIGAND FREE ENERGY PREDICTED BY IDOCK:   -0.36 KCAL/MOL
REMARK 927      BINDING AFFINITY PREDICTED BY RF-SCORE:    0.00 PKD
ROOT
HETATM    1  C   UNL     1     -10.954  12.216  63.208  1.00  0.00    -0.398 C  
HETATM    2  C   UNL     1     -11.073  11.773  64.609  1.00  0.00    -0.303 A  
HETATM    3  C   UNL     1     -11.792  12.212  65.692  1.00  0.00    -0.343 A  
HETATM    4  C   UNL     1     -11.401  11.355  66.737  1.00  0.00    -0.179 A  
HETATM    5  O   UNL     1     -10.303  10.714  64.983  1.00  0.00    -0.310 OA 
HETATM    6  N   UNL     1     -10.476  10.479  66.341  1.00  0.00    -0.220 NA 
ENDROOT
BRANCH   4   7
HETATM    7  N   UNL     1     -11.784  11.474  68.064  1.00  0.00    -0.299 N  
HETATM    8  H   UNL     1     -12.677  11.100  68.386  1.00  0.00     0.000 HD 
BRANCH   7   9
HETATM    9  S   UNL     1     -10.736  12.256  69.138  1.00  0.00     0.041 S  
HETATM   10  O   UNL     1     -11.573  12.858  70.158  1.00  0.00    -0.200 OA 
HETATM   11  O   UNL     1      -9.664  11.346  69.480  1.00  0.00     0.223 OA 
BRANCH   9  12
HETATM   12  C   UNL     1     -10.053  13.605  68.192  1.00  0.00    -0.245 A  
HETATM   13  C   UNL     1     -10.820  14.757  67.981  1.00  0.00    -0.261 A  
HETATM   14  C   UNL     1     -10.274  15.833  67.276  1.00  0.00    -0.268 A  
HETATM   15  C   UNL     1      -8.978  15.768  66.755  1.00  0.00    -0.260 A  
HETATM   16  N   UNL     1      -8.403  16.895  66.159  1.00  0.00    -0.446 NA 
HETATM   17  C   UNL     1      -8.195  14.647  67.050  1.00  0.00    -0.188 A  
HETATM   18  H2  UNL     1      -8.443  17.667  66.825  1.00  0.00     0.000 HD 
HETATM   19  H1  UNL     1      -7.457  16.847  65.779  1.00  0.00     0.000 HD 
HETATM   20  C   UNL     1      -8.732  13.555  67.746  1.00  0.00    -0.189 A  
ENDBRANCH   9  12
ENDBRANCH   7   9
ENDBRANCH   4   7
TORSDOF 3
ENDMDL
MODEL      191
REMARK 921   NORMALIZED FREE ENERGY PREDICTED BY IDOCK:   -3.17 KCAL/MOL
REMARK 922        TOTAL FREE ENERGY PREDICTED BY IDOCK:   -4.19 KCAL/MOL
REMARK 923 INTER-LIGAND FREE ENERGY PREDICTED BY IDOCK:   -3.95 KCAL/MOL
REMARK 924 INTRA-LIGAND FREE ENERGY PREDICTED BY IDOCK:   -0.24 KCAL/MOL
REMARK 927      BINDING AFFINITY PREDICTED BY RF-SCORE:    0.00 PKD
ROOT
HETATM    1  C   UNL     1     -11.221   3.711  73.560  1.00  0.00    -0.285 C  
HETATM    2  C   UNL     1     -11.041   5.115  73.146  1.00  0.00    -0.326 A  
HETATM    3  C   UNL     1     -11.193   5.787  71.959  1.00  0.00    -0.307 A  
HETATM    4  C   UNL     1     -10.813   7.108  72.259  1.00  0.00    -0.232 A  
HETATM    5  O   UNL     1     -10.601   5.983  74.098  1.00  0.00    -0.260 OA 
HETATM    6  N   UNL     1     -10.413   7.234  73.526  1.00  0.00    -0.374 NA 
ENDROOT
BRANCH   4   7
HETATM    7  N   UNL     1     -10.700   8.143  71.343  1.00  0.00    -0.227 N  
HETATM    8  H   UNL     1     -11.489   8.759  71.150  1.00  0.00     0.000 HD 
BRANCH   7   9
HETATM    9  S   UNL     1      -9.220   8.359  70.551  1.00  0.00    -0.157 S  
HETATM   10  O   UNL     1      -8.360   9.065  71.482  1.00  0.00    -0.304 OA 
HETATM   11  O   UNL     1      -8.824   7.098  69.963  1.00  0.00    -0.141 OA 
BRANCH   9  12
HETATM   12  C   UNL     1      -9.582   9.509  69.237  1.00  0.00    -0.175 A  
HETATM   13  C   UNL     1     -10.080   9.029  68.019  1.00  0.00    -0.234 A  
HETATM   14  C   UNL     1     -10.406   9.930  67.001  1.00  0.00    -0.303 A  
HETATM   15  C   UNL     1     -10.219  11.305  67.171  1.00  0.00    -0.201 A  
HETATM   16  N   UNL     1     -10.662  12.200  66.192  1.00  0.00    -0.263 NA 
HETATM   17  C   UNL     1      -9.806  11.773  68.422  1.00  0.00    -0.199 A  
HETATM   18  H2  UNL     1     -11.653  12.028  66.024  1.00  0.00     0.000 HD 
HETATM   19  H1  UNL     1     -10.526  13.203  66.316  1.00  0.00     0.000 HD 
HETATM   20  C   UNL     1      -9.464  10.883  69.449  1.00  0.00     0.036 A  
ENDBRANCH   9  12
ENDBRANCH   7   9
ENDBRANCH   4   7
TORSDOF 3
ENDMDL
MODEL      192
REMARK 921   NORMALIZED FREE ENERGY PREDICTED BY IDOCK:   -3.17 KCAL/MOL
REMARK 922        TOTAL FREE ENERGY PREDICTED BY IDOCK:   -4.19 KCAL/MOL
REMARK 923 INTER-LIGAND FREE ENERGY PREDICTED BY IDOCK:   -3.87 KCAL/MOL
REMARK 924 INTRA-LIGAND FREE ENERGY PREDICTED BY IDOCK:   -0.32 KCAL/MOL
REMARK 927      BINDING AFFINITY PREDICTED BY RF-SCORE:    0.00 PKD
ROOT
HETATM    1  C   UNL     1     -11.845  11.918  69.719  1.00  0.00    -0.411 C  
HETATM    2  C   UNL     1     -11.256  10.648  70.181  1.00  0.00    -0.302 A  
HETATM    3  C   UNL     1     -11.641   9.689  71.084  1.00  0.00    -0.456 A  
HETATM    4  C   UNL     1     -10.588   8.756  71.068  1.00  0.00    -0.230 A  
HETATM    5  O   UNL     1     -10.048  10.306  69.654  1.00  0.00    -0.230 OA 
HETATM    6  N   UNL     1      -9.604   9.133  70.250  1.00  0.00    -0.197 NA 
ENDROOT
BRANCH   4   7
HETATM    7  N   UNL     1     -10.474   7.655  71.903  1.00  0.00    -0.211 N  
HETATM    8  H   UNL     1      -9.917   7.701  72.756  1.00  0.00     0.000 HD 
BRANCH   7   9
HETATM    9  S   UNL     1     -11.278   6.230  71.472  1.00  0.00    -0.293 S  
HETATM   10  O   UNL     1     -12.521   6.223  72.219  1.00  0.00    -0.239 OA 
HETATM   11  O   UNL     1     -11.263   6.110  70.030  1.00  0.00    -0.365 OA 
BRANCH   9  12
HETATM   12  C   UNL     1     -10.274   4.926  72.159  1.00  0.00    -0.196 A  
HETATM   13  C   UNL     1      -8.889   4.939  71.950  1.00  0.00    -0.140 A  
HETATM   14  C   UNL     1      -8.094   3.943  72.523  1.00  0.00    -0.086 A  
HETATM   15  C   UNL     1      -8.662   2.917  73.283  1.00  0.00    -0.079 A  
HETATM   16  N   UNL     1      -7.843   1.999  73.948  1.00  0.00    -0.041 NA 
HETATM   17  C   UNL     1     -10.032   2.968  73.555  1.00  0.00    -0.172 A  
HETATM   18  H2  UNL     1      -7.195   2.517  74.541  1.00  0.00     0.000 HD 
HETATM   19  H1  UNL     1      -8.258   1.250  74.503  1.00  0.00     0.000 HD 
HETATM   20  C   UNL     1     -10.847   3.954  72.980  1.00  0.00    -0.223 A  
ENDBRANCH   9  12
ENDBRANCH   7   9
ENDBRANCH   4   7
TORSDOF 3
ENDMDL
MODEL      193
REMARK 921   NORMALIZED FREE ENERGY PREDICTED BY IDOCK:   -3.16 KCAL/MOL
REMARK 922        TOTAL FREE ENERGY PREDICTED BY IDOCK:   -4.18 KCAL/MOL
REMARK 923 INTER-LIGAND FREE ENERGY PREDICTED BY IDOCK:   -3.90 KCAL/MOL
REMARK 924 INTRA-LIGAND FREE ENERGY PREDICTED BY IDOCK:   -0.28 KCAL/MOL
REMARK 927      BINDING AFFINITY PREDICTED BY RF-SCORE:    0.00 PKD
ROOT
HETATM    1  C   UNL     1      -7.578   7.440  65.427  1.00  0.00    -0.096 C  
HETATM    2  C   UNL     1      -8.569   7.675  66.493  1.00  0.00    -0.138 A  
HETATM    3  C   UNL     1      -8.536   7.595  67.863  1.00  0.00    -0.123 A  
HETATM    4  C   UNL     1      -9.847   7.913  68.260  1.00  0.00    -0.169 A  
HETATM    5  O   UNL     1      -9.824   8.023  66.096  1.00  0.00    -0.146 OA 
HETATM    6  N   UNL     1     -10.645   8.129  67.212  1.00  0.00    -0.304 NA 
ENDROOT
BRANCH   4   7
HETATM    7  N   UNL     1     -10.332   7.861  69.558  1.00  0.00    -0.213 N  
HETATM    8  H   UNL     1     -10.879   7.062  69.879  1.00  0.00     0.000 HD 
BRANCH   7   9
HETATM    9  S   UNL     1      -9.996   9.153  70.597  1.00  0.00    -0.269 S  
HETATM   10  O   UNL     1     -10.847   8.974  71.757  1.00  0.00    -0.334 OA 
HETATM   11  O   UNL     1      -8.560   9.280  70.725  1.00  0.00    -0.204 OA 
BRANCH   9  12
HETATM   12  C   UNL     1     -10.617  10.588  69.738  1.00  0.00    -0.227 A  
HETATM   13  C   UNL     1     -11.912  11.046  70.007  1.00  0.00    -0.430 A  
HETATM   14  C   UNL     1     -12.387  12.194  69.369  1.00  0.00     0.014 A  
HETATM   15  C   UNL     1     -11.597  12.882  68.443  1.00  0.00    -0.333 A  
HETATM   16  N   UNL     1     -12.039  14.094  67.905  1.00  0.00    -0.545 NA 
HETATM   17  C   UNL     1     -10.276  12.464  68.253  1.00  0.00    -0.230 A  
HETATM   18  H2  UNL     1     -12.257  14.727  68.675  1.00  0.00     0.000 HD 
HETATM   19  H1  UNL     1     -11.461  14.596  67.230  1.00  0.00     0.000 HD 
HETATM   20  C   UNL     1      -9.787  11.307  68.877  1.00  0.00    -0.153 A  
ENDBRANCH   9  12
ENDBRANCH   7   9
ENDBRANCH   4   7
TORSDOF 3
ENDMDL
MODEL      194
REMARK 921   NORMALIZED FREE ENERGY PREDICTED BY IDOCK:   -3.14 KCAL/MOL
REMARK 922        TOTAL FREE ENERGY PREDICTED BY IDOCK:   -4.15 KCAL/MOL
REMARK 923 INTER-LIGAND FREE ENERGY PREDICTED BY IDOCK:   -4.40 KCAL/MOL
REMARK 924 INTRA-LIGAND FREE ENERGY PREDICTED BY IDOCK:    0.24 KCAL/MOL
REMARK 927      BINDING AFFINITY PREDICTED BY RF-SCORE:    0.00 PKD
ROOT
HETATM    1  C   UNL     1     -12.107  14.583  64.479  1.00  0.00    -0.501 C  
HETATM    2  C   UNL     1     -11.940  13.843  65.743  1.00  0.00    -0.400 A  
HETATM    3  C   UNL     1     -11.862  12.512  66.068  1.00  0.00    -0.478 A  
HETATM    4  C   UNL     1     -11.745  12.504  67.470  1.00  0.00    -0.374 A  
HETATM    5  O   UNL     1     -11.869  14.586  66.882  1.00  0.00    -0.392 OA 
HETATM    6  N   UNL     1     -11.792  13.737  67.979  1.00  0.00    -0.360 NA 
ENDROOT
BRANCH   4   7
HETATM    7  N   UNL     1     -11.742  11.374  68.273  1.00  0.00    -0.305 N  
HETATM    8  H   UNL     1     -12.424  11.264  69.023  1.00  0.00     0.000 HD 
BRANCH   7   9
HETATM    9  S   UNL     1     -10.579  10.180  67.980  1.00  0.00    -0.248 S  
HETATM   10  O   UNL     1     -10.859   9.103  68.910  1.00  0.00    -0.178 OA 
HETATM   11  O   UNL     1     -10.508   9.947  66.554  1.00  0.00    -0.209 OA 
BRANCH   9  12
HETATM   12  C   UNL     1      -9.044  10.914  68.512  1.00  0.00    -0.173 A  
HETATM   13  C   UNL     1      -8.230  10.228  69.422  1.00  0.00    -0.171 A  
HETATM   14  C   UNL     1      -7.006  10.779  69.809  1.00  0.00    -0.141 A  
HETATM   15  C   UNL     1      -6.590  12.021  69.320  1.00  0.00    -0.109 A  
HETATM   16  N   UNL     1      -5.312  12.502  69.620  1.00  0.00    -0.075 NA 
HETATM   17  C   UNL     1      -7.371  12.651  68.345  1.00  0.00    -0.118 A  
HETATM   18  H2  UNL     1      -4.628  11.800  69.336  1.00  0.00     0.000 HD 
HETATM   19  H1  UNL     1      -5.008  13.408  69.263  1.00  0.00     0.000 HD 
HETATM   20  C   UNL     1      -8.607  12.116  67.955  1.00  0.00    -0.167 A  
ENDBRANCH   9  12
ENDBRANCH   7   9
ENDBRANCH   4   7
TORSDOF 3
ENDMDL
MODEL      195
REMARK 921   NORMALIZED FREE ENERGY PREDICTED BY IDOCK:   -3.14 KCAL/MOL
REMARK 922        TOTAL FREE ENERGY PREDICTED BY IDOCK:   -4.15 KCAL/MOL
REMARK 923 INTER-LIGAND FREE ENERGY PREDICTED BY IDOCK:   -4.03 KCAL/MOL
REMARK 924 INTRA-LIGAND FREE ENERGY PREDICTED BY IDOCK:   -0.12 KCAL/MOL
REMARK 927      BINDING AFFINITY PREDICTED BY RF-SCORE:    0.00 PKD
ROOT
HETATM    1  C   UNL     1     -12.284  13.340  63.297  1.00  0.00    -0.387 C  
HETATM    2  C   UNL     1     -11.236  12.698  64.111  1.00  0.00    -0.386 A  
HETATM    3  C   UNL     1     -10.268  13.167  64.965  1.00  0.00    -0.296 A  
HETATM    4  C   UNL     1      -9.579  12.010  65.374  1.00  0.00    -0.132 A  
HETATM    5  O   UNL     1     -11.134  11.344  64.021  1.00  0.00    -0.374 OA 
HETATM    6  N   UNL     1     -10.056  10.913  64.784  1.00  0.00    -0.297 NA 
ENDROOT
BRANCH   4   7
HETATM    7  N   UNL     1      -8.439  11.987  66.164  1.00  0.00    -0.393 N  
HETATM    8  H   UNL     1      -7.571  11.583  65.815  1.00  0.00     0.000 HD 
BRANCH   7   9
HETATM    9  S   UNL     1      -8.524  12.646  67.720  1.00  0.00    -0.185 S  
HETATM   10  O   UNL     1      -9.914  12.996  67.938  1.00  0.00    -0.217 OA 
HETATM   11  O   UNL     1      -7.813  11.773  68.629  1.00  0.00    -0.135 OA 
BRANCH   9  12
HETATM   12  C   UNL     1      -7.634  14.187  67.601  1.00  0.00    -0.180 A  
HETATM   13  C   UNL     1      -8.321  15.356  67.254  1.00  0.00    -0.224 A  
HETATM   14  C   UNL     1      -7.636  16.573  67.201  1.00  0.00    -0.214 A  
HETATM   15  C   UNL     1      -6.265  16.638  67.465  1.00  0.00    -0.160 A  
HETATM   16  N   UNL     1      -5.619  17.877  67.527  1.00  0.00    -0.137 NA 
HETATM   17  C   UNL     1      -5.612  15.478  67.896  1.00  0.00    -0.151 A  
HETATM   18  H2  UNL     1      -6.106  18.459  68.208  1.00  0.00     0.000 HD 
HETATM   19  H1  UNL     1      -4.619  17.924  67.720  1.00  0.00     0.000 HD 
HETATM   20  C   UNL     1      -6.282  14.248  67.944  1.00  0.00    -0.167 A  
ENDBRANCH   9  12
ENDBRANCH   7   9
ENDBRANCH   4   7
TORSDOF 3
ENDMDL
MODEL      196
REMARK 921   NORMALIZED FREE ENERGY PREDICTED BY IDOCK:   -3.10 KCAL/MOL
REMARK 922        TOTAL FREE ENERGY PREDICTED BY IDOCK:   -4.11 KCAL/MOL
REMARK 923 INTER-LIGAND FREE ENERGY PREDICTED BY IDOCK:   -4.16 KCAL/MOL
REMARK 924 INTRA-LIGAND FREE ENERGY PREDICTED BY IDOCK:    0.05 KCAL/MOL
REMARK 927      BINDING AFFINITY PREDICTED BY RF-SCORE:    0.00 PKD
ROOT
HETATM    1  C   UNL     1     -10.942   4.846  73.889  1.00  0.00    -0.302 C  
HETATM    2  C   UNL     1     -10.247   5.948  73.199  1.00  0.00    -0.195 A  
HETATM    3  C   UNL     1     -10.658   7.123  72.621  1.00  0.00    -0.290 A  
HETATM    4  C   UNL     1      -9.477   7.686  72.105  1.00  0.00    -0.155 A  
HETATM    5  O   UNL     1      -8.902   5.819  73.041  1.00  0.00    -0.124 OA 
HETATM    6  N   UNL     1      -8.420   6.897  72.309  1.00  0.00    -0.109 NA 
ENDROOT
BRANCH   4   7
HETATM    7  N   UNL     1      -9.402   8.836  71.333  1.00  0.00    -0.234 N  
HETATM    8  H   UNL     1      -8.917   9.665  71.677  1.00  0.00     0.000 HD 
BRANCH   7   9
HETATM    9  S   UNL     1     -10.133   8.832  69.807  1.00  0.00    -0.202 S  
HETATM   10  O   UNL     1      -9.064   8.649  68.845  1.00  0.00    -0.144 OA 
HETATM   11  O   UNL     1     -11.275   7.944  69.846  1.00  0.00    -0.181 OA 
BRANCH   9  12
HETATM   12  C   UNL     1     -10.721  10.501  69.591  1.00  0.00    -0.259 A  
HETATM   13  C   UNL     1     -10.105  11.333  68.647  1.00  0.00    -0.216 A  
HETATM   14  C   UNL     1     -10.589  12.628  68.444  1.00  0.00    -0.258 A  
HETATM   15  C   UNL     1     -11.667  13.117  69.188  1.00  0.00    -0.325 A  
HETATM   16  N   UNL     1     -12.216  14.368  68.888  1.00  0.00    -0.553 NA 
HETATM   17  C   UNL     1     -12.326  12.246  70.061  1.00  0.00    -0.159 A  
HETATM   18  H2  UNL     1     -12.476  14.378  67.902  1.00  0.00     0.000 HD 
HETATM   19  H1  UNL     1     -13.003  14.725  69.431  1.00  0.00     0.000 HD 
HETATM   20  C   UNL     1     -11.846  10.948  70.284  1.00  0.00    -0.450 A  
ENDBRANCH   9  12
ENDBRANCH   7   9
ENDBRANCH   4   7
TORSDOF 3
ENDMDL
MODEL      197
REMARK 921   NORMALIZED FREE ENERGY PREDICTED BY IDOCK:   -3.09 KCAL/MOL
REMARK 922        TOTAL FREE ENERGY PREDICTED BY IDOCK:   -4.10 KCAL/MOL
REMARK 923 INTER-LIGAND FREE ENERGY PREDICTED BY IDOCK:   -3.79 KCAL/MOL
REMARK 924 INTRA-LIGAND FREE ENERGY PREDICTED BY IDOCK:   -0.31 KCAL/MOL
REMARK 927      BINDING AFFINITY PREDICTED BY RF-SCORE:    0.00 PKD
ROOT
HETATM    1  C   UNL     1     -10.156   3.406  72.439  1.00  0.00    -0.229 C  
HETATM    2  C   UNL     1      -9.631   4.367  71.453  1.00  0.00    -0.165 A  
HETATM    3  C   UNL     1      -9.775   5.720  71.267  1.00  0.00    -0.210 A  
HETATM    4  C   UNL     1      -9.030   5.989  70.104  1.00  0.00    -0.147 A  
HETATM    5  O   UNL     1      -8.844   3.861  70.464  1.00  0.00    -0.073 OA 
HETATM    6  N   UNL     1      -8.501   4.880  69.584  1.00  0.00    -0.083 NA 
ENDROOT
BRANCH   4   7
HETATM    7  N   UNL     1      -8.962   7.213  69.456  1.00  0.00    -0.141 N  
HETATM    8  H   UNL     1      -8.187   7.854  69.629  1.00  0.00     0.000 HD 
BRANCH   7   9
HETATM    9  S   UNL     1     -10.195   7.620  68.371  1.00  0.00    -0.199 S  
HETATM   10  O   UNL     1      -9.554   7.827  67.087  1.00  0.00    -0.150 OA 
HETATM   11  O   UNL     1     -11.279   6.676  68.531  1.00  0.00    -0.235 OA 
BRANCH   9  12
HETATM   12  C   UNL     1     -10.755   9.224  68.914  1.00  0.00    -0.156 A  
HETATM   13  C   UNL     1     -10.960  10.239  67.972  1.00  0.00    -0.345 A  
HETATM   14  C   UNL     1     -11.440  11.484  68.388  1.00  0.00    -0.364 A  
HETATM   15  C   UNL     1     -11.696  11.741  69.738  1.00  0.00    -0.335 A  
HETATM   16  N   UNL     1     -12.289  12.947  70.123  1.00  0.00    -0.232 NA 
HETATM   17  C   UNL     1     -11.571  10.691  70.653  1.00  0.00    -0.432 A  
HETATM   18  H2  UNL     1     -13.160  13.058  69.604  1.00  0.00     0.000 HD 
HETATM   19  H1  UNL     1     -12.476  13.135  71.108  1.00  0.00     0.000 HD 
HETATM   20  C   UNL     1     -11.080   9.440  70.254  1.00  0.00    -0.299 A  
ENDBRANCH   9  12
ENDBRANCH   7   9
ENDBRANCH   4   7
TORSDOF 3
ENDMDL
MODEL      198
REMARK 921   NORMALIZED FREE ENERGY PREDICTED BY IDOCK:   -3.04 KCAL/MOL
REMARK 922        TOTAL FREE ENERGY PREDICTED BY IDOCK:   -4.04 KCAL/MOL
REMARK 923 INTER-LIGAND FREE ENERGY PREDICTED BY IDOCK:   -3.74 KCAL/MOL
REMARK 924 INTRA-LIGAND FREE ENERGY PREDICTED BY IDOCK:   -0.30 KCAL/MOL
REMARK 927      BINDING AFFINITY PREDICTED BY RF-SCORE:    0.00 PKD
ROOT
HETATM    1  C   UNL     1     -11.977  12.577  65.772  1.00  0.00    -0.482 C  
HETATM    2  C   UNL     1     -11.218  12.091  66.939  1.00  0.00    -0.320 A  
HETATM    3  C   UNL     1      -9.961  12.339  67.431  1.00  0.00    -0.205 A  
HETATM    4  C   UNL     1      -9.862  11.505  68.560  1.00  0.00    -0.195 A  
HETATM    5  O   UNL     1     -11.834  11.170  67.729  1.00  0.00    -0.608 OA 
HETATM    6  N   UNL     1     -10.960  10.764  68.728  1.00  0.00    -0.228 NA 
ENDROOT
BRANCH   4   7
HETATM    7  N   UNL     1      -8.725  11.326  69.334  1.00  0.00    -0.314 N  
HETATM    8  H   UNL     1      -8.720  11.581  70.321  1.00  0.00     0.000 HD 
BRANCH   7   9
HETATM    9  S   UNL     1      -7.346  10.676  68.600  1.00  0.00    -0.102 S  
HETATM   10  O   UNL     1      -6.954  11.616  67.568  1.00  0.00    -0.087 OA 
HETATM   11  O   UNL     1      -6.424  10.264  69.637  1.00  0.00    -0.051 OA 
BRANCH   9  12
HETATM   12  C   UNL     1      -7.935   9.221  67.754  1.00  0.00    -0.100 A  
HETATM   13  C   UNL     1      -8.356   8.113  68.500  1.00  0.00    -0.126 A  
HETATM   14  C   UNL     1      -8.859   6.987  67.842  1.00  0.00    -0.124 A  
HETATM   15  C   UNL     1      -8.926   6.939  66.447  1.00  0.00    -0.153 A  
HETATM   16  N   UNL     1      -9.542   5.857  65.810  1.00  0.00    -0.370 NA 
HETATM   17  C   UNL     1      -8.586   8.086  65.722  1.00  0.00    -0.174 A  
HETATM   18  H2  UNL     1     -10.487   5.762  66.180  1.00  0.00     0.000 HD 
HETATM   19  H1  UNL     1      -9.591   5.823  64.791  1.00  0.00     0.000 HD 
HETATM   20  C   UNL     1      -8.069   9.219  66.365  1.00  0.00    -0.107 A  
ENDBRANCH   9  12
ENDBRANCH   7   9
ENDBRANCH   4   7
TORSDOF 3
ENDMDL
MODEL      199
REMARK 921   NORMALIZED FREE ENERGY PREDICTED BY IDOCK:   -3.03 KCAL/MOL
REMARK 922        TOTAL FREE ENERGY PREDICTED BY IDOCK:   -4.03 KCAL/MOL
REMARK 923 INTER-LIGAND FREE ENERGY PREDICTED BY IDOCK:   -3.87 KCAL/MOL
REMARK 924 INTRA-LIGAND FREE ENERGY PREDICTED BY IDOCK:   -0.15 KCAL/MOL
REMARK 927      BINDING AFFINITY PREDICTED BY RF-SCORE:    0.00 PKD
ROOT
HETATM    1  C   UNL     1      -8.109   4.407  73.320  1.00  0.00    -0.095 C  
HETATM    2  C   UNL     1      -8.907   5.647  73.334  1.00  0.00    -0.123 A  
HETATM    3  C   UNL     1     -10.244   5.924  73.193  1.00  0.00    -0.212 A  
HETATM    4  C   UNL     1     -10.316   7.327  73.268  1.00  0.00    -0.342 A  
HETATM    5  O   UNL     1      -8.223   6.813  73.488  1.00  0.00    -0.111 OA 
HETATM    6  N   UNL     1      -9.109   7.880  73.400  1.00  0.00    -0.266 NA 
ENDROOT
BRANCH   4   7
HETATM    7  N   UNL     1     -11.459   8.087  73.071  1.00  0.00    -0.475 N  
HETATM    8  H   UNL     1     -11.804   8.711  73.801  1.00  0.00     0.000 HD 
BRANCH   7   9
HETATM    9  S   UNL     1     -12.270   7.956  71.592  1.00  0.00    -0.318 S  
HETATM   10  O   UNL     1     -12.732   6.585  71.502  1.00  0.00    -0.257 OA 
HETATM   11  O   UNL     1     -13.183   9.071  71.467  1.00  0.00    -0.334 OA 
BRANCH   9  12
HETATM   12  C   UNL     1     -10.988   8.133  70.365  1.00  0.00    -0.247 A  
HETATM   13  C   UNL     1     -10.156   9.259  70.393  1.00  0.00    -0.287 A  
HETATM   14  C   UNL     1      -9.123   9.381  69.460  1.00  0.00    -0.169 A  
HETATM   15  C   UNL     1      -8.922   8.405  68.479  1.00  0.00    -0.136 A  
HETATM   16  N   UNL     1      -7.812   8.480  67.631  1.00  0.00    -0.102 NA 
HETATM   17  C   UNL     1      -9.703   7.246  68.520  1.00  0.00    -0.149 A  
HETATM   18  H2  UNL     1      -6.971   8.537  68.206  1.00  0.00     0.000 HD 
HETATM   19  H1  UNL     1      -7.665   7.768  66.916  1.00  0.00     0.000 HD 
HETATM   20  C   UNL     1     -10.750   7.113  69.442  1.00  0.00    -0.246 A  
ENDBRANCH   9  12
ENDBRANCH   7   9
ENDBRANCH   4   7
TORSDOF 3
ENDMDL
MODEL      200
REMARK 921   NORMALIZED FREE ENERGY PREDICTED BY IDOCK:   -3.02 KCAL/MOL
REMARK 922        TOTAL FREE ENERGY PREDICTED BY IDOCK:   -4.01 KCAL/MOL
REMARK 923 INTER-LIGAND FREE ENERGY PREDICTED BY IDOCK:   -3.80 KCAL/MOL
REMARK 924 INTRA-LIGAND FREE ENERGY PREDICTED BY IDOCK:   -0.21 KCAL/MOL
REMARK 927      BINDING AFFINITY PREDICTED BY RF-SCORE:    0.00 PKD
ROOT
HETATM    1  C   UNL     1     -11.863  11.959  69.731  1.00  0.00    -0.411 C  
HETATM    2  C   UNL     1     -11.209  10.733  70.226  1.00  0.00    -0.245 A  
HETATM    3  C   UNL     1     -11.533   9.793  71.172  1.00  0.00    -0.472 A  
HETATM    4  C   UNL     1     -10.440   8.907  71.166  1.00  0.00    -0.266 A  
HETATM    5  O   UNL     1      -9.999  10.425  69.685  1.00  0.00    -0.229 OA 
HETATM    6  N   UNL     1      -9.491   9.294  70.313  1.00  0.00    -0.219 NA 
ENDROOT
BRANCH   4   7
HETATM    7  N   UNL     1     -10.260   7.843  72.038  1.00  0.00    -0.199 N  
HETATM    8  H   UNL     1      -9.660   7.935  72.857  1.00  0.00     0.000 HD 
BRANCH   7   9
HETATM    9  S   UNL     1     -11.059   6.388  71.709  1.00  0.00    -0.279 S  
HETATM   10  O   UNL     1     -11.385   5.804  72.996  1.00  0.00    -0.268 OA 
HETATM   11  O   UNL     1     -12.077   6.636  70.712  1.00  0.00    -0.385 OA 
BRANCH   9  12
HETATM   12  C   UNL     1      -9.804   5.344  70.991  1.00  0.00    -0.187 A  
HETATM   13  C   UNL     1      -9.049   5.816  69.911  1.00  0.00    -0.159 A  
HETATM   14  C   UNL     1      -8.036   5.018  69.372  1.00  0.00    -0.079 A  
HETATM   15  C   UNL     1      -7.780   3.741  69.880  1.00  0.00    -0.051 A  
HETATM   16  N   UNL     1      -6.686   3.006  69.413  1.00  0.00    -0.033 NA 
HETATM   17  C   UNL     1      -8.482   3.321  71.014  1.00  0.00    -0.099 A  
HETATM   18  H2  UNL     1      -5.845   3.572  69.526  1.00  0.00     0.000 HD 
HETATM   19  H1  UNL     1      -6.499   2.074  69.784  1.00  0.00     0.000 HD 
HETATM   20  C   UNL     1      -9.508   4.104  71.560  1.00  0.00    -0.221 A  
ENDBRANCH   9  12
ENDBRANCH   7   9
ENDBRANCH   4   7
TORSDOF 3
ENDMDL
MODEL      201
REMARK 921   NORMALIZED FREE ENERGY PREDICTED BY IDOCK:   -3.00 KCAL/MOL
REMARK 922        TOTAL FREE ENERGY PREDICTED BY IDOCK:   -3.99 KCAL/MOL
REMARK 923 INTER-LIGAND FREE ENERGY PREDICTED BY IDOCK:   -3.77 KCAL/MOL
REMARK 924 INTRA-LIGAND FREE ENERGY PREDICTED BY IDOCK:   -0.22 KCAL/MOL
REMARK 927      BINDING AFFINITY PREDICTED BY RF-SCORE:    0.00 PKD
ROOT
HETATM    1  C   UNL     1     -10.906  14.361  64.734  1.00  0.00    -0.415 C  
HETATM    2  C   UNL     1     -10.628  12.916  64.630  1.00  0.00    -0.363 A  
HETATM    3  C   UNL     1     -10.537  11.893  65.540  1.00  0.00    -0.313 A  
HETATM    4  C   UNL     1     -10.202  10.769  64.764  1.00  0.00    -0.334 A  
HETATM    5  O   UNL     1     -10.366  12.432  63.385  1.00  0.00    -0.413 OA 
HETATM    6  N   UNL     1     -10.051  11.082  63.475  1.00  0.00    -0.349 NA 
ENDROOT
BRANCH   4   7
HETATM    7  N   UNL     1      -9.897   9.509  65.258  1.00  0.00    -0.441 N  
HETATM    8  H   UNL     1     -10.384   8.682  64.914  1.00  0.00     0.000 HD 
BRANCH   7   9
HETATM    9  S   UNL     1      -8.698   9.377  66.445  1.00  0.00    -0.139 S  
HETATM   10  O   UNL     1      -7.514  10.011  65.898  1.00  0.00    -0.104 OA 
HETATM   11  O   UNL     1      -9.259   9.790  67.713  1.00  0.00    -0.131 OA 
BRANCH   9  12
HETATM   12  C   UNL     1      -8.340   7.632  66.524  1.00  0.00    -0.129 A  
HETATM   13  C   UNL     1      -8.085   7.036  67.766  1.00  0.00    -0.114 A  
HETATM   14  C   UNL     1      -7.847   5.661  67.837  1.00  0.00    -0.097 A  
HETATM   15  C   UNL     1      -7.834   4.872  66.683  1.00  0.00    -0.099 A  
HETATM   16  N   UNL     1      -7.715   3.482  66.784  1.00  0.00    -0.080 NA 
HETATM   17  C   UNL     1      -8.178   5.466  65.465  1.00  0.00    -0.127 A  
HETATM   18  H2  UNL     1      -8.453   3.140  67.399  1.00  0.00     0.000 HD 
HETATM   19  H1  UNL     1      -7.706   2.907  65.942  1.00  0.00     0.000 HD 
HETATM   20  C   UNL     1      -8.409   6.846  65.374  1.00  0.00    -0.122 A  
ENDBRANCH   9  12
ENDBRANCH   7   9
ENDBRANCH   4   7
TORSDOF 3
ENDMDL
MODEL      202
REMARK 921   NORMALIZED FREE ENERGY PREDICTED BY IDOCK:   -2.98 KCAL/MOL
REMARK 922        TOTAL FREE ENERGY PREDICTED BY IDOCK:   -3.97 KCAL/MOL
REMARK 923 INTER-LIGAND FREE ENERGY PREDICTED BY IDOCK:   -3.79 KCAL/MOL
REMARK 924 INTRA-LIGAND FREE ENERGY PREDICTED BY IDOCK:   -0.18 KCAL/MOL
REMARK 927      BINDING AFFINITY PREDICTED BY RF-SCORE:    0.00 PKD
ROOT
HETATM    1  C   UNL     1     -12.398  15.804  74.045  1.00  0.00    -0.749 C  
HETATM    2  C   UNL     1     -12.298  16.012  72.589  1.00  0.00    -0.502 A  
HETATM    3  C   UNL     1     -11.316  16.491  71.758  1.00  0.00     0.056 A  
HETATM    4  C   UNL     1     -11.900  16.458  70.479  1.00  0.00     0.152 A  
HETATM    5  O   UNL     1     -13.400  15.708  71.850  1.00  0.00    -0.451 OA 
HETATM    6  N   UNL     1     -13.164  16.034  70.520  1.00  0.00     0.080 NA 
ENDROOT
BRANCH   4   7
HETATM    7  N   UNL     1     -11.324  16.949  69.316  1.00  0.00    -0.179 N  
HETATM    8  H   UNL     1     -11.611  17.849  68.931  1.00  0.00     0.000 HD 
BRANCH   7   9
HETATM    9  S   UNL     1     -10.134  16.021  68.551  1.00  0.00    -0.242 S  
HETATM   10  O   UNL     1      -9.721  15.018  69.514  1.00  0.00    -0.185 OA 
HETATM   11  O   UNL     1     -10.612  15.654  67.236  1.00  0.00    -0.294 OA 
BRANCH   9  12
HETATM   12  C   UNL     1      -8.754  17.133  68.364  1.00  0.00    -0.246 A  
HETATM   13  C   UNL     1      -7.713  16.800  67.488  1.00  0.00    -0.188 A  
HETATM   14  C   UNL     1      -6.650  17.688  67.306  1.00  0.00    -0.181 A  
HETATM   15  C   UNL     1      -6.596  18.898  68.004  1.00  0.00    -0.222 A  
HETATM   16  N   UNL     1      -5.591  19.829  67.721  1.00  0.00    -0.189 NA 
HETATM   17  C   UNL     1      -7.685  19.256  68.805  1.00  0.00    -0.397 A  
HETATM   18  H2  UNL     1      -5.616  20.035  66.722  1.00  0.00     0.000 HD 
HETATM   19  H1  UNL     1      -5.552  20.711  68.230  1.00  0.00     0.000 HD 
HETATM   20  C   UNL     1      -8.753  18.371  69.008  1.00  0.00    -0.058 A  
ENDBRANCH   9  12
ENDBRANCH   7   9
ENDBRANCH   4   7
TORSDOF 3
ENDMDL
MODEL      203
REMARK 921   NORMALIZED FREE ENERGY PREDICTED BY IDOCK:   -2.98 KCAL/MOL
REMARK 922        TOTAL FREE ENERGY PREDICTED BY IDOCK:   -3.97 KCAL/MOL
REMARK 923 INTER-LIGAND FREE ENERGY PREDICTED BY IDOCK:   -3.56 KCAL/MOL
REMARK 924 INTRA-LIGAND FREE ENERGY PREDICTED BY IDOCK:   -0.40 KCAL/MOL
REMARK 927      BINDING AFFINITY PREDICTED BY RF-SCORE:    0.00 PKD
ROOT
HETATM    1  C   UNL     1     -10.459  11.929  68.871  1.00  0.00    -0.164 C  
HETATM    2  C   UNL     1      -9.959  10.721  68.189  1.00  0.00    -0.160 A  
HETATM    3  C   UNL     1      -9.342   9.571  68.613  1.00  0.00    -0.142 A  
HETATM    4  C   UNL     1      -9.098   8.853  67.428  1.00  0.00    -0.132 A  
HETATM    5  O   UNL     1     -10.079  10.690  66.833  1.00  0.00    -0.198 OA 
HETATM    6  N   UNL     1      -9.493   9.528  66.347  1.00  0.00    -0.180 NA 
ENDROOT
BRANCH   4   7
HETATM    7  N   UNL     1      -8.392   7.662  67.338  1.00  0.00    -0.115 N  
HETATM    8  H   UNL     1      -7.392   7.662  67.137  1.00  0.00     0.000 HD 
BRANCH   7   9
HETATM    9  S   UNL     1      -9.229   6.209  67.567  1.00  0.00    -0.110 S  
HETATM   10  O   UNL     1     -10.375   6.256  66.681  1.00  0.00    -0.198 OA 
HETATM   11  O   UNL     1      -8.279   5.119  67.518  1.00  0.00    -0.103 OA 
BRANCH   9  12
HETATM   12  C   UNL     1      -9.874   6.324  69.226  1.00  0.00    -0.141 A  
HETATM   13  C   UNL     1     -11.256   6.427  69.423  1.00  0.00    -0.459 A  
HETATM   14  C   UNL     1     -11.769   6.474  70.721  1.00  0.00    -0.427 A  
HETATM   15  C   UNL     1     -10.920   6.446  71.832  1.00  0.00    -0.253 A  
HETATM   16  N   UNL     1     -11.453   6.371  73.122  1.00  0.00    -0.461 NA 
HETATM   17  C   UNL     1      -9.551   6.254  71.620  1.00  0.00    -0.167 A  
HETATM   18  H2  UNL     1     -12.070   5.560  73.169  1.00  0.00     0.000 HD 
HETATM   19  H1  UNL     1     -10.833   6.350  73.932  1.00  0.00     0.000 HD 
HETATM   20  C   UNL     1      -9.019   6.216  70.323  1.00  0.00    -0.154 A  
ENDBRANCH   9  12
ENDBRANCH   7   9
ENDBRANCH   4   7
TORSDOF 3
ENDMDL
MODEL      204
REMARK 921   NORMALIZED FREE ENERGY PREDICTED BY IDOCK:   -2.96 KCAL/MOL
REMARK 922        TOTAL FREE ENERGY PREDICTED BY IDOCK:   -3.95 KCAL/MOL
REMARK 923 INTER-LIGAND FREE ENERGY PREDICTED BY IDOCK:   -3.65 KCAL/MOL
REMARK 924 INTRA-LIGAND FREE ENERGY PREDICTED BY IDOCK:   -0.30 KCAL/MOL
REMARK 927      BINDING AFFINITY PREDICTED BY RF-SCORE:    0.00 PKD
ROOT
HETATM    1  C   UNL     1      -9.392   3.084  64.723  1.00  0.00    -0.148 C  
HETATM    2  C   UNL     1      -9.577   4.242  65.617  1.00  0.00    -0.189 A  
HETATM    3  C   UNL     1      -8.735   4.979  66.411  1.00  0.00    -0.114 A  
HETATM    4  C   UNL     1      -9.579   5.919  67.031  1.00  0.00    -0.132 A  
HETATM    5  O   UNL     1     -10.846   4.715  65.751  1.00  0.00    -0.293 OA 
HETATM    6  N   UNL     1     -10.856   5.747  66.681  1.00  0.00    -0.275 NA 
ENDROOT
BRANCH   4   7
HETATM    7  N   UNL     1      -9.198   6.822  68.012  1.00  0.00    -0.118 N  
HETATM    8  H   UNL     1      -9.180   6.549  68.995  1.00  0.00     0.000 HD 
BRANCH   7   9
HETATM    9  S   UNL     1      -8.764   8.388  67.541  1.00  0.00    -0.136 S  
HETATM   10  O   UNL     1      -7.443   8.626  68.090  1.00  0.00    -0.093 OA 
HETATM   11  O   UNL     1      -9.033   8.535  66.127  1.00  0.00    -0.157 OA 
BRANCH   9  12
HETATM   12  C   UNL     1      -9.878   9.449  68.443  1.00  0.00    -0.160 A  
HETATM   13  C   UNL     1     -10.047   9.261  69.820  1.00  0.00    -0.218 A  
HETATM   14  C   UNL     1     -10.886  10.117  70.538  1.00  0.00    -0.340 A  
HETATM   15  C   UNL     1     -11.582  11.146  69.898  1.00  0.00    -0.337 A  
HETATM   16  N   UNL     1     -12.320  12.067  70.647  1.00  0.00    -0.345 NA 
HETATM   17  C   UNL     1     -11.334  11.376  68.541  1.00  0.00    -0.333 A  
HETATM   18  H2  UNL     1     -11.703  12.483  71.345  1.00  0.00     0.000 HD 
HETATM   19  H1  UNL     1     -12.828  12.819  70.180  1.00  0.00     0.000 HD 
HETATM   20  C   UNL     1     -10.504  10.520  67.803  1.00  0.00    -0.263 A  
ENDBRANCH   9  12
ENDBRANCH   7   9
ENDBRANCH   4   7
TORSDOF 3
ENDMDL
MODEL      205
REMARK 921   NORMALIZED FREE ENERGY PREDICTED BY IDOCK:   -2.95 KCAL/MOL
REMARK 922        TOTAL FREE ENERGY PREDICTED BY IDOCK:   -3.93 KCAL/MOL
REMARK 923 INTER-LIGAND FREE ENERGY PREDICTED BY IDOCK:   -3.58 KCAL/MOL
REMARK 924 INTRA-LIGAND FREE ENERGY PREDICTED BY IDOCK:   -0.34 KCAL/MOL
REMARK 927      BINDING AFFINITY PREDICTED BY RF-SCORE:    0.00 PKD
ROOT
HETATM    1  C   UNL     1     -14.399   7.724  71.669  1.00  0.00    -0.607 C  
HETATM    2  C   UNL     1     -12.936   7.649  71.496  1.00  0.00    -0.341 A  
HETATM    3  C   UNL     1     -12.072   6.665  71.085  1.00  0.00    -0.391 A  
HETATM    4  C   UNL     1     -10.800   7.255  71.194  1.00  0.00    -0.242 A  
HETATM    5  O   UNL     1     -12.223   8.761  71.826  1.00  0.00    -0.306 OA 
HETATM    6  N   UNL     1     -10.867   8.496  71.679  1.00  0.00    -0.263 NA 
ENDROOT
BRANCH   4   7
HETATM    7  N   UNL     1      -9.591   6.607  70.989  1.00  0.00    -0.171 N  
HETATM    8  H   UNL     1      -9.181   6.022  71.717  1.00  0.00     0.000 HD 
BRANCH   7   9
HETATM    9  S   UNL     1      -8.810   6.812  69.502  1.00  0.00    -0.139 S  
HETATM   10  O   UNL     1      -7.627   5.973  69.545  1.00  0.00    -0.088 OA 
HETATM   11  O   UNL     1      -9.790   6.682  68.445  1.00  0.00    -0.135 OA 
BRANCH   9  12
HETATM   12  C   UNL     1      -8.229   8.497  69.532  1.00  0.00    -0.116 A  
HETATM   13  C   UNL     1      -7.257   8.876  70.466  1.00  0.00    -0.071 A  
HETATM   14  C   UNL     1      -6.768  10.185  70.465  1.00  0.00    -0.100 A  
HETATM   15  C   UNL     1      -7.253  11.133  69.559  1.00  0.00    -0.057 A  
HETATM   16  N   UNL     1      -6.668  12.401  69.490  1.00  0.00    -0.302 NA 
HETATM   17  C   UNL     1      -8.157  10.717  68.577  1.00  0.00    -0.125 A  
HETATM   18  H2  UNL     1      -5.668  12.287  69.330  1.00  0.00     0.000 HD 
HETATM   19  H1  UNL     1      -7.022  13.093  68.829  1.00  0.00     0.000 HD 
HETATM   20  C   UNL     1      -8.666   9.410  68.571  1.00  0.00    -0.128 A  
ENDBRANCH   9  12
ENDBRANCH   7   9
ENDBRANCH   4   7
TORSDOF 3
ENDMDL
MODEL      206
REMARK 921   NORMALIZED FREE ENERGY PREDICTED BY IDOCK:   -2.87 KCAL/MOL
REMARK 922        TOTAL FREE ENERGY PREDICTED BY IDOCK:   -3.84 KCAL/MOL
REMARK 923 INTER-LIGAND FREE ENERGY PREDICTED BY IDOCK:   -3.98 KCAL/MOL
REMARK 924 INTRA-LIGAND FREE ENERGY PREDICTED BY IDOCK:    0.14 KCAL/MOL
REMARK 927      BINDING AFFINITY PREDICTED BY RF-SCORE:    0.00 PKD
ROOT
HETATM    1  C   UNL     1      -9.725  19.729  66.878  1.00  0.00    -0.504 C  
HETATM    2  C   UNL     1     -10.034  18.358  66.433  1.00  0.00    -0.386 A  
HETATM    3  C   UNL     1      -9.752  17.108  66.924  1.00  0.00    -0.270 A  
HETATM    4  C   UNL     1     -10.314  16.230  65.979  1.00  0.00    -0.349 A  
HETATM    5  O   UNL     1     -10.727  18.235  65.268  1.00  0.00    -0.605 OA 
HETATM    6  N   UNL     1     -10.864  16.888  64.956  1.00  0.00    -0.654 NA 
ENDROOT
BRANCH   4   7
HETATM    7  N   UNL     1     -10.192  14.849  65.988  1.00  0.00    -0.283 N  
HETATM    8  H   UNL     1      -9.862  14.348  65.163  1.00  0.00     0.000 HD 
BRANCH   7   9
HETATM    9  S   UNL     1     -10.604  14.013  67.401  1.00  0.00    -0.280 S  
HETATM   10  O   UNL     1     -10.966  15.021  68.378  1.00  0.00    -0.246 OA 
HETATM   11  O   UNL     1     -11.509  12.939  67.052  1.00  0.00    -0.302 OA 
BRANCH   9  12
HETATM   12  C   UNL     1      -9.069  13.301  67.961  1.00  0.00    -0.202 A  
HETATM   13  C   UNL     1      -8.396  13.877  69.045  1.00  0.00     0.188 A  
HETATM   14  C   UNL     1      -7.214  13.297  69.515  1.00  0.00     0.333 A  
HETATM   15  C   UNL     1      -6.678  12.161  68.901  1.00  0.00    -0.094 A  
HETATM   16  N   UNL     1      -5.564  11.523  69.457  1.00  0.00    -0.055 NA 
HETATM   17  C   UNL     1      -7.407  11.547  67.879  1.00  0.00    -0.094 A  
HETATM   18  H2  UNL     1      -5.775  11.294  70.428  1.00  0.00     0.000 HD 
HETATM   19  H1  UNL     1      -5.173  10.694  69.009  1.00  0.00     0.000 HD 
HETATM   20  C   UNL     1      -8.588  12.122  67.388  1.00  0.00    -0.175 A  
ENDBRANCH   9  12
ENDBRANCH   7   9
ENDBRANCH   4   7
TORSDOF 3
ENDMDL
MODEL      207
REMARK 921   NORMALIZED FREE ENERGY PREDICTED BY IDOCK:   -2.80 KCAL/MOL
REMARK 922        TOTAL FREE ENERGY PREDICTED BY IDOCK:   -3.76 KCAL/MOL
REMARK 923 INTER-LIGAND FREE ENERGY PREDICTED BY IDOCK:   -3.52 KCAL/MOL
REMARK 924 INTRA-LIGAND FREE ENERGY PREDICTED BY IDOCK:   -0.24 KCAL/MOL
REMARK 927      BINDING AFFINITY PREDICTED BY RF-SCORE:    0.00 PKD
ROOT
HETATM    1  C   UNL     1      -7.765   1.902  65.968  1.00  0.00    -0.071 C  
HETATM    2  C   UNL     1      -8.122   3.327  66.105  1.00  0.00    -0.092 A  
HETATM    3  C   UNL     1      -8.090   4.224  67.143  1.00  0.00    -0.100 A  
HETATM    4  C   UNL     1      -8.612   5.408  66.592  1.00  0.00    -0.115 A  
HETATM    5  O   UNL     1      -8.628   3.939  65.000  1.00  0.00    -0.111 OA 
HETATM    6  N   UNL     1      -8.982   5.244  65.321  1.00  0.00    -0.152 NA 
ENDROOT
BRANCH   4   7
HETATM    7  N   UNL     1      -8.877   6.575  67.293  1.00  0.00    -0.112 N  
HETATM    8  H   UNL     1      -8.216   7.352  67.283  1.00  0.00     0.000 HD 
BRANCH   7   9
HETATM    9  S   UNL     1     -10.322   6.680  68.167  1.00  0.00    -0.211 S  
HETATM   10  O   UNL     1     -11.385   6.358  67.235  1.00  0.00    -0.295 OA 
HETATM   11  O   UNL     1     -10.162   5.958  69.410  1.00  0.00    -0.183 OA 
BRANCH   9  12
HETATM   12  C   UNL     1     -10.492   8.416  68.539  1.00  0.00    -0.164 A  
HETATM   13  C   UNL     1     -10.481   9.349  67.495  1.00  0.00    -0.343 A  
HETATM   14  C   UNL     1     -10.658  10.706  67.778  1.00  0.00    -0.275 A  
HETATM   15  C   UNL     1     -10.820  11.152  69.093  1.00  0.00    -0.238 A  
HETATM   16  N   UNL     1     -11.117  12.495  69.348  1.00  0.00    -0.452 NA 
HETATM   17  C   UNL     1     -10.918  10.200  70.113  1.00  0.00    -0.376 A  
HETATM   18  H2  UNL     1     -11.950  12.747  68.818  1.00  0.00     0.000 HD 
HETATM   19  H1  UNL     1     -11.236  12.819  70.308  1.00  0.00     0.000 HD 
HETATM   20  C   UNL     1     -10.732   8.836  69.848  1.00  0.00    -0.228 A  
ENDBRANCH   9  12
ENDBRANCH   7   9
ENDBRANCH   4   7
TORSDOF 3
ENDMDL
MODEL      208
REMARK 921   NORMALIZED FREE ENERGY PREDICTED BY IDOCK:   -2.80 KCAL/MOL
REMARK 922        TOTAL FREE ENERGY PREDICTED BY IDOCK:   -3.75 KCAL/MOL
REMARK 923 INTER-LIGAND FREE ENERGY PREDICTED BY IDOCK:   -3.38 KCAL/MOL
REMARK 924 INTRA-LIGAND FREE ENERGY PREDICTED BY IDOCK:   -0.37 KCAL/MOL
REMARK 927      BINDING AFFINITY PREDICTED BY RF-SCORE:    0.00 PKD
ROOT
HETATM    1  C   UNL     1     -13.652   8.565  71.638  1.00  0.00    -0.393 C  
HETATM    2  C   UNL     1     -12.204   8.297  71.567  1.00  0.00    -0.301 A  
HETATM    3  C   UNL     1     -11.450   7.218  71.178  1.00  0.00    -0.312 A  
HETATM    4  C   UNL     1     -10.122   7.624  71.403  1.00  0.00    -0.182 A  
HETATM    5  O   UNL     1     -11.376   9.289  71.995  1.00  0.00    -0.349 OA 
HETATM    6  N   UNL     1     -10.061   8.847  71.935  1.00  0.00    -0.340 NA 
ENDROOT
BRANCH   4   7
HETATM    7  N   UNL     1      -8.998   6.825  71.258  1.00  0.00    -0.140 N  
HETATM    8  H   UNL     1      -8.733   6.159  71.984  1.00  0.00     0.000 HD 
BRANCH   7   9
HETATM    9  S   UNL     1      -8.076   6.981  69.848  1.00  0.00    -0.127 S  
HETATM   10  O   UNL     1      -8.638   8.099  69.116  1.00  0.00    -0.133 OA 
HETATM   11  O   UNL     1      -6.675   6.940  70.207  1.00  0.00    -0.050 OA 
BRANCH   9  12
HETATM   12  C   UNL     1      -8.461   5.519  68.901  1.00  0.00    -0.101 A  
HETATM   13  C   UNL     1      -9.668   5.453  68.195  1.00  0.00    -0.174 A  
HETATM   14  C   UNL     1      -9.955   4.328  67.417  1.00  0.00    -0.120 A  
HETATM   15  C   UNL     1      -9.063   3.253  67.352  1.00  0.00    -0.173 A  
HETATM   16  N   UNL     1      -9.307   2.190  66.476  1.00  0.00    -0.358 NA 
HETATM   17  C   UNL     1      -7.825   3.373  67.990  1.00  0.00    -0.067 A  
HETATM   18  H2  UNL     1      -9.424   2.568  65.536  1.00  0.00     0.000 HD 
HETATM   19  H1  UNL     1      -8.656   1.406  66.428  1.00  0.00     0.000 HD 
HETATM   20  C   UNL     1      -7.526   4.490  68.783  1.00  0.00    -0.060 A  
ENDBRANCH   9  12
ENDBRANCH   7   9
ENDBRANCH   4   7
TORSDOF 3
ENDMDL
MODEL      209
REMARK 921   NORMALIZED FREE ENERGY PREDICTED BY IDOCK:   -2.76 KCAL/MOL
REMARK 922        TOTAL FREE ENERGY PREDICTED BY IDOCK:   -3.71 KCAL/MOL
REMARK 923 INTER-LIGAND FREE ENERGY PREDICTED BY IDOCK:   -3.68 KCAL/MOL
REMARK 924 INTRA-LIGAND FREE ENERGY PREDICTED BY IDOCK:   -0.03 KCAL/MOL
REMARK 927      BINDING AFFINITY PREDICTED BY RF-SCORE:    0.00 PKD
ROOT
HETATM    1  C   UNL     1     -14.197   7.156  71.454  1.00  0.00    -0.414 C  
HETATM    2  C   UNL     1     -12.877   7.812  71.495  1.00  0.00    -0.329 A  
HETATM    3  C   UNL     1     -11.591   7.361  71.652  1.00  0.00    -0.302 A  
HETATM    4  C   UNL     1     -10.810   8.531  71.635  1.00  0.00    -0.286 A  
HETATM    5  O   UNL     1     -12.865   9.169  71.386  1.00  0.00    -0.320 OA 
HETATM    6  N   UNL     1     -11.561   9.628  71.521  1.00  0.00    -0.387 NA 
ENDROOT
BRANCH   4   7
HETATM    7  N   UNL     1      -9.444   8.593  71.867  1.00  0.00    -0.278 N  
HETATM    8  H   UNL     1      -8.828   9.097  71.230  1.00  0.00     0.000 HD 
BRANCH   7   9
HETATM    9  S   UNL     1      -8.823   7.811  73.233  1.00  0.00    -0.249 S  
HETATM   10  O   UNL     1      -7.793   8.681  73.767  1.00  0.00    -0.407 OA 
HETATM   11  O   UNL     1      -9.930   7.361  74.049  1.00  0.00    -0.274 OA 
BRANCH   9  12
HETATM   12  C   UNL     1      -7.980   6.380  72.583  1.00  0.00    -0.104 A  
HETATM   13  C   UNL     1      -6.648   6.494  72.167  1.00  0.00    -0.059 A  
HETATM   14  C   UNL     1      -5.971   5.366  71.697  1.00  0.00    -0.028 A  
HETATM   15  C   UNL     1      -6.611   4.126  71.610  1.00  0.00    -0.022 A  
HETATM   16  N   UNL     1      -5.886   2.984  71.254  1.00  0.00    -0.013 NA 
HETATM   17  C   UNL     1      -7.911   4.010  72.112  1.00  0.00    -0.084 A  
HETATM   18  H2  UNL     1      -5.095   2.894  71.890  1.00  0.00     0.000 HD 
HETATM   19  H1  UNL     1      -6.354   2.080  71.192  1.00  0.00     0.000 HD 
HETATM   20  C   UNL     1      -8.608   5.134  72.577  1.00  0.00    -0.121 A  
ENDBRANCH   9  12
ENDBRANCH   7   9
ENDBRANCH   4   7
TORSDOF 3
ENDMDL
MODEL      210
REMARK 921   NORMALIZED FREE ENERGY PREDICTED BY IDOCK:   -2.74 KCAL/MOL
REMARK 922        TOTAL FREE ENERGY PREDICTED BY IDOCK:   -3.68 KCAL/MOL
REMARK 923 INTER-LIGAND FREE ENERGY PREDICTED BY IDOCK:   -3.25 KCAL/MOL
REMARK 924 INTRA-LIGAND FREE ENERGY PREDICTED BY IDOCK:   -0.44 KCAL/MOL
REMARK 927      BINDING AFFINITY PREDICTED BY RF-SCORE:    0.00 PKD
ROOT
HETATM    1  C   UNL     1      -5.891   9.256  69.319  1.00  0.00    -0.035 C  
HETATM    2  C   UNL     1      -6.529   8.299  70.242  1.00  0.00    -0.036 A  
HETATM    3  C   UNL     1      -7.087   7.054  70.091  1.00  0.00    -0.067 A  
HETATM    4  C   UNL     1      -7.550   6.724  71.377  1.00  0.00    -0.092 A  
HETATM    5  O   UNL     1      -6.648   8.687  71.541  1.00  0.00    -0.063 OA 
HETATM    6  N   UNL     1      -7.335   7.711  72.251  1.00  0.00    -0.073 NA 
ENDROOT
BRANCH   4   7
HETATM    7  N   UNL     1      -8.288   5.596  71.705  1.00  0.00    -0.119 N  
HETATM    8  H   UNL     1      -7.831   4.762  72.073  1.00  0.00     0.000 HD 
BRANCH   7   9
HETATM    9  S   UNL     1      -9.964   5.636  71.479  1.00  0.00    -0.186 S  
HETATM   10  O   UNL     1     -10.485   4.430  72.092  1.00  0.00    -0.171 OA 
HETATM   11  O   UNL     1     -10.449   6.946  71.855  1.00  0.00    -0.201 OA 
BRANCH   9  12
HETATM   12  C   UNL     1     -10.181   5.436  69.720  1.00  0.00    -0.278 A  
HETATM   13  C   UNL     1     -10.891   6.402  68.998  1.00  0.00    -0.385 A  
HETATM   14  C   UNL     1     -11.027   6.272  67.613  1.00  0.00    -0.438 A  
HETATM   15  C   UNL     1     -10.484   5.174  66.938  1.00  0.00    -0.223 A  
HETATM   16  N   UNL     1     -10.523   5.120  65.541  1.00  0.00    -0.452 NA 
HETATM   17  C   UNL     1      -9.703   4.266  67.660  1.00  0.00    -0.186 A  
HETATM   18  H2  UNL     1     -10.092   5.968  65.174  1.00  0.00     0.000 HD 
HETATM   19  H1  UNL     1     -10.127   4.319  65.049  1.00  0.00     0.000 HD 
HETATM   20  C   UNL     1      -9.567   4.377  69.051  1.00  0.00    -0.244 A  
ENDBRANCH   9  12
ENDBRANCH   7   9
ENDBRANCH   4   7
TORSDOF 3
ENDMDL
MODEL      211
REMARK 921   NORMALIZED FREE ENERGY PREDICTED BY IDOCK:   -2.72 KCAL/MOL
REMARK 922        TOTAL FREE ENERGY PREDICTED BY IDOCK:   -3.66 KCAL/MOL
REMARK 923 INTER-LIGAND FREE ENERGY PREDICTED BY IDOCK:   -3.23 KCAL/MOL
REMARK 924 INTRA-LIGAND FREE ENERGY PREDICTED BY IDOCK:   -0.42 KCAL/MOL
REMARK 927      BINDING AFFINITY PREDICTED BY RF-SCORE:    0.00 PKD
ROOT
HETATM    1  C   UNL     1      -5.436  10.146  69.488  1.00  0.00    -0.038 C  
HETATM    2  C   UNL     1      -6.590   9.257  69.720  1.00  0.00    -0.043 A  
HETATM    3  C   UNL     1      -7.176   8.246  69.000  1.00  0.00    -0.073 A  
HETATM    4  C   UNL     1      -8.270   7.849  69.791  1.00  0.00    -0.121 A  
HETATM    5  O   UNL     1      -7.288   9.449  70.872  1.00  0.00    -0.179 OA 
HETATM    6  N   UNL     1      -8.379   8.589  70.896  1.00  0.00    -0.132 NA 
ENDROOT
BRANCH   4   7
HETATM    7  N   UNL     1      -9.233   6.919  69.427  1.00  0.00    -0.147 N  
HETATM    8  H   UNL     1      -9.029   5.920  69.449  1.00  0.00     0.000 HD 
BRANCH   7   9
HETATM    9  S   UNL     1     -10.754   7.482  68.944  1.00  0.00    -0.051 S  
HETATM   10  O   UNL     1     -11.318   6.450  68.095  1.00  0.00    -0.266 OA 
HETATM   11  O   UNL     1     -11.457   7.968  70.112  1.00  0.00    -0.159 OA 
BRANCH   9  12
HETATM   12  C   UNL     1     -10.399   8.867  67.879  1.00  0.00    -0.230 A  
HETATM   13  C   UNL     1      -9.911   8.636  66.587  1.00  0.00    -0.336 A  
HETATM   14  C   UNL     1      -9.672   9.717  65.734  1.00  0.00    -0.340 A  
HETATM   15  C   UNL     1      -9.889  11.031  66.160  1.00  0.00    -0.225 A  
HETATM   16  N   UNL     1      -9.762  12.092  65.257  1.00  0.00    -0.369 NA 
HETATM   17  C   UNL     1     -10.460  11.239  67.419  1.00  0.00    -0.247 A  
HETATM   18  H2  UNL     1     -10.368  11.908  64.457  1.00  0.00     0.000 HD 
HETATM   19  H1  UNL     1      -9.921  13.050  65.568  1.00  0.00     0.000 HD 
HETATM   20  C   UNL     1     -10.696  10.167  68.291  1.00  0.00    -0.277 A  
ENDBRANCH   9  12
ENDBRANCH   7   9
ENDBRANCH   4   7
TORSDOF 3
ENDMDL
MODEL      212
REMARK 921   NORMALIZED FREE ENERGY PREDICTED BY IDOCK:   -2.69 KCAL/MOL
REMARK 922        TOTAL FREE ENERGY PREDICTED BY IDOCK:   -3.62 KCAL/MOL
REMARK 923 INTER-LIGAND FREE ENERGY PREDICTED BY IDOCK:   -3.28 KCAL/MOL
REMARK 924 INTRA-LIGAND FREE ENERGY PREDICTED BY IDOCK:   -0.34 KCAL/MOL
REMARK 927      BINDING AFFINITY PREDICTED BY RF-SCORE:    0.00 PKD
ROOT
HETATM    1  C   UNL     1     -10.569   5.803  72.100  1.00  0.00    -0.268 C  
HETATM    2  C   UNL     1      -9.836   6.722  71.209  1.00  0.00    -0.176 A  
HETATM    3  C   UNL     1     -10.126   7.940  70.646  1.00  0.00    -0.197 A  
HETATM    4  C   UNL     1      -8.994   8.238  69.866  1.00  0.00    -0.139 A  
HETATM    5  O   UNL     1      -8.604   6.319  70.794  1.00  0.00    -0.133 OA 
HETATM    6  N   UNL     1      -8.090   7.257  69.907  1.00  0.00    -0.125 NA 
ENDROOT
BRANCH   4   7
HETATM    7  N   UNL     1      -8.863   9.327  69.017  1.00  0.00    -0.133 N  
HETATM    8  H   UNL     1      -8.248  10.104  69.256  1.00  0.00     0.000 HD 
BRANCH   7   9
HETATM    9  S   UNL     1      -9.751   9.337  67.576  1.00  0.00    -0.167 S  
HETATM   10  O   UNL     1     -11.130   9.583  67.950  1.00  0.00    -0.179 OA 
HETATM   11  O   UNL     1      -9.065  10.178  66.620  1.00  0.00    -0.142 OA 
BRANCH   9  12
HETATM   12  C   UNL     1      -9.682   7.651  67.000  1.00  0.00    -0.195 A  
HETATM   13  C   UNL     1     -10.807   6.828  67.138  1.00  0.00    -0.462 A  
HETATM   14  C   UNL     1     -10.772   5.520  66.649  1.00  0.00    -0.332 A  
HETATM   15  C   UNL     1      -9.620   5.009  66.044  1.00  0.00    -0.168 A  
HETATM   16  N   UNL     1      -9.641   3.742  65.452  1.00  0.00    -0.174 NA 
HETATM   17  C   UNL     1      -8.538   5.870  65.834  1.00  0.00    -0.145 A  
HETATM   18  H2  UNL     1     -10.400   3.717  64.771  1.00  0.00     0.000 HD 
HETATM   19  H1  UNL     1      -8.800   3.369  65.010  1.00  0.00     0.000 HD 
HETATM   20  C   UNL     1      -8.553   7.181  66.328  1.00  0.00    -0.143 A  
ENDBRANCH   9  12
ENDBRANCH   7   9
ENDBRANCH   4   7
TORSDOF 3
ENDMDL
MODEL      213
REMARK 921   NORMALIZED FREE ENERGY PREDICTED BY IDOCK:   -2.59 KCAL/MOL
REMARK 922        TOTAL FREE ENERGY PREDICTED BY IDOCK:   -3.51 KCAL/MOL
REMARK 923 INTER-LIGAND FREE ENERGY PREDICTED BY IDOCK:   -3.26 KCAL/MOL
REMARK 924 INTRA-LIGAND FREE ENERGY PREDICTED BY IDOCK:   -0.25 KCAL/MOL
REMARK 927      BINDING AFFINITY PREDICTED BY RF-SCORE:    0.00 PKD
ROOT
HETATM    1  C   UNL     1      -7.030   4.581  64.926  1.00  0.00    -0.061 C  
HETATM    2  C   UNL     1      -7.808   5.601  65.653  1.00  0.00    -0.099 A  
HETATM    3  C   UNL     1      -8.485   6.734  65.275  1.00  0.00    -0.067 A  
HETATM    4  C   UNL     1      -8.969   7.266  66.484  1.00  0.00    -0.152 A  
HETATM    5  O   UNL     1      -7.888   5.462  67.004  1.00  0.00    -0.099 OA 
HETATM    6  N   UNL     1      -8.583   6.541  67.536  1.00  0.00    -0.119 NA 
ENDROOT
BRANCH   4   7
HETATM    7  N   UNL     1      -9.631   8.476  66.625  1.00  0.00    -0.207 N  
HETATM    8  H   UNL     1     -10.512   8.650  66.141  1.00  0.00     0.000 HD 
BRANCH   7   9
HETATM    9  S   UNL     1      -8.942   9.660  67.619  1.00  0.00    -0.124 S  
HETATM   10  O   UNL     1      -9.417   9.389  68.962  1.00  0.00    -0.154 OA 
HETATM   11  O   UNL     1      -7.529   9.747  67.320  1.00  0.00    -0.087 OA 
BRANCH   9  12
HETATM   12  C   UNL     1      -9.724  11.179  67.110  1.00  0.00    -0.177 A  
HETATM   13  C   UNL     1     -11.120  11.239  67.017  1.00  0.00    -0.356 A  
HETATM   14  C   UNL     1     -11.739  12.440  66.659  1.00  0.00    -0.438 A  
HETATM   15  C   UNL     1     -10.984  13.580  66.368  1.00  0.00    -0.293 A  
HETATM   16  N   UNL     1     -11.621  14.802  66.131  1.00  0.00    -0.332 NA 
HETATM   17  C   UNL     1      -9.599  13.528  66.551  1.00  0.00    -0.284 A  
HETATM   18  H2  UNL     1     -12.223  15.011  66.927  1.00  0.00     0.000 HD 
HETATM   19  H1  UNL     1     -11.069  15.634  65.918  1.00  0.00     0.000 HD 
HETATM   20  C   UNL     1      -8.961  12.328  66.899  1.00  0.00    -0.207 A  
ENDBRANCH   9  12
ENDBRANCH   7   9
ENDBRANCH   4   7
TORSDOF 3
ENDMDL
MODEL      214
REMARK 921   NORMALIZED FREE ENERGY PREDICTED BY IDOCK:   -2.58 KCAL/MOL
REMARK 922        TOTAL FREE ENERGY PREDICTED BY IDOCK:   -3.50 KCAL/MOL
REMARK 923 INTER-LIGAND FREE ENERGY PREDICTED BY IDOCK:   -3.17 KCAL/MOL
REMARK 924 INTRA-LIGAND FREE ENERGY PREDICTED BY IDOCK:   -0.33 KCAL/MOL
REMARK 927      BINDING AFFINITY PREDICTED BY RF-SCORE:    0.00 PKD
ROOT
HETATM    1  C   UNL     1      -9.882   3.128  71.947  1.00  0.00    -0.238 C  
HETATM    2  C   UNL     1      -9.443   3.868  70.749  1.00  0.00    -0.163 A  
HETATM    3  C   UNL     1      -9.219   5.194  70.474  1.00  0.00    -0.191 A  
HETATM    4  C   UNL     1      -8.853   5.208  69.116  1.00  0.00    -0.092 A  
HETATM    5  O   UNL     1      -9.219   3.135  69.625  1.00  0.00    -0.123 OA 
HETATM    6  N   UNL     1      -8.891   3.987  68.579  1.00  0.00    -0.100 NA 
ENDROOT
BRANCH   4   7
HETATM    7  N   UNL     1      -8.631   6.344  68.352  1.00  0.00    -0.115 N  
HETATM    8  H   UNL     1      -7.767   6.878  68.449  1.00  0.00     0.000 HD 
BRANCH   7   9
HETATM    9  S   UNL     1      -9.827   6.826  67.257  1.00  0.00    -0.157 S  
HETATM   10  O   UNL     1      -9.492   6.205  65.990  1.00  0.00    -0.121 OA 
HETATM   11  O   UNL     1     -11.121   6.632  67.874  1.00  0.00    -0.269 OA 
BRANCH   9  12
HETATM   12  C   UNL     1      -9.558   8.575  67.043  1.00  0.00    -0.188 A  
HETATM   13  C   UNL     1      -9.225   9.072  65.776  1.00  0.00    -0.293 A  
HETATM   14  C   UNL     1      -9.055  10.447  65.595  1.00  0.00    -0.206 A  
HETATM   15  C   UNL     1      -9.187  11.336  66.667  1.00  0.00    -0.180 A  
HETATM   16  N   UNL     1      -9.134  12.716  66.445  1.00  0.00    -0.398 NA 
HETATM   17  C   UNL     1      -9.605  10.833  67.903  1.00  0.00    -0.171 A  
HETATM   18  H2  UNL     1      -9.831  12.956  65.741  1.00  0.00     0.000 HD 
HETATM   19  H1  UNL     1      -9.230  13.364  67.227  1.00  0.00     0.000 HD 
HETATM   20  C   UNL     1      -9.770   9.456  68.104  1.00  0.00    -0.164 A  
ENDBRANCH   9  12
ENDBRANCH   7   9
ENDBRANCH   4   7
TORSDOF 3
ENDMDL
MODEL      215
REMARK 921   NORMALIZED FREE ENERGY PREDICTED BY IDOCK:   -2.55 KCAL/MOL
REMARK 922        TOTAL FREE ENERGY PREDICTED BY IDOCK:   -3.47 KCAL/MOL
REMARK 923 INTER-LIGAND FREE ENERGY PREDICTED BY IDOCK:   -3.25 KCAL/MOL
REMARK 924 INTRA-LIGAND FREE ENERGY PREDICTED BY IDOCK:   -0.21 KCAL/MOL
REMARK 927      BINDING AFFINITY PREDICTED BY RF-SCORE:    0.00 PKD
ROOT
HETATM    1  C   UNL     1     -11.899  15.896  71.210  1.00  0.00    -0.502 C  
HETATM    2  C   UNL     1     -11.315  15.196  70.051  1.00  0.00    -0.277 A  
HETATM    3  C   UNL     1     -10.097  15.244  69.419  1.00  0.00    -0.266 A  
HETATM    4  C   UNL     1     -10.226  14.339  68.351  1.00  0.00    -0.245 A  
HETATM    5  O   UNL     1     -12.120  14.311  69.401  1.00  0.00    -0.316 OA 
HETATM    6  N   UNL     1     -11.447  13.803  68.297  1.00  0.00    -0.292 NA 
ENDROOT
BRANCH   4   7
HETATM    7  N   UNL     1      -9.282  14.123  67.358  1.00  0.00    -0.196 N  
HETATM    8  H   UNL     1      -9.391  14.540  66.433  1.00  0.00     0.000 HD 
BRANCH   7   9
HETATM    9  S   UNL     1      -7.944  13.151  67.716  1.00  0.00    -0.178 S  
HETATM   10  O   UNL     1      -6.925  13.487  66.741  1.00  0.00     0.354 OA 
HETATM   11  O   UNL     1      -7.684  13.231  69.138  1.00  0.00     0.092 OA 
BRANCH   9  12
HETATM   12  C   UNL     1      -8.480  11.495  67.330  1.00  0.00    -0.147 A  
HETATM   13  C   UNL     1      -9.220  10.772  68.274  1.00  0.00    -0.157 A  
HETATM   14  C   UNL     1      -9.679   9.490  67.959  1.00  0.00    -0.168 A  
HETATM   15  C   UNL     1      -9.389   8.906  66.723  1.00  0.00    -0.175 A  
HETATM   16  N   UNL     1      -9.957   7.675  66.377  1.00  0.00    -0.457 NA 
HETATM   17  C   UNL     1      -8.727   9.674  65.760  1.00  0.00    -0.168 A  
HETATM   18  H2  UNL     1     -10.970   7.751  66.467  1.00  0.00     0.000 HD 
HETATM   19  H1  UNL     1      -9.746   7.249  65.475  1.00  0.00     0.000 HD 
HETATM   20  C   UNL     1      -8.250  10.957  66.063  1.00  0.00    -0.155 A  
ENDBRANCH   9  12
ENDBRANCH   7   9
ENDBRANCH   4   7
TORSDOF 3
ENDMDL
MODEL      216
REMARK 921   NORMALIZED FREE ENERGY PREDICTED BY IDOCK:   -2.48 KCAL/MOL
REMARK 922        TOTAL FREE ENERGY PREDICTED BY IDOCK:   -3.38 KCAL/MOL
REMARK 923 INTER-LIGAND FREE ENERGY PREDICTED BY IDOCK:   -3.12 KCAL/MOL
REMARK 924 INTRA-LIGAND FREE ENERGY PREDICTED BY IDOCK:   -0.25 KCAL/MOL
REMARK 927      BINDING AFFINITY PREDICTED BY RF-SCORE:    0.00 PKD
ROOT
HETATM    1  C   UNL     1      -8.623  16.580  67.225  1.00  0.00    -0.202 C  
HETATM    2  C   UNL     1      -9.276  15.291  67.518  1.00  0.00    -0.199 A  
HETATM    3  C   UNL     1      -9.009  13.987  67.182  1.00  0.00    -0.241 A  
HETATM    4  C   UNL     1     -10.063  13.259  67.764  1.00  0.00    -0.229 A  
HETATM    5  O   UNL     1     -10.416  15.338  68.260  1.00  0.00    -0.237 OA 
HETATM    6  N   UNL     1     -10.940  14.056  68.376  1.00  0.00    -0.243 NA 
ENDROOT
BRANCH   4   7
HETATM    7  N   UNL     1     -10.286  11.899  67.606  1.00  0.00    -0.198 N  
HETATM    8  H   UNL     1     -10.769  11.541  66.782  1.00  0.00     0.000 HD 
BRANCH   7   9
HETATM    9  S   UNL     1      -9.739  10.847  68.814  1.00  0.00    -0.179 S  
HETATM   10  O   UNL     1      -8.480  11.389  69.285  1.00  0.00     0.077 OA 
HETATM   11  O   UNL     1     -10.834  10.579  69.721  1.00  0.00    -0.256 OA 
BRANCH   9  12
HETATM   12  C   UNL     1      -9.342   9.341  67.946  1.00  0.00    -0.129 A  
HETATM   13  C   UNL     1      -8.001   8.983  67.764  1.00  0.00    -0.101 A  
HETATM   14  C   UNL     1      -7.685   7.782  67.122  1.00  0.00    -0.105 A  
HETATM   15  C   UNL     1      -8.690   6.942  66.635  1.00  0.00    -0.128 A  
HETATM   16  N   UNL     1      -8.363   5.690  66.105  1.00  0.00    -0.117 NA 
HETATM   17  C   UNL     1     -10.023   7.270  66.903  1.00  0.00    -0.302 A  
HETATM   18  H2  UNL     1      -7.824   5.176  66.802  1.00  0.00     0.000 HD 
HETATM   19  H1  UNL     1      -9.097   5.076  65.749  1.00  0.00     0.000 HD 
HETATM   20  C   UNL     1     -10.357   8.475  67.535  1.00  0.00    -0.334 A  
ENDBRANCH   9  12
ENDBRANCH   7   9
ENDBRANCH   4   7
TORSDOF 3
ENDMDL
MODEL      217
REMARK 921   NORMALIZED FREE ENERGY PREDICTED BY IDOCK:   -2.44 KCAL/MOL
REMARK 922        TOTAL FREE ENERGY PREDICTED BY IDOCK:   -3.33 KCAL/MOL
REMARK 923 INTER-LIGAND FREE ENERGY PREDICTED BY IDOCK:   -3.06 KCAL/MOL
REMARK 924 INTRA-LIGAND FREE ENERGY PREDICTED BY IDOCK:   -0.27 KCAL/MOL
REMARK 927      BINDING AFFINITY PREDICTED BY RF-SCORE:    0.00 PKD
ROOT
HETATM    1  C   UNL     1      -9.702   3.301  71.081  1.00  0.00    -0.212 C  
HETATM    2  C   UNL     1      -9.278   4.711  71.012  1.00  0.00    -0.138 A  
HETATM    3  C   UNL     1      -9.681   5.862  71.642  1.00  0.00    -0.185 A  
HETATM    4  C   UNL     1      -8.876   6.866  71.074  1.00  0.00    -0.140 A  
HETATM    5  O   UNL     1      -8.289   5.009  70.126  1.00  0.00    -0.083 OA 
HETATM    6  N   UNL     1      -8.066   6.380  70.132  1.00  0.00    -0.118 NA 
ENDROOT
BRANCH   4   7
HETATM    7  N   UNL     1      -8.991   8.226  71.319  1.00  0.00    -0.148 N  
HETATM    8  H   UNL     1      -8.418   8.679  72.032  1.00  0.00     0.000 HD 
BRANCH   7   9
HETATM    9  S   UNL     1     -10.105   9.118  70.409  1.00  0.00    -0.237 S  
HETATM   10  O   UNL     1     -10.761   8.171  69.529  1.00  0.00    -0.227 OA 
HETATM   11  O   UNL     1     -10.860   9.964  71.307  1.00  0.00    -0.289 OA 
BRANCH   9  12
HETATM   12  C   UNL     1      -9.098  10.156  69.366  1.00  0.00    -0.203 A  
HETATM   13  C   UNL     1      -7.754   9.824  69.154  1.00  0.00    -0.092 A  
HETATM   14  C   UNL     1      -6.973  10.610  68.303  1.00  0.00    -0.072 A  
HETATM   15  C   UNL     1      -7.506  11.741  67.677  1.00  0.00    -0.123 A  
HETATM   16  N   UNL     1      -6.749  12.445  66.736  1.00  0.00    -0.421 NA 
HETATM   17  C   UNL     1      -8.871  12.007  67.828  1.00  0.00    -0.165 A  
HETATM   18  H2  UNL     1      -6.444  11.793  66.014  1.00  0.00     0.000 HD 
HETATM   19  H1  UNL     1      -7.138  13.270  66.279  1.00  0.00     0.000 HD 
HETATM   20  C   UNL     1      -9.666  11.235  68.687  1.00  0.00    -0.200 A  
ENDBRANCH   9  12
ENDBRANCH   7   9
ENDBRANCH   4   7
TORSDOF 3
ENDMDL
MODEL      218
REMARK 921   NORMALIZED FREE ENERGY PREDICTED BY IDOCK:   -2.43 KCAL/MOL
REMARK 922        TOTAL FREE ENERGY PREDICTED BY IDOCK:   -3.32 KCAL/MOL
REMARK 923 INTER-LIGAND FREE ENERGY PREDICTED BY IDOCK:   -3.02 KCAL/MOL
REMARK 924 INTRA-LIGAND FREE ENERGY PREDICTED BY IDOCK:   -0.30 KCAL/MOL
REMARK 927      BINDING AFFINITY PREDICTED BY RF-SCORE:    0.00 PKD
ROOT
HETATM    1  C   UNL     1      -6.945   3.017  64.060  1.00  0.00    -0.044 C  
HETATM    2  C   UNL     1      -7.747   3.878  64.948  1.00  0.00    -0.081 A  
HETATM    3  C   UNL     1      -7.483   4.559  66.111  1.00  0.00    -0.085 A  
HETATM    4  C   UNL     1      -8.713   5.151  66.451  1.00  0.00    -0.113 A  
HETATM    5  O   UNL     1      -9.053   4.057  64.612  1.00  0.00    -0.128 OA 
HETATM    6  N   UNL     1      -9.677   4.824  65.588  1.00  0.00    -0.175 NA 
ENDROOT
BRANCH   4   7
HETATM    7  N   UNL     1      -8.974   5.858  67.615  1.00  0.00    -0.109 N  
HETATM    8  H   UNL     1      -9.230   6.845  67.581  1.00  0.00     0.000 HD 
BRANCH   7   9
HETATM    9  S   UNL     1      -8.856   5.046  69.095  1.00  0.00    -0.093 S  
HETATM   10  O   UNL     1      -9.530   3.774  68.915  1.00  0.00    -0.158 OA 
HETATM   11  O   UNL     1      -7.486   5.117  69.552  1.00  0.00    -0.056 OA 
BRANCH   9  12
HETATM   12  C   UNL     1      -9.875   5.997  70.207  1.00  0.00    -0.178 A  
HETATM   13  C   UNL     1     -10.895   5.360  70.925  1.00  0.00    -0.190 A  
HETATM   14  C   UNL     1     -11.667   6.094  71.829  1.00  0.00    -0.312 A  
HETATM   15  C   UNL     1     -11.454   7.463  72.012  1.00  0.00    -0.273 A  
HETATM   16  N   UNL     1     -12.151   8.156  73.007  1.00  0.00    -0.617 NA 
HETATM   17  C   UNL     1     -10.375   8.064  71.356  1.00  0.00    -0.243 A  
HETATM   18  H2  UNL     1     -11.995   7.685  73.897  1.00  0.00     0.000 HD 
HETATM   19  H1  UNL     1     -11.995   9.155  73.140  1.00  0.00     0.000 HD 
HETATM   20  C   UNL     1      -9.598   7.346  70.437  1.00  0.00    -0.165 A  
ENDBRANCH   9  12
ENDBRANCH   7   9
ENDBRANCH   4   7
TORSDOF 3
ENDMDL
MODEL      219
REMARK 921   NORMALIZED FREE ENERGY PREDICTED BY IDOCK:   -2.43 KCAL/MOL
REMARK 922        TOTAL FREE ENERGY PREDICTED BY IDOCK:   -3.32 KCAL/MOL
REMARK 923 INTER-LIGAND FREE ENERGY PREDICTED BY IDOCK:   -4.07 KCAL/MOL
REMARK 924 INTRA-LIGAND FREE ENERGY PREDICTED BY IDOCK:    0.76 KCAL/MOL
REMARK 927      BINDING AFFINITY PREDICTED BY RF-SCORE:    0.00 PKD
ROOT
HETATM    1  C   UNL     1     -12.909   6.931  71.717  1.00  0.00    -0.349 C  
HETATM    2  C   UNL     1     -12.651   8.342  71.376  1.00  0.00    -0.277 A  
HETATM    3  C   UNL     1     -11.534   9.044  70.996  1.00  0.00    -0.358 A  
HETATM    4  C   UNL     1     -11.986  10.370  70.868  1.00  0.00    -0.377 A  
HETATM    5  O   UNL     1     -13.707   9.196  71.464  1.00  0.00    -0.378 OA 
HETATM    6  N   UNL     1     -13.277  10.488  71.187  1.00  0.00    -0.331 NA 
ENDROOT
BRANCH   4   7
HETATM    7  N   UNL     1     -11.188  11.472  70.603  1.00  0.00    -0.035 N  
HETATM    8  H   UNL     1     -10.171  11.400  70.631  1.00  0.00     0.000 HD 
BRANCH   7   9
HETATM    9  S   UNL     1     -11.941  12.942  70.232  1.00  0.00    -0.199 S  
HETATM   10  O   UNL     1     -13.333  12.791  70.607  1.00  0.00     0.343 OA 
HETATM   11  O   UNL     1     -11.130  14.020  70.755  1.00  0.00     0.284 OA 
BRANCH   9  12
HETATM   12  C   UNL     1     -11.909  13.022  68.451  1.00  0.00    -0.334 A  
HETATM   13  C   UNL     1     -11.654  11.859  67.712  1.00  0.00    -0.393 A  
HETATM   14  C   UNL     1     -11.670  11.908  66.316  1.00  0.00    -0.223 A  
HETATM   15  C   UNL     1     -11.913  13.108  65.641  1.00  0.00    -0.415 A  
HETATM   16  N   UNL     1     -12.046  13.117  64.249  1.00  0.00    -0.397 NA 
HETATM   17  C   UNL     1     -12.252  14.239  66.391  1.00  0.00    -0.426 A  
HETATM   18  H2  UNL     1     -12.774  12.450  63.991  1.00  0.00     0.000 HD 
HETATM   19  H1  UNL     1     -12.223  13.992  63.757  1.00  0.00     0.000 HD 
HETATM   20  C   UNL     1     -12.230  14.209  67.792  1.00  0.00    -0.208 A  
ENDBRANCH   9  12
ENDBRANCH   7   9
ENDBRANCH   4   7
TORSDOF 3
ENDMDL
MODEL      220
REMARK 921   NORMALIZED FREE ENERGY PREDICTED BY IDOCK:   -2.37 KCAL/MOL
REMARK 922        TOTAL FREE ENERGY PREDICTED BY IDOCK:   -3.25 KCAL/MOL
REMARK 923 INTER-LIGAND FREE ENERGY PREDICTED BY IDOCK:   -3.37 KCAL/MOL
REMARK 924 INTRA-LIGAND FREE ENERGY PREDICTED BY IDOCK:    0.11 KCAL/MOL
REMARK 927      BINDING AFFINITY PREDICTED BY RF-SCORE:    0.00 PKD
ROOT
HETATM    1  C   UNL     1      -8.108   2.670  70.623  1.00  0.00    -0.058 C  
HETATM    2  C   UNL     1      -8.132   4.144  70.570  1.00  0.00    -0.055 A  
HETATM    3  C   UNL     1      -9.113   5.076  70.341  1.00  0.00    -0.172 A  
HETATM    4  C   UNL     1      -8.438   6.308  70.393  1.00  0.00    -0.134 A  
HETATM    5  O   UNL     1      -6.943   4.782  70.753  1.00  0.00    -0.035 OA 
HETATM    6  N   UNL     1      -7.128   6.149  70.595  1.00  0.00    -0.066 NA 
ENDROOT
BRANCH   4   7
HETATM    7  N   UNL     1      -8.996   7.547  70.114  1.00  0.00    -0.147 N  
HETATM    8  H   UNL     1      -8.406   8.364  69.962  1.00  0.00     0.000 HD 
BRANCH   7   9
HETATM    9  S   UNL     1     -10.682   7.670  70.032  1.00  0.00    -0.236 S  
HETATM   10  O   UNL     1     -11.101   6.804  68.947  1.00  0.00    -0.233 OA 
HETATM   11  O   UNL     1     -11.220   7.524  71.367  1.00  0.00    -0.238 OA 
BRANCH   9  12
HETATM   12  C   UNL     1     -10.980   9.340  69.481  1.00  0.00    -0.151 A  
HETATM   13  C   UNL     1     -11.248  10.340  70.424  1.00  0.00    -0.407 A  
HETATM   14  C   UNL     1     -11.439  11.658  70.000  1.00  0.00    -0.266 A  
HETATM   15  C   UNL     1     -11.392  11.991  68.643  1.00  0.00    -0.277 A  
HETATM   16  N   UNL     1     -11.464  13.330  68.245  1.00  0.00    -0.294 NA 
HETATM   17  C   UNL     1     -11.036  10.999  67.724  1.00  0.00    -0.356 A  
HETATM   18  H2  UNL     1     -10.732  13.849  68.729  1.00  0.00     0.000 HD 
HETATM   19  H1  UNL     1     -11.430  13.572  67.255  1.00  0.00     0.000 HD 
HETATM   20  C   UNL     1     -10.852   9.670  68.131  1.00  0.00    -0.241 A  
ENDBRANCH   9  12
ENDBRANCH   7   9
ENDBRANCH   4   7
TORSDOF 3
ENDMDL
MODEL      221
REMARK 921   NORMALIZED FREE ENERGY PREDICTED BY IDOCK:   -2.37 KCAL/MOL
REMARK 922        TOTAL FREE ENERGY PREDICTED BY IDOCK:   -3.25 KCAL/MOL
REMARK 923 INTER-LIGAND FREE ENERGY PREDICTED BY IDOCK:   -3.34 KCAL/MOL
REMARK 924 INTRA-LIGAND FREE ENERGY PREDICTED BY IDOCK:    0.08 KCAL/MOL
REMARK 927      BINDING AFFINITY PREDICTED BY RF-SCORE:    0.00 PKD
ROOT
HETATM    1  C   UNL     1      -6.573  10.015  68.899  1.00  0.00    -0.049 C  
HETATM    2  C   UNL     1      -6.907   8.637  68.494  1.00  0.00    -0.064 A  
HETATM    3  C   UNL     1      -7.803   8.092  67.608  1.00  0.00    -0.114 A  
HETATM    4  C   UNL     1      -7.625   6.704  67.747  1.00  0.00    -0.106 A  
HETATM    5  O   UNL     1      -6.232   7.634  69.120  1.00  0.00    -0.033 OA 
HETATM    6  N   UNL     1      -6.719   6.410  68.681  1.00  0.00    -0.058 NA 
ENDROOT
BRANCH   4   7
HETATM    7  N   UNL     1      -8.390   5.727  67.128  1.00  0.00    -0.105 N  
HETATM    8  H   UNL     1      -7.948   4.934  66.663  1.00  0.00     0.000 HD 
BRANCH   7   9
HETATM    9  S   UNL     1     -10.075   5.881  67.160  1.00  0.00    -0.202 S  
HETATM   10  O   UNL     1     -10.366   7.241  66.749  1.00  0.00    -0.269 OA 
HETATM   11  O   UNL     1     -10.654   4.745  66.477  1.00  0.00    -0.259 OA 
BRANCH   9  12
HETATM   12  C   UNL     1     -10.498   5.780  68.889  1.00  0.00    -0.256 A  
HETATM   13  C   UNL     1     -11.535   6.574  69.393  1.00  0.00    -0.346 A  
HETATM   14  C   UNL     1     -11.899   6.466  70.738  1.00  0.00    -0.319 A  
HETATM   15  C   UNL     1     -11.225   5.594  71.598  1.00  0.00    -0.134 A  
HETATM   16  N   UNL     1     -11.678   5.408  72.908  1.00  0.00    -0.491 NA 
HETATM   17  C   UNL     1     -10.253   4.745  71.059  1.00  0.00    -0.239 A  
HETATM   18  H2  UNL     1     -12.659   5.131  72.873  1.00  0.00     0.000 HD 
HETATM   19  H1  UNL     1     -11.186   4.771  73.535  1.00  0.00     0.000 HD 
HETATM   20  C   UNL     1      -9.869   4.848  69.715  1.00  0.00    -0.292 A  
ENDBRANCH   9  12
ENDBRANCH   7   9
ENDBRANCH   4   7
TORSDOF 3
ENDMDL
MODEL      222
REMARK 921   NORMALIZED FREE ENERGY PREDICTED BY IDOCK:   -2.34 KCAL/MOL
REMARK 922        TOTAL FREE ENERGY PREDICTED BY IDOCK:   -3.22 KCAL/MOL
REMARK 923 INTER-LIGAND FREE ENERGY PREDICTED BY IDOCK:   -2.91 KCAL/MOL
REMARK 924 INTRA-LIGAND FREE ENERGY PREDICTED BY IDOCK:   -0.30 KCAL/MOL
REMARK 927      BINDING AFFINITY PREDICTED BY RF-SCORE:    0.00 PKD
ROOT
HETATM    1  C   UNL     1      -6.085   8.416  69.508  1.00  0.00    -0.036 C  
HETATM    2  C   UNL     1      -6.600   7.580  70.607  1.00  0.00    -0.043 A  
HETATM    3  C   UNL     1      -6.818   6.233  70.762  1.00  0.00    -0.063 A  
HETATM    4  C   UNL     1      -7.365   6.118  72.053  1.00  0.00    -0.093 A  
HETATM    5  O   UNL     1      -6.988   8.228  71.739  1.00  0.00    -0.069 OA 
HETATM    6  N   UNL     1      -7.516   7.309  72.637  1.00  0.00    -0.075 NA 
ENDROOT
BRANCH   4   7
HETATM    7  N   UNL     1      -7.851   4.951  72.622  1.00  0.00    -0.093 N  
HETATM    8  H   UNL     1      -7.371   4.514  73.409  1.00  0.00     0.000 HD 
BRANCH   7   9
HETATM    9  S   UNL     1      -9.259   4.266  71.979  1.00  0.00    -0.129 S  
HETATM   10  O   UNL     1      -8.893   3.723  70.686  1.00  0.00    -0.071 OA 
HETATM   11  O   UNL     1      -9.878   3.445  72.997  1.00  0.00    -0.124 OA 
BRANCH   9  12
HETATM   12  C   UNL     1     -10.323   5.660  71.653  1.00  0.00    -0.215 A  
HETATM   13  C   UNL     1     -10.918   6.339  72.723  1.00  0.00    -0.291 A  
HETATM   14  C   UNL     1     -11.717   7.458  72.474  1.00  0.00    -0.277 A  
HETATM   15  C   UNL     1     -11.954   7.897  71.168  1.00  0.00    -0.285 A  
HETATM   16  N   UNL     1     -12.654   9.087  70.943  1.00  0.00    -0.500 NA 
HETATM   17  C   UNL     1     -11.281   7.263  70.119  1.00  0.00    -0.264 A  
HETATM   18  H2  UNL     1     -12.189   9.836  71.455  1.00  0.00     0.000 HD 
HETATM   19  H1  UNL     1     -12.826   9.407  69.990  1.00  0.00     0.000 HD 
HETATM   20  C   UNL     1     -10.485   6.133  70.350  1.00  0.00    -0.288 A  
ENDBRANCH   9  12
ENDBRANCH   7   9
ENDBRANCH   4   7
TORSDOF 3
ENDMDL
MODEL      223
REMARK 921   NORMALIZED FREE ENERGY PREDICTED BY IDOCK:   -2.34 KCAL/MOL
REMARK 922        TOTAL FREE ENERGY PREDICTED BY IDOCK:   -3.21 KCAL/MOL
REMARK 923 INTER-LIGAND FREE ENERGY PREDICTED BY IDOCK:   -3.81 KCAL/MOL
REMARK 924 INTRA-LIGAND FREE ENERGY PREDICTED BY IDOCK:    0.60 KCAL/MOL
REMARK 927      BINDING AFFINITY PREDICTED BY RF-SCORE:    0.00 PKD
ROOT
HETATM    1  C   UNL     1      -7.316   4.042  73.143  1.00  0.00    -0.069 C  
HETATM    2  C   UNL     1      -7.359   5.238  72.283  1.00  0.00    -0.093 A  
HETATM    3  C   UNL     1      -8.364   5.915  71.637  1.00  0.00    -0.127 A  
HETATM    4  C   UNL     1      -7.699   6.949  70.953  1.00  0.00    -0.092 A  
HETATM    5  O   UNL     1      -6.168   5.835  72.005  1.00  0.00    -0.041 OA 
HETATM    6  N   UNL     1      -6.377   6.891  71.126  1.00  0.00    -0.040 NA 
ENDROOT
BRANCH   4   7
HETATM    7  N   UNL     1      -8.289   7.840  70.069  1.00  0.00    -0.128 N  
HETATM    8  H   UNL     1      -7.809   8.697  69.792  1.00  0.00     0.000 HD 
BRANCH   7   9
HETATM    9  S   UNL     1      -9.825   7.474  69.460  1.00  0.00    -0.172 S  
HETATM   10  O   UNL     1      -9.782   7.775  68.042  1.00  0.00    -0.148 OA 
HETATM   11  O   UNL     1     -10.213   6.167  69.945  1.00  0.00    -0.172 OA 
BRANCH   9  12
HETATM   12  C   UNL     1     -10.898   8.693  70.197  1.00  0.00    -0.233 A  
HETATM   13  C   UNL     1     -11.633   8.363  71.343  1.00  0.00    -0.332 A  
HETATM   14  C   UNL     1     -12.442   9.327  71.948  1.00  0.00    -0.457 A  
HETATM   15  C   UNL     1     -12.550  10.615  71.414  1.00  0.00    -0.421 A  
HETATM   16  N   UNL     1     -13.266  11.602  72.098  1.00  0.00    -0.545 NA 
HETATM   17  C   UNL     1     -11.742  10.954  70.324  1.00  0.00    -0.437 A  
HETATM   18  H2  UNL     1     -12.888  11.677  73.043  1.00  0.00     0.000 HD 
HETATM   19  H1  UNL     1     -13.343  12.541  71.708  1.00  0.00     0.000 HD 
HETATM   20  C   UNL     1     -10.933   9.995  69.698  1.00  0.00    -0.301 A  
ENDBRANCH   9  12
ENDBRANCH   7   9
ENDBRANCH   4   7
TORSDOF 3
ENDMDL
MODEL      224
REMARK 921   NORMALIZED FREE ENERGY PREDICTED BY IDOCK:   -2.25 KCAL/MOL
REMARK 922        TOTAL FREE ENERGY PREDICTED BY IDOCK:   -3.11 KCAL/MOL
REMARK 923 INTER-LIGAND FREE ENERGY PREDICTED BY IDOCK:   -2.80 KCAL/MOL
REMARK 924 INTRA-LIGAND FREE ENERGY PREDICTED BY IDOCK:   -0.31 KCAL/MOL
REMARK 927      BINDING AFFINITY PREDICTED BY RF-SCORE:    0.00 PKD
ROOT
HETATM    1  C   UNL     1      -7.606   3.938  65.301  1.00  0.00    -0.081 C  
HETATM    2  C   UNL     1      -7.659   5.375  65.626  1.00  0.00    -0.082 A  
HETATM    3  C   UNL     1      -8.118   6.487  64.966  1.00  0.00    -0.127 A  
HETATM    4  C   UNL     1      -7.822   7.552  65.836  1.00  0.00    -0.107 A  
HETATM    5  O   UNL     1      -7.125   5.752  66.820  1.00  0.00    -0.067 OA 
HETATM    6  N   UNL     1      -7.186   7.136  66.933  1.00  0.00    -0.085 NA 
ENDROOT
BRANCH   4   7
HETATM    7  N   UNL     1      -8.004   8.898  65.555  1.00  0.00    -0.103 N  
HETATM    8  H   UNL     1      -7.215   9.488  65.292  1.00  0.00     0.000 HD 
BRANCH   7   9
HETATM    9  S   UNL     1      -9.567   9.539  65.660  1.00  0.00    -0.270 S  
HETATM   10  O   UNL     1      -9.915   9.982  64.324  1.00  0.00    -0.235 OA 
HETATM   11  O   UNL     1     -10.399   8.606  66.388  1.00  0.00    -0.262 OA 
BRANCH   9  12
HETATM   12  C   UNL     1      -9.377  11.015  66.642  1.00  0.00    -0.177 A  
HETATM   13  C   UNL     1      -8.164  11.255  67.300  1.00  0.00    -0.140 A  
HETATM   14  C   UNL     1      -7.997  12.432  68.035  1.00  0.00    -0.155 A  
HETATM   15  C   UNL     1      -9.032  13.364  68.147  1.00  0.00    -0.188 A  
HETATM   16  N   UNL     1      -8.809  14.589  68.783  1.00  0.00    -0.252 NA 
HETATM   17  C   UNL     1     -10.203  13.152  67.413  1.00  0.00    -0.232 A  
HETATM   18  H2  UNL     1      -8.013  15.044  68.336  1.00  0.00     0.000 HD 
HETATM   19  H1  UNL     1      -9.565  15.270  68.864  1.00  0.00     0.000 HD 
HETATM   20  C   UNL     1     -10.392  11.972  66.679  1.00  0.00    -0.237 A  
ENDBRANCH   9  12
ENDBRANCH   7   9
ENDBRANCH   4   7
TORSDOF 3
ENDMDL
MODEL      225
REMARK 921   NORMALIZED FREE ENERGY PREDICTED BY IDOCK:   -2.24 KCAL/MOL
REMARK 922        TOTAL FREE ENERGY PREDICTED BY IDOCK:   -3.10 KCAL/MOL
REMARK 923 INTER-LIGAND FREE ENERGY PREDICTED BY IDOCK:   -2.83 KCAL/MOL
REMARK 924 INTRA-LIGAND FREE ENERGY PREDICTED BY IDOCK:   -0.26 KCAL/MOL
REMARK 927      BINDING AFFINITY PREDICTED BY RF-SCORE:    0.00 PKD
ROOT
HETATM    1  C   UNL     1      -7.480   3.194  65.279  1.00  0.00    -0.076 C  
HETATM    2  C   UNL     1      -7.515   4.645  65.021  1.00  0.00    -0.076 A  
HETATM    3  C   UNL     1      -7.154   5.753  65.746  1.00  0.00    -0.070 A  
HETATM    4  C   UNL     1      -7.495   6.836  64.915  1.00  0.00    -0.094 A  
HETATM    5  O   UNL     1      -8.035   5.042  63.827  1.00  0.00    -0.085 OA 
HETATM    6  N   UNL     1      -8.066   6.430  63.779  1.00  0.00    -0.080 NA 
ENDROOT
BRANCH   4   7
HETATM    7  N   UNL     1      -7.415   8.176  65.263  1.00  0.00    -0.076 N  
HETATM    8  H   UNL     1      -6.764   8.801  64.787  1.00  0.00     0.000 HD 
BRANCH   7   9
HETATM    9  S   UNL     1      -8.422   8.750  66.496  1.00  0.00    -0.119 S  
HETATM   10  O   UNL     1      -9.588   7.888  66.503  1.00  0.00    -0.203 OA 
HETATM   11  O   UNL     1      -7.623   8.952  67.686  1.00  0.00    -0.092 OA 
BRANCH   9  12
HETATM   12  C   UNL     1      -8.979  10.340  65.912  1.00  0.00    -0.158 A  
HETATM   13  C   UNL     1      -9.710  10.420  64.720  1.00  0.00    -0.383 A  
HETATM   14  C   UNL     1     -10.185  11.658  64.281  1.00  0.00    -0.357 A  
HETATM   15  C   UNL     1      -9.920  12.827  65.001  1.00  0.00    -0.150 A  
HETATM   16  N   UNL     1     -10.504  14.037  64.614  1.00  0.00    -0.532 NA 
HETATM   17  C   UNL     1      -9.266  12.718  66.232  1.00  0.00    -0.096 A  
HETATM   18  H2  UNL     1     -11.515  13.909  64.572  1.00  0.00     0.000 HD 
HETATM   19  H1  UNL     1     -10.310  14.890  65.140  1.00  0.00     0.000 HD 
HETATM   20  C   UNL     1      -8.773  11.486  66.682  1.00  0.00    -0.182 A  
ENDBRANCH   9  12
ENDBRANCH   7   9
ENDBRANCH   4   7
TORSDOF 3
ENDMDL
MODEL      226
REMARK 921   NORMALIZED FREE ENERGY PREDICTED BY IDOCK:   -2.13 KCAL/MOL
REMARK 922        TOTAL FREE ENERGY PREDICTED BY IDOCK:   -2.97 KCAL/MOL
REMARK 923 INTER-LIGAND FREE ENERGY PREDICTED BY IDOCK:   -2.63 KCAL/MOL
REMARK 924 INTRA-LIGAND FREE ENERGY PREDICTED BY IDOCK:   -0.34 KCAL/MOL
REMARK 927      BINDING AFFINITY PREDICTED BY RF-SCORE:    0.00 PKD
ROOT
HETATM    1  C   UNL     1      -6.663   2.159  64.296  1.00  0.00    -0.027 C  
HETATM    2  C   UNL     1      -7.437   3.335  64.736  1.00  0.00    -0.075 A  
HETATM    3  C   UNL     1      -7.314   4.225  65.773  1.00  0.00    -0.080 A  
HETATM    4  C   UNL     1      -8.421   5.081  65.627  1.00  0.00    -0.127 A  
HETATM    5  O   UNL     1      -8.547   3.642  64.011  1.00  0.00    -0.090 OA 
HETATM    6  N   UNL     1      -9.196   4.719  64.602  1.00  0.00    -0.122 NA 
ENDROOT
BRANCH   4   7
HETATM    7  N   UNL     1      -8.787   6.086  66.510  1.00  0.00    -0.126 N  
HETATM    8  H   UNL     1      -8.261   6.958  66.555  1.00  0.00     0.000 HD 
BRANCH   7   9
HETATM    9  S   UNL     1     -10.126   5.830  67.512  1.00  0.00    -0.192 S  
HETATM   10  O   UNL     1     -11.222   6.575  66.924  1.00  0.00    -0.387 OA 
HETATM   11  O   UNL     1     -10.235   4.412  67.782  1.00  0.00    -0.018 OA 
BRANCH   9  12
HETATM   12  C   UNL     1      -9.711   6.666  69.032  1.00  0.00    -0.140 A  
HETATM   13  C   UNL     1      -8.366   6.824  69.387  1.00  0.00    -0.132 A  
HETATM   14  C   UNL     1      -8.035   7.516  70.555  1.00  0.00    -0.098 A  
HETATM   15  C   UNL     1      -9.029   8.033  71.391  1.00  0.00    -0.141 A  
HETATM   16  N   UNL     1      -8.681   8.826  72.489  1.00  0.00    -0.396 NA 
HETATM   17  C   UNL     1     -10.362   7.944  70.977  1.00  0.00    -0.221 A  
HETATM   18  H2  UNL     1      -8.105   9.600  72.157  1.00  0.00     0.000 HD 
HETATM   19  H1  UNL     1      -9.406   9.204  73.098  1.00  0.00     0.000 HD 
HETATM   20  C   UNL     1     -10.711   7.244  69.814  1.00  0.00    -0.253 A  
ENDBRANCH   9  12
ENDBRANCH   7   9
ENDBRANCH   4   7
TORSDOF 3
ENDMDL
MODEL      227
REMARK 921   NORMALIZED FREE ENERGY PREDICTED BY IDOCK:   -2.06 KCAL/MOL
REMARK 922        TOTAL FREE ENERGY PREDICTED BY IDOCK:   -2.89 KCAL/MOL
REMARK 923 INTER-LIGAND FREE ENERGY PREDICTED BY IDOCK:   -2.81 KCAL/MOL
REMARK 924 INTRA-LIGAND FREE ENERGY PREDICTED BY IDOCK:   -0.08 KCAL/MOL
REMARK 927      BINDING AFFINITY PREDICTED BY RF-SCORE:    0.00 PKD
ROOT
HETATM    1  C   UNL     1      -9.941   5.834  72.441  1.00  0.00    -0.194 C  
HETATM    2  C   UNL     1      -9.466   6.798  71.432  1.00  0.00    -0.160 A  
HETATM    3  C   UNL     1     -10.075   7.773  70.681  1.00  0.00    -0.191 A  
HETATM    4  C   UNL     1      -9.038   8.292  69.884  1.00  0.00    -0.147 A  
HETATM    5  O   UNL     1      -8.146   6.742  71.106  1.00  0.00    -0.109 OA 
HETATM    6  N   UNL     1      -7.884   7.656  70.093  1.00  0.00    -0.095 NA 
ENDROOT
BRANCH   4   7
HETATM    7  N   UNL     1      -9.190   9.236  68.879  1.00  0.00    -0.141 N  
HETATM    8  H   UNL     1      -8.644  10.098  68.885  1.00  0.00     0.000 HD 
BRANCH   7   9
HETATM    9  S   UNL     1     -10.302   8.925  67.642  1.00  0.00    -0.252 S  
HETATM   10  O   UNL     1     -10.544   7.496  67.664  1.00  0.00    -0.239 OA 
HETATM   11  O   UNL     1     -11.385   9.878  67.747  1.00  0.00    -0.151 OA 
BRANCH   9  12
HETATM   12  C   UNL     1      -9.400   9.256  66.140  1.00  0.00    -0.212 A  
HETATM   13  C   UNL     1      -8.752   8.205  65.478  1.00  0.00    -0.152 A  
HETATM   14  C   UNL     1      -8.081   8.452  64.278  1.00  0.00    -0.151 A  
HETATM   15  C   UNL     1      -8.023   9.740  63.737  1.00  0.00    -0.145 A  
HETATM   16  N   UNL     1      -7.453   9.948  62.478  1.00  0.00    -0.114 NA 
HETATM   17  C   UNL     1      -8.749  10.759  64.362  1.00  0.00    -0.087 A  
HETATM   18  H2  UNL     1      -7.922   9.339  61.807  1.00  0.00     0.000 HD 
HETATM   19  H1  UNL     1      -7.411  10.888  62.083  1.00  0.00     0.000 HD 
HETATM   20  C   UNL     1      -9.418  10.531  65.573  1.00  0.00    -0.265 A  
ENDBRANCH   9  12
ENDBRANCH   7   9
ENDBRANCH   4   7
TORSDOF 3
ENDMDL
MODEL      228
REMARK 921   NORMALIZED FREE ENERGY PREDICTED BY IDOCK:   -1.88 KCAL/MOL
REMARK 922        TOTAL FREE ENERGY PREDICTED BY IDOCK:   -2.67 KCAL/MOL
REMARK 923 INTER-LIGAND FREE ENERGY PREDICTED BY IDOCK:   -2.69 KCAL/MOL
REMARK 924 INTRA-LIGAND FREE ENERGY PREDICTED BY IDOCK:    0.01 KCAL/MOL
REMARK 927      BINDING AFFINITY PREDICTED BY RF-SCORE:    0.00 PKD
ROOT
HETATM    1  C   UNL     1     -11.888  15.926  71.249  1.00  0.00    -0.502 C  
HETATM    2  C   UNL     1     -10.991  15.476  70.169  1.00  0.00    -0.321 A  
HETATM    3  C   UNL     1      -9.716  15.810  69.785  1.00  0.00    -0.187 A  
HETATM    4  C   UNL     1      -9.482  15.024  68.642  1.00  0.00    -0.212 A  
HETATM    5  O   UNL     1     -11.486  14.544  69.310  1.00  0.00    -0.256 OA 
HETATM    6  N   UNL     1     -10.549  14.291  68.316  1.00  0.00    -0.239 NA 
ENDROOT
BRANCH   4   7
HETATM    7  N   UNL     1      -8.358  15.092  67.832  1.00  0.00    -0.142 N  
HETATM    8  H   UNL     1      -8.436  15.367  66.853  1.00  0.00     0.000 HD 
BRANCH   7   9
HETATM    9  S   UNL     1      -6.855  14.708  68.506  1.00  0.00    -0.107 S  
HETATM   10  O   UNL     1      -5.861  15.387  67.698  1.00  0.00    -0.201 OA 
HETATM   11  O   UNL     1      -6.928  14.904  69.938  1.00  0.00    -0.178 OA 
BRANCH   9  12
HETATM   12  C   UNL     1      -6.654  12.965  68.184  1.00  0.00    -0.093 A  
HETATM   13  C   UNL     1      -7.227  12.032  69.056  1.00  0.00    -0.053 A  
HETATM   14  C   UNL     1      -7.109  10.666  68.784  1.00  0.00    -0.076 A  
HETATM   15  C   UNL     1      -6.405  10.214  67.664  1.00  0.00    -0.058 A  
HETATM   16  N   UNL     1      -6.399   8.854  67.340  1.00  0.00    -0.056 NA 
HETATM   17  C   UNL     1      -5.916  11.159  66.757  1.00  0.00    -0.116 A  
HETATM   18  H2  UNL     1      -7.366   8.538  67.260  1.00  0.00     0.000 HD 
HETATM   19  H1  UNL     1      -5.885   8.525  66.522  1.00  0.00     0.000 HD 
HETATM   20  C   UNL     1      -6.016  12.533  67.021  1.00  0.00     0.113 A  
ENDBRANCH   9  12
ENDBRANCH   7   9
ENDBRANCH   4   7
TORSDOF 3
ENDMDL
MODEL      229
REMARK 921   NORMALIZED FREE ENERGY PREDICTED BY IDOCK:   -1.43 KCAL/MOL
REMARK 922        TOTAL FREE ENERGY PREDICTED BY IDOCK:   -2.14 KCAL/MOL
REMARK 923 INTER-LIGAND FREE ENERGY PREDICTED BY IDOCK:   -2.72 KCAL/MOL
REMARK 924 INTRA-LIGAND FREE ENERGY PREDICTED BY IDOCK:    0.57 KCAL/MOL
REMARK 927      BINDING AFFINITY PREDICTED BY RF-SCORE:    0.00 PKD
ROOT
HETATM    1  C   UNL     1     -10.027  19.180  69.896  1.00  0.00     0.511 C  
HETATM    2  C   UNL     1      -9.803  18.149  68.865  1.00  0.00    -0.309 A  
HETATM    3  C   UNL     1      -9.466  16.819  68.903  1.00  0.00    -0.246 A  
HETATM    4  C   UNL     1      -9.376  16.448  67.549  1.00  0.00    -0.214 A  
HETATM    5  O   UNL     1      -9.912  18.546  67.568  1.00  0.00    -0.307 OA 
HETATM    6  N   UNL     1      -9.596  17.481  66.734  1.00  0.00    -0.271 NA 
ENDROOT
BRANCH   4   7
HETATM    7  N   UNL     1      -8.954  15.213  67.078  1.00  0.00    -0.218 N  
HETATM    8  H   UNL     1      -9.016  14.984  66.086  1.00  0.00     0.000 HD 
BRANCH   7   9
HETATM    9  S   UNL     1      -8.335  14.095  68.187  1.00  0.00    -0.171 S  
HETATM   10  O   UNL     1      -7.439  13.234  67.439  1.00  0.00    -0.162 OA 
HETATM   11  O   UNL     1      -7.889  14.812  69.362  1.00  0.00    -0.152 OA 
BRANCH   9  12
HETATM   12  C   UNL     1      -9.737  13.089  68.635  1.00  0.00    -0.045 A  
HETATM   13  C   UNL     1     -11.033  13.567  68.400  1.00  0.00    -0.289 A  
HETATM   14  C   UNL     1     -12.134  12.765  68.710  1.00  0.00    -0.165 A  
HETATM   15  C   UNL     1     -11.964  11.498  69.276  1.00  0.00    -0.330 A  
HETATM   16  N   UNL     1     -13.067  10.660  69.467  1.00  0.00    -0.380 NA 
HETATM   17  C   UNL     1     -10.665  11.001  69.422  1.00  0.00    -0.247 A  
HETATM   18  H2  UNL     1     -13.547  10.551  68.574  1.00  0.00     0.000 HD 
HETATM   19  H1  UNL     1     -12.943   9.736  69.880  1.00  0.00     0.000 HD 
HETATM   20  C   UNL     1      -9.550  11.797  69.126  1.00  0.00     0.280 A  
ENDBRANCH   9  12
ENDBRANCH   7   9
ENDBRANCH   4   7
TORSDOF 3
ENDMDL
MODEL      230
REMARK 921   NORMALIZED FREE ENERGY PREDICTED BY IDOCK:   -1.29 KCAL/MOL
REMARK 922        TOTAL FREE ENERGY PREDICTED BY IDOCK:   -1.98 KCAL/MOL
REMARK 923 INTER-LIGAND FREE ENERGY PREDICTED BY IDOCK:   -2.30 KCAL/MOL
REMARK 924 INTRA-LIGAND FREE ENERGY PREDICTED BY IDOCK:    0.32 KCAL/MOL
REMARK 927      BINDING AFFINITY PREDICTED BY RF-SCORE:    0.00 PKD
ROOT
HETATM    1  C   UNL     1     -11.605  15.675  71.276  1.00  0.00    -0.485 C  
HETATM    2  C   UNL     1     -10.896  14.847  70.283  1.00  0.00    -0.104 A  
HETATM    3  C   UNL     1      -9.673  14.934  69.666  1.00  0.00     0.016 A  
HETATM    4  C   UNL     1      -9.646  13.829  68.795  1.00  0.00    -0.040 A  
HETATM    5  O   UNL     1     -11.557  13.755  69.812  1.00  0.00    -0.272 OA 
HETATM    6  N   UNL     1     -10.786  13.136  68.837  1.00  0.00    -0.232 NA 
ENDROOT
BRANCH   4   7
HETATM    7  N   UNL     1      -8.647  13.552  67.874  1.00  0.00    -0.170 N  
HETATM    8  H   UNL     1      -8.876  13.187  66.950  1.00  0.00     0.000 HD 
BRANCH   7   9
HETATM    9  S   UNL     1      -7.039  13.834  68.320  1.00  0.00    -0.127 S  
HETATM   10  O   UNL     1      -6.277  13.870  67.087  1.00  0.00    -0.204 OA 
HETATM   11  O   UNL     1      -7.008  14.932  69.260  1.00  0.00    -0.126 OA 
BRANCH   9  12
HETATM   12  C   UNL     1      -6.546  12.346  69.169  1.00  0.00    -0.099 A  
HETATM   13  C   UNL     1      -6.794  11.100  68.580  1.00  0.00    -0.065 A  
HETATM   14  C   UNL     1      -6.371   9.934  69.222  1.00  0.00    -0.044 A  
HETATM   15  C   UNL     1      -5.723   9.988  70.460  1.00  0.00    -0.070 A  
HETATM   16  N   UNL     1      -5.199   8.824  71.031  1.00  0.00    -0.028 NA 
HETATM   17  C   UNL     1      -5.404  11.242  70.991  1.00  0.00    -0.100 A  
HETATM   18  H2  UNL     1      -4.568   8.391  70.356  1.00  0.00     0.000 HD 
HETATM   19  H1  UNL     1      -4.726   8.865  71.934  1.00  0.00     0.000 HD 
HETATM   20  C   UNL     1      -5.831  12.421  70.365  1.00  0.00    -0.149 A  
ENDBRANCH   9  12
ENDBRANCH   7   9
ENDBRANCH   4   7
TORSDOF 3
ENDMDL
MODEL      231
REMARK 921   NORMALIZED FREE ENERGY PREDICTED BY IDOCK:    1.76 KCAL/MOL
REMARK 922        TOTAL FREE ENERGY PREDICTED BY IDOCK:    1.61 KCAL/MOL
REMARK 923 INTER-LIGAND FREE ENERGY PREDICTED BY IDOCK:    1.91 KCAL/MOL
REMARK 924 INTRA-LIGAND FREE ENERGY PREDICTED BY IDOCK:   -0.30 KCAL/MOL
REMARK 927      BINDING AFFINITY PREDICTED BY RF-SCORE:    0.00 PKD
ROOT
HETATM    1  C   UNL     1     -13.472  15.656  63.551  1.00  0.00     3.636 C  
HETATM    2  C   UNL     1     -12.755  14.464  64.041  1.00  0.00     0.287 A  
HETATM    3  C   UNL     1     -11.843  14.243  65.043  1.00  0.00    -0.396 A  
HETATM    4  C   UNL     1     -11.536  12.874  64.934  1.00  0.00    -0.315 A  
HETATM    5  O   UNL     1     -12.981  13.298  63.377  1.00  0.00    -0.349 OA 
HETATM    6  N   UNL     1     -12.175  12.301  63.913  1.00  0.00    -0.484 NA 
ENDROOT
BRANCH   4   7
HETATM    7  N   UNL     1     -10.573  12.203  65.672  1.00  0.00    -0.253 N  
HETATM    8  H   UNL     1      -9.594  12.488  65.636  1.00  0.00     0.000 HD 
BRANCH   7   9
HETATM    9  S   UNL     1     -11.059  10.898  66.634  1.00  0.00     0.024 S  
HETATM   10  O   UNL     1     -12.171  11.375  67.433  1.00  0.00    -0.321 OA 
HETATM   11  O   UNL     1     -11.179   9.726  65.794  1.00  0.00     1.037 OA 
BRANCH   9  12
HETATM   12  C   UNL     1      -9.702  10.649  67.764  1.00  0.00    -0.161 A  
HETATM   13  C   UNL     1      -9.550   9.408  68.397  1.00  0.00    -0.157 A  
HETATM   14  C   UNL     1      -8.464   9.195  69.250  1.00  0.00    -0.132 A  
HETATM   15  C   UNL     1      -7.538  10.210  69.503  1.00  0.00    -0.139 A  
HETATM   16  N   UNL     1      -6.393   9.944  70.261  1.00  0.00    -0.080 NA 
HETATM   17  C   UNL     1      -7.654  11.411  68.796  1.00  0.00    -0.132 A  
HETATM   18  H2  UNL     1      -5.901   9.158  69.835  1.00  0.00     0.000 HD 
HETATM   19  H1  UNL     1      -5.717  10.685  70.445  1.00  0.00     0.000 HD 
HETATM   20  C   UNL     1      -8.743  11.646  67.945  1.00  0.00    -0.154 A  
ENDBRANCH   9  12
ENDBRANCH   7   9
ENDBRANCH   4   7
TORSDOF 3
ENDMDL
