MODEL        1
REMARK 921   NORMALIZED FREE ENERGY PREDICTED BY IDOCK:   -8.31 KCAL/MOL
REMARK 922        TOTAL FREE ENERGY PREDICTED BY IDOCK:  -11.75 KCAL/MOL
REMARK 923 INTER-LIGAND FREE ENERGY PREDICTED BY IDOCK:  -11.23 KCAL/MOL
REMARK 924 INTRA-LIGAND FREE ENERGY PREDICTED BY IDOCK:   -0.52 KCAL/MOL
REMARK 927      BINDING AFFINITY PREDICTED BY RF-SCORE:    0.00 PKD
ROOT
HETATM    1  O   UNL     1     -11.598  16.725  64.102  1.00  0.00    -1.106 OA 
HETATM    2  C   UNL     1     -10.759  16.271  65.059  1.00  0.00    -0.298 C  
HETATM    3  C   UNL     1     -11.152  14.965  65.654  1.00  0.00    -0.348 A  
HETATM    4  O   UNL     1      -9.790  16.904  65.446  1.00  0.00    -0.537 OA 
HETATM    5  C   UNL     1     -10.719  14.690  66.964  1.00  0.00    -0.290 A  
HETATM    6  C   UNL     1     -11.017  13.465  67.581  1.00  0.00    -0.259 A  
HETATM    7  C   UNL     1     -11.769  12.527  66.858  1.00  0.00    -0.447 A  
HETATM    8  O   UNL     1     -12.332  14.264  63.687  1.00  0.00    -1.035 OA 
HETATM    9  C   UNL     1     -11.894  14.004  64.959  1.00  0.00    -0.378 A  
HETATM   10  H   UNL     1     -12.835  13.611  63.214  1.00  0.00     0.000 HD 
HETATM   11  C   UNL     1     -12.204  12.785  65.555  1.00  0.00    -0.519 A  
ENDROOT
BRANCH   6  12
HETATM   12  N   UNL     1     -10.616  13.100  68.886  1.00  0.00    -0.392 NA 
HETATM   13  H   UNL     1      -9.656  12.861  69.133  1.00  0.00     0.000 HD 
BRANCH  12  14
HETATM   14  N   UNL     1     -11.557  13.101  69.707  1.00  0.00    -0.463 NA 
HETATM   15  H   UNL     1     -12.096  13.932  69.952  1.00  0.00     0.000 HD 
BRANCH  14  16
HETATM   16  C   UNL     1     -11.794  11.822  70.259  1.00  0.00    -0.295 A  
HETATM   17  C   UNL     1     -11.192   9.457  70.259  1.00  0.00    -0.286 A  
HETATM   18  C   UNL     1     -10.990  10.766  69.808  1.00  0.00    -0.314 A  
HETATM   19  C   UNL     1     -12.182   9.197  71.210  1.00  0.00    -0.327 A  
HETATM   20  C   UNL     1     -12.780  11.542  71.221  1.00  0.00    -0.469 A  
HETATM   21  C   UNL     1     -12.981  10.237  71.692  1.00  0.00    -0.570 A  
BRANCH  19  22
HETATM   22  S   UNL     1     -12.543   7.504  71.647  1.00  0.00    -0.354 S  
HETATM   23  O   UNL     1     -12.061   6.668  70.571  1.00  0.00    -0.390 OA 
HETATM   24  O   UNL     1     -13.937   7.468  72.045  1.00  0.00    -0.273 OA 
BRANCH  22  25
HETATM   25  N   UNL     1     -11.655   7.242  73.058  1.00  0.00    -0.577 N  
HETATM   26  H   UNL     1     -11.720   7.867  73.861  1.00  0.00     0.000 HD 
BRANCH  25  27
HETATM   27  C   UNL     1     -10.819   6.108  73.058  1.00  0.00    -0.257 A  
HETATM   28  N   UNL     1      -9.520   6.397  72.879  1.00  0.00    -0.146 NA 
HETATM   29  C   UNL     1      -8.663   5.354  72.951  1.00  0.00    -0.118 A  
HETATM   30  C   UNL     1      -9.057   4.042  73.166  1.00  0.00    -0.117 A  
HETATM   31  C   UNL     1     -10.415   3.779  73.314  1.00  0.00    -0.258 A  
HETATM   32  C   UNL     1     -11.322   4.834  73.261  1.00  0.00    -0.408 A  
ENDBRANCH  25  27
ENDBRANCH  22  25
ENDBRANCH  19  22
ENDBRANCH  14  16
ENDBRANCH  12  14
ENDBRANCH   6  12
TORSDOF 6
ENDMDL
MODEL        2
REMARK 921   NORMALIZED FREE ENERGY PREDICTED BY IDOCK:   -8.20 KCAL/MOL
REMARK 922        TOTAL FREE ENERGY PREDICTED BY IDOCK:  -11.60 KCAL/MOL
REMARK 923 INTER-LIGAND FREE ENERGY PREDICTED BY IDOCK:  -11.47 KCAL/MOL
REMARK 924 INTRA-LIGAND FREE ENERGY PREDICTED BY IDOCK:   -0.13 KCAL/MOL
REMARK 927      BINDING AFFINITY PREDICTED BY RF-SCORE:    0.00 PKD
ROOT
HETATM    1  O   UNL     1     -12.251  13.793  63.084  1.00  0.00    -0.609 OA 
HETATM    2  C   UNL     1     -12.510  13.509  64.379  1.00  0.00    -0.267 C  
HETATM    3  C   UNL     1     -11.734  14.321  65.355  1.00  0.00    -0.354 A  
HETATM    4  O   UNL     1     -13.273  12.621  64.723  1.00  0.00    -0.846 OA 
HETATM    5  C   UNL     1     -11.498  13.761  66.624  1.00  0.00    -0.362 A  
HETATM    6  C   UNL     1     -10.807  14.480  67.612  1.00  0.00    -0.273 A  
HETATM    7  C   UNL     1     -10.348  15.766  67.295  1.00  0.00    -0.290 A  
HETATM    8  O   UNL     1     -11.483  16.161  63.838  1.00  0.00    -1.351 OA 
HETATM    9  C   UNL     1     -11.270  15.610  65.074  1.00  0.00    -0.329 A  
HETATM   10  H   UNL     1     -11.168  17.037  63.647  1.00  0.00     0.000 HD 
HETATM   11  C   UNL     1     -10.577  16.336  66.038  1.00  0.00    -0.288 A  
ENDROOT
BRANCH   6  12
HETATM   12  N   UNL     1     -10.533  14.002  68.913  1.00  0.00    -0.312 NA 
HETATM   13  H   UNL     1      -9.613  13.675  69.210  1.00  0.00     0.000 HD 
BRANCH  12  14
HETATM   14  N   UNL     1     -11.531  14.020  69.664  1.00  0.00    -0.317 NA 
HETATM   15  H   UNL     1     -12.047  14.868  69.900  1.00  0.00     0.000 HD 
BRANCH  14  16
HETATM   16  C   UNL     1     -11.865  12.737  70.150  1.00  0.00    -0.251 A  
HETATM   17  C   UNL     1     -13.123  11.440  71.790  1.00  0.00    -0.523 A  
HETATM   18  C   UNL     1     -12.778  12.665  71.211  1.00  0.00    -0.354 A  
HETATM   19  C   UNL     1     -12.585  10.256  71.279  1.00  0.00    -0.418 A  
HETATM   20  C   UNL     1     -11.340  11.535  69.644  1.00  0.00    -0.329 A  
HETATM   21  C   UNL     1     -11.690  10.299  70.207  1.00  0.00    -0.388 A  
BRANCH  19  22
HETATM   22  S   UNL     1     -12.898   8.720  72.134  1.00  0.00    -0.415 S  
HETATM   23  O   UNL     1     -14.188   8.837  72.775  1.00  0.00    -0.520 OA 
HETATM   24  O   UNL     1     -11.709   8.431  72.913  1.00  0.00    -0.300 OA 
BRANCH  22  25
HETATM   25  N   UNL     1     -12.936   7.564  70.906  1.00  0.00    -0.585 N  
HETATM   26  H   UNL     1     -13.683   7.535  70.213  1.00  0.00     0.000 HD 
BRANCH  25  27
HETATM   27  C   UNL     1     -11.872   6.640  70.897  1.00  0.00    -0.377 A  
HETATM   28  N   UNL     1     -11.229   6.572  69.721  1.00  0.00    -0.370 NA 
HETATM   29  C   UNL     1     -10.148   5.761  69.679  1.00  0.00    -0.212 A  
HETATM   30  C   UNL     1      -9.709   5.002  70.753  1.00  0.00    -0.263 A  
HETATM   31  C   UNL     1     -10.422   5.074  71.945  1.00  0.00    -0.255 A  
HETATM   32  C   UNL     1     -11.531   5.913  72.025  1.00  0.00    -0.311 A  
ENDBRANCH  25  27
ENDBRANCH  22  25
ENDBRANCH  19  22
ENDBRANCH  14  16
ENDBRANCH  12  14
ENDBRANCH   6  12
TORSDOF 6
ENDMDL
MODEL        3
REMARK 921   NORMALIZED FREE ENERGY PREDICTED BY IDOCK:   -8.09 KCAL/MOL
REMARK 922        TOTAL FREE ENERGY PREDICTED BY IDOCK:  -11.45 KCAL/MOL
REMARK 923 INTER-LIGAND FREE ENERGY PREDICTED BY IDOCK:  -10.58 KCAL/MOL
REMARK 924 INTRA-LIGAND FREE ENERGY PREDICTED BY IDOCK:   -0.88 KCAL/MOL
REMARK 927      BINDING AFFINITY PREDICTED BY RF-SCORE:    0.00 PKD
ROOT
HETATM    1  O   UNL     1     -12.312  13.743  63.111  1.00  0.00    -0.726 OA 
HETATM    2  C   UNL     1     -12.566  13.380  64.387  1.00  0.00    -0.190 C  
HETATM    3  C   UNL     1     -11.749  14.094  65.405  1.00  0.00    -0.347 A  
HETATM    4  O   UNL     1     -13.358  12.499  64.680  1.00  0.00    -0.804 OA 
HETATM    5  C   UNL     1     -11.519  13.440  66.629  1.00  0.00    -0.376 A  
HETATM    6  C   UNL     1     -10.790  14.064  67.654  1.00  0.00    -0.262 A  
HETATM    7  C   UNL     1     -10.287  15.351  67.419  1.00  0.00    -0.262 A  
HETATM    8  O   UNL     1     -11.446  16.024  64.013  1.00  0.00    -1.091 OA 
HETATM    9  C   UNL     1     -11.240  15.381  65.206  1.00  0.00    -0.310 A  
HETATM   10  H   UNL     1     -11.100  16.898  63.878  1.00  0.00     0.000 HD 
HETATM   11  C   UNL     1     -10.509  16.014  66.207  1.00  0.00    -0.326 A  
ENDROOT
BRANCH   6  12
HETATM   12  N   UNL     1     -10.520  13.488  68.916  1.00  0.00    -0.385 NA 
HETATM   13  H   UNL     1      -9.598  13.147  69.192  1.00  0.00     0.000 HD 
BRANCH  12  14
HETATM   14  N   UNL     1     -11.522  13.438  69.659  1.00  0.00    -0.434 NA 
HETATM   15  H   UNL     1     -12.111  14.244  69.871  1.00  0.00     0.000 HD 
BRANCH  14  16
HETATM   16  C   UNL     1     -11.750  12.142  70.173  1.00  0.00    -0.218 A  
HETATM   17  C   UNL     1     -11.199   9.769  70.041  1.00  0.00    -0.297 A  
HETATM   18  C   UNL     1     -10.999  11.091  69.630  1.00  0.00    -0.286 A  
HETATM   19  C   UNL     1     -12.132   9.488  71.042  1.00  0.00    -0.318 A  
HETATM   20  C   UNL     1     -12.678  11.841  71.185  1.00  0.00    -0.405 A  
HETATM   21  C   UNL     1     -12.877  10.522  71.616  1.00  0.00    -0.581 A  
BRANCH  19  22
HETATM   22  S   UNL     1     -12.500   7.785  71.434  1.00  0.00    -0.301 S  
HETATM   23  O   UNL     1     -11.707   6.958  70.552  1.00  0.00    -0.341 OA 
HETATM   24  O   UNL     1     -13.946   7.669  71.455  1.00  0.00    -0.383 OA 
BRANCH  22  25
HETATM   25  N   UNL     1     -12.001   7.611  73.035  1.00  0.00    -0.563 N  
HETATM   26  H   UNL     1     -12.601   7.865  73.819  1.00  0.00     0.000 HD 
BRANCH  25  27
HETATM   27  C   UNL     1     -10.704   7.094  73.223  1.00  0.00    -0.361 A  
HETATM   28  N   UNL     1     -10.682   5.774  73.470  1.00  0.00    -0.269 NA 
HETATM   29  C   UNL     1      -9.459   5.209  73.578  1.00  0.00    -0.133 A  
HETATM   30  C   UNL     1      -8.269   5.914  73.478  1.00  0.00    -0.111 A  
HETATM   31  C   UNL     1      -8.334   7.285  73.255  1.00  0.00    -0.146 A  
HETATM   32  C   UNL     1      -9.580   7.895  73.122  1.00  0.00    -0.352 A  
ENDBRANCH  25  27
ENDBRANCH  22  25
ENDBRANCH  19  22
ENDBRANCH  14  16
ENDBRANCH  12  14
ENDBRANCH   6  12
TORSDOF 6
ENDMDL
MODEL        4
REMARK 921   NORMALIZED FREE ENERGY PREDICTED BY IDOCK:   -8.00 KCAL/MOL
REMARK 922        TOTAL FREE ENERGY PREDICTED BY IDOCK:  -11.33 KCAL/MOL
REMARK 923 INTER-LIGAND FREE ENERGY PREDICTED BY IDOCK:  -10.72 KCAL/MOL
REMARK 924 INTRA-LIGAND FREE ENERGY PREDICTED BY IDOCK:   -0.60 KCAL/MOL
REMARK 927      BINDING AFFINITY PREDICTED BY RF-SCORE:    0.00 PKD
ROOT
HETATM    1  O   UNL     1     -13.354   6.455  72.236  1.00  0.00    -0.000 OA 
HETATM    2  C   UNL     1     -12.268   7.047  71.692  1.00  0.00    -0.357 C  
HETATM    3  C   UNL     1     -12.405   8.513  71.484  1.00  0.00    -0.354 A  
HETATM    4  O   UNL     1     -11.278   6.423  71.345  1.00  0.00    -0.264 OA 
HETATM    5  C   UNL     1     -11.631   9.101  70.467  1.00  0.00    -0.238 A  
HETATM    6  C   UNL     1     -11.676  10.485  70.234  1.00  0.00    -0.332 A  
HETATM    7  C   UNL     1     -12.523  11.263  71.037  1.00  0.00    -0.503 A  
HETATM    8  O   UNL     1     -14.000   8.758  73.258  1.00  0.00    -1.160 OA 
HETATM    9  C   UNL     1     -13.233   9.320  72.272  1.00  0.00    -0.460 A  
HETATM   10  H   UNL     1     -14.562   9.305  73.794  1.00  0.00     0.000 HD 
HETATM   11  C   UNL     1     -13.295  10.693  72.054  1.00  0.00    -0.409 A  
ENDROOT
BRANCH   6  12
HETATM   12  N   UNL     1     -10.929  11.161  69.243  1.00  0.00    -0.237 NA 
HETATM   13  H   UNL     1      -9.973  11.488  69.385  1.00  0.00     0.000 HD 
BRANCH  12  14
HETATM   14  N   UNL     1     -11.557  11.317  68.175  1.00  0.00    -0.460 NA 
HETATM   15  H   UNL     1     -12.135  10.594  67.747  1.00  0.00     0.000 HD 
BRANCH  14  16
HETATM   16  C   UNL     1     -11.379  12.607  67.628  1.00  0.00    -0.310 A  
HETATM   17  C   UNL     1     -10.526  13.933  65.765  1.00  0.00    -0.313 A  
HETATM   18  C   UNL     1     -10.790  12.694  66.359  1.00  0.00    -0.295 A  
HETATM   19  C   UNL     1     -10.892  15.109  66.424  1.00  0.00    -0.326 A  
HETATM   20  C   UNL     1     -11.747  13.801  68.272  1.00  0.00    -0.394 A  
HETATM   21  C   UNL     1     -11.501  15.048  67.680  1.00  0.00    -0.344 A  
BRANCH  19  22
HETATM   22  S   UNL     1     -10.396  16.680  65.736  1.00  0.00    -0.262 S  
HETATM   23  O   UNL     1     -11.218  16.922  64.572  1.00  0.00    -1.057 OA 
HETATM   24  O   UNL     1      -8.950  16.644  65.626  1.00  0.00    -0.463 OA 
BRANCH  22  25
HETATM   25  N   UNL     1     -10.736  17.793  66.957  1.00  0.00    -0.253 N  
HETATM   26  H   UNL     1     -11.637  17.814  67.434  1.00  0.00     0.000 HD 
BRANCH  25  27
HETATM   27  C   UNL     1      -9.699  18.691  67.278  1.00  0.00    -0.302 A  
HETATM   28  N   UNL     1      -8.878  18.242  68.240  1.00  0.00    -0.281 NA 
HETATM   29  C   UNL     1      -7.817  19.029  68.532  1.00  0.00    -0.340 A  
HETATM   30  C   UNL     1      -7.567  20.248  67.921  1.00  0.00    -0.279 A  
HETATM   31  C   UNL     1      -8.460  20.694  66.952  1.00  0.00    -0.202 A  
HETATM   32  C   UNL     1      -9.554  19.899  66.618  1.00  0.00    -0.527 A  
ENDBRANCH  25  27
ENDBRANCH  22  25
ENDBRANCH  19  22
ENDBRANCH  14  16
ENDBRANCH  12  14
ENDBRANCH   6  12
TORSDOF 6
ENDMDL
MODEL        5
REMARK 921   NORMALIZED FREE ENERGY PREDICTED BY IDOCK:   -7.99 KCAL/MOL
REMARK 922        TOTAL FREE ENERGY PREDICTED BY IDOCK:  -11.32 KCAL/MOL
REMARK 923 INTER-LIGAND FREE ENERGY PREDICTED BY IDOCK:  -10.63 KCAL/MOL
REMARK 924 INTRA-LIGAND FREE ENERGY PREDICTED BY IDOCK:   -0.69 KCAL/MOL
REMARK 927      BINDING AFFINITY PREDICTED BY RF-SCORE:    0.00 PKD
ROOT
HETATM    1  O   UNL     1     -10.444  17.745  65.548  1.00  0.00    -0.646 OA 
HETATM    2  C   UNL     1     -10.051  16.586  66.120  1.00  0.00    -0.348 C  
HETATM    3  C   UNL     1     -10.918  15.419  65.806  1.00  0.00    -0.311 A  
HETATM    4  O   UNL     1      -9.099  16.511  66.880  1.00  0.00    -0.204 OA 
HETATM    5  C   UNL     1     -10.953  14.364  66.737  1.00  0.00    -0.314 A  
HETATM    6  C   UNL     1     -11.716  13.212  66.494  1.00  0.00    -0.382 A  
HETATM    7  C   UNL     1     -12.454  13.146  65.303  1.00  0.00    -0.550 A  
HETATM    8  O   UNL     1     -11.644  16.342  63.715  1.00  0.00    -1.605 OA 
HETATM    9  C   UNL     1     -11.659  15.317  64.624  1.00  0.00    -0.333 A  
HETATM   10  H   UNL     1     -12.147  16.274  62.912  1.00  0.00     0.000 HD 
HETATM   11  C   UNL     1     -12.428  14.185  64.368  1.00  0.00    -0.325 A  
ENDROOT
BRANCH   6  12
HETATM   12  N   UNL     1     -11.803  12.103  67.366  1.00  0.00    -0.565 NA 
HETATM   13  H   UNL     1     -11.783  11.134  67.047  1.00  0.00     0.000 HD 
BRANCH  12  14
HETATM   14  N   UNL     1     -11.906  12.429  68.568  1.00  0.00    -0.323 NA 
HETATM   15  H   UNL     1     -12.158  13.367  68.880  1.00  0.00     0.000 HD 
BRANCH  14  16
HETATM   16  C   UNL     1     -11.636  11.355  69.444  1.00  0.00    -0.323 A  
HETATM   17  C   UNL     1     -10.086   9.581  70.080  1.00  0.00    -0.293 A  
HETATM   18  C   UNL     1     -10.412  10.689  69.292  1.00  0.00    -0.252 A  
HETATM   19  C   UNL     1     -10.973   9.149  71.070  1.00  0.00    -0.305 A  
HETATM   20  C   UNL     1     -12.512  10.911  70.450  1.00  0.00    -0.411 A  
HETATM   21  C   UNL     1     -12.190   9.811  71.256  1.00  0.00    -0.465 A  
BRANCH  19  22
HETATM   22  S   UNL     1     -10.624   7.635  71.948  1.00  0.00    -0.225 S  
HETATM   23  O   UNL     1     -11.107   7.799  73.301  1.00  0.00    -0.373 OA 
HETATM   24  O   UNL     1      -9.231   7.321  71.694  1.00  0.00    -0.146 OA 
BRANCH  22  25
HETATM   25  N   UNL     1     -11.518   6.464  71.127  1.00  0.00    -0.317 N  
HETATM   26  H   UNL     1     -12.463   6.208  71.410  1.00  0.00     0.000 HD 
BRANCH  25  27
HETATM   27  C   UNL     1     -10.878   5.861  70.026  1.00  0.00    -0.351 A  
HETATM   28  N   UNL     1     -10.184   4.756  70.345  1.00  0.00    -0.228 NA 
HETATM   29  C   UNL     1      -9.616   4.091  69.314  1.00  0.00    -0.177 A  
HETATM   30  C   UNL     1      -9.692   4.503  67.992  1.00  0.00    -0.192 A  
HETATM   31  C   UNL     1     -10.392   5.671  67.706  1.00  0.00    -0.260 A  
HETATM   32  C   UNL     1     -11.003   6.370  68.744  1.00  0.00    -0.404 A  
ENDBRANCH  25  27
ENDBRANCH  22  25
ENDBRANCH  19  22
ENDBRANCH  14  16
ENDBRANCH  12  14
ENDBRANCH   6  12
TORSDOF 6
ENDMDL
MODEL        6
REMARK 921   NORMALIZED FREE ENERGY PREDICTED BY IDOCK:   -7.98 KCAL/MOL
REMARK 922        TOTAL FREE ENERGY PREDICTED BY IDOCK:  -11.30 KCAL/MOL
REMARK 923 INTER-LIGAND FREE ENERGY PREDICTED BY IDOCK:  -10.55 KCAL/MOL
REMARK 924 INTRA-LIGAND FREE ENERGY PREDICTED BY IDOCK:   -0.75 KCAL/MOL
REMARK 927      BINDING AFFINITY PREDICTED BY RF-SCORE:    0.00 PKD
ROOT
HETATM    1  O   UNL     1      -8.744   7.330  72.495  1.00  0.00    -0.120 OA 
HETATM    2  C   UNL     1      -9.042   8.509  71.908  1.00  0.00    -0.244 C  
HETATM    3  C   UNL     1     -10.498   8.772  71.754  1.00  0.00    -0.417 A  
HETATM    4  O   UNL     1      -8.188   9.272  71.485  1.00  0.00    -0.327 OA 
HETATM    5  C   UNL     1     -10.898   9.628  70.712  1.00  0.00    -0.400 A  
HETATM    6  C   UNL     1     -12.250   9.955  70.526  1.00  0.00    -0.179 A  
HETATM    7  C   UNL     1     -13.193   9.394  71.400  1.00  0.00    -0.415 A  
HETATM    8  O   UNL     1     -11.087   7.390  73.624  1.00  0.00    -0.576 OA 
HETATM    9  C   UNL     1     -11.463   8.236  72.613  1.00  0.00    -0.353 A  
HETATM   10  H   UNL     1     -11.743   7.027  74.208  1.00  0.00     0.000 HD 
HETATM   11  C   UNL     1     -12.809   8.543  72.442  1.00  0.00    -0.373 A  
ENDROOT
BRANCH   6  12
HETATM   12  N   UNL     1     -12.741  10.812  69.515  1.00  0.00    -0.566 NA 
HETATM   13  H   UNL     1     -13.531  11.444  69.648  1.00  0.00     0.000 HD 
BRANCH  12  14
HETATM   14  N   UNL     1     -12.110  10.717  68.441  1.00  0.00    -0.813 NA 
HETATM   15  H   UNL     1     -11.881   9.828  67.996  1.00  0.00     0.000 HD 
BRANCH  14  16
HETATM   16  C   UNL     1     -11.750  11.976  67.913  1.00  0.00    -0.323 A  
HETATM   17  C   UNL     1     -10.900  13.215  65.990  1.00  0.00    -0.287 A  
HETATM   18  C   UNL     1     -11.327  12.020  66.577  1.00  0.00    -0.413 A  
HETATM   19  C   UNL     1     -10.934  14.401  66.728  1.00  0.00    -0.314 A  
HETATM   20  C   UNL     1     -11.786  13.181  68.637  1.00  0.00    -0.362 A  
HETATM   21  C   UNL     1     -11.375  14.388  68.054  1.00  0.00    -0.316 A  
BRANCH  19  22
HETATM   22  S   UNL     1     -10.227  15.882  66.025  1.00  0.00    -0.355 S  
HETATM   23  O   UNL     1     -10.880  16.112  64.756  1.00  0.00    -0.634 OA 
HETATM   24  O   UNL     1      -8.787  15.727  66.098  1.00  0.00    -0.326 OA 
BRANCH  22  25
HETATM   25  N   UNL     1     -10.617  17.093  67.133  1.00  0.00    -0.286 N  
HETATM   26  H   UNL     1     -11.463  17.055  67.699  1.00  0.00     0.000 HD 
BRANCH  25  27
HETATM   27  C   UNL     1      -9.700  18.159  67.227  1.00  0.00    -0.297 A  
HETATM   28  N   UNL     1      -9.691  18.957  66.147  1.00  0.00    -0.468 NA 
HETATM   29  C   UNL     1      -8.888  20.043  66.217  1.00  0.00    -0.292 A  
HETATM   30  C   UNL     1      -8.083  20.341  67.305  1.00  0.00    -0.381 A  
HETATM   31  C   UNL     1      -8.095  19.471  68.391  1.00  0.00    -0.377 A  
HETATM   32  C   UNL     1      -8.924  18.352  68.357  1.00  0.00    -0.336 A  
ENDBRANCH  25  27
ENDBRANCH  22  25
ENDBRANCH  19  22
ENDBRANCH  14  16
ENDBRANCH  12  14
ENDBRANCH   6  12
TORSDOF 6
ENDMDL
MODEL        7
REMARK 921   NORMALIZED FREE ENERGY PREDICTED BY IDOCK:   -7.98 KCAL/MOL
REMARK 922        TOTAL FREE ENERGY PREDICTED BY IDOCK:  -11.30 KCAL/MOL
REMARK 923 INTER-LIGAND FREE ENERGY PREDICTED BY IDOCK:  -10.55 KCAL/MOL
REMARK 924 INTRA-LIGAND FREE ENERGY PREDICTED BY IDOCK:   -0.74 KCAL/MOL
REMARK 927      BINDING AFFINITY PREDICTED BY RF-SCORE:    0.00 PKD
ROOT
HETATM    1  O   UNL     1     -11.772  16.694  63.835  1.00  0.00    -1.153 OA 
HETATM    2  C   UNL     1     -10.988  16.246  64.839  1.00  0.00    -0.307 C  
HETATM    3  C   UNL     1     -11.376  14.915  65.378  1.00  0.00    -0.346 A  
HETATM    4  O   UNL     1     -10.071  16.902  65.307  1.00  0.00    -0.577 OA 
HETATM    5  C   UNL     1     -11.027  14.625  66.710  1.00  0.00    -0.323 A  
HETATM    6  C   UNL     1     -11.325  13.377  67.279  1.00  0.00    -0.319 A  
HETATM    7  C   UNL     1     -11.991  12.431  66.486  1.00  0.00    -0.325 A  
HETATM    8  O   UNL     1     -12.390  14.221  63.318  1.00  0.00    -1.118 OA 
HETATM    9  C   UNL     1     -12.033  13.946  64.613  1.00  0.00    -0.419 A  
HETATM   10  H   UNL     1     -12.835  13.562  62.798  1.00  0.00     0.000 HD 
HETATM   11  C   UNL     1     -12.342  12.705  65.160  1.00  0.00    -0.547 A  
ENDROOT
BRANCH   6  12
HETATM   12  N   UNL     1     -11.005  12.997  68.602  1.00  0.00    -0.256 NA 
HETATM   13  H   UNL     1     -10.050  12.952  68.958  1.00  0.00     0.000 HD 
BRANCH  12  14
HETATM   14  N   UNL     1     -12.009  12.722  69.291  1.00  0.00    -0.276 NA 
HETATM   15  H   UNL     1     -12.850  13.298  69.322  1.00  0.00     0.000 HD 
BRANCH  14  16
HETATM   16  C   UNL     1     -11.851  11.524  70.023  1.00  0.00    -0.355 A  
HETATM   17  C   UNL     1     -10.603   9.443  70.286  1.00  0.00    -0.297 A  
HETATM   18  C   UNL     1     -10.799  10.675  69.652  1.00  0.00    -0.318 A  
HETATM   19  C   UNL     1     -11.440   9.064  71.338  1.00  0.00    -0.330 A  
HETATM   20  C   UNL     1     -12.678  11.129  71.088  1.00  0.00    -0.510 A  
HETATM   21  C   UNL     1     -12.482   9.904  71.741  1.00  0.00    -0.487 A  
BRANCH  19  22
HETATM   22  S   UNL     1     -11.287   7.422  72.021  1.00  0.00    -0.275 S  
HETATM   23  O   UNL     1     -12.365   6.626  71.477  1.00  0.00    -0.349 OA 
HETATM   24  O   UNL     1     -11.138   7.583  73.454  1.00  0.00    -0.344 OA 
BRANCH  22  25
HETATM   25  N   UNL     1      -9.793   6.877  71.460  1.00  0.00    -0.170 N  
HETATM   26  H   UNL     1      -8.990   7.499  71.371  1.00  0.00     0.000 HD 
BRANCH  25  27
HETATM   27  C   UNL     1      -9.722   5.511  71.123  1.00  0.00    -0.174 A  
HETATM   28  N   UNL     1      -9.745   5.282  69.800  1.00  0.00    -0.172 NA 
HETATM   29  C   UNL     1      -9.599   3.993  69.417  1.00  0.00    -0.187 A  
HETATM   30  C   UNL     1      -9.459   2.934  70.301  1.00  0.00    -0.200 A  
HETATM   31  C   UNL     1      -9.473   3.209  71.665  1.00  0.00    -0.214 A  
HETATM   32  C   UNL     1      -9.606   4.528  72.091  1.00  0.00    -0.206 A  
ENDBRANCH  25  27
ENDBRANCH  22  25
ENDBRANCH  19  22
ENDBRANCH  14  16
ENDBRANCH  12  14
ENDBRANCH   6  12
TORSDOF 6
ENDMDL
MODEL        8
REMARK 921   NORMALIZED FREE ENERGY PREDICTED BY IDOCK:   -7.89 KCAL/MOL
REMARK 922        TOTAL FREE ENERGY PREDICTED BY IDOCK:  -11.17 KCAL/MOL
REMARK 923 INTER-LIGAND FREE ENERGY PREDICTED BY IDOCK:  -10.45 KCAL/MOL
REMARK 924 INTRA-LIGAND FREE ENERGY PREDICTED BY IDOCK:   -0.72 KCAL/MOL
REMARK 927      BINDING AFFINITY PREDICTED BY RF-SCORE:    0.00 PKD
ROOT
HETATM    1  O   UNL     1     -12.311  13.701  63.047  1.00  0.00    -0.672 OA 
HETATM    2  C   UNL     1     -12.556  13.336  64.324  1.00  0.00    -0.182 C  
HETATM    3  C   UNL     1     -11.734  14.049  65.338  1.00  0.00    -0.344 A  
HETATM    4  O   UNL     1     -13.345  12.453  64.621  1.00  0.00    -0.778 OA 
HETATM    5  C   UNL     1     -11.495  13.393  66.560  1.00  0.00    -0.372 A  
HETATM    6  C   UNL     1     -10.760  14.015  67.582  1.00  0.00    -0.257 A  
HETATM    7  C   UNL     1     -10.260  15.304  67.345  1.00  0.00    -0.243 A  
HETATM    8  O   UNL     1     -11.442  15.982  63.948  1.00  0.00    -1.188 OA 
HETATM    9  C   UNL     1     -11.227  15.337  65.139  1.00  0.00    -0.370 A  
HETATM   10  H   UNL     1     -11.099  16.857  63.813  1.00  0.00     0.000 HD 
HETATM   11  C   UNL     1     -10.492  15.969  66.137  1.00  0.00    -0.334 A  
ENDROOT
BRANCH   6  12
HETATM   12  N   UNL     1     -10.480  13.437  68.840  1.00  0.00    -0.398 NA 
HETATM   13  H   UNL     1      -9.569  13.054  69.093  1.00  0.00     0.000 HD 
BRANCH  12  14
HETATM   14  N   UNL     1     -11.462  13.443  69.613  1.00  0.00    -0.434 NA 
HETATM   15  H   UNL     1     -12.014  14.275  69.822  1.00  0.00     0.000 HD 
BRANCH  14  16
HETATM   16  C   UNL     1     -11.722  12.169  70.165  1.00  0.00    -0.218 A  
HETATM   17  C   UNL     1     -11.197   9.786  70.134  1.00  0.00    -0.324 A  
HETATM   18  C   UNL     1     -10.968  11.090  69.684  1.00  0.00    -0.286 A  
HETATM   19  C   UNL     1     -12.165   9.551  71.114  1.00  0.00    -0.338 A  
HETATM   20  C   UNL     1     -12.685  11.915  71.156  1.00  0.00    -0.384 A  
HETATM   21  C   UNL     1     -12.914  10.614  71.627  1.00  0.00    -0.582 A  
BRANCH  19  22
HETATM   22  S   UNL     1     -12.566   7.868  71.554  1.00  0.00    -0.309 S  
HETATM   23  O   UNL     1     -12.024   7.012  70.523  1.00  0.00    -0.325 OA 
HETATM   24  O   UNL     1     -13.983   7.848  71.862  1.00  0.00    -0.362 OA 
BRANCH  22  25
HETATM   25  N   UNL     1     -11.772   7.623  73.021  1.00  0.00    -0.616 N  
HETATM   26  H   UNL     1     -12.035   8.125  73.869  1.00  0.00     0.000 HD 
BRANCH  25  27
HETATM   27  C   UNL     1     -10.723   6.682  73.005  1.00  0.00    -0.270 A  
HETATM   28  N   UNL     1      -9.574   7.166  72.507  1.00  0.00    -0.145 NA 
HETATM   29  C   UNL     1      -8.512   6.330  72.542  1.00  0.00    -0.120 A  
HETATM   30  C   UNL     1      -8.564   5.032  73.026  1.00  0.00    -0.114 A  
HETATM   31  C   UNL     1      -9.781   4.556  73.503  1.00  0.00    -0.147 A  
HETATM   32  C   UNL     1     -10.891   5.398  73.496  1.00  0.00    -0.342 A  
ENDBRANCH  25  27
ENDBRANCH  22  25
ENDBRANCH  19  22
ENDBRANCH  14  16
ENDBRANCH  12  14
ENDBRANCH   6  12
TORSDOF 6
ENDMDL
MODEL        9
REMARK 921   NORMALIZED FREE ENERGY PREDICTED BY IDOCK:   -7.88 KCAL/MOL
REMARK 922        TOTAL FREE ENERGY PREDICTED BY IDOCK:  -11.17 KCAL/MOL
REMARK 923 INTER-LIGAND FREE ENERGY PREDICTED BY IDOCK:  -10.88 KCAL/MOL
REMARK 924 INTRA-LIGAND FREE ENERGY PREDICTED BY IDOCK:   -0.29 KCAL/MOL
REMARK 927      BINDING AFFINITY PREDICTED BY RF-SCORE:    0.00 PKD
ROOT
HETATM    1  O   UNL     1     -12.601  13.866  62.866  1.00  0.00    -0.580 OA 
HETATM    2  C   UNL     1     -12.522  13.367  64.119  1.00  0.00    -0.245 C  
HETATM    3  C   UNL     1     -11.505  14.025  64.982  1.00  0.00    -0.344 A  
HETATM    4  O   UNL     1     -13.189  12.417  64.497  1.00  0.00    -0.834 OA 
HETATM    5  C   UNL     1     -10.960  13.271  66.037  1.00  0.00    -0.292 A  
HETATM    6  C   UNL     1     -10.023  13.833  66.918  1.00  0.00    -0.264 A  
HETATM    7  C   UNL     1      -9.635  15.165  66.708  1.00  0.00    -0.260 A  
HETATM    8  O   UNL     1     -11.616  16.095  63.775  1.00  0.00    -1.390 OA 
HETATM    9  C   UNL     1     -11.102  15.353  64.807  1.00  0.00    -0.403 A  
HETATM   10  H   UNL     1     -11.344  16.998  63.657  1.00  0.00     0.000 HD 
HETATM   11  C   UNL     1     -10.170  15.928  65.666  1.00  0.00    -0.406 A  
ENDROOT
BRANCH   6  12
HETATM   12  N   UNL     1      -9.431  13.155  68.007  1.00  0.00    -0.214 NA 
HETATM   13  H   UNL     1      -9.070  13.628  68.835  1.00  0.00     0.000 HD 
BRANCH  12  14
HETATM   14  N   UNL     1      -9.396  11.916  67.854  1.00  0.00    -0.181 NA 
HETATM   15  H   UNL     1      -8.919  11.454  67.079  1.00  0.00     0.000 HD 
BRANCH  14  16
HETATM   16  C   UNL     1     -10.088  11.225  68.873  1.00  0.00    -0.170 A  
HETATM   17  C   UNL     1     -10.009   9.468  70.564  1.00  0.00    -0.335 A  
HETATM   18  C   UNL     1      -9.386  10.238  69.577  1.00  0.00    -0.200 A  
HETATM   19  C   UNL     1     -11.346   9.710  70.891  1.00  0.00    -0.360 A  
HETATM   20  C   UNL     1     -11.430  11.460  69.220  1.00  0.00    -0.370 A  
HETATM   21  C   UNL     1     -12.062  10.704  70.219  1.00  0.00    -0.423 A  
BRANCH  19  22
HETATM   22  S   UNL     1     -12.176   8.610  72.026  1.00  0.00    -0.394 S  
HETATM   23  O   UNL     1     -13.324   9.315  72.549  1.00  0.00    -0.457 OA 
HETATM   24  O   UNL     1     -11.156   8.091  72.918  1.00  0.00    -0.392 OA 
BRANCH  22  25
HETATM   25  N   UNL     1     -12.653   7.308  71.066  1.00  0.00    -0.536 N  
HETATM   26  H   UNL     1     -13.624   7.170  70.786  1.00  0.00     0.000 HD 
BRANCH  25  27
HETATM   27  C   UNL     1     -11.629   6.423  70.675  1.00  0.00    -0.347 A  
HETATM   28  N   UNL     1     -11.108   5.720  71.693  1.00  0.00    -0.254 NA 
HETATM   29  C   UNL     1     -10.176   4.797  71.364  1.00  0.00    -0.166 A  
HETATM   30  C   UNL     1      -9.732   4.573  70.069  1.00  0.00    -0.283 A  
HETATM   31  C   UNL     1     -10.273   5.345  69.046  1.00  0.00    -0.291 A  
HETATM   32  C   UNL     1     -11.246   6.293  69.351  1.00  0.00    -0.489 A  
ENDBRANCH  25  27
ENDBRANCH  22  25
ENDBRANCH  19  22
ENDBRANCH  14  16
ENDBRANCH  12  14
ENDBRANCH   6  12
TORSDOF 6
ENDMDL
MODEL       10
REMARK 921   NORMALIZED FREE ENERGY PREDICTED BY IDOCK:   -7.84 KCAL/MOL
REMARK 922        TOTAL FREE ENERGY PREDICTED BY IDOCK:  -11.11 KCAL/MOL
REMARK 923 INTER-LIGAND FREE ENERGY PREDICTED BY IDOCK:  -10.41 KCAL/MOL
REMARK 924 INTRA-LIGAND FREE ENERGY PREDICTED BY IDOCK:   -0.70 KCAL/MOL
REMARK 927      BINDING AFFINITY PREDICTED BY RF-SCORE:    0.00 PKD
ROOT
HETATM    1  O   UNL     1     -12.991   6.942  71.829  1.00  0.00    -0.363 OA 
HETATM    2  C   UNL     1     -11.962   7.683  71.363  1.00  0.00    -0.310 C  
HETATM    3  C   UNL     1     -12.254   9.136  71.243  1.00  0.00    -0.395 A  
HETATM    4  O   UNL     1     -10.899   7.195  71.015  1.00  0.00    -0.234 OA 
HETATM    5  C   UNL     1     -11.520   9.871  70.293  1.00  0.00    -0.349 A  
HETATM    6  C   UNL     1     -11.710  11.254  70.145  1.00  0.00    -0.343 A  
HETATM    7  C   UNL     1     -12.661  11.881  70.963  1.00  0.00    -0.354 A  
HETATM    8  O   UNL     1     -13.919   9.089  72.968  1.00  0.00    -1.039 OA 
HETATM    9  C   UNL     1     -13.189   9.795  72.048  1.00  0.00    -0.460 A  
HETATM   10  H   UNL     1     -14.553   9.537  73.516  1.00  0.00     0.000 HD 
HETATM   11  C   UNL     1     -13.396  11.165  71.913  1.00  0.00    -0.409 A  
ENDROOT
BRANCH   6  12
HETATM   12  N   UNL     1     -11.013  12.070  69.226  1.00  0.00    -0.409 NA 
HETATM   13  H   UNL     1     -10.007  12.235  69.272  1.00  0.00     0.000 HD 
BRANCH  12  14
HETATM   14  N   UNL     1     -11.753  12.569  68.353  1.00  0.00    -0.313 NA 
HETATM   15  H   UNL     1     -12.500  12.057  67.883  1.00  0.00     0.000 HD 
BRANCH  14  16
HETATM   16  C   UNL     1     -11.441  13.921  68.089  1.00  0.00    -0.312 A  
HETATM   17  C   UNL     1     -10.747  15.569  66.428  1.00  0.00    -0.303 A  
HETATM   18  C   UNL     1     -11.122  14.265  66.768  1.00  0.00    -0.316 A  
HETATM   19  C   UNL     1     -10.730  16.563  67.409  1.00  0.00    -0.260 A  
HETATM   20  C   UNL     1     -11.426  14.937  69.061  1.00  0.00    -0.322 A  
HETATM   21  C   UNL     1     -11.066  16.251  68.729  1.00  0.00    -0.355 A  
BRANCH  19  22
HETATM   22  S   UNL     1     -10.086  18.177  66.998  1.00  0.00    -0.370 S  
HETATM   23  O   UNL     1     -10.449  19.073  68.073  1.00  0.00    -0.381 OA 
HETATM   24  O   UNL     1     -10.499  18.452  65.635  1.00  0.00    -0.624 OA 
BRANCH  22  25
HETATM   25  N   UNL     1      -8.415  17.954  66.937  1.00  0.00    -0.237 N  
HETATM   26  H   UNL     1      -7.996  17.128  66.512  1.00  0.00     0.000 HD 
BRANCH  25  27
HETATM   27  C   UNL     1      -7.636  18.978  67.510  1.00  0.00    -0.235 A  
HETATM   28  N   UNL     1      -7.212  18.699  68.754  1.00  0.00    -0.299 NA 
HETATM   29  C   UNL     1      -6.392  19.612  69.322  1.00  0.00    -0.313 A  
HETATM   30  C   UNL     1      -6.008  20.795  68.708  1.00  0.00    -0.376 A  
HETATM   31  C   UNL     1      -6.495  21.062  67.432  1.00  0.00    -0.427 A  
HETATM   32  C   UNL     1      -7.328  20.134  66.814  1.00  0.00    -0.305 A  
ENDBRANCH  25  27
ENDBRANCH  22  25
ENDBRANCH  19  22
ENDBRANCH  14  16
ENDBRANCH  12  14
ENDBRANCH   6  12
TORSDOF 6
ENDMDL
MODEL       11
REMARK 921   NORMALIZED FREE ENERGY PREDICTED BY IDOCK:   -7.66 KCAL/MOL
REMARK 922        TOTAL FREE ENERGY PREDICTED BY IDOCK:  -10.87 KCAL/MOL
REMARK 923 INTER-LIGAND FREE ENERGY PREDICTED BY IDOCK:  -10.49 KCAL/MOL
REMARK 924 INTRA-LIGAND FREE ENERGY PREDICTED BY IDOCK:   -0.38 KCAL/MOL
REMARK 927      BINDING AFFINITY PREDICTED BY RF-SCORE:    0.00 PKD
ROOT
HETATM    1  O   UNL     1     -12.839  15.206  72.395  1.00  0.00    -0.314 OA 
HETATM    2  C   UNL     1     -12.624  14.778  71.132  1.00  0.00    -0.337 C  
HETATM    3  C   UNL     1     -12.583  13.299  70.981  1.00  0.00    -0.408 A  
HETATM    4  O   UNL     1     -12.421  15.539  70.200  1.00  0.00    -0.387 OA 
HETATM    5  C   UNL     1     -11.841  12.774  69.907  1.00  0.00    -0.371 A  
HETATM    6  C   UNL     1     -11.786  11.391  69.674  1.00  0.00    -0.362 A  
HETATM    7  C   UNL     1     -12.481  10.545  70.551  1.00  0.00    -0.433 A  
HETATM    8  O   UNL     1     -13.987  12.924  72.889  1.00  0.00    -0.634 OA 
HETATM    9  C   UNL     1     -13.271  12.427  71.832  1.00  0.00    -0.382 A  
HETATM   10  H   UNL     1     -14.455  12.332  73.467  1.00  0.00     0.000 HD 
HETATM   11  C   UNL     1     -13.224  11.052  71.622  1.00  0.00    -0.461 A  
ENDROOT
BRANCH   6  12
HETATM   12  N   UNL     1     -11.076  10.779  68.617  1.00  0.00    -0.239 NA 
HETATM   13  H   UNL     1     -10.196  10.278  68.747  1.00  0.00     0.000 HD 
BRANCH  12  14
HETATM   14  N   UNL     1     -11.634  10.912  67.508  1.00  0.00    -0.522 NA 
HETATM   15  H   UNL     1     -12.190  10.182  67.062  1.00  0.00     0.000 HD 
BRANCH  14  16
HETATM   16  C   UNL     1     -11.408  12.185  66.939  1.00  0.00    -0.343 A  
HETATM   17  C   UNL     1      -9.801  13.967  66.498  1.00  0.00    -0.298 A  
HETATM   18  C   UNL     1     -10.102  12.692  66.987  1.00  0.00    -0.228 A  
HETATM   19  C   UNL     1     -10.806  14.740  65.910  1.00  0.00    -0.330 A  
HETATM   20  C   UNL     1     -12.404  12.973  66.337  1.00  0.00    -0.227 A  
HETATM   21  C   UNL     1     -12.111  14.247  65.830  1.00  0.00    -0.414 A  
BRANCH  19  22
HETATM   22  S   UNL     1     -10.446  16.426  65.448  1.00  0.00    -0.227 S  
HETATM   23  O   UNL     1     -11.298  16.758  64.328  1.00  0.00    -1.170 OA 
HETATM   24  O   UNL     1      -9.004  16.525  65.334  1.00  0.00    -0.219 OA 
BRANCH  22  25
HETATM   25  N   UNL     1     -10.863  17.327  66.811  1.00  0.00    -0.066 N  
HETATM   26  H   UNL     1     -11.741  17.179  67.309  1.00  0.00     0.000 HD 
BRANCH  25  27
HETATM   27  C   UNL     1      -9.925  18.296  67.220  1.00  0.00    -0.335 A  
HETATM   28  N   UNL     1      -9.100  17.870  68.190  1.00  0.00    -0.271 NA 
HETATM   29  C   UNL     1      -8.127  18.731  68.564  1.00  0.00    -0.346 A  
HETATM   30  C   UNL     1      -7.969  19.999  68.028  1.00  0.00    -0.277 A  
HETATM   31  C   UNL     1      -8.864  20.416  67.048  1.00  0.00    -0.400 A  
HETATM   32  C   UNL     1      -9.867  19.546  66.629  1.00  0.00    -0.494 A  
ENDBRANCH  25  27
ENDBRANCH  22  25
ENDBRANCH  19  22
ENDBRANCH  14  16
ENDBRANCH  12  14
ENDBRANCH   6  12
TORSDOF 6
ENDMDL
MODEL       12
REMARK 921   NORMALIZED FREE ENERGY PREDICTED BY IDOCK:   -7.56 KCAL/MOL
REMARK 922        TOTAL FREE ENERGY PREDICTED BY IDOCK:  -10.73 KCAL/MOL
REMARK 923 INTER-LIGAND FREE ENERGY PREDICTED BY IDOCK:   -9.95 KCAL/MOL
REMARK 924 INTRA-LIGAND FREE ENERGY PREDICTED BY IDOCK:   -0.77 KCAL/MOL
REMARK 927      BINDING AFFINITY PREDICTED BY RF-SCORE:    0.00 PKD
ROOT
HETATM    1  O   UNL     1     -11.180   4.748  73.343  1.00  0.00    -0.315 OA 
HETATM    2  C   UNL     1     -10.572   5.041  72.172  1.00  0.00    -0.193 C  
HETATM    3  C   UNL     1     -10.731   6.452  71.731  1.00  0.00    -0.273 A  
HETATM    4  O   UNL     1      -9.989   4.204  71.502  1.00  0.00    -0.182 OA 
HETATM    5  C   UNL     1     -10.650   6.715  70.351  1.00  0.00    -0.266 A  
HETATM    6  C   UNL     1     -10.752   8.026  69.859  1.00  0.00    -0.242 A  
HETATM    7  C   UNL     1     -10.950   9.064  70.781  1.00  0.00    -0.315 A  
HETATM    8  O   UNL     1     -11.015   7.268  73.968  1.00  0.00    -0.518 OA 
HETATM    9  C   UNL     1     -10.921   7.512  72.623  1.00  0.00    -0.336 A  
HETATM   10  H   UNL     1     -11.143   7.988  74.575  1.00  0.00     0.000 HD 
HETATM   11  C   UNL     1     -11.030   8.818  72.155  1.00  0.00    -0.404 A  
ENDROOT
BRANCH   6  12
HETATM   12  N   UNL     1     -10.672   8.383  68.494  1.00  0.00    -0.415 NA 
HETATM   13  H   UNL     1     -11.199   7.912  67.758  1.00  0.00     0.000 HD 
BRANCH  12  14
HETATM   14  N   UNL     1      -9.893   9.335  68.280  1.00  0.00    -0.154 NA 
HETATM   15  H   UNL     1      -8.938   9.377  68.637  1.00  0.00     0.000 HD 
BRANCH  14  16
HETATM   16  C   UNL     1     -10.480  10.347  67.488  1.00  0.00    -0.245 A  
HETATM   17  C   UNL     1     -10.679  11.344  65.269  1.00  0.00    -0.326 A  
HETATM   18  C   UNL     1     -10.186  10.347  66.117  1.00  0.00    -0.288 A  
HETATM   19  C   UNL     1     -11.519  12.336  65.781  1.00  0.00    -0.367 A  
HETATM   20  C   UNL     1     -11.333  11.348  67.983  1.00  0.00    -0.372 A  
HETATM   21  C   UNL     1     -11.846  12.344  67.140  1.00  0.00    -0.361 A  
BRANCH  19  22
HETATM   22  S   UNL     1     -12.001  13.695  64.728  1.00  0.00    -0.419 S  
HETATM   23  O   UNL     1     -13.025  14.439  65.425  1.00  0.00    -0.571 OA 
HETATM   24  O   UNL     1     -12.260  13.129  63.418  1.00  0.00    -0.646 OA 
BRANCH  22  25
HETATM   25  N   UNL     1     -10.594  14.611  64.564  1.00  0.00    -0.576 N  
HETATM   26  H   UNL     1      -9.914  14.430  63.826  1.00  0.00     0.000 HD 
BRANCH  25  27
HETATM   27  C   UNL     1     -10.417  15.642  65.508  1.00  0.00    -0.404 A  
HETATM   28  N   UNL     1     -10.710  16.863  65.031  1.00  0.00    -0.693 NA 
HETATM   29  C   UNL     1     -10.635  17.881  65.918  1.00  0.00    -0.215 A  
HETATM   30  C   UNL     1     -10.256  17.727  67.243  1.00  0.00    -0.350 A  
HETATM   31  C   UNL     1      -9.930  16.451  67.690  1.00  0.00    -0.252 A  
HETATM   32  C   UNL     1     -10.012  15.378  66.805  1.00  0.00    -0.256 A  
ENDBRANCH  25  27
ENDBRANCH  22  25
ENDBRANCH  19  22
ENDBRANCH  14  16
ENDBRANCH  12  14
ENDBRANCH   6  12
TORSDOF 6
ENDMDL
MODEL       13
REMARK 921   NORMALIZED FREE ENERGY PREDICTED BY IDOCK:   -7.52 KCAL/MOL
REMARK 922        TOTAL FREE ENERGY PREDICTED BY IDOCK:  -10.68 KCAL/MOL
REMARK 923 INTER-LIGAND FREE ENERGY PREDICTED BY IDOCK:  -10.08 KCAL/MOL
REMARK 924 INTRA-LIGAND FREE ENERGY PREDICTED BY IDOCK:   -0.60 KCAL/MOL
REMARK 927      BINDING AFFINITY PREDICTED BY RF-SCORE:    0.00 PKD
ROOT
HETATM    1  O   UNL     1     -10.721  17.991  65.448  1.00  0.00    -0.632 OA 
HETATM    2  C   UNL     1     -10.310  16.910  66.146  1.00  0.00    -0.320 C  
HETATM    3  C   UNL     1     -11.027  15.651  65.812  1.00  0.00    -0.250 A  
HETATM    4  O   UNL     1      -9.461  16.970  67.021  1.00  0.00    -0.239 OA 
HETATM    5  C   UNL     1     -11.094  14.656  66.804  1.00  0.00    -0.335 A  
HETATM    6  C   UNL     1     -11.720  13.425  66.552  1.00  0.00    -0.373 A  
HETATM    7  C   UNL     1     -12.289  13.220  65.287  1.00  0.00    -0.525 A  
HETATM    8  O   UNL     1     -11.551  16.375  63.586  1.00  0.00    -1.514 OA 
HETATM    9  C   UNL     1     -11.598  15.410  64.557  1.00  0.00    -0.296 A  
HETATM   10  H   UNL     1     -11.938  16.211  62.734  1.00  0.00     0.000 HD 
HETATM   11  C   UNL     1     -12.228  14.198  64.290  1.00  0.00    -0.449 A  
ENDROOT
BRANCH   6  12
HETATM   12  N   UNL     1     -11.825  12.368  67.484  1.00  0.00    -0.480 NA 
HETATM   13  H   UNL     1     -12.652  11.779  67.575  1.00  0.00     0.000 HD 
BRANCH  12  14
HETATM   14  N   UNL     1     -10.801  12.228  68.187  1.00  0.00    -0.216 NA 
HETATM   15  H   UNL     1      -9.926  12.725  68.018  1.00  0.00     0.000 HD 
BRANCH  14  16
HETATM   16  C   UNL     1     -10.991  11.307  69.240  1.00  0.00    -0.243 A  
HETATM   17  C   UNL     1     -10.047   9.468  70.537  1.00  0.00    -0.347 A  
HETATM   18  C   UNL     1      -9.927  10.448  69.547  1.00  0.00    -0.229 A  
HETATM   19  C   UNL     1     -11.232   9.365  71.270  1.00  0.00    -0.367 A  
HETATM   20  C   UNL     1     -12.173  11.193  69.993  1.00  0.00    -0.402 A  
HETATM   21  C   UNL     1     -12.300  10.224  70.998  1.00  0.00    -0.483 A  
BRANCH  19  22
HETATM   22  S   UNL     1     -11.435   8.004  72.408  1.00  0.00    -0.409 S  
HETATM   23  O   UNL     1     -12.709   8.179  73.067  1.00  0.00    -0.014 OA 
HETATM   24  O   UNL     1     -10.208   7.924  73.178  1.00  0.00    -0.312 OA 
BRANCH  22  25
HETATM   25  N   UNL     1     -11.448   6.637  71.420  1.00  0.00    -0.286 N  
HETATM   26  H   UNL     1     -11.850   6.650  70.483  1.00  0.00     0.000 HD 
BRANCH  25  27
HETATM   27  C   UNL     1     -10.871   5.475  71.969  1.00  0.00    -0.226 A  
HETATM   28  N   UNL     1     -11.556   4.973  73.009  1.00  0.00    -0.284 NA 
HETATM   29  C   UNL     1     -11.091   3.812  73.524  1.00  0.00    -0.234 A  
HETATM   30  C   UNL     1      -9.962   3.157  73.059  1.00  0.00    -0.204 A  
HETATM   31  C   UNL     1      -9.260   3.726  72.001  1.00  0.00    -0.175 A  
HETATM   32  C   UNL     1      -9.722   4.913  71.438  1.00  0.00    -0.237 A  
ENDBRANCH  25  27
ENDBRANCH  22  25
ENDBRANCH  19  22
ENDBRANCH  14  16
ENDBRANCH  12  14
ENDBRANCH   6  12
TORSDOF 6
ENDMDL
MODEL       14
REMARK 921   NORMALIZED FREE ENERGY PREDICTED BY IDOCK:   -7.45 KCAL/MOL
REMARK 922        TOTAL FREE ENERGY PREDICTED BY IDOCK:  -10.59 KCAL/MOL
REMARK 923 INTER-LIGAND FREE ENERGY PREDICTED BY IDOCK:  -10.11 KCAL/MOL
REMARK 924 INTRA-LIGAND FREE ENERGY PREDICTED BY IDOCK:   -0.49 KCAL/MOL
REMARK 927      BINDING AFFINITY PREDICTED BY RF-SCORE:    0.00 PKD
ROOT
HETATM    1  O   UNL     1     -11.076   6.285  70.611  1.00  0.00    -0.284 OA 
HETATM    2  C   UNL     1     -10.538   7.524  70.571  1.00  0.00    -0.225 C  
HETATM    3  C   UNL     1     -11.479   8.617  70.936  1.00  0.00    -0.315 A  
HETATM    4  O   UNL     1      -9.391   7.736  70.211  1.00  0.00    -0.156 OA 
HETATM    5  C   UNL     1     -11.226   9.896  70.407  1.00  0.00    -0.379 A  
HETATM    6  C   UNL     1     -12.046  10.987  70.735  1.00  0.00    -0.366 A  
HETATM    7  C   UNL     1     -13.132  10.764  71.594  1.00  0.00    -0.551 A  
HETATM    8  O   UNL     1     -12.830   7.187  72.307  1.00  0.00    -0.513 OA 
HETATM    9  C   UNL     1     -12.566   8.430  71.796  1.00  0.00    -0.342 A  
HETATM   10  H   UNL     1     -13.568   7.060  72.892  1.00  0.00     0.000 HD 
HETATM   11  C   UNL     1     -13.394   9.498  72.128  1.00  0.00    -0.545 A  
ENDROOT
BRANCH   6  12
HETATM   12  N   UNL     1     -11.862  12.305  70.260  1.00  0.00    -0.524 NA 
HETATM   13  H   UNL     1     -11.751  13.113  70.873  1.00  0.00     0.000 HD 
BRANCH  12  14
HETATM   14  N   UNL     1     -11.849  12.381  69.013  1.00  0.00    -0.310 NA 
HETATM   15  H   UNL     1     -12.047  11.594  68.395  1.00  0.00     0.000 HD 
BRANCH  14  16
HETATM   16  C   UNL     1     -11.530  13.679  68.554  1.00  0.00    -0.312 A  
HETATM   17  C   UNL     1     -10.636  15.037  66.735  1.00  0.00    -0.301 A  
HETATM   18  C   UNL     1     -11.029  13.798  67.251  1.00  0.00    -0.302 A  
HETATM   19  C   UNL     1     -10.782  16.189  67.512  1.00  0.00    -0.304 A  
HETATM   20  C   UNL     1     -11.677  14.849  69.318  1.00  0.00    -0.344 A  
HETATM   21  C   UNL     1     -11.301  16.099  68.807  1.00  0.00    -0.359 A  
BRANCH  19  22
HETATM   22  S   UNL     1     -10.119  17.733  66.909  1.00  0.00    -0.357 S  
HETATM   23  O   UNL     1     -10.675  18.789  67.725  1.00  0.00    -0.407 OA 
HETATM   24  O   UNL     1     -10.310  17.731  65.471  1.00  0.00    -0.623 OA 
BRANCH  22  25
HETATM   25  N   UNL     1      -8.456  17.593  67.153  1.00  0.00    -0.222 N  
HETATM   26  H   UNL     1      -8.030  16.731  67.492  1.00  0.00     0.000 HD 
BRANCH  25  27
HETATM   27  C   UNL     1      -7.692  18.740  66.859  1.00  0.00    -0.236 A  
HETATM   28  N   UNL     1      -7.257  18.785  65.589  1.00  0.00    -0.494 NA 
HETATM   29  C   UNL     1      -6.586  19.903  65.229  1.00  0.00    -0.289 A  
HETATM   30  C   UNL     1      -6.315  20.954  66.092  1.00  0.00    -0.295 A  
HETATM   31  C   UNL     1      -6.755  20.855  67.408  1.00  0.00    -0.427 A  
HETATM   32  C   UNL     1      -7.463  19.723  67.806  1.00  0.00    -0.322 A  
ENDBRANCH  25  27
ENDBRANCH  22  25
ENDBRANCH  19  22
ENDBRANCH  14  16
ENDBRANCH  12  14
ENDBRANCH   6  12
TORSDOF 6
ENDMDL
MODEL       15
REMARK 921   NORMALIZED FREE ENERGY PREDICTED BY IDOCK:   -7.45 KCAL/MOL
REMARK 922        TOTAL FREE ENERGY PREDICTED BY IDOCK:  -10.59 KCAL/MOL
REMARK 923 INTER-LIGAND FREE ENERGY PREDICTED BY IDOCK:   -9.73 KCAL/MOL
REMARK 924 INTRA-LIGAND FREE ENERGY PREDICTED BY IDOCK:   -0.86 KCAL/MOL
REMARK 927      BINDING AFFINITY PREDICTED BY RF-SCORE:    0.00 PKD
ROOT
HETATM    1  O   UNL     1     -10.381   7.483  73.584  1.00  0.00    -0.344 OA 
HETATM    2  C   UNL     1     -11.002   7.950  72.479  1.00  0.00    -0.350 C  
HETATM    3  C   UNL     1     -10.734   7.167  71.243  1.00  0.00    -0.245 A  
HETATM    4  O   UNL     1     -11.682   8.964  72.479  1.00  0.00    -0.276 OA 
HETATM    5  C   UNL     1     -10.841   7.838  70.011  1.00  0.00    -0.243 A  
HETATM    6  C   UNL     1     -10.640   7.158  68.799  1.00  0.00    -0.196 A  
HETATM    7  C   UNL     1     -10.317   5.794  68.851  1.00  0.00    -0.295 A  
HETATM    8  O   UNL     1     -10.298   5.142  72.453  1.00  0.00    -0.191 OA 
HETATM    9  C   UNL     1     -10.418   5.804  71.259  1.00  0.00    -0.235 A  
HETATM   10  H   UNL     1     -10.084   4.216  72.463  1.00  0.00     0.000 HD 
HETATM   11  C   UNL     1     -10.210   5.114  70.068  1.00  0.00    -0.354 A  
ENDROOT
BRANCH   6  12
HETATM   12  N   UNL     1     -10.736   7.748  67.519  1.00  0.00    -0.473 NA 
HETATM   13  H   UNL     1     -11.515   7.583  66.881  1.00  0.00     0.000 HD 
BRANCH  12  14
HETATM   14  N   UNL     1      -9.771   8.492  67.246  1.00  0.00    -0.169 NA 
HETATM   15  H   UNL     1      -8.800   8.259  67.452  1.00  0.00     0.000 HD 
BRANCH  14  16
HETATM   16  C   UNL     1     -10.175   9.693  66.621  1.00  0.00    -0.232 A  
HETATM   17  C   UNL     1     -11.382  11.803  66.841  1.00  0.00    -0.386 A  
HETATM   18  C   UNL     1     -10.896  10.613  67.394  1.00  0.00    -0.353 A  
HETATM   19  C   UNL     1     -11.110  12.107  65.505  1.00  0.00    -0.316 A  
HETATM   20  C   UNL     1      -9.904  10.021  65.281  1.00  0.00    -0.388 A  
HETATM   21  C   UNL     1     -10.373  11.217  64.720  1.00  0.00    -0.387 A  
BRANCH  19  22
HETATM   22  S   UNL     1     -11.879  13.539  64.767  1.00  0.00    -0.403 S  
HETATM   23  O   UNL     1     -12.708  14.154  65.779  1.00  0.00    -0.508 OA 
HETATM   24  O   UNL     1     -12.453  13.099  63.510  1.00  0.00    -0.714 OA 
BRANCH  22  25
HETATM   25  N   UNL     1     -10.585  14.539  64.357  1.00  0.00    -0.521 N  
HETATM   26  H   UNL     1     -10.119  14.477  63.453  1.00  0.00     0.000 HD 
BRANCH  25  27
HETATM   27  C   UNL     1     -10.187  15.466  65.341  1.00  0.00    -0.377 A  
HETATM   28  N   UNL     1     -10.631  16.713  65.116  1.00  0.00    -0.676 NA 
HETATM   29  C   UNL     1     -10.347  17.628  66.071  1.00  0.00    -0.304 A  
HETATM   30  C   UNL     1      -9.619  17.348  67.218  1.00  0.00    -0.258 A  
HETATM   31  C   UNL     1      -9.148  16.052  67.398  1.00  0.00    -0.207 A  
HETATM   32  C   UNL     1      -9.438  15.083  66.440  1.00  0.00    -0.325 A  
ENDBRANCH  25  27
ENDBRANCH  22  25
ENDBRANCH  19  22
ENDBRANCH  14  16
ENDBRANCH  12  14
ENDBRANCH   6  12
TORSDOF 6
ENDMDL
MODEL       16
REMARK 921   NORMALIZED FREE ENERGY PREDICTED BY IDOCK:   -7.45 KCAL/MOL
REMARK 922        TOTAL FREE ENERGY PREDICTED BY IDOCK:  -10.59 KCAL/MOL
REMARK 923 INTER-LIGAND FREE ENERGY PREDICTED BY IDOCK:   -9.80 KCAL/MOL
REMARK 924 INTRA-LIGAND FREE ENERGY PREDICTED BY IDOCK:   -0.78 KCAL/MOL
REMARK 927      BINDING AFFINITY PREDICTED BY RF-SCORE:    0.00 PKD
ROOT
HETATM    1  O   UNL     1     -13.470  14.080  65.418  1.00  0.00    -0.679 OA 
HETATM    2  C   UNL     1     -12.366  13.562  65.997  1.00  0.00    -0.433 C  
HETATM    3  C   UNL     1     -11.596  12.628  65.132  1.00  0.00    -0.386 A  
HETATM    4  O   UNL     1     -12.054  13.793  67.154  1.00  0.00    -0.398 OA 
HETATM    5  C   UNL     1     -10.814  11.646  65.769  1.00  0.00    -0.334 A  
HETATM    6  C   UNL     1     -10.030  10.753  65.023  1.00  0.00    -0.300 A  
HETATM    7  C   UNL     1     -10.057  10.857  63.624  1.00  0.00    -0.414 A  
HETATM    8  O   UNL     1     -12.361  13.653  63.104  1.00  0.00    -1.045 OA 
HETATM    9  C   UNL     1     -11.594  12.710  63.736  1.00  0.00    -0.476 A  
HETATM   10  H   UNL     1     -12.359  13.710  62.155  1.00  0.00     0.000 HD 
HETATM   11  C   UNL     1     -10.828  11.829  62.978  1.00  0.00    -0.144 A  
ENDROOT
BRANCH   6  12
HETATM   12  N   UNL     1      -9.209   9.744  65.576  1.00  0.00    -0.197 NA 
HETATM   13  H   UNL     1      -8.249   9.905  65.880  1.00  0.00     0.000 HD 
BRANCH  12  14
HETATM   14  N   UNL     1      -9.779   8.636  65.656  1.00  0.00    -0.438 NA 
HETATM   15  H   UNL     1     -10.273   8.195  64.880  1.00  0.00     0.000 HD 
BRANCH  14  16
HETATM   16  C   UNL     1      -9.662   8.060  66.941  1.00  0.00    -0.225 A  
HETATM   17  C   UNL     1     -10.709   6.683  68.662  1.00  0.00    -0.303 A  
HETATM   18  C   UNL     1     -10.716   7.248  67.383  1.00  0.00    -0.358 A  
HETATM   19  C   UNL     1      -9.615   6.891  69.506  1.00  0.00    -0.148 A  
HETATM   20  C   UNL     1      -8.567   8.251  67.800  1.00  0.00    -0.131 A  
HETATM   21  C   UNL     1      -8.541   7.678  69.079  1.00  0.00    -0.136 A  
BRANCH  19  22
HETATM   22  S   UNL     1      -9.695   6.310  71.192  1.00  0.00    -0.176 S  
HETATM   23  O   UNL     1      -8.470   5.590  71.459  1.00  0.00    -0.124 OA 
HETATM   24  O   UNL     1     -10.983   5.660  71.344  1.00  0.00    -0.250 OA 
BRANCH  22  25
HETATM   25  N   UNL     1      -9.780   7.720  72.113  1.00  0.00    -0.175 N  
HETATM   26  H   UNL     1      -9.107   7.925  72.851  1.00  0.00     0.000 HD 
BRANCH  25  27
HETATM   27  C   UNL     1     -10.836   8.598  71.799  1.00  0.00    -0.325 A  
HETATM   28  N   UNL     1     -11.970   8.337  72.470  1.00  0.00    -0.391 NA 
HETATM   29  C   UNL     1     -12.993   9.198  72.268  1.00  0.00    -0.420 A  
HETATM   30  C   UNL     1     -12.932  10.282  71.407  1.00  0.00    -0.540 A  
HETATM   31  C   UNL     1     -11.751  10.500  70.705  1.00  0.00    -0.453 A  
HETATM   32  C   UNL     1     -10.673   9.640  70.903  1.00  0.00    -0.402 A  
ENDBRANCH  25  27
ENDBRANCH  22  25
ENDBRANCH  19  22
ENDBRANCH  14  16
ENDBRANCH  12  14
ENDBRANCH   6  12
TORSDOF 6
ENDMDL
MODEL       17
REMARK 921   NORMALIZED FREE ENERGY PREDICTED BY IDOCK:   -7.40 KCAL/MOL
REMARK 922        TOTAL FREE ENERGY PREDICTED BY IDOCK:  -10.52 KCAL/MOL
REMARK 923 INTER-LIGAND FREE ENERGY PREDICTED BY IDOCK:   -9.82 KCAL/MOL
REMARK 924 INTRA-LIGAND FREE ENERGY PREDICTED BY IDOCK:   -0.71 KCAL/MOL
REMARK 927      BINDING AFFINITY PREDICTED BY RF-SCORE:    0.00 PKD
ROOT
HETATM    1  O   UNL     1     -10.526  11.851  62.994  1.00  0.00    -0.329 OA 
HETATM    2  C   UNL     1     -10.492  11.380  64.260  1.00  0.00    -0.342 C  
HETATM    3  C   UNL     1     -11.051  12.308  65.279  1.00  0.00    -0.359 A  
HETATM    4  O   UNL     1      -9.993  10.306  64.553  1.00  0.00    -0.339 OA 
HETATM    5  C   UNL     1     -10.576  12.189  66.598  1.00  0.00    -0.266 A  
HETATM    6  C   UNL     1     -11.082  13.003  67.623  1.00  0.00    -0.267 A  
HETATM    7  C   UNL     1     -12.065  13.948  67.294  1.00  0.00    -0.403 A  
HETATM    8  O   UNL     1     -12.500  13.390  63.703  1.00  0.00    -0.711 OA 
HETATM    9  C   UNL     1     -12.038  13.255  64.986  1.00  0.00    -0.408 A  
HETATM   10  H   UNL     1     -13.171  14.033  63.504  1.00  0.00     0.000 HD 
HETATM   11  C   UNL     1     -12.548  14.076  65.988  1.00  0.00    -0.452 A  
ENDROOT
BRANCH   6  12
HETATM   12  N   UNL     1     -10.672  12.946  68.974  1.00  0.00    -0.412 NA 
HETATM   13  H   UNL     1      -9.694  12.957  69.266  1.00  0.00     0.000 HD 
BRANCH  12  14
HETATM   14  N   UNL     1     -11.627  12.881  69.776  1.00  0.00    -0.477 NA 
HETATM   15  H   UNL     1     -12.195  13.684  70.047  1.00  0.00     0.000 HD 
BRANCH  14  16
HETATM   16  C   UNL     1     -11.833  11.572  70.266  1.00  0.00    -0.342 A  
HETATM   17  C   UNL     1     -11.077   9.252  70.268  1.00  0.00    -0.289 A  
HETATM   18  C   UNL     1     -10.919  10.585  69.875  1.00  0.00    -0.359 A  
HETATM   19  C   UNL     1     -12.141   8.897  71.101  1.00  0.00    -0.277 A  
HETATM   20  C   UNL     1     -12.892  11.198  71.111  1.00  0.00    -0.473 A  
HETATM   21  C   UNL     1     -13.054   9.868  71.523  1.00  0.00    -0.516 A  
BRANCH  19  22
HETATM   22  S   UNL     1     -12.431   7.171  71.453  1.00  0.00    -0.394 S  
HETATM   23  O   UNL     1     -11.757   6.403  70.431  1.00  0.00    -0.396 OA 
HETATM   24  O   UNL     1     -13.859   7.027  71.666  1.00  0.00    -0.346 OA 
BRANCH  22  25
HETATM   25  N   UNL     1     -11.715   6.930  72.961  1.00  0.00    -0.481 N  
HETATM   26  H   UNL     1     -11.889   7.554  73.748  1.00  0.00     0.000 HD 
BRANCH  25  27
HETATM   27  C   UNL     1     -10.861   5.814  73.066  1.00  0.00    -0.271 A  
HETATM   28  N   UNL     1     -11.509   4.663  73.310  1.00  0.00    -0.308 NA 
HETATM   29  C   UNL     1     -10.747   3.546  73.340  1.00  0.00    -0.208 A  
HETATM   30  C   UNL     1      -9.372   3.543  73.164  1.00  0.00    -0.124 A  
HETATM   31  C   UNL     1      -8.733   4.760  72.946  1.00  0.00    -0.114 A  
HETATM   32  C   UNL     1      -9.492   5.926  72.893  1.00  0.00    -0.154 A  
ENDBRANCH  25  27
ENDBRANCH  22  25
ENDBRANCH  19  22
ENDBRANCH  14  16
ENDBRANCH  12  14
ENDBRANCH   6  12
TORSDOF 6
ENDMDL
MODEL       18
REMARK 921   NORMALIZED FREE ENERGY PREDICTED BY IDOCK:   -7.40 KCAL/MOL
REMARK 922        TOTAL FREE ENERGY PREDICTED BY IDOCK:  -10.52 KCAL/MOL
REMARK 923 INTER-LIGAND FREE ENERGY PREDICTED BY IDOCK:  -10.08 KCAL/MOL
REMARK 924 INTRA-LIGAND FREE ENERGY PREDICTED BY IDOCK:   -0.44 KCAL/MOL
REMARK 927      BINDING AFFINITY PREDICTED BY RF-SCORE:    0.00 PKD
ROOT
HETATM    1  O   UNL     1     -13.657   8.762  73.264  1.00  0.00    -0.082 OA 
HETATM    2  C   UNL     1     -13.241   9.046  72.010  1.00  0.00    -0.429 C  
HETATM    3  C   UNL     1     -11.770   8.948  71.812  1.00  0.00    -0.432 A  
HETATM    4  O   UNL     1     -14.001   9.409  71.127  1.00  0.00    -0.226 OA 
HETATM    5  C   UNL     1     -11.199   9.726  70.789  1.00  0.00    -0.419 A  
HETATM    6  C   UNL     1      -9.824   9.661  70.514  1.00  0.00    -0.231 A  
HETATM    7  C   UNL     1      -9.033   8.807  71.297  1.00  0.00    -0.295 A  
HETATM    8  O   UNL     1     -11.497   7.347  73.576  1.00  0.00    -0.582 OA 
HETATM    9  C   UNL     1     -10.955   8.101  72.568  1.00  0.00    -0.369 A  
HETATM   10  H   UNL     1     -10.943   6.770  74.090  1.00  0.00     0.000 HD 
HETATM   11  C   UNL     1      -9.588   8.025  72.316  1.00  0.00    -0.286 A  
ENDROOT
BRANCH   6  12
HETATM   12  N   UNL     1      -9.167  10.397  69.502  1.00  0.00    -0.373 NA 
HETATM   13  H   UNL     1      -8.609  11.231  69.687  1.00  0.00     0.000 HD 
BRANCH  12  14
HETATM   14  N   UNL     1      -9.340   9.924  68.359  1.00  0.00    -0.132 NA 
HETATM   15  H   UNL     1      -8.942   9.038  68.046  1.00  0.00     0.000 HD 
BRANCH  14  16
HETATM   16  C   UNL     1     -10.147  10.752  67.548  1.00  0.00    -0.186 A  
HETATM   17  C   UNL     1     -10.723  11.453  65.283  1.00  0.00    -0.326 A  
HETATM   18  C   UNL     1     -10.004  10.634  66.159  1.00  0.00    -0.283 A  
HETATM   19  C   UNL     1     -11.637  12.379  65.792  1.00  0.00    -0.398 A  
HETATM   20  C   UNL     1     -11.077  11.684  68.042  1.00  0.00    -0.299 A  
HETATM   21  C   UNL     1     -11.815  12.500  67.174  1.00  0.00    -0.386 A  
BRANCH  19  22
HETATM   22  S   UNL     1     -12.419  13.533  64.676  1.00  0.00    -0.284 S  
HETATM   23  O   UNL     1     -13.332  14.337  65.457  1.00  0.00    -0.608 OA 
HETATM   24  O   UNL     1     -12.896  12.756  63.548  1.00  0.00    -0.693 OA 
BRANCH  22  25
HETATM   25  N   UNL     1     -11.144  14.467  64.087  1.00  0.00    -0.549 N  
HETATM   26  H   UNL     1     -10.841  14.416  63.114  1.00  0.00     0.000 HD 
BRANCH  25  27
HETATM   27  C   UNL     1     -10.524  15.321  65.020  1.00  0.00    -0.382 A  
HETATM   28  N   UNL     1     -10.902  16.605  64.907  1.00  0.00    -0.701 NA 
HETATM   29  C   UNL     1     -10.399  17.456  65.830  1.00  0.00    -0.269 A  
HETATM   30  C   UNL     1      -9.520  17.078  66.833  1.00  0.00    -0.266 A  
HETATM   31  C   UNL     1      -9.126  15.745  66.896  1.00  0.00    -0.259 A  
HETATM   32  C   UNL     1      -9.639  14.840  65.970  1.00  0.00    -0.334 A  
ENDBRANCH  25  27
ENDBRANCH  22  25
ENDBRANCH  19  22
ENDBRANCH  14  16
ENDBRANCH  12  14
ENDBRANCH   6  12
TORSDOF 6
ENDMDL
MODEL       19
REMARK 921   NORMALIZED FREE ENERGY PREDICTED BY IDOCK:   -7.37 KCAL/MOL
REMARK 922        TOTAL FREE ENERGY PREDICTED BY IDOCK:  -10.47 KCAL/MOL
REMARK 923 INTER-LIGAND FREE ENERGY PREDICTED BY IDOCK:   -9.71 KCAL/MOL
REMARK 924 INTRA-LIGAND FREE ENERGY PREDICTED BY IDOCK:   -0.76 KCAL/MOL
REMARK 927      BINDING AFFINITY PREDICTED BY RF-SCORE:    0.00 PKD
ROOT
HETATM    1  O   UNL     1     -12.103  13.607  63.116  1.00  0.00    -0.459 OA 
HETATM    2  C   UNL     1     -12.522  13.322  64.368  1.00  0.00    -0.290 C  
HETATM    3  C   UNL     1     -11.812  14.068  65.441  1.00  0.00    -0.363 A  
HETATM    4  O   UNL     1     -13.373  12.480  64.605  1.00  0.00    -0.804 OA 
HETATM    5  C   UNL     1     -11.754  13.476  66.716  1.00  0.00    -0.430 A  
HETATM    6  C   UNL     1     -11.136  14.134  67.790  1.00  0.00    -0.276 A  
HETATM    7  C   UNL     1     -10.565  15.393  67.554  1.00  0.00    -0.283 A  
HETATM    8  O   UNL     1     -11.278  15.910  64.001  1.00  0.00    -0.941 OA 
HETATM    9  C   UNL     1     -11.239  15.328  65.241  1.00  0.00    -0.336 A  
HETATM   10  H   UNL     1     -10.889  16.767  63.866  1.00  0.00     0.000 HD 
HETATM   11  C   UNL     1     -10.616  15.995  66.292  1.00  0.00    -0.288 A  
ENDROOT
BRANCH   6  12
HETATM   12  N   UNL     1     -11.039  13.621  69.103  1.00  0.00    -0.322 NA 
HETATM   13  H   UNL     1     -10.175  13.623  69.646  1.00  0.00     0.000 HD 
BRANCH  12  14
HETATM   14  N   UNL     1     -12.120  13.164  69.533  1.00  0.00    -0.275 NA 
HETATM   15  H   UNL     1     -13.011  13.655  69.460  1.00  0.00     0.000 HD 
BRANCH  14  16
HETATM   16  C   UNL     1     -11.969  11.893  70.130  1.00  0.00    -0.332 A  
HETATM   17  C   UNL     1     -10.754   9.776  70.145  1.00  0.00    -0.339 A  
HETATM   18  C   UNL     1     -10.940  11.071  69.650  1.00  0.00    -0.286 A  
HETATM   19  C   UNL     1     -11.579   9.300  71.167  1.00  0.00    -0.327 A  
HETATM   20  C   UNL     1     -12.784  11.400  71.164  1.00  0.00    -0.479 A  
HETATM   21  C   UNL     1     -12.598  10.109  71.678  1.00  0.00    -0.533 A  
BRANCH  19  22
HETATM   22  S   UNL     1     -11.443   7.592  71.669  1.00  0.00    -0.271 S  
HETATM   23  O   UNL     1     -12.492   6.860  70.995  1.00  0.00    -0.382 OA 
HETATM   24  O   UNL     1     -11.354   7.593  73.116  1.00  0.00    -0.360 OA 
BRANCH  22  25
HETATM   25  N   UNL     1      -9.923   7.117  71.114  1.00  0.00    -0.184 N  
HETATM   26  H   UNL     1      -9.123   7.749  71.122  1.00  0.00     0.000 HD 
BRANCH  25  27
HETATM   27  C   UNL     1      -9.827   5.794  70.638  1.00  0.00    -0.187 A  
HETATM   28  N   UNL     1      -9.867   5.700  69.299  1.00  0.00    -0.161 NA 
HETATM   29  C   UNL     1      -9.698   4.462  68.784  1.00  0.00    -0.129 A  
HETATM   30  C   UNL     1      -9.519   3.322  69.553  1.00  0.00    -0.205 A  
HETATM   31  C   UNL     1      -9.516   3.456  70.938  1.00  0.00    -0.234 A  
HETATM   32  C   UNL     1      -9.672   4.722  71.499  1.00  0.00    -0.235 A  
ENDBRANCH  25  27
ENDBRANCH  22  25
ENDBRANCH  19  22
ENDBRANCH  14  16
ENDBRANCH  12  14
ENDBRANCH   6  12
TORSDOF 6
ENDMDL
MODEL       20
REMARK 921   NORMALIZED FREE ENERGY PREDICTED BY IDOCK:   -7.37 KCAL/MOL
REMARK 922        TOTAL FREE ENERGY PREDICTED BY IDOCK:  -10.47 KCAL/MOL
REMARK 923 INTER-LIGAND FREE ENERGY PREDICTED BY IDOCK:   -9.18 KCAL/MOL
REMARK 924 INTRA-LIGAND FREE ENERGY PREDICTED BY IDOCK:   -1.30 KCAL/MOL
REMARK 927      BINDING AFFINITY PREDICTED BY RF-SCORE:    0.00 PKD
ROOT
HETATM    1  O   UNL     1     -13.401  14.205  65.102  1.00  0.00    -0.684 OA 
HETATM    2  C   UNL     1     -12.701  13.059  64.965  1.00  0.00    -0.410 C  
HETATM    3  C   UNL     1     -11.498  12.963  65.834  1.00  0.00    -0.387 A  
HETATM    4  O   UNL     1     -12.995  12.196  64.153  1.00  0.00    -0.664 OA 
HETATM    5  C   UNL     1     -10.442  12.142  65.397  1.00  0.00    -0.305 A  
HETATM    6  C   UNL     1      -9.290  11.970  66.180  1.00  0.00    -0.211 A  
HETATM    7  C   UNL     1      -9.214  12.650  67.404  1.00  0.00    -0.191 A  
HETATM    8  O   UNL     1     -12.409  14.433  67.496  1.00  0.00    -0.621 OA 
HETATM    9  C   UNL     1     -11.394  13.620  67.064  1.00  0.00    -0.324 A  
HETATM   10  H   UNL     1     -12.339  14.879  68.332  1.00  0.00     0.000 HD 
HETATM   11  C   UNL     1     -10.257  13.467  67.852  1.00  0.00    -0.247 A  
ENDROOT
BRANCH   6  12
HETATM   12  N   UNL     1      -8.188  11.159  65.825  1.00  0.00    -0.347 NA 
HETATM   13  H   UNL     1      -7.220  11.480  65.860  1.00  0.00     0.000 HD 
BRANCH  12  14
HETATM   14  N   UNL     1      -8.518  10.010  65.464  1.00  0.00    -0.141 NA 
HETATM   15  H   UNL     1      -8.548   9.709  64.489  1.00  0.00     0.000 HD 
BRANCH  14  16
HETATM   16  C   UNL     1      -8.846   9.175  66.554  1.00  0.00    -0.134 A  
HETATM   17  C   UNL     1     -10.485   7.663  67.547  1.00  0.00    -0.336 A  
HETATM   18  C   UNL     1     -10.056   8.470  66.488  1.00  0.00    -0.328 A  
HETATM   19  C   UNL     1      -9.678   7.517  68.678  1.00  0.00    -0.154 A  
HETATM   20  C   UNL     1      -8.044   9.009  67.697  1.00  0.00    -0.109 A  
HETATM   21  C   UNL     1      -8.456   8.191  68.758  1.00  0.00    -0.126 A  
BRANCH  19  22
HETATM   22  S   UNL     1     -10.312   6.626  70.089  1.00  0.00    -0.211 S  
HETATM   23  O   UNL     1      -9.442   5.494  70.312  1.00  0.00    -0.155 OA 
HETATM   24  O   UNL     1     -11.730   6.434  69.852  1.00  0.00    -0.426 OA 
BRANCH  22  25
HETATM   25  N   UNL     1     -10.204   7.730  71.359  1.00  0.00    -0.182 N  
HETATM   26  H   UNL     1      -9.450   7.693  72.044  1.00  0.00     0.000 HD 
BRANCH  25  27
HETATM   27  C   UNL     1     -11.218   8.707  71.414  1.00  0.00    -0.277 A  
HETATM   28  N   UNL     1     -12.225   8.389  72.244  1.00  0.00    -0.372 NA 
HETATM   29  C   UNL     1     -13.187   9.327  72.398  1.00  0.00    -0.426 A  
HETATM   30  C   UNL     1     -13.192  10.546  71.738  1.00  0.00    -0.522 A  
HETATM   31  C   UNL     1     -12.148  10.824  70.862  1.00  0.00    -0.475 A  
HETATM   32  C   UNL     1     -11.133   9.885  70.693  1.00  0.00    -0.409 A  
ENDBRANCH  25  27
ENDBRANCH  22  25
ENDBRANCH  19  22
ENDBRANCH  14  16
ENDBRANCH  12  14
ENDBRANCH   6  12
TORSDOF 6
ENDMDL
MODEL       21
REMARK 921   NORMALIZED FREE ENERGY PREDICTED BY IDOCK:   -7.33 KCAL/MOL
REMARK 922        TOTAL FREE ENERGY PREDICTED BY IDOCK:  -10.43 KCAL/MOL
REMARK 923 INTER-LIGAND FREE ENERGY PREDICTED BY IDOCK:   -9.92 KCAL/MOL
REMARK 924 INTRA-LIGAND FREE ENERGY PREDICTED BY IDOCK:   -0.51 KCAL/MOL
REMARK 927      BINDING AFFINITY PREDICTED BY RF-SCORE:    0.00 PKD
ROOT
HETATM    1  O   UNL     1      -9.341   5.899  72.823  1.00  0.00    -0.146 OA 
HETATM    2  C   UNL     1      -9.488   7.241  72.861  1.00  0.00    -0.159 C  
HETATM    3  C   UNL     1     -10.787   7.734  72.330  1.00  0.00    -0.339 A  
HETATM    4  O   UNL     1      -8.607   7.994  73.245  1.00  0.00    -0.188 OA 
HETATM    5  C   UNL     1     -10.824   9.042  71.812  1.00  0.00    -0.437 A  
HETATM    6  C   UNL     1     -12.020   9.593  71.327  1.00  0.00    -0.380 A  
HETATM    7  C   UNL     1     -13.176   8.798  71.361  1.00  0.00    -0.290 A  
HETATM    8  O   UNL     1     -11.934   5.692  72.847  1.00  0.00    -0.541 OA 
HETATM    9  C   UNL     1     -11.959   6.972  72.357  1.00  0.00    -0.139 A  
HETATM   10  H   UNL     1     -12.730   5.174  72.865  1.00  0.00     0.000 HD 
HETATM   11  C   UNL     1     -13.154   7.498  71.875  1.00  0.00    -0.291 A  
ENDROOT
BRANCH   6  12
HETATM   12  N   UNL     1     -12.152  10.897  70.799  1.00  0.00    -0.350 NA 
HETATM   13  H   UNL     1     -13.015  11.440  70.851  1.00  0.00     0.000 HD 
BRANCH  12  14
HETATM   14  N   UNL     1     -11.106  11.319  70.264  1.00  0.00    -0.438 NA 
HETATM   15  H   UNL     1     -10.186  11.275  70.704  1.00  0.00     0.000 HD 
BRANCH  14  16
HETATM   16  C   UNL     1     -11.337  11.862  68.981  1.00  0.00    -0.279 A  
HETATM   17  C   UNL     1     -11.194  11.530  66.567  1.00  0.00    -0.324 A  
HETATM   18  C   UNL     1     -11.047  11.053  67.874  1.00  0.00    -0.347 A  
HETATM   19  C   UNL     1     -11.679  12.822  66.352  1.00  0.00    -0.403 A  
HETATM   20  C   UNL     1     -11.832  13.157  68.744  1.00  0.00    -0.361 A  
HETATM   21  C   UNL     1     -11.997  13.641  67.439  1.00  0.00    -0.413 A  
BRANCH  19  22
HETATM   22  S   UNL     1     -11.698  13.477  64.691  1.00  0.00    -0.401 S  
HETATM   23  O   UNL     1     -12.760  14.456  64.625  1.00  0.00    -0.655 OA 
HETATM   24  O   UNL     1     -11.689  12.335  63.797  1.00  0.00    -0.395 OA 
BRANCH  22  25
HETATM   25  N   UNL     1     -10.189  14.211  64.518  1.00  0.00    -0.630 N  
HETATM   26  H   UNL     1      -9.533  13.931  63.790  1.00  0.00     0.000 HD 
BRANCH  25  27
HETATM   27  C   UNL     1      -9.892  15.233  65.441  1.00  0.00    -0.283 A  
HETATM   28  N   UNL     1     -10.503  16.397  65.169  1.00  0.00    -0.657 NA 
HETATM   29  C   UNL     1     -10.318  17.391  66.068  1.00  0.00    -0.304 A  
HETATM   30  C   UNL     1      -9.529  17.271  67.201  1.00  0.00    -0.256 A  
HETATM   31  C   UNL     1      -8.886  16.059  67.431  1.00  0.00    -0.197 A  
HETATM   32  C   UNL     1      -9.070  15.010  66.532  1.00  0.00    -0.319 A  
ENDBRANCH  25  27
ENDBRANCH  22  25
ENDBRANCH  19  22
ENDBRANCH  14  16
ENDBRANCH  12  14
ENDBRANCH   6  12
TORSDOF 6
ENDMDL
MODEL       22
REMARK 921   NORMALIZED FREE ENERGY PREDICTED BY IDOCK:   -7.30 KCAL/MOL
REMARK 922        TOTAL FREE ENERGY PREDICTED BY IDOCK:  -10.39 KCAL/MOL
REMARK 923 INTER-LIGAND FREE ENERGY PREDICTED BY IDOCK:   -9.97 KCAL/MOL
REMARK 924 INTRA-LIGAND FREE ENERGY PREDICTED BY IDOCK:   -0.42 KCAL/MOL
REMARK 927      BINDING AFFINITY PREDICTED BY RF-SCORE:    0.00 PKD
ROOT
HETATM    1  O   UNL     1      -8.997  19.529  66.908  1.00  0.00    -0.299 OA 
HETATM    2  C   UNL     1      -9.618  18.778  67.843  1.00  0.00    -0.308 C  
HETATM    3  C   UNL     1      -9.911  17.383  67.418  1.00  0.00    -0.305 A  
HETATM    4  O   UNL     1      -9.963  19.221  68.927  1.00  0.00    -0.422 OA 
HETATM    5  C   UNL     1     -10.993  16.728  68.035  1.00  0.00    -0.296 A  
HETATM    6  C   UNL     1     -11.309  15.399  67.716  1.00  0.00    -0.306 A  
HETATM    7  C   UNL     1     -10.525  14.745  66.755  1.00  0.00    -0.282 A  
HETATM    8  O   UNL     1      -8.096  17.329  65.851  1.00  0.00    -0.529 OA 
HETATM    9  C   UNL     1      -9.144  16.699  66.469  1.00  0.00    -0.272 A  
HETATM   10  H   UNL     1      -7.575  16.865  65.207  1.00  0.00     0.000 HD 
HETATM   11  C   UNL     1      -9.446  15.382  66.134  1.00  0.00    -0.371 A  
ENDROOT
BRANCH   6  12
HETATM   12  N   UNL     1     -12.369  14.661  68.292  1.00  0.00    -0.593 NA 
HETATM   13  H   UNL     1     -13.117  14.233  67.746  1.00  0.00     0.000 HD 
BRANCH  12  14
HETATM   14  N   UNL     1     -12.297  14.586  69.536  1.00  0.00    -0.520 NA 
HETATM   15  H   UNL     1     -12.283  15.399  70.153  1.00  0.00     0.000 HD 
BRANCH  14  16
HETATM   16  C   UNL     1     -12.236  13.252  69.994  1.00  0.00    -0.275 A  
HETATM   17  C   UNL     1     -12.848  11.665  71.745  1.00  0.00    -0.418 A  
HETATM   18  C   UNL     1     -12.902  12.948  71.190  1.00  0.00    -0.326 A  
HETATM   19  C   UNL     1     -12.156  10.651  71.079  1.00  0.00    -0.368 A  
HETATM   20  C   UNL     1     -11.552  12.216  69.335  1.00  0.00    -0.381 A  
HETATM   21  C   UNL     1     -11.503  10.923  69.873  1.00  0.00    -0.402 A  
BRANCH  19  22
HETATM   22  S   UNL     1     -11.950   9.069  71.881  1.00  0.00    -0.373 S  
HETATM   23  O   UNL     1     -12.934   8.989  72.937  1.00  0.00    -0.328 OA 
HETATM   24  O   UNL     1     -10.536   8.936  72.176  1.00  0.00    -0.340 OA 
BRANCH  22  25
HETATM   25  N   UNL     1     -12.275   7.944  70.667  1.00  0.00    -0.501 N  
HETATM   26  H   UNL     1     -12.986   8.107  69.954  1.00  0.00     0.000 HD 
BRANCH  25  27
HETATM   27  C   UNL     1     -11.503   6.765  70.697  1.00  0.00    -0.351 A  
HETATM   28  N   UNL     1     -10.973   6.439  69.507  1.00  0.00    -0.322 NA 
HETATM   29  C   UNL     1     -10.156   5.362  69.494  1.00  0.00    -0.240 A  
HETATM   30  C   UNL     1      -9.876   4.591  70.612  1.00  0.00    -0.292 A  
HETATM   31  C   UNL     1     -10.471   4.941  71.820  1.00  0.00    -0.214 A  
HETATM   32  C   UNL     1     -11.304   6.056  71.869  1.00  0.00    -0.335 A  
ENDBRANCH  25  27
ENDBRANCH  22  25
ENDBRANCH  19  22
ENDBRANCH  14  16
ENDBRANCH  12  14
ENDBRANCH   6  12
TORSDOF 6
ENDMDL
MODEL       23
REMARK 921   NORMALIZED FREE ENERGY PREDICTED BY IDOCK:   -7.30 KCAL/MOL
REMARK 922        TOTAL FREE ENERGY PREDICTED BY IDOCK:  -10.39 KCAL/MOL
REMARK 923 INTER-LIGAND FREE ENERGY PREDICTED BY IDOCK:   -9.80 KCAL/MOL
REMARK 924 INTRA-LIGAND FREE ENERGY PREDICTED BY IDOCK:   -0.59 KCAL/MOL
REMARK 927      BINDING AFFINITY PREDICTED BY RF-SCORE:    0.00 PKD
ROOT
HETATM    1  O   UNL     1     -12.575  14.011  63.007  1.00  0.00    -0.643 OA 
HETATM    2  C   UNL     1     -12.380  13.485  64.236  1.00  0.00    -0.335 C  
HETATM    3  C   UNL     1     -11.290  14.128  65.017  1.00  0.00    -0.350 A  
HETATM    4  O   UNL     1     -13.007  12.523  64.652  1.00  0.00    -0.803 OA 
HETATM    5  C   UNL     1     -10.649  13.353  66.000  1.00  0.00    -0.290 A  
HETATM    6  C   UNL     1      -9.636  13.899  66.804  1.00  0.00    -0.283 A  
HETATM    7  C   UNL     1      -9.273  15.237  66.591  1.00  0.00    -0.302 A  
HETATM    8  O   UNL     1     -11.517  16.225  63.874  1.00  0.00    -1.484 OA 
HETATM    9  C   UNL     1     -10.909  15.462  64.836  1.00  0.00    -0.425 A  
HETATM   10  H   UNL     1     -11.259  17.131  63.751  1.00  0.00     0.000 HD 
HETATM   11  C   UNL     1      -9.903  16.021  65.620  1.00  0.00    -0.309 A  
ENDROOT
BRANCH   6  12
HETATM   12  N   UNL     1      -8.946  13.199  67.819  1.00  0.00    -0.183 NA 
HETATM   13  H   UNL     1      -7.936  13.056  67.816  1.00  0.00     0.000 HD 
BRANCH  12  14
HETATM   14  N   UNL     1      -9.698  12.773  68.721  1.00  0.00    -0.416 NA 
HETATM   15  H   UNL     1     -10.126  13.368  69.430  1.00  0.00     0.000 HD 
BRANCH  14  16
HETATM   16  C   UNL     1      -9.889  11.375  68.648  1.00  0.00    -0.193 A  
HETATM   17  C   UNL     1      -8.923   9.162  69.002  1.00  0.00    -0.143 A  
HETATM   18  C   UNL     1      -8.841  10.556  69.089  1.00  0.00    -0.161 A  
HETATM   19  C   UNL     1     -10.086   8.566  68.508  1.00  0.00    -0.194 A  
HETATM   20  C   UNL     1     -11.054  10.757  68.162  1.00  0.00    -0.337 A  
HETATM   21  C   UNL     1     -11.154   9.361  68.084  1.00  0.00    -0.000 A  
BRANCH  19  22
HETATM   22  S   UNL     1     -10.111   6.801  68.242  1.00  0.00    -0.171 S  
HETATM   23  O   UNL     1      -8.830   6.282  68.664  1.00  0.00    -0.120 OA 
HETATM   24  O   UNL     1     -10.582   6.594  66.885  1.00  0.00    -0.272 OA 
BRANCH  22  25
HETATM   25  N   UNL     1     -11.347   6.248  69.247  1.00  0.00    -0.531 N  
HETATM   26  H   UNL     1     -12.146   5.727  68.886  1.00  0.00     0.000 HD 
BRANCH  25  27
HETATM   27  C   UNL     1     -11.209   6.551  70.616  1.00  0.00    -0.329 A  
HETATM   28  N   UNL     1     -10.379   5.722  71.269  1.00  0.00    -0.215 NA 
HETATM   29  C   UNL     1     -10.146   6.015  72.569  1.00  0.00    -0.178 A  
HETATM   30  C   UNL     1     -10.728   7.080  73.238  1.00  0.00    -0.373 A  
HETATM   31  C   UNL     1     -11.608   7.897  72.536  1.00  0.00    -0.443 A  
HETATM   32  C   UNL     1     -11.857   7.631  71.191  1.00  0.00    -0.314 A  
ENDBRANCH  25  27
ENDBRANCH  22  25
ENDBRANCH  19  22
ENDBRANCH  14  16
ENDBRANCH  12  14
ENDBRANCH   6  12
TORSDOF 6
ENDMDL
MODEL       24
REMARK 921   NORMALIZED FREE ENERGY PREDICTED BY IDOCK:   -7.30 KCAL/MOL
REMARK 922        TOTAL FREE ENERGY PREDICTED BY IDOCK:  -10.38 KCAL/MOL
REMARK 923 INTER-LIGAND FREE ENERGY PREDICTED BY IDOCK:   -9.86 KCAL/MOL
REMARK 924 INTRA-LIGAND FREE ENERGY PREDICTED BY IDOCK:   -0.51 KCAL/MOL
REMARK 927      BINDING AFFINITY PREDICTED BY RF-SCORE:    0.00 PKD
ROOT
HETATM    1  O   UNL     1     -11.091   8.890  72.175  1.00  0.00    -0.362 OA 
HETATM    2  C   UNL     1     -11.950   9.663  71.476  1.00  0.00    -0.406 C  
HETATM    3  C   UNL     1     -11.503   9.990  70.096  1.00  0.00    -0.344 A  
HETATM    4  O   UNL     1     -12.982  10.106  71.955  1.00  0.00    -0.416 OA 
HETATM    5  C   UNL     1     -11.992  11.176  69.517  1.00  0.00    -0.425 A  
HETATM    6  C   UNL     1     -11.646  11.534  68.204  1.00  0.00    -0.308 A  
HETATM    7  C   UNL     1     -10.789  10.683  67.491  1.00  0.00    -0.351 A  
HETATM    8  O   UNL     1     -10.163   8.009  69.910  1.00  0.00    -0.195 OA 
HETATM    9  C   UNL     1     -10.657   9.160  69.354  1.00  0.00    -0.223 A  
HETATM   10  H   UNL     1      -9.589   7.445  69.406  1.00  0.00     0.000 HD 
HETATM   11  C   UNL     1     -10.297   9.501  68.053  1.00  0.00    -0.260 A  
ENDROOT
BRANCH   6  12
HETATM   12  N   UNL     1     -12.096  12.698  67.541  1.00  0.00    -0.416 NA 
HETATM   13  H   UNL     1     -12.324  12.725  66.547  1.00  0.00     0.000 HD 
BRANCH  12  14
HETATM   14  N   UNL     1     -12.187  13.689  68.295  1.00  0.00    -0.384 NA 
HETATM   15  H   UNL     1     -12.697  13.684  69.179  1.00  0.00     0.000 HD 
BRANCH  14  16
HETATM   16  C   UNL     1     -11.506  14.818  67.788  1.00  0.00    -0.345 A  
HETATM   17  C   UNL     1     -10.673  17.068  68.232  1.00  0.00    -0.372 A  
HETATM   18  C   UNL     1     -11.290  15.890  68.665  1.00  0.00    -0.376 A  
HETATM   19  C   UNL     1     -10.220  17.170  66.914  1.00  0.00    -0.315 A  
HETATM   20  C   UNL     1     -11.036  14.935  66.469  1.00  0.00    -0.341 A  
HETATM   21  C   UNL     1     -10.402  16.105  66.027  1.00  0.00    -0.372 A  
BRANCH  19  22
HETATM   22  S   UNL     1      -9.592  18.735  66.330  1.00  0.00    -0.315 S  
HETATM   23  O   UNL     1     -10.618  19.331  65.505  1.00  0.00    -0.520 OA 
HETATM   24  O   UNL     1      -8.269  18.475  65.794  1.00  0.00    -0.481 OA 
BRANCH  22  25
HETATM   25  N   UNL     1      -9.350  19.635  67.736  1.00  0.00    -0.327 N  
HETATM   26  H   UNL     1     -10.126  19.958  68.312  1.00  0.00     0.000 HD 
BRANCH  25  27
HETATM   27  C   UNL     1      -8.008  19.913  68.066  1.00  0.00    -0.279 A  
HETATM   28  N   UNL     1      -7.427  20.805  67.248  1.00  0.00    -0.351 NA 
HETATM   29  C   UNL     1      -6.164  21.170  67.566  1.00  0.00    -0.363 A  
HETATM   30  C   UNL     1      -5.460  20.659  68.645  1.00  0.00    -0.346 A  
HETATM   31  C   UNL     1      -6.085  19.712  69.450  1.00  0.00    -0.328 A  
HETATM   32  C   UNL     1      -7.392  19.327  69.158  1.00  0.00    -0.341 A  
ENDBRANCH  25  27
ENDBRANCH  22  25
ENDBRANCH  19  22
ENDBRANCH  14  16
ENDBRANCH  12  14
ENDBRANCH   6  12
TORSDOF 6
ENDMDL
MODEL       25
REMARK 921   NORMALIZED FREE ENERGY PREDICTED BY IDOCK:   -7.28 KCAL/MOL
REMARK 922        TOTAL FREE ENERGY PREDICTED BY IDOCK:  -10.36 KCAL/MOL
REMARK 923 INTER-LIGAND FREE ENERGY PREDICTED BY IDOCK:   -9.69 KCAL/MOL
REMARK 924 INTRA-LIGAND FREE ENERGY PREDICTED BY IDOCK:   -0.67 KCAL/MOL
REMARK 927      BINDING AFFINITY PREDICTED BY RF-SCORE:    0.00 PKD
ROOT
HETATM    1  O   UNL     1     -10.626   7.966  73.094  1.00  0.00    -0.359 OA 
HETATM    2  C   UNL     1     -11.486   8.481  72.189  1.00  0.00    -0.376 C  
HETATM    3  C   UNL     1     -10.930   8.612  70.815  1.00  0.00    -0.286 A  
HETATM    4  O   UNL     1     -12.608   8.863  72.483  1.00  0.00    -0.375 OA 
HETATM    5  C   UNL     1     -11.484   9.600  69.981  1.00  0.00    -0.191 A  
HETATM    6  C   UNL     1     -11.040   9.761  68.659  1.00  0.00    -0.093 A  
HETATM    7  C   UNL     1     -10.019   8.917  68.197  1.00  0.00    -0.208 A  
HETATM    8  O   UNL     1      -9.363   6.824  71.128  1.00  0.00    -0.159 OA 
HETATM    9  C   UNL     1      -9.919   7.782  70.321  1.00  0.00    -0.189 A  
HETATM   10  H   UNL     1      -8.676   6.260  70.792  1.00  0.00     0.000 HD 
HETATM   11  C   UNL     1      -9.461   7.929  69.015  1.00  0.00    -0.151 A  
ENDROOT
BRANCH   6  12
HETATM   12  N   UNL     1     -11.544  10.717  67.749  1.00  0.00    -0.637 NA 
HETATM   13  H   UNL     1     -11.427  10.648  66.738  1.00  0.00     0.000 HD 
BRANCH  12  14
HETATM   14  N   UNL     1     -12.148  11.657  68.308  1.00  0.00    -0.539 NA 
HETATM   15  H   UNL     1     -12.846  11.526  69.041  1.00  0.00     0.000 HD 
BRANCH  14  16
HETATM   16  C   UNL     1     -11.757  12.921  67.813  1.00  0.00    -0.362 A  
HETATM   17  C   UNL     1     -11.072  14.228  65.870  1.00  0.00    -0.310 A  
HETATM   18  C   UNL     1     -11.516  13.029  66.436  1.00  0.00    -0.384 A  
HETATM   19  C   UNL     1     -10.906  15.356  66.677  1.00  0.00    -0.302 A  
HETATM   20  C   UNL     1     -11.592  14.068  68.608  1.00  0.00    -0.360 A  
HETATM   21  C   UNL     1     -11.162  15.280  68.049  1.00  0.00    -0.330 A  
BRANCH  19  22
HETATM   22  S   UNL     1     -10.177  16.827  65.975  1.00  0.00    -0.317 S  
HETATM   23  O   UNL     1     -10.920  17.148  64.777  1.00  0.00    -0.898 OA 
HETATM   24  O   UNL     1      -8.747  16.592  65.917  1.00  0.00    -0.483 OA 
BRANCH  22  25
HETATM   25  N   UNL     1     -10.402  18.007  67.159  1.00  0.00    -0.362 N  
HETATM   26  H   UNL     1     -11.304  18.153  67.612  1.00  0.00     0.000 HD 
BRANCH  25  27
HETATM   27  C   UNL     1      -9.268  18.777  67.483  1.00  0.00    -0.283 A  
HETATM   28  N   UNL     1      -8.679  18.409  68.632  1.00  0.00    -0.310 NA 
HETATM   29  C   UNL     1      -7.539  19.062  68.952  1.00  0.00    -0.320 A  
HETATM   30  C   UNL     1      -6.988  20.078  68.186  1.00  0.00    -0.330 A  
HETATM   31  C   UNL     1      -7.646  20.453  67.020  1.00  0.00    -0.360 A  
HETATM   32  C   UNL     1      -8.814  19.788  66.654  1.00  0.00    -0.418 A  
ENDBRANCH  25  27
ENDBRANCH  22  25
ENDBRANCH  19  22
ENDBRANCH  14  16
ENDBRANCH  12  14
ENDBRANCH   6  12
TORSDOF 6
ENDMDL
MODEL       26
REMARK 921   NORMALIZED FREE ENERGY PREDICTED BY IDOCK:   -7.28 KCAL/MOL
REMARK 922        TOTAL FREE ENERGY PREDICTED BY IDOCK:  -10.35 KCAL/MOL
REMARK 923 INTER-LIGAND FREE ENERGY PREDICTED BY IDOCK:  -10.45 KCAL/MOL
REMARK 924 INTRA-LIGAND FREE ENERGY PREDICTED BY IDOCK:    0.10 KCAL/MOL
REMARK 927      BINDING AFFINITY PREDICTED BY RF-SCORE:    0.00 PKD
ROOT
HETATM    1  O   UNL     1      -9.691  11.144  63.213  1.00  0.00    -0.297 OA 
HETATM    2  C   UNL     1     -10.233  11.011  64.443  1.00  0.00    -0.346 C  
HETATM    3  C   UNL     1     -11.061  12.167  64.880  1.00  0.00    -0.367 A  
HETATM    4  O   UNL     1     -10.016  10.049  65.162  1.00  0.00    -0.323 OA 
HETATM    5  C   UNL     1     -11.189  12.390  66.263  1.00  0.00    -0.361 A  
HETATM    6  C   UNL     1     -11.984  13.437  66.755  1.00  0.00    -0.394 A  
HETATM    7  C   UNL     1     -12.637  14.263  65.828  1.00  0.00    -0.405 A  
HETATM    8  O   UNL     1     -11.607  12.805  62.633  1.00  0.00    -0.520 OA 
HETATM    9  C   UNL     1     -11.733  13.004  63.983  1.00  0.00    -0.436 A  
HETATM   10  H   UNL     1     -12.064  13.374  62.024  1.00  0.00     0.000 HD 
HETATM   11  C   UNL     1     -12.522  14.051  64.451  1.00  0.00    -0.326 A  
ENDROOT
BRANCH   6  12
HETATM   12  N   UNL     1     -12.177  13.729  68.124  1.00  0.00    -0.444 NA 
HETATM   13  H   UNL     1     -12.993  14.224  68.484  1.00  0.00     0.000 HD 
BRANCH  12  14
HETATM   14  N   UNL     1     -11.246  13.319  68.850  1.00  0.00    -0.265 NA 
HETATM   15  H   UNL     1     -10.298  13.693  68.820  1.00  0.00     0.000 HD 
BRANCH  14  16
HETATM   16  C   UNL     1     -11.655  12.280  69.716  1.00  0.00    -0.243 A  
HETATM   17  C   UNL     1     -11.412   9.935  70.346  1.00  0.00    -0.372 A  
HETATM   18  C   UNL     1     -11.031  11.034  69.569  1.00  0.00    -0.297 A  
HETATM   19  C   UNL     1     -12.402  10.086  71.320  1.00  0.00    -0.398 A  
HETATM   20  C   UNL     1     -12.643  12.414  70.706  1.00  0.00    -0.298 A  
HETATM   21  C   UNL     1     -13.023  11.325  71.502  1.00  0.00    -0.520 A  
BRANCH  19  22
HETATM   22  S   UNL     1     -12.998   8.641  72.184  1.00  0.00    -0.392 S  
HETATM   23  O   UNL     1     -14.307   8.959  72.705  1.00  0.00    -0.600 OA 
HETATM   24  O   UNL     1     -11.930   8.221  73.072  1.00  0.00    -0.265 OA 
BRANCH  22  25
HETATM   25  N   UNL     1     -13.095   7.455  70.989  1.00  0.00    -0.600 N  
HETATM   26  H   UNL     1     -13.908   7.367  70.380  1.00  0.00     0.000 HD 
BRANCH  25  27
HETATM   27  C   UNL     1     -11.985   6.595  70.883  1.00  0.00    -0.355 A  
HETATM   28  N   UNL     1     -11.649   6.005  72.042  1.00  0.00    -0.298 NA 
HETATM   29  C   UNL     1     -10.641   5.106  71.982  1.00  0.00    -0.200 A  
HETATM   30  C   UNL     1      -9.945   4.801  70.823  1.00  0.00    -0.291 A  
HETATM   31  C   UNL     1     -10.300   5.457  69.649  1.00  0.00    -0.361 A  
HETATM   32  C   UNL     1     -11.346   6.377  69.674  1.00  0.00    -0.479 A  
ENDBRANCH  25  27
ENDBRANCH  22  25
ENDBRANCH  19  22
ENDBRANCH  14  16
ENDBRANCH  12  14
ENDBRANCH   6  12
TORSDOF 6
ENDMDL
MODEL       27
REMARK 921   NORMALIZED FREE ENERGY PREDICTED BY IDOCK:   -7.19 KCAL/MOL
REMARK 922        TOTAL FREE ENERGY PREDICTED BY IDOCK:  -10.23 KCAL/MOL
REMARK 923 INTER-LIGAND FREE ENERGY PREDICTED BY IDOCK:   -9.54 KCAL/MOL
REMARK 924 INTRA-LIGAND FREE ENERGY PREDICTED BY IDOCK:   -0.70 KCAL/MOL
REMARK 927      BINDING AFFINITY PREDICTED BY RF-SCORE:    0.00 PKD
ROOT
HETATM    1  O   UNL     1     -13.542   9.944  72.230  1.00  0.00    -0.402 OA 
HETATM    2  C   UNL     1     -12.470  10.290  71.485  1.00  0.00    -0.422 C  
HETATM    3  C   UNL     1     -12.503  11.684  70.968  1.00  0.00    -0.436 A  
HETATM    4  O   UNL     1     -11.575   9.508  71.209  1.00  0.00    -0.314 OA 
HETATM    5  C   UNL     1     -11.787  11.958  69.787  1.00  0.00    -0.411 A  
HETATM    6  C   UNL     1     -11.738  13.257  69.257  1.00  0.00    -0.326 A  
HETATM    7  C   UNL     1     -12.433  14.272  69.930  1.00  0.00    -0.315 A  
HETATM    8  O   UNL     1     -13.889  12.467  72.762  1.00  0.00    -0.566 OA 
HETATM    9  C   UNL     1     -13.178  12.722  71.618  1.00  0.00    -0.317 A  
HETATM   10  H   UNL     1     -14.347  13.172  73.204  1.00  0.00     0.000 HD 
HETATM   11  C   UNL     1     -13.147  14.016  71.105  1.00  0.00    -0.373 A  
ENDROOT
BRANCH   6  12
HETATM   12  N   UNL     1     -11.039  13.624  68.085  1.00  0.00    -0.247 NA 
HETATM   13  H   UNL     1     -11.372  13.416  67.144  1.00  0.00     0.000 HD 
BRANCH  12  14
HETATM   14  N   UNL     1      -9.971  14.227  68.319  1.00  0.00    -0.232 NA 
HETATM   15  H   UNL     1      -9.143  13.782  68.716  1.00  0.00     0.000 HD 
BRANCH  14  16
HETATM   16  C   UNL     1     -10.036  15.595  67.972  1.00  0.00    -0.224 A  
HETATM   17  C   UNL     1     -10.185  17.239  66.174  1.00  0.00    -0.338 A  
HETATM   18  C   UNL     1     -10.168  15.911  66.613  1.00  0.00    -0.293 A  
HETATM   19  C   UNL     1     -10.114  18.277  67.107  1.00  0.00    -0.356 A  
HETATM   20  C   UNL     1      -9.974  16.653  68.895  1.00  0.00    -0.271 A  
HETATM   21  C   UNL     1     -10.005  17.988  68.470  1.00  0.00    -0.395 A  
BRANCH  19  22
HETATM   22  S   UNL     1      -9.963  19.958  66.525  1.00  0.00    -0.505 S  
HETATM   23  O   UNL     1     -10.082  20.826  67.675  1.00  0.00    -0.330 OA 
HETATM   24  O   UNL     1     -10.873  20.090  65.402  1.00  0.00    -0.363 OA 
BRANCH  22  25
HETATM   25  N   UNL     1      -8.411  20.033  65.871  1.00  0.00    -0.504 N  
HETATM   26  H   UNL     1      -8.250  20.168  64.873  1.00  0.00     0.000 HD 
BRANCH  25  27
HETATM   27  C   UNL     1      -7.349  19.897  66.787  1.00  0.00    -0.245 A  
HETATM   28  N   UNL     1      -7.059  21.031  67.445  1.00  0.00    -0.412 NA 
HETATM   29  C   UNL     1      -6.101  20.939  68.396  1.00  0.00    -0.323 A  
HETATM   30  C   UNL     1      -5.413  19.773  68.690  1.00  0.00    -0.230 A  
HETATM   31  C   UNL     1      -5.720  18.626  67.964  1.00  0.00    -0.180 A  
HETATM   32  C   UNL     1      -6.713  18.685  66.988  1.00  0.00    -0.205 A  
ENDBRANCH  25  27
ENDBRANCH  22  25
ENDBRANCH  19  22
ENDBRANCH  14  16
ENDBRANCH  12  14
ENDBRANCH   6  12
TORSDOF 6
ENDMDL
MODEL       28
REMARK 921   NORMALIZED FREE ENERGY PREDICTED BY IDOCK:   -7.19 KCAL/MOL
REMARK 922        TOTAL FREE ENERGY PREDICTED BY IDOCK:  -10.23 KCAL/MOL
REMARK 923 INTER-LIGAND FREE ENERGY PREDICTED BY IDOCK:   -9.45 KCAL/MOL
REMARK 924 INTRA-LIGAND FREE ENERGY PREDICTED BY IDOCK:   -0.78 KCAL/MOL
REMARK 927      BINDING AFFINITY PREDICTED BY RF-SCORE:    0.00 PKD
ROOT
HETATM    1  O   UNL     1      -9.188  17.764  65.706  1.00  0.00    -0.505 OA 
HETATM    2  C   UNL     1     -10.269  16.971  65.866  1.00  0.00    -0.296 C  
HETATM    3  C   UNL     1     -10.574  16.621  67.279  1.00  0.00    -0.281 A  
HETATM    4  O   UNL     1     -10.911  16.529  64.927  1.00  0.00    -0.684 OA 
HETATM    5  C   UNL     1     -11.268  15.421  67.518  1.00  0.00    -0.302 A  
HETATM    6  C   UNL     1     -11.626  15.040  68.820  1.00  0.00    -0.335 A  
HETATM    7  C   UNL     1     -11.260  15.884  69.880  1.00  0.00    -0.348 A  
HETATM    8  O   UNL     1      -9.545  18.609  68.141  1.00  0.00    -0.303 OA 
HETATM    9  C   UNL     1     -10.232  17.444  68.358  1.00  0.00    -0.362 A  
HETATM   10  H   UNL     1      -9.313  19.168  68.873  1.00  0.00     0.000 HD 
HETATM   11  C   UNL     1     -10.573  17.081  69.658  1.00  0.00    -0.087 A  
ENDROOT
BRANCH   6  12
HETATM   12  N   UNL     1     -12.329  13.860  69.151  1.00  0.00    -0.439 NA 
HETATM   13  H   UNL     1     -12.714  13.221  68.455  1.00  0.00     0.000 HD 
BRANCH  12  14
HETATM   14  N   UNL     1     -12.433  13.678  70.382  1.00  0.00    -0.318 NA 
HETATM   15  H   UNL     1     -12.525  14.434  71.061  1.00  0.00     0.000 HD 
BRANCH  14  16
HETATM   16  C   UNL     1     -12.408  12.309  70.730  1.00  0.00    -0.290 A  
HETATM   17  C   UNL     1     -11.498  10.097  70.246  1.00  0.00    -0.381 A  
HETATM   18  C   UNL     1     -11.546  11.474  70.006  1.00  0.00    -0.364 A  
HETATM   19  C   UNL     1     -12.289   9.542  71.255  1.00  0.00    -0.345 A  
HETATM   20  C   UNL     1     -13.190  11.734  71.747  1.00  0.00    -0.434 A  
HETATM   21  C   UNL     1     -13.139  10.357  72.007  1.00  0.00    -0.521 A  
BRANCH  19  22
HETATM   22  S   UNL     1     -12.347   7.766  71.435  1.00  0.00    -0.312 S  
HETATM   23  O   UNL     1     -11.370   7.208  70.528  1.00  0.00    -0.279 OA 
HETATM   24  O   UNL     1     -13.744   7.387  71.342  1.00  0.00    -0.383 OA 
BRANCH  22  25
HETATM   25  N   UNL     1     -11.903   7.498  73.040  1.00  0.00    -0.573 N  
HETATM   26  H   UNL     1     -12.588   7.478  73.795  1.00  0.00     0.000 HD 
BRANCH  25  27
HETATM   27  C   UNL     1     -10.527   7.304  73.274  1.00  0.00    -0.370 A  
HETATM   28  N   UNL     1     -10.211   6.041  73.605  1.00  0.00    -0.212 NA 
HETATM   29  C   UNL     1      -8.894   5.779  73.762  1.00  0.00    -0.127 A  
HETATM   30  C   UNL     1      -7.895   6.730  73.628  1.00  0.00    -0.101 A  
HETATM   31  C   UNL     1      -8.265   8.035  73.317  1.00  0.00    -0.254 A  
HETATM   32  C   UNL     1      -9.613   8.334  73.133  1.00  0.00    -0.240 A  
ENDBRANCH  25  27
ENDBRANCH  22  25
ENDBRANCH  19  22
ENDBRANCH  14  16
ENDBRANCH  12  14
ENDBRANCH   6  12
TORSDOF 6
ENDMDL
MODEL       29
REMARK 921   NORMALIZED FREE ENERGY PREDICTED BY IDOCK:   -7.14 KCAL/MOL
REMARK 922        TOTAL FREE ENERGY PREDICTED BY IDOCK:  -10.16 KCAL/MOL
REMARK 923 INTER-LIGAND FREE ENERGY PREDICTED BY IDOCK:   -9.49 KCAL/MOL
REMARK 924 INTRA-LIGAND FREE ENERGY PREDICTED BY IDOCK:   -0.67 KCAL/MOL
REMARK 927      BINDING AFFINITY PREDICTED BY RF-SCORE:    0.00 PKD
ROOT
HETATM    1  O   UNL     1     -13.156  12.281  63.510  1.00  0.00    -0.766 OA 
HETATM    2  C   UNL     1     -12.700  12.870  64.637  1.00  0.00    -0.330 C  
HETATM    3  C   UNL     1     -11.617  12.122  65.329  1.00  0.00    -0.376 A  
HETATM    4  O   UNL     1     -13.176  13.902  65.084  1.00  0.00    -0.768 OA 
HETATM    5  C   UNL     1     -11.476  12.315  66.716  1.00  0.00    -0.421 A  
HETATM    6  C   UNL     1     -10.454  11.675  67.434  1.00  0.00    -0.210 A  
HETATM    7  C   UNL     1      -9.586  10.825  66.732  1.00  0.00    -0.201 A  
HETATM    8  O   UNL     1     -10.864  11.067  63.311  1.00  0.00    -0.726 OA 
HETATM    9  C   UNL     1     -10.729  11.274  64.659  1.00  0.00    -0.303 A  
HETATM   10  H   UNL     1     -10.260  10.492  62.856  1.00  0.00     0.000 HD 
HETATM   11  C   UNL     1      -9.713  10.625  65.354  1.00  0.00    -0.306 A  
ENDROOT
BRANCH   6  12
HETATM   12  N   UNL     1     -10.232  11.818  68.822  1.00  0.00    -0.329 NA 
HETATM   13  H   UNL     1      -9.350  12.143  69.220  1.00  0.00     0.000 HD 
BRANCH  12  14
HETATM   14  N   UNL     1     -11.224  11.506  69.513  1.00  0.00    -0.367 NA 
HETATM   15  H   UNL     1     -12.117  11.998  69.476  1.00  0.00     0.000 HD 
BRANCH  14  16
HETATM   16  C   UNL     1     -10.972  10.398  70.352  1.00  0.00    -0.248 A  
HETATM   17  C   UNL     1      -9.389   8.667  71.026  1.00  0.00    -0.254 A  
HETATM   18  C   UNL     1      -9.706   9.802  70.272  1.00  0.00    -0.279 A  
HETATM   19  C   UNL     1     -10.333   8.136  71.909  1.00  0.00    -0.235 A  
HETATM   20  C   UNL     1     -11.905   9.855  71.252  1.00  0.00    -0.479 A  
HETATM   21  C   UNL     1     -11.595   8.726  72.023  1.00  0.00    -0.436 A  
BRANCH  19  22
HETATM   22  S   UNL     1      -9.979   6.593  72.733  1.00  0.00    -0.177 S  
HETATM   23  O   UNL     1     -10.610   6.642  74.032  1.00  0.00    -0.323 OA 
HETATM   24  O   UNL     1      -8.549   6.379  72.614  1.00  0.00    -0.123 OA 
BRANCH  22  25
HETATM   25  N   UNL     1     -10.702   5.425  71.754  1.00  0.00    -0.226 N  
HETATM   26  H   UNL     1     -11.297   4.691  72.138  1.00  0.00     0.000 HD 
BRANCH  25  27
HETATM   27  C   UNL     1     -10.435   5.527  70.375  1.00  0.00    -0.286 A  
HETATM   28  N   UNL     1      -9.333   4.862  69.990  1.00  0.00    -0.132 NA 
HETATM   29  C   UNL     1      -9.074   4.858  68.663  1.00  0.00    -0.113 A  
HETATM   30  C   UNL     1      -9.852   5.512  67.720  1.00  0.00    -0.164 A  
HETATM   31  C   UNL     1     -10.966   6.218  68.162  1.00  0.00    -0.412 A  
HETATM   32  C   UNL     1     -11.270   6.227  69.522  1.00  0.00    -0.500 A  
ENDBRANCH  25  27
ENDBRANCH  22  25
ENDBRANCH  19  22
ENDBRANCH  14  16
ENDBRANCH  12  14
ENDBRANCH   6  12
TORSDOF 6
ENDMDL
MODEL       30
REMARK 921   NORMALIZED FREE ENERGY PREDICTED BY IDOCK:   -7.14 KCAL/MOL
REMARK 922        TOTAL FREE ENERGY PREDICTED BY IDOCK:  -10.16 KCAL/MOL
REMARK 923 INTER-LIGAND FREE ENERGY PREDICTED BY IDOCK:   -9.30 KCAL/MOL
REMARK 924 INTRA-LIGAND FREE ENERGY PREDICTED BY IDOCK:   -0.86 KCAL/MOL
REMARK 927      BINDING AFFINITY PREDICTED BY RF-SCORE:    0.00 PKD
ROOT
HETATM    1  O   UNL     1      -8.839   7.086  72.491  1.00  0.00    -0.124 OA 
HETATM    2  C   UNL     1      -9.057   8.306  71.955  1.00  0.00    -0.202 C  
HETATM    3  C   UNL     1     -10.492   8.653  71.774  1.00  0.00    -0.394 A  
HETATM    4  O   UNL     1      -8.152   9.043  71.595  1.00  0.00    -0.329 OA 
HETATM    5  C   UNL     1     -10.815   9.579  70.765  1.00  0.00    -0.386 A  
HETATM    6  C   UNL     1     -12.142   9.986  70.556  1.00  0.00    -0.251 A  
HETATM    7  C   UNL     1     -13.139   9.434  71.374  1.00  0.00    -0.419 A  
HETATM    8  O   UNL     1     -11.210   7.217  73.555  1.00  0.00    -0.561 OA 
HETATM    9  C   UNL     1     -11.509   8.129  72.577  1.00  0.00    -0.404 A  
HETATM   10  H   UNL     1     -11.901   6.860  74.101  1.00  0.00     0.000 HD 
HETATM   11  C   UNL     1     -12.832   8.515  72.383  1.00  0.00    -0.373 A  
ENDROOT
BRANCH   6  12
HETATM   12  N   UNL     1     -12.556  10.915  69.576  1.00  0.00    -0.534 NA 
HETATM   13  H   UNL     1     -13.317  11.580  69.717  1.00  0.00     0.000 HD 
BRANCH  12  14
HETATM   14  N   UNL     1     -11.896  10.841  68.518  1.00  0.00    -0.718 NA 
HETATM   15  H   UNL     1     -11.604   9.961  68.093  1.00  0.00     0.000 HD 
BRANCH  14  16
HETATM   16  C   UNL     1     -11.598  12.111  67.976  1.00  0.00    -0.348 A  
HETATM   17  C   UNL     1     -10.887  13.378  66.016  1.00  0.00    -0.281 A  
HETATM   18  C   UNL     1     -11.250  12.170  66.620  1.00  0.00    -0.375 A  
HETATM   19  C   UNL     1     -10.912  14.560  66.760  1.00  0.00    -0.316 A  
HETATM   20  C   UNL     1     -11.625  13.312  68.707  1.00  0.00    -0.350 A  
HETATM   21  C   UNL     1     -11.278  14.531  68.108  1.00  0.00    -0.301 A  
BRANCH  19  22
HETATM   22  S   UNL     1     -10.283  16.062  66.026  1.00  0.00    -0.360 S  
HETATM   23  O   UNL     1     -10.634  17.152  66.907  1.00  0.00    -0.297 OA 
HETATM   24  O   UNL     1     -10.719  16.059  64.643  1.00  0.00    -0.601 OA 
BRANCH  22  25
HETATM   25  N   UNL     1      -8.613  15.834  65.983  1.00  0.00    -0.331 N  
HETATM   26  H   UNL     1      -8.082  15.889  65.114  1.00  0.00     0.000 HD 
BRANCH  25  27
HETATM   27  C   UNL     1      -7.996  15.562  67.221  1.00  0.00    -0.203 A  
HETATM   28  N   UNL     1      -8.063  16.584  68.090  1.00  0.00    -0.167 NA 
HETATM   29  C   UNL     1      -7.559  16.350  69.323  1.00  0.00    -0.180 A  
HETATM   30  C   UNL     1      -6.971  15.154  69.703  1.00  0.00    -0.192 A  
HETATM   31  C   UNL     1      -6.890  14.131  68.764  1.00  0.00    -0.101 A  
HETATM   32  C   UNL     1      -7.416  14.335  67.490  1.00  0.00    -0.201 A  
ENDBRANCH  25  27
ENDBRANCH  22  25
ENDBRANCH  19  22
ENDBRANCH  14  16
ENDBRANCH  12  14
ENDBRANCH   6  12
TORSDOF 6
ENDMDL
MODEL       31
REMARK 921   NORMALIZED FREE ENERGY PREDICTED BY IDOCK:   -7.11 KCAL/MOL
REMARK 922        TOTAL FREE ENERGY PREDICTED BY IDOCK:  -10.13 KCAL/MOL
REMARK 923 INTER-LIGAND FREE ENERGY PREDICTED BY IDOCK:   -9.48 KCAL/MOL
REMARK 924 INTRA-LIGAND FREE ENERGY PREDICTED BY IDOCK:   -0.65 KCAL/MOL
REMARK 927      BINDING AFFINITY PREDICTED BY RF-SCORE:    0.00 PKD
ROOT
HETATM    1  O   UNL     1      -9.577  17.695  65.635  1.00  0.00    -0.503 OA 
HETATM    2  C   UNL     1     -10.392  16.629  65.788  1.00  0.00    -0.321 C  
HETATM    3  C   UNL     1     -10.613  16.219  67.200  1.00  0.00    -0.291 A  
HETATM    4  O   UNL     1     -10.864  16.016  64.844  1.00  0.00    -0.534 OA 
HETATM    5  C   UNL     1     -10.943  14.873  67.443  1.00  0.00    -0.314 A  
HETATM    6  C   UNL     1     -11.204  14.417  68.745  1.00  0.00    -0.260 A  
HETATM    7  C   UNL     1     -11.113  15.338  69.799  1.00  0.00    -0.293 A  
HETATM    8  O   UNL     1     -10.206  18.424  68.052  1.00  0.00    -0.346 OA 
HETATM    9  C   UNL     1     -10.539  17.113  68.273  1.00  0.00    -0.375 A  
HETATM   10  H   UNL     1     -10.157  19.032  68.781  1.00  0.00     0.000 HD 
HETATM   11  C   UNL     1     -10.788  16.680  69.572  1.00  0.00    -0.285 A  
ENDROOT
BRANCH   6  12
HETATM   12  N   UNL     1     -11.551  13.089  69.080  1.00  0.00    -0.299 NA 
HETATM   13  H   UNL     1     -11.466  12.306  68.432  1.00  0.00     0.000 HD 
BRANCH  12  14
HETATM   14  N   UNL     1     -11.972  12.971  70.250  1.00  0.00    -0.490 NA 
HETATM   15  H   UNL     1     -12.214  13.761  70.847  1.00  0.00     0.000 HD 
BRANCH  14  16
HETATM   16  C   UNL     1     -12.077  11.621  70.652  1.00  0.00    -0.335 A  
HETATM   17  C   UNL     1     -11.233   9.345  70.401  1.00  0.00    -0.309 A  
HETATM   18  C   UNL     1     -11.167  10.709  70.100  1.00  0.00    -0.378 A  
HETATM   19  C   UNL     1     -12.195   8.880  71.301  1.00  0.00    -0.299 A  
HETATM   20  C   UNL     1     -13.032  11.136  71.562  1.00  0.00    -0.542 A  
HETATM   21  C   UNL     1     -13.100   9.772  71.883  1.00  0.00    -0.544 A  
BRANCH  19  22
HETATM   22  S   UNL     1     -12.380   7.120  71.542  1.00  0.00    -0.385 S  
HETATM   23  O   UNL     1     -11.752   6.462  70.419  1.00  0.00    -0.396 OA 
HETATM   24  O   UNL     1     -13.779   6.890  71.846  1.00  0.00    -0.269 OA 
BRANCH  22  25
HETATM   25  N   UNL     1     -11.541   6.808  72.972  1.00  0.00    -0.486 N  
HETATM   26  H   UNL     1     -11.596   7.430  73.778  1.00  0.00     0.000 HD 
BRANCH  25  27
HETATM   27  C   UNL     1     -10.760   5.635  72.984  1.00  0.00    -0.255 A  
HETATM   28  N   UNL     1      -9.463   5.851  72.715  1.00  0.00    -0.149 NA 
HETATM   29  C   UNL     1      -8.652   4.771  72.793  1.00  0.00    -0.114 A  
HETATM   30  C   UNL     1      -9.093   3.493  73.099  1.00  0.00    -0.110 A  
HETATM   31  C   UNL     1     -10.450   3.305  73.339  1.00  0.00    -0.262 A  
HETATM   32  C   UNL     1     -11.309   4.400  73.283  1.00  0.00    -0.334 A  
ENDBRANCH  25  27
ENDBRANCH  22  25
ENDBRANCH  19  22
ENDBRANCH  14  16
ENDBRANCH  12  14
ENDBRANCH   6  12
TORSDOF 6
ENDMDL
MODEL       32
REMARK 921   NORMALIZED FREE ENERGY PREDICTED BY IDOCK:   -7.09 KCAL/MOL
REMARK 922        TOTAL FREE ENERGY PREDICTED BY IDOCK:  -10.10 KCAL/MOL
REMARK 923 INTER-LIGAND FREE ENERGY PREDICTED BY IDOCK:   -9.09 KCAL/MOL
REMARK 924 INTRA-LIGAND FREE ENERGY PREDICTED BY IDOCK:   -1.01 KCAL/MOL
REMARK 927      BINDING AFFINITY PREDICTED BY RF-SCORE:    0.00 PKD
ROOT
HETATM    1  O   UNL     1     -14.121   9.295  73.029  1.00  0.00    -0.370 OA 
HETATM    2  C   UNL     1     -13.333   9.948  72.148  1.00  0.00    -0.399 C  
HETATM    3  C   UNL     1     -12.276   9.108  71.525  1.00  0.00    -0.422 A  
HETATM    4  O   UNL     1     -13.439  11.143  71.924  1.00  0.00    -0.345 OA 
HETATM    5  C   UNL     1     -11.113   9.756  71.070  1.00  0.00    -0.431 A  
HETATM    6  C   UNL     1     -10.087   9.038  70.436  1.00  0.00    -0.207 A  
HETATM    7  C   UNL     1     -10.248   7.653  70.281  1.00  0.00    -0.205 A  
HETATM    8  O   UNL     1     -13.530   7.082  71.797  1.00  0.00    -0.454 OA 
HETATM    9  C   UNL     1     -12.408   7.727  71.347  1.00  0.00    -0.323 A  
HETATM   10  H   UNL     1     -13.620   6.143  71.675  1.00  0.00     0.000 HD 
HETATM   11  C   UNL     1     -11.399   6.996  70.727  1.00  0.00    -0.339 A  
ENDROOT
BRANCH   6  12
HETATM   12  N   UNL     1      -8.891   9.606  69.941  1.00  0.00    -0.205 NA 
HETATM   13  H   UNL     1      -8.226  10.112  70.525  1.00  0.00     0.000 HD 
BRANCH  12  14
HETATM   14  N   UNL     1      -8.732   9.425  68.716  1.00  0.00    -0.130 NA 
HETATM   15  H   UNL     1      -8.304   8.588  68.317  1.00  0.00     0.000 HD 
BRANCH  14  16
HETATM   16  C   UNL     1      -9.211  10.506  67.943  1.00  0.00    -0.140 A  
HETATM   17  C   UNL     1      -9.140  12.911  67.535  1.00  0.00    -0.191 A  
HETATM   18  C   UNL     1      -8.684  11.776  68.213  1.00  0.00    -0.167 A  
HETATM   19  C   UNL     1     -10.109  12.778  66.537  1.00  0.00    -0.258 A  
HETATM   20  C   UNL     1     -10.179  10.391  66.930  1.00  0.00    -0.281 A  
HETATM   21  C   UNL     1     -10.634  11.519  66.233  1.00  0.00    -0.309 A  
BRANCH  19  22
HETATM   22  S   UNL     1     -10.806  14.249  65.801  1.00  0.00    -0.316 S  
HETATM   23  O   UNL     1     -11.900  14.676  66.643  1.00  0.00    -0.375 OA 
HETATM   24  O   UNL     1     -11.026  13.945  64.400  1.00  0.00    -0.382 OA 
BRANCH  22  25
HETATM   25  N   UNL     1      -9.544  15.367  65.837  1.00  0.00    -0.343 N  
HETATM   26  H   UNL     1      -8.618  15.149  65.469  1.00  0.00     0.000 HD 
BRANCH  25  27
HETATM   27  C   UNL     1      -9.848  16.620  66.404  1.00  0.00    -0.292 A  
HETATM   28  N   UNL     1     -10.262  17.530  65.508  1.00  0.00    -0.612 NA 
HETATM   29  C   UNL     1     -10.645  18.727  66.008  1.00  0.00    -0.386 A  
HETATM   30  C   UNL     1     -10.602  19.052  67.355  1.00  0.00    -0.559 A  
HETATM   31  C   UNL     1     -10.135  18.093  68.248  1.00  0.00    -0.398 A  
HETATM   32  C   UNL     1      -9.749  16.845  67.766  1.00  0.00    -0.250 A  
ENDBRANCH  25  27
ENDBRANCH  22  25
ENDBRANCH  19  22
ENDBRANCH  14  16
ENDBRANCH  12  14
ENDBRANCH   6  12
TORSDOF 6
ENDMDL
MODEL       33
REMARK 921   NORMALIZED FREE ENERGY PREDICTED BY IDOCK:   -7.07 KCAL/MOL
REMARK 922        TOTAL FREE ENERGY PREDICTED BY IDOCK:  -10.07 KCAL/MOL
REMARK 923 INTER-LIGAND FREE ENERGY PREDICTED BY IDOCK:   -9.35 KCAL/MOL
REMARK 924 INTRA-LIGAND FREE ENERGY PREDICTED BY IDOCK:   -0.72 KCAL/MOL
REMARK 927      BINDING AFFINITY PREDICTED BY RF-SCORE:    0.00 PKD
ROOT
HETATM    1  O   UNL     1     -12.243  16.079  63.711  1.00  0.00    -0.895 OA 
HETATM    2  C   UNL     1     -12.022  15.050  64.558  1.00  0.00    -0.371 C  
HETATM    3  C   UNL     1     -10.762  15.156  65.342  1.00  0.00    -0.396 A  
HETATM    4  O   UNL     1     -12.763  14.083  64.633  1.00  0.00    -0.648 OA 
HETATM    5  C   UNL     1     -10.172  13.960  65.791  1.00  0.00    -0.331 A  
HETATM    6  C   UNL     1      -9.004  13.979  66.569  1.00  0.00    -0.092 A  
HETATM    7  C   UNL     1      -8.434  15.224  66.875  1.00  0.00    -0.286 A  
HETATM    8  O   UNL     1     -10.730  17.552  65.231  1.00  0.00    -0.656 OA 
HETATM    9  C   UNL     1     -10.172  16.380  65.673  1.00  0.00    -0.324 A  
HETATM   10  H   UNL     1     -10.329  18.384  65.456  1.00  0.00     0.000 HD 
HETATM   11  C   UNL     1      -9.010  16.420  66.438  1.00  0.00    -0.340 A  
ENDROOT
BRANCH   6  12
HETATM   12  N   UNL     1      -8.350  12.831  67.070  1.00  0.00    -0.322 NA 
HETATM   13  H   UNL     1      -7.863  12.808  67.966  1.00  0.00     0.000 HD 
BRANCH  12  14
HETATM   14  N   UNL     1      -8.428  11.848  66.304  1.00  0.00    -0.385 NA 
HETATM   15  H   UNL     1      -8.185  11.880  65.314  1.00  0.00     0.000 HD 
BRANCH  14  16
HETATM   16  C   UNL     1      -8.890  10.686  66.962  1.00  0.00    -0.137 A  
HETATM   17  C   UNL     1      -8.398   8.923  68.576  1.00  0.00    -0.125 A  
HETATM   18  C   UNL     1      -8.045  10.105  67.917  1.00  0.00    -0.109 A  
HETATM   19  C   UNL     1      -9.635   8.327  68.315  1.00  0.00    -0.147 A  
HETATM   20  C   UNL     1     -10.133  10.077  66.719  1.00  0.00    -0.286 A  
HETATM   21  C   UNL     1     -10.505   8.900  67.384  1.00  0.00    -0.347 A  
BRANCH  19  22
HETATM   22  S   UNL     1      -9.999   6.733  69.032  1.00  0.00    -0.160 S  
HETATM   23  O   UNL     1      -8.832   5.900  68.848  1.00  0.00    -0.115 OA 
HETATM   24  O   UNL     1     -11.288   6.328  68.504  1.00  0.00    -0.324 OA 
BRANCH  22  25
HETATM   25  N   UNL     1     -10.254   7.062  70.666  1.00  0.00    -0.191 N  
HETATM   26  H   UNL     1      -9.610   6.743  71.389  1.00  0.00     0.000 HD 
BRANCH  25  27
HETATM   27  C   UNL     1     -11.412   7.805  70.971  1.00  0.00    -0.281 A  
HETATM   28  N   UNL     1     -12.482   7.043  71.249  1.00  0.00    -0.382 NA 
HETATM   29  C   UNL     1     -13.600   7.703  71.628  1.00  0.00    -0.364 A  
HETATM   30  C   UNL     1     -13.693   9.084  71.711  1.00  0.00    -0.474 A  
HETATM   31  C   UNL     1     -12.572   9.839  71.383  1.00  0.00    -0.482 A  
HETATM   32  C   UNL     1     -11.400   9.189  71.005  1.00  0.00    -0.377 A  
ENDBRANCH  25  27
ENDBRANCH  22  25
ENDBRANCH  19  22
ENDBRANCH  14  16
ENDBRANCH  12  14
ENDBRANCH   6  12
TORSDOF 6
ENDMDL
MODEL       34
REMARK 921   NORMALIZED FREE ENERGY PREDICTED BY IDOCK:   -7.07 KCAL/MOL
REMARK 922        TOTAL FREE ENERGY PREDICTED BY IDOCK:  -10.07 KCAL/MOL
REMARK 923 INTER-LIGAND FREE ENERGY PREDICTED BY IDOCK:   -8.87 KCAL/MOL
REMARK 924 INTRA-LIGAND FREE ENERGY PREDICTED BY IDOCK:   -1.20 KCAL/MOL
REMARK 927      BINDING AFFINITY PREDICTED BY RF-SCORE:    0.00 PKD
ROOT
HETATM    1  O   UNL     1     -14.161   9.214  73.032  1.00  0.00    -0.429 OA 
HETATM    2  C   UNL     1     -13.332   9.747  72.108  1.00  0.00    -0.431 C  
HETATM    3  C   UNL     1     -12.323   8.800  71.565  1.00  0.00    -0.380 A  
HETATM    4  O   UNL     1     -13.369  10.924  71.786  1.00  0.00    -0.391 OA 
HETATM    5  C   UNL     1     -11.122   9.341  71.070  1.00  0.00    -0.396 A  
HETATM    6  C   UNL     1     -10.137   8.515  70.506  1.00  0.00    -0.192 A  
HETATM    7  C   UNL     1     -10.377   7.134  70.462  1.00  0.00    -0.215 A  
HETATM    8  O   UNL     1     -13.694   6.878  71.988  1.00  0.00    -0.538 OA 
HETATM    9  C   UNL     1     -12.534   7.419  71.498  1.00  0.00    -0.361 A  
HETATM   10  H   UNL     1     -13.838   5.940  71.942  1.00  0.00     0.000 HD 
HETATM   11  C   UNL     1     -11.567   6.583  70.948  1.00  0.00    -0.417 A  
ENDROOT
BRANCH   6  12
HETATM   12  N   UNL     1      -8.908   8.972  69.977  1.00  0.00    -0.159 NA 
HETATM   13  H   UNL     1      -8.148   9.332  70.554  1.00  0.00     0.000 HD 
BRANCH  12  14
HETATM   14  N   UNL     1      -8.848   8.889  68.733  1.00  0.00    -0.137 NA 
HETATM   15  H   UNL     1      -8.548   8.052  68.234  1.00  0.00     0.000 HD 
BRANCH  14  16
HETATM   16  C   UNL     1      -9.242  10.086  68.093  1.00  0.00    -0.128 A  
HETATM   17  C   UNL     1      -8.816  12.468  67.779  1.00  0.00    -0.178 A  
HETATM   18  C   UNL     1      -8.467  11.230  68.327  1.00  0.00    -0.152 A  
HETATM   19  C   UNL     1      -9.933  12.566  66.944  1.00  0.00    -0.224 A  
HETATM   20  C   UNL     1     -10.357  10.202  67.244  1.00  0.00    -0.291 A  
HETATM   21  C   UNL     1     -10.708  11.435  66.676  1.00  0.00    -0.316 A  
BRANCH  19  22
HETATM   22  S   UNL     1     -10.465  14.178  66.392  1.00  0.00    -0.288 S  
HETATM   23  O   UNL     1     -10.663  14.101  64.962  1.00  0.00    -0.364 OA 
HETATM   24  O   UNL     1      -9.537  15.137  66.960  1.00  0.00    -0.217 OA 
BRANCH  22  25
HETATM   25  N   UNL     1     -11.930  14.427  67.191  1.00  0.00    -0.475 N  
HETATM   26  H   UNL     1     -12.822  14.427  66.698  1.00  0.00     0.000 HD 
BRANCH  25  27
HETATM   27  C   UNL     1     -11.844  14.634  68.582  1.00  0.00    -0.311 A  
HETATM   28  N   UNL     1     -11.549  15.899  68.920  1.00  0.00    -0.389 NA 
HETATM   29  C   UNL     1     -11.534  16.173  70.245  1.00  0.00    -0.308 A  
HETATM   30  C   UNL     1     -11.774  15.231  71.232  1.00  0.00    -0.425 A  
HETATM   31  C   UNL     1     -12.044  13.923  70.842  1.00  0.00    -0.391 A  
HETATM   32  C   UNL     1     -12.083  13.612  69.485  1.00  0.00    -0.368 A  
ENDBRANCH  25  27
ENDBRANCH  22  25
ENDBRANCH  19  22
ENDBRANCH  14  16
ENDBRANCH  12  14
ENDBRANCH   6  12
TORSDOF 6
ENDMDL
MODEL       35
REMARK 921   NORMALIZED FREE ENERGY PREDICTED BY IDOCK:   -7.07 KCAL/MOL
REMARK 922        TOTAL FREE ENERGY PREDICTED BY IDOCK:  -10.07 KCAL/MOL
REMARK 923 INTER-LIGAND FREE ENERGY PREDICTED BY IDOCK:   -9.67 KCAL/MOL
REMARK 924 INTRA-LIGAND FREE ENERGY PREDICTED BY IDOCK:   -0.40 KCAL/MOL
REMARK 927      BINDING AFFINITY PREDICTED BY RF-SCORE:    0.00 PKD
ROOT
HETATM    1  O   UNL     1      -6.034   9.010  63.607  1.00  0.00    -0.079 OA 
HETATM    2  C   UNL     1      -6.823  10.050  63.261  1.00  0.00    -0.131 C  
HETATM    3  C   UNL     1      -8.087  10.151  64.038  1.00  0.00    -0.158 A  
HETATM    4  O   UNL     1      -6.551  10.812  62.347  1.00  0.00    -0.137 OA 
HETATM    5  C   UNL     1      -9.179  10.792  63.425  1.00  0.00    -0.283 A  
HETATM    6  C   UNL     1     -10.394  10.961  64.108  1.00  0.00    -0.364 A  
HETATM    7  C   UNL     1     -10.493  10.460  65.414  1.00  0.00    -0.187 A  
HETATM    8  O   UNL     1      -7.166   9.032  65.949  1.00  0.00    -0.090 OA 
HETATM    9  C   UNL     1      -8.218   9.670  65.345  1.00  0.00    -0.128 A  
HETATM   10  H   UNL     1      -7.254   8.706  66.837  1.00  0.00     0.000 HD 
HETATM   11  C   UNL     1      -9.416   9.822  66.037  1.00  0.00    -0.269 A  
ENDROOT
BRANCH   6  12
HETATM   12  N   UNL     1     -11.537  11.599  63.575  1.00  0.00    -0.696 NA 
HETATM   13  H   UNL     1     -12.383  11.100  63.301  1.00  0.00     0.000 HD 
BRANCH  12  14
HETATM   14  N   UNL     1     -11.406  12.837  63.474  1.00  0.00    -0.571 NA 
HETATM   15  H   UNL     1     -11.425  13.338  62.586  1.00  0.00     0.000 HD 
BRANCH  14  16
HETATM   16  C   UNL     1     -11.229  13.465  64.727  1.00  0.00    -0.345 A  
HETATM   17  C   UNL     1     -12.239  14.081  66.862  1.00  0.00    -0.415 A  
HETATM   18  C   UNL     1     -12.307  13.437  65.622  1.00  0.00    -0.521 A  
HETATM   19  C   UNL     1     -11.061  14.731  67.241  1.00  0.00    -0.332 A  
HETATM   20  C   UNL     1     -10.050  14.117  65.129  1.00  0.00    -0.348 A  
HETATM   21  C   UNL     1      -9.964  14.754  66.375  1.00  0.00    -0.291 A  
BRANCH  19  22
HETATM   22  S   UNL     1     -11.045  15.692  68.746  1.00  0.00    -0.330 S  
HETATM   23  O   UNL     1     -10.894  17.079  68.370  1.00  0.00    -0.367 OA 
HETATM   24  O   UNL     1     -10.088  15.057  69.631  1.00  0.00    -0.199 OA 
BRANCH  22  25
HETATM   25  N   UNL     1     -12.561  15.414  69.431  1.00  0.00    -0.596 N  
HETATM   26  H   UNL     1     -13.411  15.385  68.869  1.00  0.00     0.000 HD 
BRANCH  25  27
HETATM   27  C   UNL     1     -12.579  15.223  70.827  1.00  0.00    -0.417 A  
HETATM   28  N   UNL     1     -12.200  16.306  71.523  1.00  0.00    -0.296 NA 
HETATM   29  C   UNL     1     -12.277  16.206  72.869  1.00  0.00    -0.541 A  
HETATM   30  C   UNL     1     -12.688  15.063  73.537  1.00  0.00    -0.667 A  
HETATM   31  C   UNL     1     -13.042  13.950  72.781  1.00  0.00    -0.484 A  
HETATM   32  C   UNL     1     -12.989  14.027  71.391  1.00  0.00    -0.427 A  
ENDBRANCH  25  27
ENDBRANCH  22  25
ENDBRANCH  19  22
ENDBRANCH  14  16
ENDBRANCH  12  14
ENDBRANCH   6  12
TORSDOF 6
ENDMDL
MODEL       36
REMARK 921   NORMALIZED FREE ENERGY PREDICTED BY IDOCK:   -7.05 KCAL/MOL
REMARK 922        TOTAL FREE ENERGY PREDICTED BY IDOCK:  -10.04 KCAL/MOL
REMARK 923 INTER-LIGAND FREE ENERGY PREDICTED BY IDOCK:   -9.17 KCAL/MOL
REMARK 924 INTRA-LIGAND FREE ENERGY PREDICTED BY IDOCK:   -0.87 KCAL/MOL
REMARK 927      BINDING AFFINITY PREDICTED BY RF-SCORE:    0.00 PKD
ROOT
HETATM    1  O   UNL     1     -14.041  15.737  72.527  1.00  0.00    -0.554 OA 
HETATM    2  C   UNL     1     -13.659  14.474  72.239  1.00  0.00    -0.440 C  
HETATM    3  C   UNL     1     -12.668  14.366  71.136  1.00  0.00    -0.422 A  
HETATM    4  O   UNL     1     -14.129  13.496  72.798  1.00  0.00    -0.719 OA 
HETATM    5  C   UNL     1     -12.635  13.164  70.405  1.00  0.00    -0.186 A  
HETATM    6  C   UNL     1     -11.703  12.971  69.374  1.00  0.00    -0.326 A  
HETATM    7  C   UNL     1     -10.813  14.015  69.083  1.00  0.00    -0.235 A  
HETATM    8  O   UNL     1     -11.790  16.565  71.520  1.00  0.00    -0.655 OA 
HETATM    9  C   UNL     1     -11.760  15.384  70.825  1.00  0.00    -0.348 A  
HETATM   10  H   UNL     1     -11.173  17.256  71.310  1.00  0.00     0.000 HD 
HETATM   11  C   UNL     1     -10.832  15.215  69.802  1.00  0.00    -0.298 A  
ENDROOT
BRANCH   6  12
HETATM   12  N   UNL     1     -11.592  11.796  68.596  1.00  0.00    -0.283 NA 
HETATM   13  H   UNL     1     -11.043  11.740  67.738  1.00  0.00     0.000 HD 
BRANCH  12  14
HETATM   14  N   UNL     1     -12.234  10.833  69.066  1.00  0.00    -0.761 NA 
HETATM   15  H   UNL     1     -13.203  10.626  68.825  1.00  0.00     0.000 HD 
BRANCH  14  16
HETATM   16  C   UNL     1     -11.467  10.062  69.968  1.00  0.00    -0.248 A  
HETATM   17  C   UNL     1     -11.448   8.751  72.027  1.00  0.00    -0.441 A  
HETATM   18  C   UNL     1     -12.137   9.484  71.055  1.00  0.00    -0.398 A  
HETATM   19  C   UNL     1     -10.071   8.550  71.896  1.00  0.00    -0.297 A  
HETATM   20  C   UNL     1     -10.084   9.843  69.849  1.00  0.00    -0.297 A  
HETATM   21  C   UNL     1      -9.384   9.097  70.808  1.00  0.00    -0.325 A  
BRANCH  19  22
HETATM   22  S   UNL     1      -9.178   7.764  73.226  1.00  0.00    -0.278 S  
HETATM   23  O   UNL     1     -10.129   6.982  73.982  1.00  0.00    -0.328 OA 
HETATM   24  O   UNL     1      -8.397   8.803  73.870  1.00  0.00    -0.306 OA 
BRANCH  22  25
HETATM   25  N   UNL     1      -8.063   6.768  72.445  1.00  0.00    -0.102 N  
HETATM   26  H   UNL     1      -7.139   7.102  72.170  1.00  0.00     0.000 HD 
BRANCH  25  27
HETATM   27  C   UNL     1      -8.486   5.448  72.194  1.00  0.00    -0.126 A  
HETATM   28  N   UNL     1      -8.082   4.568  73.125  1.00  0.00    -0.095 NA 
HETATM   29  C   UNL     1      -8.527   3.300  72.978  1.00  0.00    -0.081 A  
HETATM   30  C   UNL     1      -9.332   2.879  71.930  1.00  0.00    -0.190 A  
HETATM   31  C   UNL     1      -9.703   3.813  70.969  1.00  0.00    -0.248 A  
HETATM   32  C   UNL     1      -9.274   5.132  71.100  1.00  0.00    -0.183 A  
ENDBRANCH  25  27
ENDBRANCH  22  25
ENDBRANCH  19  22
ENDBRANCH  14  16
ENDBRANCH  12  14
ENDBRANCH   6  12
TORSDOF 6
ENDMDL
MODEL       37
REMARK 921   NORMALIZED FREE ENERGY PREDICTED BY IDOCK:   -7.02 KCAL/MOL
REMARK 922        TOTAL FREE ENERGY PREDICTED BY IDOCK:  -10.00 KCAL/MOL
REMARK 923 INTER-LIGAND FREE ENERGY PREDICTED BY IDOCK:   -9.41 KCAL/MOL
REMARK 924 INTRA-LIGAND FREE ENERGY PREDICTED BY IDOCK:   -0.59 KCAL/MOL
REMARK 927      BINDING AFFINITY PREDICTED BY RF-SCORE:    0.00 PKD
ROOT
HETATM    1  O   UNL     1      -9.465   3.532  68.786  1.00  0.00    -0.164 OA 
HETATM    2  C   UNL     1      -9.995   4.765  68.640  1.00  0.00    -0.099 C  
HETATM    3  C   UNL     1     -10.445   5.398  69.908  1.00  0.00    -0.378 A  
HETATM    4  O   UNL     1     -10.147   5.296  67.551  1.00  0.00    -0.163 OA 
HETATM    5  C   UNL     1     -11.468   6.360  69.829  1.00  0.00    -0.468 A  
HETATM    6  C   UNL     1     -11.921   7.030  70.977  1.00  0.00    -0.361 A  
HETATM    7  C   UNL     1     -11.333   6.702  72.208  1.00  0.00    -0.311 A  
HETATM    8  O   UNL     1      -8.886   4.157  71.244  1.00  0.00    -0.101 OA 
HETATM    9  C   UNL     1      -9.875   5.102  71.151  1.00  0.00    -0.186 A  
HETATM   10  H   UNL     1      -8.498   3.957  72.087  1.00  0.00     0.000 HD 
HETATM   11  C   UNL     1     -10.314   5.750  72.302  1.00  0.00    -0.244 A  
ENDROOT
BRANCH   6  12
HETATM   12  N   UNL     1     -12.935   8.014  70.989  1.00  0.00    -0.522 NA 
HETATM   13  H   UNL     1     -13.741   7.999  70.365  1.00  0.00     0.000 HD 
BRANCH  12  14
HETATM   14  N   UNL     1     -12.744   8.905  71.843  1.00  0.00    -0.350 NA 
HETATM   15  H   UNL     1     -12.728   8.733  72.849  1.00  0.00     0.000 HD 
BRANCH  14  16
HETATM   16  C   UNL     1     -12.551  10.178  71.262  1.00  0.00    -0.404 A  
HETATM   17  C   UNL     1     -11.546  11.461  69.445  1.00  0.00    -0.391 A  
HETATM   18  C   UNL     1     -11.831  10.238  70.061  1.00  0.00    -0.305 A  
HETATM   19  C   UNL     1     -12.023  12.648  70.008  1.00  0.00    -0.306 A  
HETATM   20  C   UNL     1     -13.030  11.382  71.809  1.00  0.00    -0.519 A  
HETATM   21  C   UNL     1     -12.764  12.613  71.193  1.00  0.00    -0.347 A  
BRANCH  19  22
HETATM   22  S   UNL     1     -11.509  14.208  69.310  1.00  0.00    -0.309 S  
HETATM   23  O   UNL     1     -10.125  14.070  68.915  1.00  0.00    -0.213 OA 
HETATM   24  O   UNL     1     -11.910  15.235  70.253  1.00  0.00    -0.270 OA 
BRANCH  22  25
HETATM   25  N   UNL     1     -12.504  14.407  67.962  1.00  0.00    -0.529 N  
HETATM   26  H   UNL     1     -13.444  14.795  68.037  1.00  0.00     0.000 HD 
BRANCH  25  27
HETATM   27  C   UNL     1     -11.956  14.004  66.728  1.00  0.00    -0.444 A  
HETATM   28  N   UNL     1     -12.193  12.717  66.429  1.00  0.00    -0.543 NA 
HETATM   29  C   UNL     1     -11.760  12.298  65.218  1.00  0.00    -0.361 A  
HETATM   30  C   UNL     1     -11.082  13.104  64.318  1.00  0.00    -0.426 A  
HETATM   31  C   UNL     1     -10.827  14.424  64.678  1.00  0.00    -0.363 A  
HETATM   32  C   UNL     1     -11.274  14.890  65.912  1.00  0.00    -0.328 A  
ENDBRANCH  25  27
ENDBRANCH  22  25
ENDBRANCH  19  22
ENDBRANCH  14  16
ENDBRANCH  12  14
ENDBRANCH   6  12
TORSDOF 6
ENDMDL
MODEL       38
REMARK 921   NORMALIZED FREE ENERGY PREDICTED BY IDOCK:   -7.01 KCAL/MOL
REMARK 922        TOTAL FREE ENERGY PREDICTED BY IDOCK:  -10.00 KCAL/MOL
REMARK 923 INTER-LIGAND FREE ENERGY PREDICTED BY IDOCK:   -9.27 KCAL/MOL
REMARK 924 INTRA-LIGAND FREE ENERGY PREDICTED BY IDOCK:   -0.73 KCAL/MOL
REMARK 927      BINDING AFFINITY PREDICTED BY RF-SCORE:    0.00 PKD
ROOT
HETATM    1  O   UNL     1     -11.999  16.365  63.626  1.00  0.00    -0.811 OA 
HETATM    2  C   UNL     1     -11.312  15.961  64.716  1.00  0.00    -0.309 C  
HETATM    3  C   UNL     1     -11.635  14.583  65.173  1.00  0.00    -0.371 A  
HETATM    4  O   UNL     1     -10.532  16.685  65.313  1.00  0.00    -0.612 OA 
HETATM    5  C   UNL     1     -11.435  14.285  66.534  1.00  0.00    -0.368 A  
HETATM    6  C   UNL     1     -11.680  12.997  67.034  1.00  0.00    -0.383 A  
HETATM    7  C   UNL     1     -12.143  12.018  66.142  1.00  0.00     0.081 A  
HETATM    8  O   UNL     1     -12.300  13.862  62.985  1.00  0.00    -1.101 OA 
HETATM    9  C   UNL     1     -12.089  13.581  64.309  1.00  0.00    -0.431 A  
HETATM   10  H   UNL     1     -12.609  13.182  62.398  1.00  0.00     0.000 HD 
HETATM   11  C   UNL     1     -12.344  12.299  64.787  1.00  0.00    -0.416 A  
ENDROOT
BRANCH   6  12
HETATM   12  N   UNL     1     -11.498  12.606  68.380  1.00  0.00    -0.285 NA 
HETATM   13  H   UNL     1     -10.954  13.146  69.053  1.00  0.00     0.000 HD 
BRANCH  12  14
HETATM   14  N   UNL     1     -12.072  11.533  68.662  1.00  0.00    -0.505 NA 
HETATM   15  H   UNL     1     -13.013  11.294  68.348  1.00  0.00     0.000 HD 
BRANCH  14  16
HETATM   16  C   UNL     1     -11.274  10.689  69.465  1.00  0.00    -0.272 A  
HETATM   17  C   UNL     1     -11.186   9.181  71.382  1.00  0.00    -0.419 A  
HETATM   18  C   UNL     1     -11.909   9.995  70.504  1.00  0.00    -0.387 A  
HETATM   19  C   UNL     1      -9.811   9.015  71.200  1.00  0.00    -0.300 A  
HETATM   20  C   UNL     1      -9.891  10.504  69.293  1.00  0.00    -0.225 A  
HETATM   21  C   UNL     1      -9.158   9.678  70.157  1.00  0.00    -0.280 A  
BRANCH  19  22
HETATM   22  S   UNL     1      -8.874   8.115  72.424  1.00  0.00    -0.216 S  
HETATM   23  O   UNL     1      -9.633   8.143  73.654  1.00  0.00    -0.168 OA 
HETATM   24  O   UNL     1      -7.522   8.638  72.377  1.00  0.00    -0.279 OA 
BRANCH  22  25
HETATM   25  N   UNL     1      -8.784   6.548  71.806  1.00  0.00    -0.131 N  
HETATM   26  H   UNL     1      -8.180   6.311  71.020  1.00  0.00     0.000 HD 
BRANCH  25  27
HETATM   27  C   UNL     1      -9.593   5.587  72.444  1.00  0.00    -0.150 A  
HETATM   28  N   UNL     1      -8.910   4.756  73.248  1.00  0.00    -0.107 NA 
HETATM   29  C   UNL     1      -9.647   3.865  73.948  1.00  0.00    -0.102 A  
HETATM   30  C   UNL     1     -11.026   3.758  73.853  1.00  0.00    -0.276 A  
HETATM   31  C   UNL     1     -11.695   4.615  72.985  1.00  0.00    -0.145 A  
HETATM   32  C   UNL     1     -10.965   5.555  72.261  1.00  0.00    -0.296 A  
ENDBRANCH  25  27
ENDBRANCH  22  25
ENDBRANCH  19  22
ENDBRANCH  14  16
ENDBRANCH  12  14
ENDBRANCH   6  12
TORSDOF 6
ENDMDL
MODEL       39
REMARK 921   NORMALIZED FREE ENERGY PREDICTED BY IDOCK:   -7.01 KCAL/MOL
REMARK 922        TOTAL FREE ENERGY PREDICTED BY IDOCK:   -9.99 KCAL/MOL
REMARK 923 INTER-LIGAND FREE ENERGY PREDICTED BY IDOCK:   -9.40 KCAL/MOL
REMARK 924 INTRA-LIGAND FREE ENERGY PREDICTED BY IDOCK:   -0.59 KCAL/MOL
REMARK 927      BINDING AFFINITY PREDICTED BY RF-SCORE:    0.00 PKD
ROOT
HETATM    1  O   UNL     1     -13.242  11.919  63.547  1.00  0.00    -0.676 OA 
HETATM    2  C   UNL     1     -12.667  12.667  64.514  1.00  0.00    -0.357 C  
HETATM    3  C   UNL     1     -11.390  12.117  65.042  1.00  0.00    -0.379 A  
HETATM    4  O   UNL     1     -13.181  13.680  64.960  1.00  0.00    -0.729 OA 
HETATM    5  C   UNL     1     -11.024  12.467  66.355  1.00  0.00    -0.315 A  
HETATM    6  C   UNL     1      -9.815  12.020  66.911  1.00  0.00    -0.204 A  
HETATM    7  C   UNL     1      -8.989  11.203  66.125  1.00  0.00    -0.205 A  
HETATM    8  O   UNL     1     -10.888  10.950  63.008  1.00  0.00    -0.757 OA 
HETATM    9  C   UNL     1     -10.538  11.308  64.283  1.00  0.00    -0.358 A  
HETATM   10  H   UNL     1     -10.309  10.401  62.492  1.00  0.00     0.000 HD 
HETATM   11  C   UNL     1      -9.338  10.849  64.818  1.00  0.00    -0.259 A  
ENDROOT
BRANCH   6  12
HETATM   12  N   UNL     1      -9.364  12.328  68.214  1.00  0.00    -0.212 NA 
HETATM   13  H   UNL     1      -8.379  12.348  68.478  1.00  0.00     0.000 HD 
BRANCH  12  14
HETATM   14  N   UNL     1     -10.294  12.575  69.011  1.00  0.00    -0.433 NA 
HETATM   15  H   UNL     1     -10.655  13.513  69.187  1.00  0.00     0.000 HD 
BRANCH  14  16
HETATM   16  C   UNL     1     -10.790  11.411  69.639  1.00  0.00    -0.047 A  
HETATM   17  C   UNL     1     -10.375   9.084  70.244  1.00  0.00    -0.243 A  
HETATM   18  C   UNL     1      -9.945  10.294  69.691  1.00  0.00    -0.240 A  
HETATM   19  C   UNL     1     -11.654   8.990  70.798  1.00  0.00    -0.265 A  
HETATM   20  C   UNL     1     -12.071  11.300  70.208  1.00  0.00    -0.459 A  
HETATM   21  C   UNL     1     -12.508  10.097  70.779  1.00  0.00    -0.417 A  
BRANCH  19  22
HETATM   22  S   UNL     1     -12.250   7.398  71.344  1.00  0.00    -0.357 S  
HETATM   23  O   UNL     1     -11.500   6.389  70.631  1.00  0.00    -0.334 OA 
HETATM   24  O   UNL     1     -13.697   7.446  71.253  1.00  0.00    -0.359 OA 
BRANCH  22  25
HETATM   25  N   UNL     1     -11.893   7.365  72.991  1.00  0.00    -0.548 N  
HETATM   26  H   UNL     1     -12.606   7.524  73.703  1.00  0.00     0.000 HD 
BRANCH  25  27
HETATM   27  C   UNL     1     -10.549   7.105  73.325  1.00  0.00    -0.364 A  
HETATM   28  N   UNL     1     -10.286   5.803  73.521  1.00  0.00    -0.219 NA 
HETATM   29  C   UNL     1      -8.994   5.487  73.765  1.00  0.00    -0.124 A  
HETATM   30  C   UNL     1      -7.972   6.419  73.846  1.00  0.00    -0.100 A  
HETATM   31  C   UNL     1      -8.290   7.762  73.669  1.00  0.00    -0.258 A  
HETATM   32  C   UNL     1      -9.609   8.119  73.400  1.00  0.00    -0.184 A  
ENDBRANCH  25  27
ENDBRANCH  22  25
ENDBRANCH  19  22
ENDBRANCH  14  16
ENDBRANCH  12  14
ENDBRANCH   6  12
TORSDOF 6
ENDMDL
MODEL       40
REMARK 921   NORMALIZED FREE ENERGY PREDICTED BY IDOCK:   -7.01 KCAL/MOL
REMARK 922        TOTAL FREE ENERGY PREDICTED BY IDOCK:   -9.99 KCAL/MOL
REMARK 923 INTER-LIGAND FREE ENERGY PREDICTED BY IDOCK:   -9.24 KCAL/MOL
REMARK 924 INTRA-LIGAND FREE ENERGY PREDICTED BY IDOCK:   -0.75 KCAL/MOL
REMARK 927      BINDING AFFINITY PREDICTED BY RF-SCORE:    0.00 PKD
ROOT
HETATM    1  O   UNL     1      -6.318  20.438  69.181  1.00  0.00    -0.317 OA 
HETATM    2  C   UNL     1      -6.781  19.188  68.964  1.00  0.00    -0.307 C  
HETATM    3  C   UNL     1      -8.086  19.128  68.254  1.00  0.00    -0.367 A  
HETATM    4  O   UNL     1      -6.206  18.190  69.367  1.00  0.00    -0.238 OA 
HETATM    5  C   UNL     1      -8.894  17.996  68.471  1.00  0.00    -0.304 A  
HETATM    6  C   UNL     1     -10.122  17.848  67.808  1.00  0.00    -0.348 A  
HETATM    7  C   UNL     1     -10.528  18.866  66.932  1.00  0.00    -0.496 A  
HETATM    8  O   UNL     1      -7.746  21.233  67.157  1.00  0.00    -0.732 OA 
HETATM    9  C   UNL     1      -8.517  20.120  67.368  1.00  0.00    -0.339 A  
HETATM   10  H   UNL     1      -8.038  21.907  66.554  1.00  0.00     0.000 HD 
HETATM   11  C   UNL     1      -9.735  19.995  66.705  1.00  0.00    -0.566 A  
ENDROOT
BRANCH   6  12
HETATM   12  N   UNL     1     -10.991  16.744  67.958  1.00  0.00    -0.338 NA 
HETATM   13  H   UNL     1     -11.622  16.629  68.751  1.00  0.00     0.000 HD 
BRANCH  12  14
HETATM   14  N   UNL     1     -10.909  15.923  67.020  1.00  0.00    -0.293 NA 
HETATM   15  H   UNL     1     -10.921  16.185  66.034  1.00  0.00     0.000 HD 
BRANCH  14  16
HETATM   16  C   UNL     1     -10.799  14.591  67.477  1.00  0.00    -0.289 A  
HETATM   17  C   UNL     1      -9.306  12.787  68.167  1.00  0.00    -0.214 A  
HETATM   18  C   UNL     1      -9.513  14.110  67.762  1.00  0.00    -0.207 A  
HETATM   19  C   UNL     1     -10.400  11.934  68.333  1.00  0.00    -0.209 A  
HETATM   20  C   UNL     1     -11.887  13.720  67.657  1.00  0.00    -0.413 A  
HETATM   21  C   UNL     1     -11.694  12.396  68.076  1.00  0.00    -0.414 A  
BRANCH  19  22
HETATM   22  S   UNL     1     -10.110  10.207  68.681  1.00  0.00    -0.182 S  
HETATM   23  O   UNL     1      -9.006  10.134  69.611  1.00  0.00    -0.202 OA 
HETATM   24  O   UNL     1     -10.041   9.534  67.398  1.00  0.00    -0.181 OA 
BRANCH  22  25
HETATM   25  N   UNL     1     -11.542   9.683  69.400  1.00  0.00    -0.438 N  
HETATM   26  H   UNL     1     -12.452  10.048  69.121  1.00  0.00     0.000 HD 
BRANCH  25  27
HETATM   27  C   UNL     1     -11.404   8.709  70.409  1.00  0.00    -0.187 A  
HETATM   28  N   UNL     1     -11.105   7.487  69.940  1.00  0.00    -0.217 NA 
HETATM   29  C   UNL     1     -10.881   6.531  70.869  1.00  0.00    -0.253 A  
HETATM   30  C   UNL     1     -10.972   6.745  72.236  1.00  0.00    -0.276 A  
HETATM   31  C   UNL     1     -11.317   8.017  72.682  1.00  0.00    -0.469 A  
HETATM   32  C   UNL     1     -11.537   9.028  71.749  1.00  0.00    -0.444 A  
ENDBRANCH  25  27
ENDBRANCH  22  25
ENDBRANCH  19  22
ENDBRANCH  14  16
ENDBRANCH  12  14
ENDBRANCH   6  12
TORSDOF 6
ENDMDL
MODEL       41
REMARK 921   NORMALIZED FREE ENERGY PREDICTED BY IDOCK:   -7.00 KCAL/MOL
REMARK 922        TOTAL FREE ENERGY PREDICTED BY IDOCK:   -9.98 KCAL/MOL
REMARK 923 INTER-LIGAND FREE ENERGY PREDICTED BY IDOCK:   -9.24 KCAL/MOL
REMARK 924 INTRA-LIGAND FREE ENERGY PREDICTED BY IDOCK:   -0.73 KCAL/MOL
REMARK 927      BINDING AFFINITY PREDICTED BY RF-SCORE:    0.00 PKD
ROOT
HETATM    1  O   UNL     1      -9.365   3.511  72.892  1.00  0.00    -0.098 OA 
HETATM    2  C   UNL     1     -10.355   4.378  73.199  1.00  0.00    -0.170 C  
HETATM    3  C   UNL     1     -10.625   5.400  72.154  1.00  0.00    -0.284 A  
HETATM    4  O   UNL     1     -10.942   4.361  74.269  1.00  0.00    -0.254 OA 
HETATM    5  C   UNL     1     -11.187   6.622  72.568  1.00  0.00    -0.302 A  
HETATM    6  C   UNL     1     -11.506   7.623  71.637  1.00  0.00    -0.260 A  
HETATM    7  C   UNL     1     -11.238   7.375  70.283  1.00  0.00    -0.268 A  
HETATM    8  O   UNL     1      -9.820   4.003  70.379  1.00  0.00    -0.198 OA 
HETATM    9  C   UNL     1     -10.378   5.183  70.794  1.00  0.00    -0.224 A  
HETATM   10  H   UNL     1      -9.653   3.855  69.455  1.00  0.00     0.000 HD 
HETATM   11  C   UNL     1     -10.683   6.165  69.856  1.00  0.00    -0.366 A  
ENDROOT
BRANCH   6  12
HETATM   12  N   UNL     1     -12.080   8.873  71.962  1.00  0.00    -0.360 NA 
HETATM   13  H   UNL     1     -11.912   9.356  72.844  1.00  0.00     0.000 HD 
BRANCH  12  14
HETATM   14  N   UNL     1     -12.813   9.327  71.058  1.00  0.00    -0.511 NA 
HETATM   15  H   UNL     1     -13.426   8.749  70.482  1.00  0.00     0.000 HD 
BRANCH  14  16
HETATM   16  C   UNL     1     -12.701  10.728  70.924  1.00  0.00    -0.384 A  
HETATM   17  C   UNL     1     -11.853  12.589  69.593  1.00  0.00    -0.382 A  
HETATM   18  C   UNL     1     -12.057  11.218  69.780  1.00  0.00    -0.394 A  
HETATM   19  C   UNL     1     -12.335  13.497  70.539  1.00  0.00    -0.342 A  
HETATM   20  C   UNL     1     -13.186  11.657  71.861  1.00  0.00    -0.475 A  
HETATM   21  C   UNL     1     -13.001  13.035  71.678  1.00  0.00    -0.417 A  
BRANCH  19  22
HETATM   22  S   UNL     1     -11.919  15.226  70.376  1.00  0.00    -0.367 S  
HETATM   23  O   UNL     1     -10.507  15.357  70.652  1.00  0.00    -0.251 OA 
HETATM   24  O   UNL     1     -12.897  15.961  71.155  1.00  0.00    -0.467 OA 
BRANCH  22  25
HETATM   25  N   UNL     1     -12.255  15.581  68.762  1.00  0.00    -0.584 N  
HETATM   26  H   UNL     1     -13.204  15.563  68.390  1.00  0.00     0.000 HD 
BRANCH  25  27
HETATM   27  C   UNL     1     -11.143  15.906  67.959  1.00  0.00    -0.334 A  
HETATM   28  N   UNL     1     -10.741  17.181  68.088  1.00  0.00    -0.375 NA 
HETATM   29  C   UNL     1      -9.628  17.526  67.402  1.00  0.00    -0.265 A  
HETATM   30  C   UNL     1      -8.927  16.659  66.578  1.00  0.00    -0.310 A  
HETATM   31  C   UNL     1      -9.394  15.356  66.445  1.00  0.00    -0.331 A  
HETATM   32  C   UNL     1     -10.529  14.964  67.152  1.00  0.00    -0.271 A  
ENDBRANCH  25  27
ENDBRANCH  22  25
ENDBRANCH  19  22
ENDBRANCH  14  16
ENDBRANCH  12  14
ENDBRANCH   6  12
TORSDOF 6
ENDMDL
MODEL       42
REMARK 921   NORMALIZED FREE ENERGY PREDICTED BY IDOCK:   -6.97 KCAL/MOL
REMARK 922        TOTAL FREE ENERGY PREDICTED BY IDOCK:   -9.93 KCAL/MOL
REMARK 923 INTER-LIGAND FREE ENERGY PREDICTED BY IDOCK:   -9.20 KCAL/MOL
REMARK 924 INTRA-LIGAND FREE ENERGY PREDICTED BY IDOCK:   -0.74 KCAL/MOL
REMARK 927      BINDING AFFINITY PREDICTED BY RF-SCORE:    0.00 PKD
ROOT
HETATM    1  O   UNL     1     -10.932   6.885  70.787  1.00  0.00    -0.239 OA 
HETATM    2  C   UNL     1     -10.406   8.118  70.621  1.00  0.00    -0.199 C  
HETATM    3  C   UNL     1     -11.337   9.234  70.937  1.00  0.00    -0.373 A  
HETATM    4  O   UNL     1      -9.279   8.304  70.191  1.00  0.00    -0.152 OA 
HETATM    5  C   UNL     1     -11.118  10.466  70.294  1.00  0.00    -0.379 A  
HETATM    6  C   UNL     1     -11.930  11.578  70.569  1.00  0.00    -0.344 A  
HETATM    7  C   UNL     1     -12.974  11.422  71.492  1.00  0.00    -0.505 A  
HETATM    8  O   UNL     1     -12.613   7.917  72.483  1.00  0.00    -0.540 OA 
HETATM    9  C   UNL     1     -12.382   9.115  71.859  1.00  0.00    -0.385 A  
HETATM   10  H   UNL     1     -13.323   7.837  73.110  1.00  0.00     0.000 HD 
HETATM   11  C   UNL     1     -13.202  10.204  72.141  1.00  0.00    -0.463 A  
ENDROOT
BRANCH   6  12
HETATM   12  N   UNL     1     -11.778  12.853  69.979  1.00  0.00    -0.514 NA 
HETATM   13  H   UNL     1     -11.572  13.698  70.512  1.00  0.00     0.000 HD 
BRANCH  12  14
HETATM   14  N   UNL     1     -11.921  12.841  68.738  1.00  0.00    -0.289 NA 
HETATM   15  H   UNL     1     -12.315  12.055  68.221  1.00  0.00     0.000 HD 
BRANCH  14  16
HETATM   16  C   UNL     1     -11.475  14.036  68.131  1.00  0.00    -0.309 A  
HETATM   17  C   UNL     1     -10.905  16.389  68.435  1.00  0.00    -0.342 A  
HETATM   18  C   UNL     1     -11.291  15.151  68.960  1.00  0.00    -0.307 A  
HETATM   19  C   UNL     1     -10.654  16.514  67.066  1.00  0.00    -0.255 A  
HETATM   20  C   UNL     1     -11.210  14.179  66.758  1.00  0.00    -0.330 A  
HETATM   21  C   UNL     1     -10.808  15.410  66.223  1.00  0.00    -0.301 A  
BRANCH  19  22
HETATM   22  S   UNL     1     -10.331  18.133  66.386  1.00  0.00    -0.369 S  
HETATM   23  O   UNL     1     -10.780  19.106  67.356  1.00  0.00    -0.462 OA 
HETATM   24  O   UNL     1     -10.869  18.130  65.039  1.00  0.00    -0.707 OA 
BRANCH  22  25
HETATM   25  N   UNL     1      -8.654  18.182  66.213  1.00  0.00    -0.225 N  
HETATM   26  H   UNL     1      -8.204  18.696  65.456  1.00  0.00     0.000 HD 
BRANCH  25  27
HETATM   27  C   UNL     1      -7.914  17.470  67.178  1.00  0.00    -0.209 A  
HETATM   28  N   UNL     1      -7.748  18.140  68.329  1.00  0.00    -0.274 NA 
HETATM   29  C   UNL     1      -7.114  17.472  69.320  1.00  0.00    -0.130 A  
HETATM   30  C   UNL     1      -6.622  16.182  69.191  1.00  0.00    -0.176 A  
HETATM   31  C   UNL     1      -6.785  15.534  67.971  1.00  0.00    -0.152 A  
HETATM   32  C   UNL     1      -7.449  16.189  66.936  1.00  0.00    -0.266 A  
ENDBRANCH  25  27
ENDBRANCH  22  25
ENDBRANCH  19  22
ENDBRANCH  14  16
ENDBRANCH  12  14
ENDBRANCH   6  12
TORSDOF 6
ENDMDL
MODEL       43
REMARK 921   NORMALIZED FREE ENERGY PREDICTED BY IDOCK:   -6.90 KCAL/MOL
REMARK 922        TOTAL FREE ENERGY PREDICTED BY IDOCK:   -9.84 KCAL/MOL
REMARK 923 INTER-LIGAND FREE ENERGY PREDICTED BY IDOCK:   -9.20 KCAL/MOL
REMARK 924 INTRA-LIGAND FREE ENERGY PREDICTED BY IDOCK:   -0.64 KCAL/MOL
REMARK 927      BINDING AFFINITY PREDICTED BY RF-SCORE:    0.00 PKD
ROOT
HETATM    1  O   UNL     1     -10.144  20.266  66.548  1.00  0.00    -0.442 OA 
HETATM    2  C   UNL     1     -10.636  19.064  66.177  1.00  0.00    -0.416 C  
HETATM    3  C   UNL     1     -10.443  17.982  67.179  1.00  0.00    -0.377 A  
HETATM    4  O   UNL     1     -11.145  18.866  65.085  1.00  0.00    -0.399 OA 
HETATM    5  C   UNL     1     -10.391  16.658  66.705  1.00  0.00    -0.296 A  
HETATM    6  C   UNL     1     -10.250  15.579  67.592  1.00  0.00    -0.255 A  
HETATM    7  C   UNL     1     -10.150  15.859  68.962  1.00  0.00    -0.228 A  
HETATM    8  O   UNL     1     -10.386  19.511  69.026  1.00  0.00    -0.587 OA 
HETATM    9  C   UNL     1     -10.349  18.225  68.553  1.00  0.00    -0.317 A  
HETATM   10  H   UNL     1     -10.322  19.676  69.960  1.00  0.00     0.000 HD 
HETATM   11  C   UNL     1     -10.203  17.169  69.448  1.00  0.00    -0.164 A  
ENDROOT
BRANCH   6  12
HETATM   12  N   UNL     1     -10.198  14.221  67.207  1.00  0.00    -0.251 NA 
HETATM   13  H   UNL     1      -9.330  13.732  66.986  1.00  0.00     0.000 HD 
BRANCH  12  14
HETATM   14  N   UNL     1     -11.322  13.678  67.164  1.00  0.00    -0.306 NA 
HETATM   15  H   UNL     1     -12.076  13.985  66.550  1.00  0.00     0.000 HD 
BRANCH  14  16
HETATM   16  C   UNL     1     -11.431  12.592  68.061  1.00  0.00    -0.317 A  
HETATM   17  C   UNL     1     -12.062  11.848  70.298  1.00  0.00    -0.409 A  
HETATM   18  C   UNL     1     -11.968  12.852  69.329  1.00  0.00    -0.313 A  
HETATM   19  C   UNL     1     -11.656  10.547  69.989  1.00  0.00    -0.313 A  
HETATM   20  C   UNL     1     -11.035  11.276  67.766  1.00  0.00    -0.305 A  
HETATM   21  C   UNL     1     -11.139  10.257  68.724  1.00  0.00    -0.276 A  
BRANCH  19  22
HETATM   22  S   UNL     1     -11.620   9.318  71.284  1.00  0.00    -0.378 S  
HETATM   23  O   UNL     1     -12.558   9.735  72.301  1.00  0.00    -0.313 OA 
HETATM   24  O   UNL     1     -10.223   9.103  71.610  1.00  0.00    -0.336 OA 
BRANCH  22  25
HETATM   25  N   UNL     1     -12.139   7.904  70.526  1.00  0.00    -0.483 N  
HETATM   26  H   UNL     1     -12.867   7.908  69.812  1.00  0.00     0.000 HD 
BRANCH  25  27
HETATM   27  C   UNL     1     -11.504   6.715  70.939  1.00  0.00    -0.347 A  
HETATM   28  N   UNL     1     -10.678   6.198  70.016  1.00  0.00    -0.273 NA 
HETATM   29  C   UNL     1      -9.980   5.101  70.390  1.00  0.00    -0.246 A  
HETATM   30  C   UNL     1     -10.099   4.494  71.630  1.00  0.00    -0.249 A  
HETATM   31  C   UNL     1     -10.990   5.042  72.548  1.00  0.00    -0.241 A  
HETATM   32  C   UNL     1     -11.712   6.181  72.199  1.00  0.00    -0.361 A  
ENDBRANCH  25  27
ENDBRANCH  22  25
ENDBRANCH  19  22
ENDBRANCH  14  16
ENDBRANCH  12  14
ENDBRANCH   6  12
TORSDOF 6
ENDMDL
MODEL       44
REMARK 921   NORMALIZED FREE ENERGY PREDICTED BY IDOCK:   -6.90 KCAL/MOL
REMARK 922        TOTAL FREE ENERGY PREDICTED BY IDOCK:   -9.84 KCAL/MOL
REMARK 923 INTER-LIGAND FREE ENERGY PREDICTED BY IDOCK:   -9.08 KCAL/MOL
REMARK 924 INTRA-LIGAND FREE ENERGY PREDICTED BY IDOCK:   -0.76 KCAL/MOL
REMARK 927      BINDING AFFINITY PREDICTED BY RF-SCORE:    0.00 PKD
ROOT
HETATM    1  O   UNL     1     -10.769   7.059  73.674  1.00  0.00    -0.362 OA 
HETATM    2  C   UNL     1     -11.375   7.533  72.564  1.00  0.00    -0.334 C  
HETATM    3  C   UNL     1     -10.971   6.856  71.303  1.00  0.00    -0.275 A  
HETATM    4  O   UNL     1     -12.147   8.478  72.583  1.00  0.00    -0.378 OA 
HETATM    5  C   UNL     1     -11.078   7.589  70.107  1.00  0.00    -0.246 A  
HETATM    6  C   UNL     1     -10.753   7.007  68.871  1.00  0.00    -0.200 A  
HETATM    7  C   UNL     1     -10.304   5.678  68.865  1.00  0.00    -0.295 A  
HETATM    8  O   UNL     1     -10.406   4.809  72.418  1.00  0.00    -0.191 OA 
HETATM    9  C   UNL     1     -10.528   5.530  71.259  1.00  0.00    -0.239 A  
HETATM   10  H   UNL     1     -10.106   3.908  72.389  1.00  0.00     0.000 HD 
HETATM   11  C   UNL     1     -10.194   4.937  70.045  1.00  0.00    -0.313 A  
ENDROOT
BRANCH   6  12
HETATM   12  N   UNL     1     -10.839   7.663  67.623  1.00  0.00    -0.502 NA 
HETATM   13  H   UNL     1     -11.552   7.451  66.925  1.00  0.00     0.000 HD 
BRANCH  12  14
HETATM   14  N   UNL     1      -9.954   8.530  67.460  1.00  0.00    -0.184 NA 
HETATM   15  H   UNL     1      -8.955   8.338  67.527  1.00  0.00     0.000 HD 
BRANCH  14  16
HETATM   16  C   UNL     1     -10.492   9.804  67.175  1.00  0.00    -0.250 A  
HETATM   17  C   UNL     1     -10.766  11.580  65.524  1.00  0.00    -0.328 A  
HETATM   18  C   UNL     1     -10.314  10.305  65.878  1.00  0.00    -0.241 A  
HETATM   19  C   UNL     1     -11.447  12.359  66.462  1.00  0.00    -0.371 A  
HETATM   20  C   UNL     1     -11.187  10.599  68.103  1.00  0.00    -0.366 A  
HETATM   21  C   UNL     1     -11.657  11.873  67.756  1.00  0.00    -0.393 A  
BRANCH  19  22
HETATM   22  S   UNL     1     -11.864  14.046  66.052  1.00  0.00    -0.406 S  
HETATM   23  O   UNL     1     -13.165  14.028  65.421  1.00  0.00    -0.761 OA 
HETATM   24  O   UNL     1     -10.715  14.599  65.361  1.00  0.00    -0.322 OA 
BRANCH  22  25
HETATM   25  N   UNL     1     -11.927  14.832  67.543  1.00  0.00    -0.508 N  
HETATM   26  H   UNL     1     -12.758  14.807  68.132  1.00  0.00     0.000 HD 
BRANCH  25  27
HETATM   27  C   UNL     1     -10.760  15.523  67.924  1.00  0.00    -0.294 A  
HETATM   28  N   UNL     1     -10.736  16.803  67.517  1.00  0.00    -0.310 NA 
HETATM   29  C   UNL     1      -9.676  17.537  67.924  1.00  0.00    -0.278 A  
HETATM   30  C   UNL     1      -8.637  17.035  68.693  1.00  0.00    -0.265 A  
HETATM   31  C   UNL     1      -8.682  15.696  69.066  1.00  0.00    -0.240 A  
HETATM   32  C   UNL     1      -9.769  14.917  68.677  1.00  0.00    -0.226 A  
ENDBRANCH  25  27
ENDBRANCH  22  25
ENDBRANCH  19  22
ENDBRANCH  14  16
ENDBRANCH  12  14
ENDBRANCH   6  12
TORSDOF 6
ENDMDL
MODEL       45
REMARK 921   NORMALIZED FREE ENERGY PREDICTED BY IDOCK:   -6.86 KCAL/MOL
REMARK 922        TOTAL FREE ENERGY PREDICTED BY IDOCK:   -9.79 KCAL/MOL
REMARK 923 INTER-LIGAND FREE ENERGY PREDICTED BY IDOCK:   -8.66 KCAL/MOL
REMARK 924 INTRA-LIGAND FREE ENERGY PREDICTED BY IDOCK:   -1.13 KCAL/MOL
REMARK 927      BINDING AFFINITY PREDICTED BY RF-SCORE:    0.00 PKD
ROOT
HETATM    1  O   UNL     1     -11.522  16.245  70.425  1.00  0.00    -0.355 OA 
HETATM    2  C   UNL     1     -11.754  15.078  69.786  1.00  0.00    -0.307 C  
HETATM    3  C   UNL     1     -12.315  14.004  70.649  1.00  0.00    -0.446 A  
HETATM    4  O   UNL     1     -11.474  14.898  68.612  1.00  0.00    -0.277 OA 
HETATM    5  C   UNL     1     -12.071  12.671  70.270  1.00  0.00    -0.372 A  
HETATM    6  C   UNL     1     -12.598  11.601  71.011  1.00  0.00    -0.331 A  
HETATM    7  C   UNL     1     -13.364  11.899  72.147  1.00  0.00    -0.361 A  
HETATM    8  O   UNL     1     -13.325  15.559  72.170  1.00  0.00    -0.402 OA 
HETATM    9  C   UNL     1     -13.090  14.265  71.783  1.00  0.00    -0.359 A  
HETATM   10  H   UNL     1     -13.852  15.736  72.940  1.00  0.00     0.000 HD 
HETATM   11  C   UNL     1     -13.617  13.219  72.534  1.00  0.00    -0.637 A  
ENDROOT
BRANCH   6  12
HETATM   12  N   UNL     1     -12.412  10.235  70.700  1.00  0.00    -0.384 NA 
HETATM   13  H   UNL     1     -13.168   9.620  70.400  1.00  0.00     0.000 HD 
BRANCH  12  14
HETATM   14  N   UNL     1     -11.229   9.858  70.828  1.00  0.00    -0.329 NA 
HETATM   15  H   UNL     1     -10.795   9.649  71.728  1.00  0.00     0.000 HD 
BRANCH  14  16
HETATM   16  C   UNL     1     -10.557   9.754  69.590  1.00  0.00    -0.239 A  
HETATM   17  C   UNL     1      -8.648  10.451  68.239  1.00  0.00    -0.128 A  
HETATM   18  C   UNL     1      -9.351  10.453  69.448  1.00  0.00    -0.186 A  
HETATM   19  C   UNL     1      -9.129   9.704  67.160  1.00  0.00    -0.134 A  
HETATM   20  C   UNL     1     -11.021   9.003  68.496  1.00  0.00     0.036 A  
HETATM   21  C   UNL     1     -10.318   8.980  67.283  1.00  0.00    -0.342 A  
BRANCH  19  22
HETATM   22  S   UNL     1      -8.318   9.847  65.575  1.00  0.00    -0.147 S  
HETATM   23  O   UNL     1      -9.005   8.965  64.658  1.00  0.00    -0.134 OA 
HETATM   24  O   UNL     1      -6.897   9.695  65.823  1.00  0.00    -0.087 OA 
BRANCH  22  25
HETATM   25  N   UNL     1      -8.540  11.461  65.141  1.00  0.00    -0.373 N  
HETATM   26  H   UNL     1      -7.754  12.097  65.004  1.00  0.00     0.000 HD 
BRANCH  25  27
HETATM   27  C   UNL     1      -9.876  11.878  64.979  1.00  0.00    -0.209 A  
HETATM   28  N   UNL     1     -10.358  11.668  63.743  1.00  0.00    -0.354 NA 
HETATM   29  C   UNL     1     -11.662  11.974  63.553  1.00  0.00    -0.472 A  
HETATM   30  C   UNL     1     -12.483  12.503  64.537  1.00  0.00    -0.539 A  
HETATM   31  C   UNL     1     -11.937  12.737  65.795  1.00  0.00    -0.502 A  
HETATM   32  C   UNL     1     -10.602  12.416  66.027  1.00  0.00    -0.286 A  
ENDBRANCH  25  27
ENDBRANCH  22  25
ENDBRANCH  19  22
ENDBRANCH  14  16
ENDBRANCH  12  14
ENDBRANCH   6  12
TORSDOF 6
ENDMDL
MODEL       46
REMARK 921   NORMALIZED FREE ENERGY PREDICTED BY IDOCK:   -6.85 KCAL/MOL
REMARK 922        TOTAL FREE ENERGY PREDICTED BY IDOCK:   -9.78 KCAL/MOL
REMARK 923 INTER-LIGAND FREE ENERGY PREDICTED BY IDOCK:   -9.05 KCAL/MOL
REMARK 924 INTRA-LIGAND FREE ENERGY PREDICTED BY IDOCK:   -0.73 KCAL/MOL
REMARK 927      BINDING AFFINITY PREDICTED BY RF-SCORE:    0.00 PKD
ROOT
HETATM    1  O   UNL     1      -9.800   4.112  69.602  1.00  0.00    -0.217 OA 
HETATM    2  C   UNL     1     -10.423   5.308  69.518  1.00  0.00    -0.234 C  
HETATM    3  C   UNL     1     -10.573   6.018  70.817  1.00  0.00    -0.316 A  
HETATM    4  O   UNL     1     -10.878   5.746  68.474  1.00  0.00    -0.247 OA 
HETATM    5  C   UNL     1     -11.638   6.928  70.942  1.00  0.00    -0.384 A  
HETATM    6  C   UNL     1     -11.824   7.665  72.122  1.00  0.00    -0.309 A  
HETATM    7  C   UNL     1     -10.924   7.459  73.178  1.00  0.00    -0.408 A  
HETATM    8  O   UNL     1      -8.654   4.950  71.782  1.00  0.00    -0.123 OA 
HETATM    9  C   UNL     1      -9.689   5.843  71.886  1.00  0.00    -0.151 A  
HETATM   10  H   UNL     1      -8.053   4.831  72.508  1.00  0.00     0.000 HD 
HETATM   11  C   UNL     1      -9.859   6.559  73.067  1.00  0.00    -0.178 A  
ENDROOT
BRANCH   6  12
HETATM   12  N   UNL     1     -12.858   8.605  72.333  1.00  0.00    -0.503 NA 
HETATM   13  H   UNL     1     -13.193   8.873  73.258  1.00  0.00     0.000 HD 
BRANCH  12  14
HETATM   14  N   UNL     1     -13.319   9.073  71.271  1.00  0.00    -0.528 NA 
HETATM   15  H   UNL     1     -13.866   8.530  70.602  1.00  0.00     0.000 HD 
BRANCH  14  16
HETATM   16  C   UNL     1     -13.001  10.439  71.100  1.00  0.00    -0.412 A  
HETATM   17  C   UNL     1     -11.821  12.108  69.767  1.00  0.00    -0.397 A  
HETATM   18  C   UNL     1     -12.228  10.787  69.984  1.00  0.00    -0.409 A  
HETATM   19  C   UNL     1     -12.224  13.111  70.651  1.00  0.00    -0.321 A  
HETATM   20  C   UNL     1     -13.404  11.463  71.974  1.00  0.00    -0.388 A  
HETATM   21  C   UNL     1     -13.014  12.793  71.759  1.00  0.00    -0.416 A  
BRANCH  19  22
HETATM   22  S   UNL     1     -11.557  14.757  70.460  1.00  0.00    -0.264 S  
HETATM   23  O   UNL     1     -11.132  15.205  71.767  1.00  0.00    -0.334 OA 
HETATM   24  O   UNL     1     -12.535  15.513  69.702  1.00  0.00    -0.270 OA 
BRANCH  22  25
HETATM   25  N   UNL     1     -10.236  14.551  69.432  1.00  0.00    -0.414 N  
HETATM   26  H   UNL     1      -9.371  14.112  69.745  1.00  0.00     0.000 HD 
BRANCH  25  27
HETATM   27  C   UNL     1     -10.401  15.024  68.115  1.00  0.00    -0.239 A  
HETATM   28  N   UNL     1      -9.934  16.269  67.928  1.00  0.00    -0.238 NA 
HETATM   29  C   UNL     1      -9.994  16.743  66.663  1.00  0.00    -0.293 A  
HETATM   30  C   UNL     1     -10.523  16.034  65.596  1.00  0.00    -0.416 A  
HETATM   31  C   UNL     1     -11.026  14.760  65.836  1.00  0.00    -0.335 A  
HETATM   32  C   UNL     1     -10.965  14.237  67.126  1.00  0.00    -0.305 A  
ENDBRANCH  25  27
ENDBRANCH  22  25
ENDBRANCH  19  22
ENDBRANCH  14  16
ENDBRANCH  12  14
ENDBRANCH   6  12
TORSDOF 6
ENDMDL
MODEL       47
REMARK 921   NORMALIZED FREE ENERGY PREDICTED BY IDOCK:   -6.82 KCAL/MOL
REMARK 922        TOTAL FREE ENERGY PREDICTED BY IDOCK:   -9.74 KCAL/MOL
REMARK 923 INTER-LIGAND FREE ENERGY PREDICTED BY IDOCK:   -9.04 KCAL/MOL
REMARK 924 INTRA-LIGAND FREE ENERGY PREDICTED BY IDOCK:   -0.70 KCAL/MOL
REMARK 927      BINDING AFFINITY PREDICTED BY RF-SCORE:    0.00 PKD
ROOT
HETATM    1  O   UNL     1      -9.965   3.840  71.064  1.00  0.00    -0.167 OA 
HETATM    2  C   UNL     1     -10.129   4.978  70.355  1.00  0.00    -0.260 C  
HETATM    3  C   UNL     1     -10.681   6.117  71.137  1.00  0.00    -0.312 A  
HETATM    4  O   UNL     1      -9.899   5.053  69.159  1.00  0.00    -0.161 OA 
HETATM    5  C   UNL     1     -11.392   7.106  70.433  1.00  0.00    -0.325 A  
HETATM    6  C   UNL     1     -11.911   8.231  71.093  1.00  0.00    -0.275 A  
HETATM    7  C   UNL     1     -11.711   8.335  72.477  1.00  0.00    -0.451 A  
HETATM    8  O   UNL     1      -9.813   5.294  73.215  1.00  0.00    -0.157 OA 
HETATM    9  C   UNL     1     -10.493   6.256  72.516  1.00  0.00    -0.203 A  
HETATM   10  H   UNL     1      -9.684   5.389  74.152  1.00  0.00     0.000 HD 
HETATM   11  C   UNL     1     -11.004   7.361  73.190  1.00  0.00    -0.408 A  
ENDROOT
BRANCH   6  12
HETATM   12  N   UNL     1     -12.628   9.275  70.466  1.00  0.00    -0.466 NA 
HETATM   13  H   UNL     1     -13.136   9.160  69.589  1.00  0.00     0.000 HD 
BRANCH  12  14
HETATM   14  N   UNL     1     -12.577  10.353  71.095  1.00  0.00    -0.373 NA 
HETATM   15  H   UNL     1     -12.741  10.432  72.099  1.00  0.00     0.000 HD 
BRANCH  14  16
HETATM   16  C   UNL     1     -12.265  11.450  70.261  1.00  0.00    -0.349 A  
HETATM   17  C   UNL     1     -11.563  12.195  68.046  1.00  0.00    -0.411 A  
HETATM   18  C   UNL     1     -11.938  11.175  68.926  1.00  0.00    -0.367 A  
HETATM   19  C   UNL     1     -11.553  13.521  68.486  1.00  0.00    -0.333 A  
HETATM   20  C   UNL     1     -12.257  12.791  70.683  1.00  0.00    -0.374 A  
HETATM   21  C   UNL     1     -11.898  13.823  69.806  1.00  0.00    -0.394 A  
BRANCH  19  22
HETATM   22  S   UNL     1     -10.910  14.789  67.406  1.00  0.00    -0.308 S  
HETATM   23  O   UNL     1     -11.560  14.637  66.125  1.00  0.00    -0.360 OA 
HETATM   24  O   UNL     1      -9.464  14.728  67.514  1.00  0.00    -0.194 OA 
BRANCH  22  25
HETATM   25  N   UNL     1     -11.366  16.234  68.147  1.00  0.00    -0.304 N  
HETATM   26  H   UNL     1     -12.170  16.291  68.771  1.00  0.00     0.000 HD 
BRANCH  25  27
HETATM   27  C   UNL     1     -10.567  17.356  67.852  1.00  0.00    -0.383 A  
HETATM   28  N   UNL     1      -9.897  17.834  68.913  1.00  0.00    -0.316 NA 
HETATM   29  C   UNL     1      -9.051  18.861  68.670  1.00  0.00    -0.346 A  
HETATM   30  C   UNL     1      -8.876  19.439  67.422  1.00  0.00    -0.349 A  
HETATM   31  C   UNL     1      -9.613  18.938  66.354  1.00  0.00    -0.377 A  
HETATM   32  C   UNL     1     -10.480  17.869  66.569  1.00  0.00    -0.315 A  
ENDBRANCH  25  27
ENDBRANCH  22  25
ENDBRANCH  19  22
ENDBRANCH  14  16
ENDBRANCH  12  14
ENDBRANCH   6  12
TORSDOF 6
ENDMDL
MODEL       48
REMARK 921   NORMALIZED FREE ENERGY PREDICTED BY IDOCK:   -6.82 KCAL/MOL
REMARK 922        TOTAL FREE ENERGY PREDICTED BY IDOCK:   -9.74 KCAL/MOL
REMARK 923 INTER-LIGAND FREE ENERGY PREDICTED BY IDOCK:   -9.11 KCAL/MOL
REMARK 924 INTRA-LIGAND FREE ENERGY PREDICTED BY IDOCK:   -0.63 KCAL/MOL
REMARK 927      BINDING AFFINITY PREDICTED BY RF-SCORE:    0.00 PKD
ROOT
HETATM    1  O   UNL     1     -11.687   7.892  72.840  1.00  0.00    -0.350 OA 
HETATM    2  C   UNL     1     -12.476   8.810  72.239  1.00  0.00    -0.386 C  
HETATM    3  C   UNL     1     -11.823   9.550  71.127  1.00  0.00    -0.436 A  
HETATM    4  O   UNL     1     -13.611   9.055  72.614  1.00  0.00    -0.465 OA 
HETATM    5  C   UNL     1     -12.306  10.838  70.830  1.00  0.00    -0.480 A  
HETATM    6  C   UNL     1     -11.768  11.584  69.770  1.00  0.00    -0.353 A  
HETATM    7  C   UNL     1     -10.726  11.016  69.023  1.00  0.00    -0.258 A  
HETATM    8  O   UNL     1     -10.299   7.762  70.643  1.00  0.00    -0.200 OA 
HETATM    9  C   UNL     1     -10.788   9.010  70.357  1.00  0.00    -0.246 A  
HETATM   10  H   UNL     1      -9.597   7.394  70.120  1.00  0.00     0.000 HD 
HETATM   11  C   UNL     1     -10.237   9.736  69.305  1.00  0.00    -0.216 A  
ENDROOT
BRANCH   6  12
HETATM   12  N   UNL     1     -12.197  12.878  69.395  1.00  0.00    -0.169 NA 
HETATM   13  H   UNL     1     -12.611  13.543  70.047  1.00  0.00     0.000 HD 
BRANCH  12  14
HETATM   14  N   UNL     1     -12.016  13.124  68.184  1.00  0.00    -0.336 NA 
HETATM   15  H   UNL     1     -12.189  12.451  67.437  1.00  0.00     0.000 HD 
BRANCH  14  16
HETATM   16  C   UNL     1     -11.546  14.438  67.964  1.00  0.00    -0.327 A  
HETATM   17  C   UNL     1     -10.592  16.024  66.374  1.00  0.00    -0.284 A  
HETATM   18  C   UNL     1     -11.123  14.764  66.668  1.00  0.00    -0.333 A  
HETATM   19  C   UNL     1     -10.518  16.996  67.375  1.00  0.00    -0.322 A  
HETATM   20  C   UNL     1     -11.471  15.431  68.956  1.00  0.00    -0.349 A  
HETATM   21  C   UNL     1     -10.954  16.702  68.670  1.00  0.00    -0.328 A  
BRANCH  19  22
HETATM   22  S   UNL     1      -9.682  18.535  67.031  1.00  0.00    -0.325 S  
HETATM   23  O   UNL     1      -9.903  19.409  68.161  1.00  0.00    -0.343 OA 
HETATM   24  O   UNL     1     -10.088  18.936  65.697  1.00  0.00    -0.466 OA 
BRANCH  22  25
HETATM   25  N   UNL     1      -8.056  18.106  66.908  1.00  0.00    -0.230 N  
HETATM   26  H   UNL     1      -7.707  17.208  67.242  1.00  0.00     0.000 HD 
BRANCH  25  27
HETATM   27  C   UNL     1      -7.209  19.064  66.316  1.00  0.00    -0.248 A  
HETATM   28  N   UNL     1      -6.784  18.721  65.089  1.00  0.00    -0.518 NA 
HETATM   29  C   UNL     1      -6.034  19.640  64.440  1.00  0.00    -0.267 A  
HETATM   30  C   UNL     1      -5.674  20.865  64.980  1.00  0.00    -0.265 A  
HETATM   31  C   UNL     1      -6.106  21.170  66.267  1.00  0.00    -0.327 A  
HETATM   32  C   UNL     1      -6.895  20.251  66.955  1.00  0.00    -0.282 A  
ENDBRANCH  25  27
ENDBRANCH  22  25
ENDBRANCH  19  22
ENDBRANCH  14  16
ENDBRANCH  12  14
ENDBRANCH   6  12
TORSDOF 6
ENDMDL
MODEL       49
REMARK 921   NORMALIZED FREE ENERGY PREDICTED BY IDOCK:   -6.82 KCAL/MOL
REMARK 922        TOTAL FREE ENERGY PREDICTED BY IDOCK:   -9.74 KCAL/MOL
REMARK 923 INTER-LIGAND FREE ENERGY PREDICTED BY IDOCK:   -9.24 KCAL/MOL
REMARK 924 INTRA-LIGAND FREE ENERGY PREDICTED BY IDOCK:   -0.49 KCAL/MOL
REMARK 927      BINDING AFFINITY PREDICTED BY RF-SCORE:    0.00 PKD
ROOT
HETATM    1  O   UNL     1     -10.613  18.311  65.765  1.00  0.00    -0.554 OA 
HETATM    2  C   UNL     1      -9.670  17.392  66.063  1.00  0.00    -0.152 C  
HETATM    3  C   UNL     1     -10.057  15.989  65.757  1.00  0.00    -0.393 A  
HETATM    4  O   UNL     1      -8.609  17.679  66.594  1.00  0.00    -0.238 OA 
HETATM    5  C   UNL     1      -9.445  14.966  66.504  1.00  0.00    -0.307 A  
HETATM    6  C   UNL     1      -9.730  13.616  66.249  1.00  0.00    -0.283 A  
HETATM    7  C   UNL     1     -10.652  13.314  65.236  1.00  0.00    -0.325 A  
HETATM    8  O   UNL     1     -11.579  16.640  64.021  1.00  0.00    -1.490 OA 
HETATM    9  C   UNL     1     -10.966  15.653  64.748  1.00  0.00    -0.400 A  
HETATM   10  H   UNL     1     -12.196  16.412  63.335  1.00  0.00     0.000 HD 
HETATM   11  C   UNL     1     -11.266  14.320  64.483  1.00  0.00    -0.331 A  
ENDROOT
BRANCH   6  12
HETATM   12  N   UNL     1      -9.156  12.526  66.941  1.00  0.00    -0.209 NA 
HETATM   13  H   UNL     1      -8.446  11.914  66.538  1.00  0.00     0.000 HD 
BRANCH  12  14
HETATM   14  N   UNL     1      -9.606  12.386  68.098  1.00  0.00    -0.214 NA 
HETATM   15  H   UNL     1      -9.912  13.163  68.684  1.00  0.00     0.000 HD 
BRANCH  14  16
HETATM   16  C   UNL     1      -9.646  11.034  68.503  1.00  0.00    -0.187 A  
HETATM   17  C   UNL     1     -10.824   8.900  68.382  1.00  0.00    -0.043 A  
HETATM   18  C   UNL     1     -10.677  10.235  67.991  1.00  0.00    -0.299 A  
HETATM   19  C   UNL     1      -9.904   8.332  69.266  1.00  0.00    -0.186 A  
HETATM   20  C   UNL     1      -8.725  10.442  69.386  1.00  0.00    -0.138 A  
HETATM   21  C   UNL     1      -8.853   9.101  69.773  1.00  0.00    -0.165 A  
BRANCH  19  22
HETATM   22  S   UNL     1     -10.201   6.685  69.888  1.00  0.00    -0.193 S  
HETATM   23  O   UNL     1      -8.944   5.972  69.839  1.00  0.00    -0.138 OA 
HETATM   24  O   UNL     1     -11.365   6.181  69.185  1.00  0.00    -0.399 OA 
BRANCH  22  25
HETATM   25  N   UNL     1     -10.696   6.928  71.482  1.00  0.00    -0.222 N  
HETATM   26  H   UNL     1     -10.141   6.607  72.275  1.00  0.00     0.000 HD 
BRANCH  25  27
HETATM   27  C   UNL     1     -11.922   7.601  71.650  1.00  0.00    -0.299 A  
HETATM   28  N   UNL     1     -11.784   8.878  72.042  1.00  0.00    -0.367 NA 
HETATM   29  C   UNL     1     -12.925   9.597  72.141  1.00  0.00    -0.406 A  
HETATM   30  C   UNL     1     -14.188   9.081  71.892  1.00  0.00    -0.357 A  
HETATM   31  C   UNL     1     -14.291   7.745  71.520  1.00  0.00    -0.574 A  
HETATM   32  C   UNL     1     -13.133   6.982  71.393  1.00  0.00    -0.375 A  
ENDBRANCH  25  27
ENDBRANCH  22  25
ENDBRANCH  19  22
ENDBRANCH  14  16
ENDBRANCH  12  14
ENDBRANCH   6  12
TORSDOF 6
ENDMDL
MODEL       50
REMARK 921   NORMALIZED FREE ENERGY PREDICTED BY IDOCK:   -6.80 KCAL/MOL
REMARK 922        TOTAL FREE ENERGY PREDICTED BY IDOCK:   -9.71 KCAL/MOL
REMARK 923 INTER-LIGAND FREE ENERGY PREDICTED BY IDOCK:   -8.91 KCAL/MOL
REMARK 924 INTRA-LIGAND FREE ENERGY PREDICTED BY IDOCK:   -0.80 KCAL/MOL
REMARK 927      BINDING AFFINITY PREDICTED BY RF-SCORE:    0.00 PKD
ROOT
HETATM    1  O   UNL     1     -12.811  12.289  63.778  1.00  0.00    -0.735 OA 
HETATM    2  C   UNL     1     -12.501  13.328  64.583  1.00  0.00    -0.349 C  
HETATM    3  C   UNL     1     -11.969  12.938  65.916  1.00  0.00    -0.504 A  
HETATM    4  O   UNL     1     -12.695  14.491  64.268  1.00  0.00    -0.659 OA 
HETATM    5  C   UNL     1     -12.147  13.843  66.978  1.00  0.00    -0.451 A  
HETATM    6  C   UNL     1     -11.639  13.564  68.257  1.00  0.00    -0.346 A  
HETATM    7  C   UNL     1     -10.961  12.351  68.449  1.00  0.00    -0.272 A  
HETATM    8  O   UNL     1     -11.112  10.845  65.117  1.00  0.00    -0.048 OA 
HETATM    9  C   UNL     1     -11.281  11.741  66.140  1.00  0.00    -0.306 A  
HETATM   10  H   UNL     1     -10.644  10.032  65.269  1.00  0.00     0.000 HD 
HETATM   11  C   UNL     1     -10.775  11.443  67.402  1.00  0.00    -0.274 A  
ENDROOT
BRANCH   6  12
HETATM   12  N   UNL     1     -11.762  14.417  69.377  1.00  0.00    -0.297 NA 
HETATM   13  H   UNL     1     -12.632  14.882  69.636  1.00  0.00     0.000 HD 
BRANCH  12  14
HETATM   14  N   UNL     1     -10.697  14.544  70.017  1.00  0.00    -0.466 NA 
HETATM   15  H   UNL     1     -10.453  13.976  70.829  1.00  0.00     0.000 HD 
BRANCH  14  16
HETATM   16  C   UNL     1      -9.870  15.561  69.492  1.00  0.00    -0.284 A  
HETATM   17  C   UNL     1      -7.603  16.246  68.902  1.00  0.00    -0.212 A  
HETATM   18  C   UNL     1      -8.503  15.279  69.360  1.00  0.00    -0.231 A  
HETATM   19  C   UNL     1      -8.073  17.506  68.525  1.00  0.00    -0.275 A  
HETATM   20  C   UNL     1     -10.325  16.832  69.101  1.00  0.00    -0.326 A  
HETATM   21  C   UNL     1      -9.434  17.805  68.626  1.00  0.00    -0.283 A  
BRANCH  19  22
HETATM   22  S   UNL     1      -6.896  18.783  68.107  1.00  0.00    -0.242 S  
HETATM   23  O   UNL     1      -5.659  18.128  67.745  1.00  0.00    -0.149 OA 
HETATM   24  O   UNL     1      -6.933  19.749  69.188  1.00  0.00    -0.341 OA 
BRANCH  22  25
HETATM   25  N   UNL     1      -7.581  19.557  66.774  1.00  0.00    -0.240 N  
HETATM   26  H   UNL     1      -8.571  19.797  66.738  1.00  0.00     0.000 HD 
BRANCH  25  27
HETATM   27  C   UNL     1      -6.701  19.852  65.714  1.00  0.00    -0.260 A  
HETATM   28  N   UNL     1      -6.551  18.841  64.842  1.00  0.00    -0.491 NA 
HETATM   29  C   UNL     1      -5.780  19.097  63.761  1.00  0.00    -0.207 A  
HETATM   30  C   UNL     1      -5.139  20.306  63.537  1.00  0.00    -0.212 A  
HETATM   31  C   UNL     1      -5.292  21.317  64.480  1.00  0.00    -0.183 A  
HETATM   32  C   UNL     1      -6.093  21.090  65.597  1.00  0.00    -0.264 A  
ENDBRANCH  25  27
ENDBRANCH  22  25
ENDBRANCH  19  22
ENDBRANCH  14  16
ENDBRANCH  12  14
ENDBRANCH   6  12
TORSDOF 6
ENDMDL
MODEL       51
REMARK 921   NORMALIZED FREE ENERGY PREDICTED BY IDOCK:   -6.78 KCAL/MOL
REMARK 922        TOTAL FREE ENERGY PREDICTED BY IDOCK:   -9.68 KCAL/MOL
REMARK 923 INTER-LIGAND FREE ENERGY PREDICTED BY IDOCK:   -8.97 KCAL/MOL
REMARK 924 INTRA-LIGAND FREE ENERGY PREDICTED BY IDOCK:   -0.71 KCAL/MOL
REMARK 927      BINDING AFFINITY PREDICTED BY RF-SCORE:    0.00 PKD
ROOT
HETATM    1  O   UNL     1     -13.125  12.332  63.594  1.00  0.00    -0.780 OA 
HETATM    2  C   UNL     1     -12.654  12.870  64.741  1.00  0.00    -0.425 C  
HETATM    3  C   UNL     1     -11.566  12.089  65.387  1.00  0.00    -0.343 A  
HETATM    4  O   UNL     1     -13.120  13.882  65.238  1.00  0.00    -0.777 OA 
HETATM    5  C   UNL     1     -11.407  12.222  66.778  1.00  0.00    -0.395 A  
HETATM    6  C   UNL     1     -10.379  11.547  67.456  1.00  0.00    -0.194 A  
HETATM    7  C   UNL     1      -9.522  10.726  66.708  1.00  0.00    -0.198 A  
HETATM    8  O   UNL     1     -10.839  11.121  63.316  1.00  0.00    -0.721 OA 
HETATM    9  C   UNL     1     -10.688  11.269  64.670  1.00  0.00    -0.303 A  
HETATM   10  H   UNL     1     -10.243  10.564  62.829  1.00  0.00     0.000 HD 
HETATM   11  C   UNL     1      -9.666  10.587  65.324  1.00  0.00    -0.328 A  
ENDROOT
BRANCH   6  12
HETATM   12  N   UNL     1     -10.140  11.629  68.846  1.00  0.00    -0.373 NA 
HETATM   13  H   UNL     1      -9.239  11.887  69.247  1.00  0.00     0.000 HD 
BRANCH  12  14
HETATM   14  N   UNL     1     -11.145  11.353  69.535  1.00  0.00    -0.375 NA 
HETATM   15  H   UNL     1     -12.034  11.849  69.464  1.00  0.00     0.000 HD 
BRANCH  14  16
HETATM   16  C   UNL     1     -10.915  10.279  70.422  1.00  0.00    -0.296 A  
HETATM   17  C   UNL     1      -9.340   8.593  71.219  1.00  0.00    -0.288 A  
HETATM   18  C   UNL     1      -9.640   9.697  70.414  1.00  0.00    -0.292 A  
HETATM   19  C   UNL     1     -10.312   8.082  72.083  1.00  0.00    -0.254 A  
HETATM   20  C   UNL     1     -11.877   9.756  71.303  1.00  0.00    -0.481 A  
HETATM   21  C   UNL     1     -11.584   8.660  72.127  1.00  0.00    -0.440 A  
BRANCH  19  22
HETATM   22  S   UNL     1      -9.974   6.573  72.976  1.00  0.00    -0.181 S  
HETATM   23  O   UNL     1     -10.430   6.764  74.334  1.00  0.00    -0.282 OA 
HETATM   24  O   UNL     1      -8.592   6.232  72.701  1.00  0.00    -0.124 OA 
BRANCH  22  25
HETATM   25  N   UNL     1     -10.903   5.408  72.186  1.00  0.00    -0.228 N  
HETATM   26  H   UNL     1     -11.765   5.644  71.697  1.00  0.00     0.000 HD 
BRANCH  25  27
HETATM   27  C   UNL     1     -10.412   4.088  72.242  1.00  0.00    -0.051 A  
HETATM   28  N   UNL     1      -9.874   3.665  71.087  1.00  0.00    -0.168 NA 
HETATM   29  C   UNL     1      -9.315   2.434  71.107  1.00  0.00    -0.140 A  
HETATM   30  C   UNL     1      -9.299   1.609  72.221  1.00  0.00    -0.130 A  
HETATM   31  C   UNL     1      -9.896   2.071  73.390  1.00  0.00    -0.141 A  
HETATM   32  C   UNL     1     -10.466   3.341  73.407  1.00  0.00    -0.262 A  
ENDBRANCH  25  27
ENDBRANCH  22  25
ENDBRANCH  19  22
ENDBRANCH  14  16
ENDBRANCH  12  14
ENDBRANCH   6  12
TORSDOF 6
ENDMDL
MODEL       52
REMARK 921   NORMALIZED FREE ENERGY PREDICTED BY IDOCK:   -6.73 KCAL/MOL
REMARK 922        TOTAL FREE ENERGY PREDICTED BY IDOCK:   -9.61 KCAL/MOL
REMARK 923 INTER-LIGAND FREE ENERGY PREDICTED BY IDOCK:   -8.98 KCAL/MOL
REMARK 924 INTRA-LIGAND FREE ENERGY PREDICTED BY IDOCK:   -0.63 KCAL/MOL
REMARK 927      BINDING AFFINITY PREDICTED BY RF-SCORE:    0.00 PKD
ROOT
HETATM    1  O   UNL     1     -13.785  14.778  73.078  1.00  0.00    -0.524 OA 
HETATM    2  C   UNL     1     -13.254  13.969  72.136  1.00  0.00    -0.435 C  
HETATM    3  C   UNL     1     -12.489  14.677  71.075  1.00  0.00    -0.399 A  
HETATM    4  O   UNL     1     -13.434  12.762  72.122  1.00  0.00    -0.530 OA 
HETATM    5  C   UNL     1     -12.391  14.053  69.817  1.00  0.00    -0.344 A  
HETATM    6  C   UNL     1     -11.654  14.639  68.776  1.00  0.00    -0.317 A  
HETATM    7  C   UNL     1     -11.028  15.871  69.021  1.00  0.00    -0.277 A  
HETATM    8  O   UNL     1     -11.944  16.524  72.504  1.00  0.00    -0.522 OA 
HETATM    9  C   UNL     1     -11.846  15.900  71.288  1.00  0.00    -0.449 A  
HETATM   10  H   UNL     1     -11.507  17.355  72.649  1.00  0.00     0.000 HD 
HETATM   11  C   UNL     1     -11.115  16.501  70.266  1.00  0.00    -0.171 A  
ENDROOT
BRANCH   6  12
HETATM   12  N   UNL     1     -11.494  14.082  67.488  1.00  0.00    -0.324 NA 
HETATM   13  H   UNL     1     -10.847  14.452  66.791  1.00  0.00     0.000 HD 
BRANCH  12  14
HETATM   14  N   UNL     1     -12.226  13.089  67.287  1.00  0.00    -0.316 NA 
HETATM   15  H   UNL     1     -13.242  13.106  67.380  1.00  0.00     0.000 HD 
BRANCH  14  16
HETATM   16  C   UNL     1     -11.490  11.942  66.918  1.00  0.00    -0.322 A  
HETATM   17  C   UNL     1     -10.565   9.796  67.623  1.00  0.00    -0.333 A  
HETATM   18  C   UNL     1     -11.325  10.941  67.885  1.00  0.00    -0.380 A  
HETATM   19  C   UNL     1      -9.992   9.619  66.361  1.00  0.00    -0.255 A  
HETATM   20  C   UNL     1     -10.913  11.742  65.652  1.00  0.00    -0.348 A  
HETATM   21  C   UNL     1     -10.161  10.592  65.372  1.00  0.00    -0.356 A  
BRANCH  19  22
HETATM   22  S   UNL     1      -8.885   8.244  66.094  1.00  0.00    -0.175 S  
HETATM   23  O   UNL     1      -7.962   8.210  67.206  1.00  0.00    -0.110 OA 
HETATM   24  O   UNL     1      -8.399   8.362  64.733  1.00  0.00    -0.163 OA 
BRANCH  22  25
HETATM   25  N   UNL     1      -9.894   6.892  66.107  1.00  0.00    -0.409 N  
HETATM   26  H   UNL     1     -10.371   6.565  65.267  1.00  0.00     0.000 HD 
BRANCH  25  27
HETATM   27  C   UNL     1     -10.038   6.243  67.349  1.00  0.00    -0.156 A  
HETATM   28  N   UNL     1      -9.151   5.255  67.545  1.00  0.00    -0.108 NA 
HETATM   29  C   UNL     1      -9.190   4.650  68.754  1.00  0.00    -0.129 A  
HETATM   30  C   UNL     1     -10.095   4.976  69.752  1.00  0.00    -0.337 A  
HETATM   31  C   UNL     1     -11.020   5.984  69.499  1.00  0.00    -0.467 A  
HETATM   32  C   UNL     1     -10.994   6.637  68.269  1.00  0.00    -0.321 A  
ENDBRANCH  25  27
ENDBRANCH  22  25
ENDBRANCH  19  22
ENDBRANCH  14  16
ENDBRANCH  12  14
ENDBRANCH   6  12
TORSDOF 6
ENDMDL
MODEL       53
REMARK 921   NORMALIZED FREE ENERGY PREDICTED BY IDOCK:   -6.71 KCAL/MOL
REMARK 922        TOTAL FREE ENERGY PREDICTED BY IDOCK:   -9.59 KCAL/MOL
REMARK 923 INTER-LIGAND FREE ENERGY PREDICTED BY IDOCK:   -8.95 KCAL/MOL
REMARK 924 INTRA-LIGAND FREE ENERGY PREDICTED BY IDOCK:   -0.64 KCAL/MOL
REMARK 927      BINDING AFFINITY PREDICTED BY RF-SCORE:    0.00 PKD
ROOT
HETATM    1  O   UNL     1      -9.391   6.242  72.814  1.00  0.00    -0.145 OA 
HETATM    2  C   UNL     1     -10.042   7.235  72.169  1.00  0.00    -0.181 C  
HETATM    3  C   UNL     1     -10.279   6.978  70.723  1.00  0.00    -0.208 A  
HETATM    4  O   UNL     1     -10.359   8.281  72.711  1.00  0.00    -0.318 OA 
HETATM    5  C   UNL     1     -10.413   8.095  69.878  1.00  0.00    -0.226 A  
HETATM    6  C   UNL     1     -10.677   7.936  68.508  1.00  0.00    -0.024 A  
HETATM    7  C   UNL     1     -10.789   6.632  68.004  1.00  0.00    -0.345 A  
HETATM    8  O   UNL     1     -10.263   4.596  70.999  1.00  0.00    -0.202 OA 
HETATM    9  C   UNL     1     -10.405   5.692  70.189  1.00  0.00    -0.271 A  
HETATM   10  H   UNL     1     -10.350   3.722  70.636  1.00  0.00     0.000 HD 
HETATM   11  C   UNL     1     -10.660   5.513  68.832  1.00  0.00    -0.258 A  
ENDROOT
BRANCH   6  12
HETATM   12  N   UNL     1     -10.836   8.997  67.589  1.00  0.00    -0.481 NA 
HETATM   13  H   UNL     1     -10.497   8.964  66.627  1.00  0.00     0.000 HD 
BRANCH  12  14
HETATM   14  N   UNL     1     -11.434   9.981  68.073  1.00  0.00    -0.610 NA 
HETATM   15  H   UNL     1     -12.176   9.907  68.769  1.00  0.00     0.000 HD 
BRANCH  14  16
HETATM   16  C   UNL     1     -10.968  11.208  67.549  1.00  0.00    -0.275 A  
HETATM   17  C   UNL     1     -10.093  13.433  68.036  1.00  0.00    -0.241 A  
HETATM   18  C   UNL     1     -10.519  12.171  68.463  1.00  0.00    -0.248 A  
HETATM   19  C   UNL     1     -10.070  13.732  66.671  1.00  0.00    -0.277 A  
HETATM   20  C   UNL     1     -10.930  11.523  66.180  1.00  0.00    -0.320 A  
HETATM   21  C   UNL     1     -10.490  12.779  65.738  1.00  0.00    -0.294 A  
BRANCH  19  22
HETATM   22  S   UNL     1      -9.689  15.397  66.152  1.00  0.00    -0.344 S  
HETATM   23  O   UNL     1      -9.955  15.479  64.734  1.00  0.00    -0.245 OA 
HETATM   24  O   UNL     1      -8.371  15.702  66.676  1.00  0.00    -0.253 OA 
BRANCH  22  25
HETATM   25  N   UNL     1     -10.765  16.359  67.025  1.00  0.00    -0.268 N  
HETATM   26  H   UNL     1     -11.627  15.984  67.420  1.00  0.00     0.000 HD 
BRANCH  25  27
HETATM   27  C   UNL     1     -10.399  17.711  67.175  1.00  0.00    -0.343 A  
HETATM   28  N   UNL     1     -10.389  18.397  66.020  1.00  0.00    -0.548 NA 
HETATM   29  C   UNL     1     -10.124  19.719  66.116  1.00  0.00    -0.499 A  
HETATM   30  C   UNL     1      -9.844  20.368  67.309  1.00  0.00    -0.597 A  
HETATM   31  C   UNL     1      -9.832  19.616  68.480  1.00  0.00    -0.519 A  
HETATM   32  C   UNL     1     -10.117  18.255  68.417  1.00  0.00    -0.412 A  
ENDBRANCH  25  27
ENDBRANCH  22  25
ENDBRANCH  19  22
ENDBRANCH  14  16
ENDBRANCH  12  14
ENDBRANCH   6  12
TORSDOF 6
ENDMDL
MODEL       54
REMARK 921   NORMALIZED FREE ENERGY PREDICTED BY IDOCK:   -6.64 KCAL/MOL
REMARK 922        TOTAL FREE ENERGY PREDICTED BY IDOCK:   -9.49 KCAL/MOL
REMARK 923 INTER-LIGAND FREE ENERGY PREDICTED BY IDOCK:   -8.66 KCAL/MOL
REMARK 924 INTRA-LIGAND FREE ENERGY PREDICTED BY IDOCK:   -0.83 KCAL/MOL
REMARK 927      BINDING AFFINITY PREDICTED BY RF-SCORE:    0.00 PKD
ROOT
HETATM    1  O   UNL     1     -10.924   9.790  69.817  1.00  0.00    -0.237 OA 
HETATM    2  C   UNL     1     -11.653  10.553  68.974  1.00  0.00    -0.207 C  
HETATM    3  C   UNL     1     -11.118  10.625  67.589  1.00  0.00    -0.385 A  
HETATM    4  O   UNL     1     -12.638  11.180  69.332  1.00  0.00    -0.297 OA 
HETATM    5  C   UNL     1     -11.433  11.766  66.828  1.00  0.00    -0.352 A  
HETATM    6  C   UNL     1     -10.997  11.890  65.499  1.00  0.00    -0.297 A  
HETATM    7  C   UNL     1     -10.229  10.850  64.955  1.00  0.00    -0.367 A  
HETATM    8  O   UNL     1     -10.033   8.492  67.747  1.00  0.00    -0.170 OA 
HETATM    9  C   UNL     1     -10.357   9.603  67.013  1.00  0.00    -0.248 A  
HETATM   10  H   UNL     1      -9.516   7.797  67.356  1.00  0.00     0.000 HD 
HETATM   11  C   UNL     1      -9.911   9.710  65.699  1.00  0.00    -0.369 A  
ENDROOT
BRANCH   6  12
HETATM   12  N   UNL     1     -11.273  12.993  64.660  1.00  0.00    -0.311 NA 
HETATM   13  H   UNL     1     -12.205  13.211  64.307  1.00  0.00     0.000 HD 
BRANCH  12  14
HETATM   14  N   UNL     1     -10.261  13.674  64.394  1.00  0.00    -0.712 NA 
HETATM   15  H   UNL     1      -9.589  13.430  63.666  1.00  0.00     0.000 HD 
BRANCH  14  16
HETATM   16  C   UNL     1     -10.149  14.819  65.213  1.00  0.00    -0.354 A  
HETATM   17  C   UNL     1      -9.141  15.818  67.199  1.00  0.00    -0.228 A  
HETATM   18  C   UNL     1      -9.272  14.751  66.304  1.00  0.00    -0.278 A  
HETATM   19  C   UNL     1      -9.863  16.995  66.984  1.00  0.00    -0.270 A  
HETATM   20  C   UNL     1     -10.861  16.014  65.009  1.00  0.00    -0.421 A  
HETATM   21  C   UNL     1     -10.728  17.096  65.890  1.00  0.00    -0.132 A  
BRANCH  19  22
HETATM   22  S   UNL     1      -9.819  18.280  68.222  1.00  0.00    -0.368 S  
HETATM   23  O   UNL     1     -10.471  17.763  69.404  1.00  0.00    -0.200 OA 
HETATM   24  O   UNL     1     -10.302  19.488  67.581  1.00  0.00    -0.396 OA 
BRANCH  22  25
HETATM   25  N   UNL     1      -8.175  18.531  68.500  1.00  0.00    -0.332 N  
HETATM   26  H   UNL     1      -7.690  18.111  69.293  1.00  0.00     0.000 HD 
BRANCH  25  27
HETATM   27  C   UNL     1      -7.512  19.356  67.570  1.00  0.00    -0.240 A  
HETATM   28  N   UNL     1      -7.132  20.540  68.077  1.00  0.00    -0.271 NA 
HETATM   29  C   UNL     1      -6.420  21.340  67.251  1.00  0.00    -0.344 A  
HETATM   30  C   UNL     1      -6.102  21.013  65.942  1.00  0.00    -0.289 A  
HETATM   31  C   UNL     1      -6.543  19.791  65.443  1.00  0.00    -0.314 A  
HETATM   32  C   UNL     1      -7.264  18.938  66.274  1.00  0.00    -0.274 A  
ENDBRANCH  25  27
ENDBRANCH  22  25
ENDBRANCH  19  22
ENDBRANCH  14  16
ENDBRANCH  12  14
ENDBRANCH   6  12
TORSDOF 6
ENDMDL
MODEL       55
REMARK 921   NORMALIZED FREE ENERGY PREDICTED BY IDOCK:   -6.63 KCAL/MOL
REMARK 922        TOTAL FREE ENERGY PREDICTED BY IDOCK:   -9.48 KCAL/MOL
REMARK 923 INTER-LIGAND FREE ENERGY PREDICTED BY IDOCK:   -8.64 KCAL/MOL
REMARK 924 INTRA-LIGAND FREE ENERGY PREDICTED BY IDOCK:   -0.85 KCAL/MOL
REMARK 927      BINDING AFFINITY PREDICTED BY RF-SCORE:    0.00 PKD
ROOT
HETATM    1  O   UNL     1     -11.132  15.594  64.774  1.00  0.00    -0.441 OA 
HETATM    2  C   UNL     1     -11.118  15.122  66.040  1.00  0.00    -0.312 C  
HETATM    3  C   UNL     1     -11.123  13.638  66.145  1.00  0.00    -0.299 A  
HETATM    4  O   UNL     1     -11.157  15.850  67.019  1.00  0.00    -0.253 OA 
HETATM    5  C   UNL     1     -11.660  13.070  67.314  1.00  0.00    -0.409 A  
HETATM    6  C   UNL     1     -11.665  11.679  67.505  1.00  0.00    -0.214 A  
HETATM    7  C   UNL     1     -11.132  10.871  66.490  1.00  0.00    -0.119 A  
HETATM    8  O   UNL     1     -10.077  13.343  64.006  1.00  0.00    -0.764 OA 
HETATM    9  C   UNL     1     -10.592  12.803  65.156  1.00  0.00    -0.302 A  
HETATM   10  H   UNL     1      -9.716  12.776  63.335  1.00  0.00     0.000 HD 
HETATM   11  C   UNL     1     -10.593  11.422  65.323  1.00  0.00    -0.336 A  
ENDROOT
BRANCH   6  12
HETATM   12  N   UNL     1     -12.173  11.024  68.649  1.00  0.00    -0.771 NA 
HETATM   13  H   UNL     1     -12.943  10.355  68.618  1.00  0.00     0.000 HD 
BRANCH  12  14
HETATM   14  N   UNL     1     -11.585  11.346  69.702  1.00  0.00    -0.301 NA 
HETATM   15  H   UNL     1     -11.288  12.299  69.917  1.00  0.00     0.000 HD 
BRANCH  14  16
HETATM   16  C   UNL     1     -11.377  10.246  70.564  1.00  0.00    -0.341 A  
HETATM   17  C   UNL     1      -9.781   8.642  71.476  1.00  0.00    -0.333 A  
HETATM   18  C   UNL     1     -10.068   9.761  70.689  1.00  0.00    -0.252 A  
HETATM   19  C   UNL     1     -10.806   8.015  72.190  1.00  0.00    -0.279 A  
HETATM   20  C   UNL     1     -12.394   9.608  71.295  1.00  0.00    -0.449 A  
HETATM   21  C   UNL     1     -12.116   8.494  72.100  1.00  0.00    -0.449 A  
BRANCH  19  22
HETATM   22  S   UNL     1     -10.458   6.490  73.051  1.00  0.00    -0.252 S  
HETATM   23  O   UNL     1     -11.512   5.557  72.719  1.00  0.00    -0.303 OA 
HETATM   24  O   UNL     1     -10.194   6.846  74.431  1.00  0.00    -0.317 OA 
BRANCH  22  25
HETATM   25  N   UNL     1      -8.981   5.983  72.415  1.00  0.00    -0.137 N  
HETATM   26  H   UNL     1      -8.095   6.390  72.714  1.00  0.00     0.000 HD 
BRANCH  25  27
HETATM   27  C   UNL     1      -9.045   4.963  71.445  1.00  0.00    -0.142 A  
HETATM   28  N   UNL     1      -8.789   3.739  71.934  1.00  0.00    -0.098 NA 
HETATM   29  C   UNL     1      -8.916   2.711  71.064  1.00  0.00    -0.094 A  
HETATM   30  C   UNL     1      -9.260   2.866  69.730  1.00  0.00    -0.213 A  
HETATM   31  C   UNL     1      -9.486   4.153  69.253  1.00  0.00    -0.258 A  
HETATM   32  C   UNL     1      -9.379   5.231  70.129  1.00  0.00    -0.202 A  
ENDBRANCH  25  27
ENDBRANCH  22  25
ENDBRANCH  19  22
ENDBRANCH  14  16
ENDBRANCH  12  14
ENDBRANCH   6  12
TORSDOF 6
ENDMDL
MODEL       56
REMARK 921   NORMALIZED FREE ENERGY PREDICTED BY IDOCK:   -6.63 KCAL/MOL
REMARK 922        TOTAL FREE ENERGY PREDICTED BY IDOCK:   -9.48 KCAL/MOL
REMARK 923 INTER-LIGAND FREE ENERGY PREDICTED BY IDOCK:   -8.52 KCAL/MOL
REMARK 924 INTRA-LIGAND FREE ENERGY PREDICTED BY IDOCK:   -0.96 KCAL/MOL
REMARK 927      BINDING AFFINITY PREDICTED BY RF-SCORE:    0.00 PKD
ROOT
HETATM    1  O   UNL     1     -13.977  12.490  72.919  1.00  0.00    -0.044 OA 
HETATM    2  C   UNL     1     -13.175  12.430  71.834  1.00  0.00    -0.382 C  
HETATM    3  C   UNL     1     -12.664  13.748  71.371  1.00  0.00    -0.450 A  
HETATM    4  O   UNL     1     -12.935  11.388  71.245  1.00  0.00    -0.385 OA 
HETATM    5  C   UNL     1     -12.323  13.873  70.012  1.00  0.00    -0.378 A  
HETATM    6  C   UNL     1     -11.798  15.073  69.507  1.00  0.00    -0.330 A  
HETATM    7  C   UNL     1     -11.635  16.148  70.393  1.00  0.00    -0.293 A  
HETATM    8  O   UNL     1     -12.822  14.732  73.553  1.00  0.00    -0.520 OA 
HETATM    9  C   UNL     1     -12.481  14.837  72.229  1.00  0.00    -0.327 A  
HETATM   10  H   UNL     1     -12.697  15.472  74.136  1.00  0.00     0.000 HD 
HETATM   11  C   UNL     1     -11.968  16.037  71.747  1.00  0.00    -0.592 A  
ENDROOT
BRANCH   6  12
HETATM   12  N   UNL     1     -11.420  15.285  68.162  1.00  0.00    -0.340 NA 
HETATM   13  H   UNL     1     -10.680  15.928  67.881  1.00  0.00     0.000 HD 
BRANCH  12  14
HETATM   14  N   UNL     1     -12.084  14.605  67.352  1.00  0.00    -0.552 NA 
HETATM   15  H   UNL     1     -13.085  14.725  67.198  1.00  0.00     0.000 HD 
BRANCH  14  16
HETATM   16  C   UNL     1     -11.294  13.652  66.671  1.00  0.00    -0.326 A  
HETATM   17  C   UNL     1     -11.237  11.843  65.035  1.00  0.00    -0.350 A  
HETATM   18  C   UNL     1     -11.931  12.849  65.715  1.00  0.00    -0.496 A  
HETATM   19  C   UNL     1      -9.873  11.657  65.275  1.00  0.00    -0.248 A  
HETATM   20  C   UNL     1      -9.920  13.455  66.894  1.00  0.00    -0.252 A  
HETATM   21  C   UNL     1      -9.210  12.460  66.207  1.00  0.00    -0.150 A  
BRANCH  19  22
HETATM   22  S   UNL     1      -9.042  10.263  64.530  1.00  0.00    -0.256 S  
HETATM   23  O   UNL     1      -7.624  10.445  64.738  1.00  0.00    -0.135 OA 
HETATM   24  O   UNL     1      -9.582  10.128  63.190  1.00  0.00    -0.300 OA 
BRANCH  22  25
HETATM   25  N   UNL     1      -9.613   8.931  65.393  1.00  0.00    -0.448 N  
HETATM   26  H   UNL     1      -9.996   8.109  64.927  1.00  0.00     0.000 HD 
BRANCH  25  27
HETATM   27  C   UNL     1      -9.529   9.025  66.796  1.00  0.00    -0.182 A  
HETATM   28  N   UNL     1     -10.723   9.115  67.402  1.00  0.00    -0.244 NA 
HETATM   29  C   UNL     1     -10.706   9.126  68.754  1.00  0.00    -0.131 A  
HETATM   30  C   UNL     1      -9.546   9.078  69.513  1.00  0.00    -0.165 A  
HETATM   31  C   UNL     1      -8.326   9.017  68.848  1.00  0.00    -0.125 A  
HETATM   32  C   UNL     1      -8.312   8.988  67.455  1.00  0.00    -0.116 A  
ENDBRANCH  25  27
ENDBRANCH  22  25
ENDBRANCH  19  22
ENDBRANCH  14  16
ENDBRANCH  12  14
ENDBRANCH   6  12
TORSDOF 6
ENDMDL
MODEL       57
REMARK 921   NORMALIZED FREE ENERGY PREDICTED BY IDOCK:   -6.62 KCAL/MOL
REMARK 922        TOTAL FREE ENERGY PREDICTED BY IDOCK:   -9.47 KCAL/MOL
REMARK 923 INTER-LIGAND FREE ENERGY PREDICTED BY IDOCK:   -8.74 KCAL/MOL
REMARK 924 INTRA-LIGAND FREE ENERGY PREDICTED BY IDOCK:   -0.73 KCAL/MOL
REMARK 927      BINDING AFFINITY PREDICTED BY RF-SCORE:    0.00 PKD
ROOT
HETATM    1  O   UNL     1     -11.019  16.590  70.075  1.00  0.00    -0.350 OA 
HETATM    2  C   UNL     1     -11.454  15.443  69.509  1.00  0.00    -0.319 C  
HETATM    3  C   UNL     1     -12.104  14.497  70.455  1.00  0.00    -0.389 A  
HETATM    4  O   UNL     1     -11.279  15.178  68.331  1.00  0.00    -0.270 OA 
HETATM    5  C   UNL     1     -12.076  13.129  70.129  1.00  0.00    -0.392 A  
HETATM    6  C   UNL     1     -12.700  12.177  70.951  1.00  0.00    -0.189 A  
HETATM    7  C   UNL     1     -13.343  12.628  72.113  1.00  0.00    -0.570 A  
HETATM    8  O   UNL     1     -12.785  16.242  71.953  1.00  0.00    -0.517 OA 
HETATM    9  C   UNL     1     -12.761  14.913  71.618  1.00  0.00    -0.330 A  
HETATM   10  H   UNL     1     -13.232  16.525  72.743  1.00  0.00     0.000 HD 
HETATM   11  C   UNL     1     -13.381  13.985  72.449  1.00  0.00    -0.617 A  
ENDROOT
BRANCH   6  12
HETATM   12  N   UNL     1     -12.730  10.787  70.697  1.00  0.00    -0.343 NA 
HETATM   13  H   UNL     1     -12.565  10.381  69.776  1.00  0.00     0.000 HD 
BRANCH  12  14
HETATM   14  N   UNL     1     -12.977  10.107  71.715  1.00  0.00    -0.434 NA 
HETATM   15  H   UNL     1     -13.617  10.403  72.453  1.00  0.00     0.000 HD 
BRANCH  14  16
HETATM   16  C   UNL     1     -12.273   8.882  71.730  1.00  0.00    -0.359 A  
HETATM   17  C   UNL     1     -10.102   7.775  71.607  1.00  0.00    -0.224 A  
HETATM   18  C   UNL     1     -10.875   8.940  71.654  1.00  0.00    -0.420 A  
HETATM   19  C   UNL     1     -10.726   6.526  71.682  1.00  0.00    -0.230 A  
HETATM   20  C   UNL     1     -12.882   7.618  71.813  1.00  0.00    -0.357 A  
HETATM   21  C   UNL     1     -12.117   6.443  71.782  1.00  0.00    -0.351 A  
BRANCH  19  22
HETATM   22  S   UNL     1      -9.747   5.052  71.449  1.00  0.00    -0.179 S  
HETATM   23  O   UNL     1     -10.252   4.050  72.360  1.00  0.00    -0.170 OA 
HETATM   24  O   UNL     1      -8.358   5.465  71.501  1.00  0.00    -0.119 OA 
BRANCH  22  25
HETATM   25  N   UNL     1     -10.036   4.612  69.846  1.00  0.00    -0.235 N  
HETATM   26  H   UNL     1     -10.281   3.658  69.583  1.00  0.00     0.000 HD 
BRANCH  25  27
HETATM   27  C   UNL     1      -9.919   5.643  68.894  1.00  0.00    -0.166 A  
HETATM   28  N   UNL     1      -8.656   6.061  68.707  1.00  0.00    -0.112 NA 
HETATM   29  C   UNL     1      -8.474   6.994  67.745  1.00  0.00    -0.120 A  
HETATM   30  C   UNL     1      -9.503   7.538  66.991  1.00  0.00    -0.206 A  
HETATM   31  C   UNL     1     -10.801   7.103  67.238  1.00  0.00    -0.382 A  
HETATM   32  C   UNL     1     -11.019   6.131  68.211  1.00  0.00    -0.397 A  
ENDBRANCH  25  27
ENDBRANCH  22  25
ENDBRANCH  19  22
ENDBRANCH  14  16
ENDBRANCH  12  14
ENDBRANCH   6  12
TORSDOF 6
ENDMDL
MODEL       58
REMARK 921   NORMALIZED FREE ENERGY PREDICTED BY IDOCK:   -6.62 KCAL/MOL
REMARK 922        TOTAL FREE ENERGY PREDICTED BY IDOCK:   -9.47 KCAL/MOL
REMARK 923 INTER-LIGAND FREE ENERGY PREDICTED BY IDOCK:   -8.59 KCAL/MOL
REMARK 924 INTRA-LIGAND FREE ENERGY PREDICTED BY IDOCK:   -0.88 KCAL/MOL
REMARK 927      BINDING AFFINITY PREDICTED BY RF-SCORE:    0.00 PKD
ROOT
HETATM    1  O   UNL     1     -13.963  15.237  72.788  1.00  0.00    -0.477 OA 
HETATM    2  C   UNL     1     -13.418  14.153  72.194  1.00  0.00    -0.454 C  
HETATM    3  C   UNL     1     -12.534  14.462  71.038  1.00  0.00    -0.425 A  
HETATM    4  O   UNL     1     -13.674  13.011  72.538  1.00  0.00    -0.594 OA 
HETATM    5  C   UNL     1     -12.385  13.473  70.050  1.00  0.00    -0.315 A  
HETATM    6  C   UNL     1     -11.539  13.674  68.948  1.00  0.00    -0.322 A  
HETATM    7  C   UNL     1     -10.855  14.895  68.854  1.00  0.00    -0.253 A  
HETATM    8  O   UNL     1     -11.977  16.643  71.868  1.00  0.00    -0.630 OA 
HETATM    9  C   UNL     1     -11.831  15.666  70.918  1.00  0.00    -0.388 A  
HETATM   10  H   UNL     1     -11.499  17.460  71.786  1.00  0.00     0.000 HD 
HETATM   11  C   UNL     1     -10.991  15.887  69.831  1.00  0.00    -0.343 A  
ENDROOT
BRANCH   6  12
HETATM   12  N   UNL     1     -11.322  12.734  67.915  1.00  0.00    -0.273 NA 
HETATM   13  H   UNL     1     -10.777  12.936  67.077  1.00  0.00     0.000 HD 
BRANCH  12  14
HETATM   14  N   UNL     1     -11.864  11.630  68.133  1.00  0.00    -0.546 NA 
HETATM   15  H   UNL     1     -12.875  11.488  68.144  1.00  0.00     0.000 HD 
BRANCH  14  16
HETATM   16  C   UNL     1     -10.924  10.602  68.362  1.00  0.00    -0.251 A  
HETATM   17  C   UNL     1      -9.917   8.537  67.539  1.00  0.00    -0.258 A  
HETATM   18  C   UNL     1     -10.784   9.621  67.370  1.00  0.00    -0.308 A  
HETATM   19  C   UNL     1      -9.139   8.445  68.695  1.00  0.00    -0.140 A  
HETATM   20  C   UNL     1     -10.127  10.497  69.515  1.00  0.00    -0.208 A  
HETATM   21  C   UNL     1      -9.243   9.423  69.689  1.00  0.00    -0.195 A  
BRANCH  19  22
HETATM   22  S   UNL     1      -8.167   6.973  68.974  1.00  0.00    -0.126 S  
HETATM   23  O   UNL     1      -7.155   7.303  69.952  1.00  0.00    -0.062 OA 
HETATM   24  O   UNL     1      -7.796   6.470  67.666  1.00  0.00    -0.107 OA 
BRANCH  22  25
HETATM   25  N   UNL     1      -9.271   5.861  69.599  1.00  0.00    -0.135 N  
HETATM   26  H   UNL     1      -9.269   4.882  69.318  1.00  0.00     0.000 HD 
BRANCH  25  27
HETATM   27  C   UNL     1     -10.194   6.370  70.534  1.00  0.00    -0.189 A  
HETATM   28  N   UNL     1      -9.645   6.677  71.720  1.00  0.00    -0.159 NA 
HETATM   29  C   UNL     1     -10.470   7.245  72.629  1.00  0.00    -0.246 A  
HETATM   30  C   UNL     1     -11.816   7.488  72.406  1.00  0.00    -0.305 A  
HETATM   31  C   UNL     1     -12.356   7.125  71.176  1.00  0.00    -0.404 A  
HETATM   32  C   UNL     1     -11.528   6.553  70.213  1.00  0.00    -0.474 A  
ENDBRANCH  25  27
ENDBRANCH  22  25
ENDBRANCH  19  22
ENDBRANCH  14  16
ENDBRANCH  12  14
ENDBRANCH   6  12
TORSDOF 6
ENDMDL
MODEL       59
REMARK 921   NORMALIZED FREE ENERGY PREDICTED BY IDOCK:   -6.62 KCAL/MOL
REMARK 922        TOTAL FREE ENERGY PREDICTED BY IDOCK:   -9.46 KCAL/MOL
REMARK 923 INTER-LIGAND FREE ENERGY PREDICTED BY IDOCK:   -8.62 KCAL/MOL
REMARK 924 INTRA-LIGAND FREE ENERGY PREDICTED BY IDOCK:   -0.84 KCAL/MOL
REMARK 927      BINDING AFFINITY PREDICTED BY RF-SCORE:    0.00 PKD
ROOT
HETATM    1  O   UNL     1     -10.921  15.720  65.249  1.00  0.00    -0.364 OA 
HETATM    2  C   UNL     1     -11.673  14.619  65.464  1.00  0.00    -0.316 C  
HETATM    3  C   UNL     1     -11.636  14.110  66.861  1.00  0.00    -0.410 A  
HETATM    4  O   UNL     1     -12.288  14.052  64.575  1.00  0.00    -0.525 OA 
HETATM    5  C   UNL     1     -11.888  12.741  67.062  1.00  0.00    -0.428 A  
HETATM    6  C   UNL     1     -11.909  12.193  68.354  1.00  0.00    -0.303 A  
HETATM    7  C   UNL     1     -11.657  13.046  69.439  1.00  0.00    -0.360 A  
HETATM    8  O   UNL     1     -11.137  16.268  67.782  1.00  0.00    -0.310 OA 
HETATM    9  C   UNL     1     -11.397  14.935  67.965  1.00  0.00    -0.324 A  
HETATM   10  H   UNL     1     -10.976  16.829  68.532  1.00  0.00     0.000 HD 
HETATM   11  C   UNL     1     -11.407  14.410  69.254  1.00  0.00    -0.319 A  
ENDROOT
BRANCH   6  12
HETATM   12  N   UNL     1     -12.162  10.834  68.650  1.00  0.00    -0.827 NA 
HETATM   13  H   UNL     1     -13.065  10.489  68.976  1.00  0.00     0.000 HD 
BRANCH  12  14
HETATM   14  N   UNL     1     -11.168  10.099  68.472  1.00  0.00    -0.448 NA 
HETATM   15  H   UNL     1     -10.775   9.890  67.554  1.00  0.00     0.000 HD 
BRANCH  14  16
HETATM   16  C   UNL     1     -10.649   9.589  69.683  1.00  0.00    -0.228 A  
HETATM   17  C   UNL     1      -8.655   9.080  70.994  1.00  0.00    -0.264 A  
HETATM   18  C   UNL     1      -9.258   9.614  69.851  1.00  0.00    -0.255 A  
HETATM   19  C   UNL     1      -9.451   8.549  72.013  1.00  0.00    -0.294 A  
HETATM   20  C   UNL     1     -11.433   9.058  70.721  1.00  0.00    -0.331 A  
HETATM   21  C   UNL     1     -10.842   8.533  71.879  1.00  0.00    -0.392 A  
BRANCH  19  22
HETATM   22  S   UNL     1      -8.665   7.718  73.384  1.00  0.00    -0.256 S  
HETATM   23  O   UNL     1      -9.709   7.099  74.169  1.00  0.00    -0.274 OA 
HETATM   24  O   UNL     1      -7.760   8.678  73.985  1.00  0.00    -0.399 OA 
BRANCH  22  25
HETATM   25  N   UNL     1      -7.686   6.554  72.657  1.00  0.00    -0.102 N  
HETATM   26  H   UNL     1      -6.686   6.698  72.518  1.00  0.00     0.000 HD 
BRANCH  25  27
HETATM   27  C   UNL     1      -8.333   5.369  72.253  1.00  0.00    -0.122 A  
HETATM   28  N   UNL     1      -7.974   4.290  72.966  1.00  0.00    -0.089 NA 
HETATM   29  C   UNL     1      -8.624   3.140  72.676  1.00  0.00    -0.084 A  
HETATM   30  C   UNL     1      -9.591   3.027  71.688  1.00  0.00    -0.221 A  
HETATM   31  C   UNL     1      -9.912   4.161  70.948  1.00  0.00    -0.207 A  
HETATM   32  C   UNL     1      -9.271   5.364  71.235  1.00  0.00    -0.173 A  
ENDBRANCH  25  27
ENDBRANCH  22  25
ENDBRANCH  19  22
ENDBRANCH  14  16
ENDBRANCH  12  14
ENDBRANCH   6  12
TORSDOF 6
ENDMDL
MODEL       60
REMARK 921   NORMALIZED FREE ENERGY PREDICTED BY IDOCK:   -6.60 KCAL/MOL
REMARK 922        TOTAL FREE ENERGY PREDICTED BY IDOCK:   -9.44 KCAL/MOL
REMARK 923 INTER-LIGAND FREE ENERGY PREDICTED BY IDOCK:   -8.74 KCAL/MOL
REMARK 924 INTRA-LIGAND FREE ENERGY PREDICTED BY IDOCK:   -0.70 KCAL/MOL
REMARK 927      BINDING AFFINITY PREDICTED BY RF-SCORE:    0.00 PKD
ROOT
HETATM    1  O   UNL     1     -10.027  18.886  65.615  1.00  0.00    -0.425 OA 
HETATM    2  C   UNL     1     -10.673  17.700  65.575  1.00  0.00    -0.037 C  
HETATM    3  C   UNL     1     -10.627  16.930  66.846  1.00  0.00    -0.214 A  
HETATM    4  O   UNL     1     -11.203  17.268  64.564  1.00  0.00    -1.083 OA 
HETATM    5  C   UNL     1     -10.750  15.531  66.764  1.00  0.00    -0.305 A  
HETATM    6  C   UNL     1     -10.755  14.737  67.922  1.00  0.00    -0.259 A  
HETATM    7  C   UNL     1     -10.620  15.377  69.163  1.00  0.00    -0.248 A  
HETATM    8  O   UNL     1     -10.371  18.898  68.194  1.00  0.00    -0.376 OA 
HETATM    9  C   UNL     1     -10.504  17.537  68.101  1.00  0.00    -0.386 A  
HETATM   10  H   UNL     1     -10.288  19.310  69.045  1.00  0.00     0.000 HD 
HETATM   11  C   UNL     1     -10.500  16.767  69.260  1.00  0.00    -0.331 A  
ENDROOT
BRANCH   6  12
HETATM   12  N   UNL     1     -10.882  13.330  67.935  1.00  0.00    -0.238 NA 
HETATM   13  H   UNL     1     -10.172  12.698  67.563  1.00  0.00     0.000 HD 
BRANCH  12  14
HETATM   14  N   UNL     1     -11.951  12.937  68.448  1.00  0.00    -0.305 NA 
HETATM   15  H   UNL     1     -12.857  13.371  68.270  1.00  0.00     0.000 HD 
BRANCH  14  16
HETATM   16  C   UNL     1     -11.765  11.827  69.301  1.00  0.00    -0.335 A  
HETATM   17  C   UNL     1     -10.423   9.857  69.823  1.00  0.00    -0.292 A  
HETATM   18  C   UNL     1     -10.653  11.008  69.063  1.00  0.00    -0.258 A  
HETATM   19  C   UNL     1     -11.290   9.534  70.870  1.00  0.00    -0.341 A  
HETATM   20  C   UNL     1     -12.622  11.490  70.363  1.00  0.00    -0.238 A  
HETATM   21  C   UNL     1     -12.394  10.347  71.143  1.00  0.00    -0.505 A  
BRANCH  19  22
HETATM   22  S   UNL     1     -11.085   7.976  71.719  1.00  0.00    -0.276 S  
HETATM   23  O   UNL     1     -11.796   8.071  72.974  1.00  0.00    -0.264 OA 
HETATM   24  O   UNL     1      -9.666   7.677  71.695  1.00  0.00    -0.160 OA 
BRANCH  22  25
HETATM   25  N   UNL     1     -11.811   6.849  70.697  1.00  0.00    -0.438 N  
HETATM   26  H   UNL     1     -12.823   6.767  70.614  1.00  0.00     0.000 HD 
BRANCH  25  27
HETATM   27  C   UNL     1     -10.932   6.026  69.964  1.00  0.00    -0.380 A  
HETATM   28  N   UNL     1     -10.535   4.932  70.633  1.00  0.00    -0.159 NA 
HETATM   29  C   UNL     1      -9.755   4.065  69.948  1.00  0.00    -0.193 A  
HETATM   30  C   UNL     1      -9.339   4.267  68.641  1.00  0.00    -0.213 A  
HETATM   31  C   UNL     1      -9.743   5.429  67.993  1.00  0.00    -0.169 A  
HETATM   32  C   UNL     1     -10.561   6.333  68.666  1.00  0.00    -0.314 A  
ENDBRANCH  25  27
ENDBRANCH  22  25
ENDBRANCH  19  22
ENDBRANCH  14  16
ENDBRANCH  12  14
ENDBRANCH   6  12
TORSDOF 6
ENDMDL
MODEL       61
REMARK 921   NORMALIZED FREE ENERGY PREDICTED BY IDOCK:   -6.60 KCAL/MOL
REMARK 922        TOTAL FREE ENERGY PREDICTED BY IDOCK:   -9.44 KCAL/MOL
REMARK 923 INTER-LIGAND FREE ENERGY PREDICTED BY IDOCK:   -9.07 KCAL/MOL
REMARK 924 INTRA-LIGAND FREE ENERGY PREDICTED BY IDOCK:   -0.37 KCAL/MOL
REMARK 927      BINDING AFFINITY PREDICTED BY RF-SCORE:    0.00 PKD
ROOT
HETATM    1  O   UNL     1      -9.540   3.408  73.259  1.00  0.00    -0.106 OA 
HETATM    2  C   UNL     1     -10.677   4.137  73.266  1.00  0.00    -0.210 C  
HETATM    3  C   UNL     1     -10.830   5.051  72.103  1.00  0.00    -0.179 A  
HETATM    4  O   UNL     1     -11.486   4.094  74.179  1.00  0.00    -0.040 OA 
HETATM    5  C   UNL     1     -11.624   6.199  72.278  1.00  0.00    -0.362 A  
HETATM    6  C   UNL     1     -11.849   7.091  71.217  1.00  0.00    -0.330 A  
HETATM    7  C   UNL     1     -11.248   6.811  69.981  1.00  0.00    -0.380 A  
HETATM    8  O   UNL     1      -9.467   3.690  70.674  1.00  0.00    -0.145 OA 
HETATM    9  C   UNL     1     -10.253   4.798  70.855  1.00  0.00    -0.177 A  
HETATM   10  H   UNL     1      -9.075   3.518  69.826  1.00  0.00     0.000 HD 
HETATM   11  C   UNL     1     -10.458   5.673  69.792  1.00  0.00    -0.377 A  
ENDROOT
BRANCH   6  12
HETATM   12  N   UNL     1     -12.637   8.260  71.299  1.00  0.00    -0.440 NA 
HETATM   13  H   UNL     1     -13.588   8.323  70.935  1.00  0.00     0.000 HD 
BRANCH  12  14
HETATM   14  N   UNL     1     -12.053   9.209  71.864  1.00  0.00    -0.370 NA 
HETATM   15  H   UNL     1     -11.672   9.158  72.809  1.00  0.00     0.000 HD 
BRANCH  14  16
HETATM   16  C   UNL     1     -11.977  10.359  71.047  1.00  0.00    -0.382 A  
HETATM   17  C   UNL     1     -10.983  11.402  69.078  1.00  0.00    -0.288 A  
HETATM   18  C   UNL     1     -11.160  10.293  69.911  1.00  0.00    -0.362 A  
HETATM   19  C   UNL     1     -11.666  12.590  69.352  1.00  0.00    -0.322 A  
HETATM   20  C   UNL     1     -12.662  11.560  71.303  1.00  0.00    -0.469 A  
HETATM   21  C   UNL     1     -12.505  12.674  70.467  1.00  0.00    -0.273 A  
BRANCH  19  22
HETATM   22  S   UNL     1     -11.300  14.045  68.385  1.00  0.00    -0.312 S  
HETATM   23  O   UNL     1     -10.007  13.843  67.772  1.00  0.00    -0.232 OA 
HETATM   24  O   UNL     1     -11.539  15.186  69.248  1.00  0.00    -0.287 OA 
BRANCH  22  25
HETATM   25  N   UNL     1     -12.520  14.086  67.221  1.00  0.00    -0.501 N  
HETATM   26  H   UNL     1     -13.449  14.452  67.424  1.00  0.00     0.000 HD 
BRANCH  25  27
HETATM   27  C   UNL     1     -12.175  13.583  65.950  1.00  0.00    -0.460 A  
HETATM   28  N   UNL     1     -11.846  12.281  65.958  1.00  0.00    -0.562 NA 
HETATM   29  C   UNL     1     -11.585  11.726  64.753  1.00  0.00    -0.172 A  
HETATM   30  C   UNL     1     -11.613  12.426  63.556  1.00  0.00    -0.577 A  
HETATM   31  C   UNL     1     -11.926  13.781  63.594  1.00  0.00    -0.298 A  
HETATM   32  C   UNL     1     -12.216  14.379  64.818  1.00  0.00    -0.458 A  
ENDBRANCH  25  27
ENDBRANCH  22  25
ENDBRANCH  19  22
ENDBRANCH  14  16
ENDBRANCH  12  14
ENDBRANCH   6  12
TORSDOF 6
ENDMDL
MODEL       62
REMARK 921   NORMALIZED FREE ENERGY PREDICTED BY IDOCK:   -6.60 KCAL/MOL
REMARK 922        TOTAL FREE ENERGY PREDICTED BY IDOCK:   -9.43 KCAL/MOL
REMARK 923 INTER-LIGAND FREE ENERGY PREDICTED BY IDOCK:   -8.72 KCAL/MOL
REMARK 924 INTRA-LIGAND FREE ENERGY PREDICTED BY IDOCK:   -0.71 KCAL/MOL
REMARK 927      BINDING AFFINITY PREDICTED BY RF-SCORE:    0.00 PKD
ROOT
HETATM    1  O   UNL     1      -9.490   6.229  72.332  1.00  0.00    -0.146 OA 
HETATM    2  C   UNL     1     -10.331   7.283  72.406  1.00  0.00    -0.208 C  
HETATM    3  C   UNL     1     -10.460   8.060  71.144  1.00  0.00    -0.230 A  
HETATM    4  O   UNL     1     -10.896   7.609  73.438  1.00  0.00    -0.380 OA 
HETATM    5  C   UNL     1     -10.821   9.415  71.248  1.00  0.00    -0.431 A  
HETATM    6  C   UNL     1     -11.000  10.205  70.101  1.00  0.00    -0.316 A  
HETATM    7  C   UNL     1     -10.795   9.608  68.849  1.00  0.00    -0.201 A  
HETATM    8  O   UNL     1      -9.906   6.177  69.764  1.00  0.00    -0.157 OA 
HETATM    9  C   UNL     1     -10.271   7.493  69.879  1.00  0.00    -0.210 A  
HETATM   10  H   UNL     1      -9.779   5.792  68.905  1.00  0.00     0.000 HD 
HETATM   11  C   UNL     1     -10.437   8.261  68.730  1.00  0.00    -0.200 A  
ENDROOT
BRANCH   6  12
HETATM   12  N   UNL     1     -11.370  11.569  70.110  1.00  0.00    -0.498 NA 
HETATM   13  H   UNL     1     -11.031  12.238  70.801  1.00  0.00     0.000 HD 
BRANCH  12  14
HETATM   14  N   UNL     1     -12.156  11.871  69.187  1.00  0.00    -0.251 NA 
HETATM   15  H   UNL     1     -12.977  11.320  68.939  1.00  0.00     0.000 HD 
BRANCH  14  16
HETATM   16  C   UNL     1     -11.779  13.061  68.526  1.00  0.00    -0.342 A  
HETATM   17  C   UNL     1     -11.293  14.145  66.394  1.00  0.00    -0.342 A  
HETATM   18  C   UNL     1     -11.710  13.029  67.127  1.00  0.00    -0.439 A  
HETATM   19  C   UNL     1     -10.979  15.333  67.060  1.00  0.00    -0.324 A  
HETATM   20  C   UNL     1     -11.467  14.267  69.178  1.00  0.00    -0.330 A  
HETATM   21  C   UNL     1     -11.062  15.397  68.454  1.00  0.00    -0.301 A  
BRANCH  19  22
HETATM   22  S   UNL     1     -10.285  16.691  66.133  1.00  0.00    -0.344 S  
HETATM   23  O   UNL     1     -10.710  17.914  66.775  1.00  0.00    -0.279 OA 
HETATM   24  O   UNL     1     -10.598  16.442  64.738  1.00  0.00    -0.676 OA 
BRANCH  22  25
HETATM   25  N   UNL     1      -8.618  16.482  66.275  1.00  0.00    -0.315 N  
HETATM   26  H   UNL     1      -8.176  15.570  66.163  1.00  0.00     0.000 HD 
BRANCH  25  27
HETATM   27  C   UNL     1      -7.873  17.644  66.559  1.00  0.00    -0.272 A  
HETATM   28  N   UNL     1      -7.514  18.333  65.464  1.00  0.00    -0.512 NA 
HETATM   29  C   UNL     1      -6.867  19.500  65.681  1.00  0.00    -0.290 A  
HETATM   30  C   UNL     1      -6.545  19.984  66.940  1.00  0.00    -0.232 A  
HETATM   31  C   UNL     1      -6.906  19.225  68.049  1.00  0.00    -0.267 A  
HETATM   32  C   UNL     1      -7.588  18.025  67.859  1.00  0.00    -0.231 A  
ENDBRANCH  25  27
ENDBRANCH  22  25
ENDBRANCH  19  22
ENDBRANCH  14  16
ENDBRANCH  12  14
ENDBRANCH   6  12
TORSDOF 6
ENDMDL
MODEL       63
REMARK 921   NORMALIZED FREE ENERGY PREDICTED BY IDOCK:   -6.55 KCAL/MOL
REMARK 922        TOTAL FREE ENERGY PREDICTED BY IDOCK:   -9.37 KCAL/MOL
REMARK 923 INTER-LIGAND FREE ENERGY PREDICTED BY IDOCK:   -8.67 KCAL/MOL
REMARK 924 INTRA-LIGAND FREE ENERGY PREDICTED BY IDOCK:   -0.71 KCAL/MOL
REMARK 927      BINDING AFFINITY PREDICTED BY RF-SCORE:    0.00 PKD
ROOT
HETATM    1  O   UNL     1     -12.475  13.838  62.993  1.00  0.00    -0.712 OA 
HETATM    2  C   UNL     1     -12.618  13.350  64.244  1.00  0.00    -0.158 C  
HETATM    3  C   UNL     1     -11.825  14.064  65.280  1.00  0.00    -0.363 A  
HETATM    4  O   UNL     1     -13.297  12.368  64.498  1.00  0.00    -0.800 OA 
HETATM    5  C   UNL     1     -11.461  13.344  66.432  1.00  0.00    -0.359 A  
HETATM    6  C   UNL     1     -10.745  13.959  67.472  1.00  0.00    -0.267 A  
HETATM    7  C   UNL     1     -10.392  15.308  67.323  1.00  0.00    -0.264 A  
HETATM    8  O   UNL     1     -11.802  16.120  64.045  1.00  0.00    -1.227 OA 
HETATM    9  C   UNL     1     -11.465  15.411  65.168  1.00  0.00    -0.208 A  
HETATM   10  H   UNL     1     -11.558  17.035  63.969  1.00  0.00     0.000 HD 
HETATM   11  C   UNL     1     -10.750  16.037  66.185  1.00  0.00    -0.246 A  
ENDROOT
BRANCH   6  12
HETATM   12  N   UNL     1     -10.346  13.317  68.666  1.00  0.00    -0.330 NA 
HETATM   13  H   UNL     1     -10.781  13.495  69.571  1.00  0.00     0.000 HD 
BRANCH  12  14
HETATM   14  N   UNL     1      -9.407  12.511  68.500  1.00  0.00    -0.375 NA 
HETATM   15  H   UNL     1      -8.502  12.768  68.106  1.00  0.00     0.000 HD 
BRANCH  14  16
HETATM   16  C   UNL     1      -9.738  11.203  68.920  1.00  0.00    -0.150 A  
HETATM   17  C   UNL     1      -9.001   8.889  69.156  1.00  0.00    -0.140 A  
HETATM   18  C   UNL     1      -8.744  10.221  68.816  1.00  0.00    -0.144 A  
HETATM   19  C   UNL     1     -10.258   8.531  69.652  1.00  0.00    -0.209 A  
HETATM   20  C   UNL     1     -10.993  10.826  69.428  1.00  0.00    -0.305 A  
HETATM   21  C   UNL     1     -11.259   9.497  69.787  1.00  0.00    -0.173 A  
BRANCH  19  22
HETATM   22  S   UNL     1     -10.627   6.804  69.918  1.00  0.00    -0.237 S  
HETATM   23  O   UNL     1     -10.388   6.114  68.671  1.00  0.00    -0.166 OA 
HETATM   24  O   UNL     1     -11.930   6.754  70.554  1.00  0.00    -0.386 OA 
BRANCH  22  25
HETATM   25  N   UNL     1      -9.521   6.322  71.097  1.00  0.00    -0.170 N  
HETATM   26  H   UNL     1      -8.567   6.680  71.122  1.00  0.00     0.000 HD 
BRANCH  25  27
HETATM   27  C   UNL     1      -9.997   5.395  72.045  1.00  0.00    -0.184 A  
HETATM   28  N   UNL     1     -10.013   4.129  71.599  1.00  0.00    -0.184 NA 
HETATM   29  C   UNL     1     -10.384   3.186  72.494  1.00  0.00    -0.106 A  
HETATM   30  C   UNL     1     -10.763   3.465  73.798  1.00  0.00    -0.299 A  
HETATM   31  C   UNL     1     -10.766   4.793  74.213  1.00  0.00    -0.268 A  
HETATM   32  C   UNL     1     -10.373   5.786  73.319  1.00  0.00    -0.234 A  
ENDBRANCH  25  27
ENDBRANCH  22  25
ENDBRANCH  19  22
ENDBRANCH  14  16
ENDBRANCH  12  14
ENDBRANCH   6  12
TORSDOF 6
ENDMDL
MODEL       64
REMARK 921   NORMALIZED FREE ENERGY PREDICTED BY IDOCK:   -6.54 KCAL/MOL
REMARK 922        TOTAL FREE ENERGY PREDICTED BY IDOCK:   -9.36 KCAL/MOL
REMARK 923 INTER-LIGAND FREE ENERGY PREDICTED BY IDOCK:   -8.68 KCAL/MOL
REMARK 924 INTRA-LIGAND FREE ENERGY PREDICTED BY IDOCK:   -0.68 KCAL/MOL
REMARK 927      BINDING AFFINITY PREDICTED BY RF-SCORE:    0.00 PKD
ROOT
HETATM    1  O   UNL     1     -14.080  15.755  72.707  1.00  0.00    -0.576 OA 
HETATM    2  C   UNL     1     -13.666  14.564  72.224  1.00  0.00    -0.458 C  
HETATM    3  C   UNL     1     -12.615  14.655  71.176  1.00  0.00    -0.404 A  
HETATM    4  O   UNL     1     -14.153  13.501  72.576  1.00  0.00    -0.731 OA 
HETATM    5  C   UNL     1     -12.527  13.600  70.249  1.00  0.00    -0.335 A  
HETATM    6  C   UNL     1     -11.537  13.594  69.254  1.00  0.00    -0.311 A  
HETATM    7  C   UNL     1     -10.647  14.677  69.200  1.00  0.00    -0.247 A  
HETATM    8  O   UNL     1     -11.789  16.755  71.988  1.00  0.00    -0.608 OA 
HETATM    9  C   UNL     1     -11.706  15.715  71.099  1.00  0.00    -0.413 A  
HETATM   10  H   UNL     1     -11.171  17.475  71.936  1.00  0.00     0.000 HD 
HETATM   11  C   UNL     1     -10.721  15.731  70.116  1.00  0.00    -0.354 A  
ENDROOT
BRANCH   6  12
HETATM   12  N   UNL     1     -11.369  12.574  68.290  1.00  0.00    -0.263 NA 
HETATM   13  H   UNL     1     -10.689  12.626  67.531  1.00  0.00     0.000 HD 
BRANCH  12  14
HETATM   14  N   UNL     1     -12.136  11.604  68.462  1.00  0.00    -0.499 NA 
HETATM   15  H   UNL     1     -13.125  11.612  68.211  1.00  0.00     0.000 HD 
BRANCH  14  16
HETATM   16  C   UNL     1     -11.482  10.494  69.041  1.00  0.00    -0.237 A  
HETATM   17  C   UNL     1     -10.019   8.573  68.686  1.00  0.00    -0.197 A  
HETATM   18  C   UNL     1     -10.661   9.721  68.209  1.00  0.00    -0.277 A  
HETATM   19  C   UNL     1     -10.159   8.208  70.027  1.00  0.00    -0.196 A  
HETATM   20  C   UNL     1     -11.604  10.116  70.390  1.00  0.00    -0.396 A  
HETATM   21  C   UNL     1     -10.954   8.976  70.883  1.00  0.00    -0.332 A  
BRANCH  19  22
HETATM   22  S   UNL     1      -9.478   6.653  70.579  1.00  0.00    -0.165 S  
HETATM   23  O   UNL     1      -8.055   6.691  70.329  1.00  0.00    -0.116 OA 
HETATM   24  O   UNL     1     -10.304   5.611  69.998  1.00  0.00    -0.225 OA 
BRANCH  22  25
HETATM   25  N   UNL     1      -9.800   6.624  72.235  1.00  0.00    -0.154 N  
HETATM   26  H   UNL     1      -9.916   7.479  72.778  1.00  0.00     0.000 HD 
BRANCH  25  27
HETATM   27  C   UNL     1      -9.898   5.347  72.821  1.00  0.00    -0.157 A  
HETATM   28  N   UNL     1      -8.708   4.784  73.087  1.00  0.00    -0.109 NA 
HETATM   29  C   UNL     1      -8.742   3.592  73.724  1.00  0.00    -0.089 A  
HETATM   30  C   UNL     1      -9.912   2.937  74.077  1.00  0.00    -0.157 A  
HETATM   31  C   UNL     1     -11.125   3.537  73.755  1.00  0.00    -0.286 A  
HETATM   32  C   UNL     1     -11.123   4.773  73.113  1.00  0.00    -0.388 A  
ENDBRANCH  25  27
ENDBRANCH  22  25
ENDBRANCH  19  22
ENDBRANCH  14  16
ENDBRANCH  12  14
ENDBRANCH   6  12
TORSDOF 6
ENDMDL
MODEL       65
REMARK 921   NORMALIZED FREE ENERGY PREDICTED BY IDOCK:   -6.54 KCAL/MOL
REMARK 922        TOTAL FREE ENERGY PREDICTED BY IDOCK:   -9.36 KCAL/MOL
REMARK 923 INTER-LIGAND FREE ENERGY PREDICTED BY IDOCK:   -8.32 KCAL/MOL
REMARK 924 INTRA-LIGAND FREE ENERGY PREDICTED BY IDOCK:   -1.04 KCAL/MOL
REMARK 927      BINDING AFFINITY PREDICTED BY RF-SCORE:    0.00 PKD
ROOT
HETATM    1  O   UNL     1     -11.211   7.438  70.737  1.00  0.00    -0.260 OA 
HETATM    2  C   UNL     1     -10.713   8.601  70.264  1.00  0.00    -0.227 C  
HETATM    3  C   UNL     1     -10.116   8.509  68.905  1.00  0.00    -0.213 A  
HETATM    4  O   UNL     1     -10.700   9.631  70.919  1.00  0.00    -0.302 OA 
HETATM    5  C   UNL     1      -9.118   9.441  68.567  1.00  0.00    -0.131 A  
HETATM    6  C   UNL     1      -8.534   9.443  67.291  1.00  0.00    -0.125 A  
HETATM    7  C   UNL     1      -8.964   8.482  66.365  1.00  0.00    -0.201 A  
HETATM    8  O   UNL     1     -11.490   6.647  68.275  1.00  0.00    -0.560 OA 
HETATM    9  C   UNL     1     -10.528   7.568  67.955  1.00  0.00    -0.204 A  
HETATM   10  H   UNL     1     -11.771   6.008  67.629  1.00  0.00     0.000 HD 
HETATM   11  C   UNL     1      -9.957   7.550  66.686  1.00  0.00    -0.270 A  
ENDROOT
BRANCH   6  12
HETATM   12  N   UNL     1      -7.534  10.346  66.863  1.00  0.00    -0.104 NA 
HETATM   13  H   UNL     1      -6.555  10.272  67.139  1.00  0.00     0.000 HD 
BRANCH  12  14
HETATM   14  N   UNL     1      -7.971  11.244  66.113  1.00  0.00    -0.334 NA 
HETATM   15  H   UNL     1      -7.880  11.227  65.097  1.00  0.00     0.000 HD 
BRANCH  14  16
HETATM   16  C   UNL     1      -8.604  12.284  66.828  1.00  0.00    -0.149 A  
HETATM   17  C   UNL     1     -10.654  13.560  67.186  1.00  0.00    -0.264 A  
HETATM   18  C   UNL     1      -9.962  12.515  66.565  1.00  0.00    -0.252 A  
HETATM   19  C   UNL     1      -9.998  14.367  68.120  1.00  0.00    -0.223 A  
HETATM   20  C   UNL     1      -7.964  13.101  67.776  1.00  0.00    -0.162 A  
HETATM   21  C   UNL     1      -8.651  14.142  68.417  1.00  0.00    -0.176 A  
BRANCH  19  22
HETATM   22  S   UNL     1     -10.841  15.798  68.775  1.00  0.00    -0.294 S  
HETATM   23  O   UNL     1     -10.747  16.845  67.783  1.00  0.00    -0.339 OA 
HETATM   24  O   UNL     1     -10.327  16.002  70.116  1.00  0.00    -0.253 OA 
BRANCH  22  25
HETATM   25  N   UNL     1     -12.437  15.288  68.965  1.00  0.00    -0.577 N  
HETATM   26  H   UNL     1     -13.125  15.374  68.218  1.00  0.00     0.000 HD 
BRANCH  25  27
HETATM   27  C   UNL     1     -12.761  14.735  70.221  1.00  0.00    -0.276 A  
HETATM   28  N   UNL     1     -13.503  15.548  70.990  1.00  0.00    -0.549 NA 
HETATM   29  C   UNL     1     -13.911  15.037  72.174  1.00  0.00    -0.507 A  
HETATM   30  C   UNL     1     -13.584  13.766  72.622  1.00  0.00    -0.617 A  
HETATM   31  C   UNL     1     -12.786  12.967  71.810  1.00  0.00    -0.351 A  
HETATM   32  C   UNL     1     -12.363  13.458  70.577  1.00  0.00    -0.401 A  
ENDBRANCH  25  27
ENDBRANCH  22  25
ENDBRANCH  19  22
ENDBRANCH  14  16
ENDBRANCH  12  14
ENDBRANCH   6  12
TORSDOF 6
ENDMDL
MODEL       66
REMARK 921   NORMALIZED FREE ENERGY PREDICTED BY IDOCK:   -6.52 KCAL/MOL
REMARK 922        TOTAL FREE ENERGY PREDICTED BY IDOCK:   -9.34 KCAL/MOL
REMARK 923 INTER-LIGAND FREE ENERGY PREDICTED BY IDOCK:   -8.65 KCAL/MOL
REMARK 924 INTRA-LIGAND FREE ENERGY PREDICTED BY IDOCK:   -0.69 KCAL/MOL
REMARK 927      BINDING AFFINITY PREDICTED BY RF-SCORE:    0.00 PKD
ROOT
HETATM    1  O   UNL     1     -11.057   6.093  72.990  1.00  0.00    -0.255 OA 
HETATM    2  C   UNL     1     -11.742   6.357  71.856  1.00  0.00    -0.328 C  
HETATM    3  C   UNL     1     -11.089   5.867  70.613  1.00  0.00    -0.335 A  
HETATM    4  O   UNL     1     -12.783   6.994  71.844  1.00  0.00    -0.329 OA 
HETATM    5  C   UNL     1     -11.387   6.539  69.413  1.00  0.00    -0.395 A  
HETATM    6  C   UNL     1     -10.841   6.114  68.192  1.00  0.00    -0.306 A  
HETATM    7  C   UNL     1      -9.979   5.008  68.204  1.00  0.00    -0.190 A  
HETATM    8  O   UNL     1      -9.924   4.106  71.750  1.00  0.00    -0.177 OA 
HETATM    9  C   UNL     1     -10.232   4.762  70.587  1.00  0.00    -0.180 A  
HETATM   10  H   UNL     1      -9.342   3.355  71.733  1.00  0.00     0.000 HD 
HETATM   11  C   UNL     1      -9.675   4.328  69.388  1.00  0.00    -0.257 A  
ENDROOT
BRANCH   6  12
HETATM   12  N   UNL     1     -11.092   6.721  66.941  1.00  0.00    -0.667 NA 
HETATM   13  H   UNL     1     -12.022   6.797  66.530  1.00  0.00     0.000 HD 
BRANCH  12  14
HETATM   14  N   UNL     1     -10.059   7.156  66.390  1.00  0.00    -0.459 NA 
HETATM   15  H   UNL     1      -9.394   6.568  65.886  1.00  0.00     0.000 HD 
BRANCH  14  16
HETATM   16  C   UNL     1      -9.913   8.553  66.541  1.00  0.00    -0.280 A  
HETATM   17  C   UNL     1      -8.507  10.511  66.162  1.00  0.00    -0.154 A  
HETATM   18  C   UNL     1      -8.759   9.144  66.010  1.00  0.00    -0.176 A  
HETATM   19  C   UNL     1      -9.440  11.319  66.818  1.00  0.00    -0.179 A  
HETATM   20  C   UNL     1     -10.844   9.383  67.190  1.00  0.00    -0.132 A  
HETATM   21  C   UNL     1     -10.610  10.757  67.336  1.00  0.00    -0.287 A  
BRANCH  19  22
HETATM   22  S   UNL     1      -9.029  13.023  67.156  1.00  0.00    -0.227 S  
HETATM   23  O   UNL     1      -7.604  13.085  67.388  1.00  0.00    -0.154 OA 
HETATM   24  O   UNL     1      -9.964  13.481  68.166  1.00  0.00    -0.227 OA 
BRANCH  22  25
HETATM   25  N   UNL     1      -9.446  13.838  65.740  1.00  0.00    -0.509 N  
HETATM   26  H   UNL     1      -8.914  14.640  65.401  1.00  0.00     0.000 HD 
BRANCH  25  27
HETATM   27  C   UNL     1     -10.573  13.344  65.054  1.00  0.00    -0.358 A  
HETATM   28  N   UNL     1     -10.270  12.704  63.913  1.00  0.00    -0.384 NA 
HETATM   29  C   UNL     1     -11.306  12.138  63.254  1.00  0.00    -0.327 A  
HETATM   30  C   UNL     1     -12.625  12.213  63.677  1.00  0.00    -0.616 A  
HETATM   31  C   UNL     1     -12.902  12.913  64.847  1.00  0.00    -0.370 A  
HETATM   32  C   UNL     1     -11.854  13.493  65.557  1.00  0.00    -0.388 A  
ENDBRANCH  25  27
ENDBRANCH  22  25
ENDBRANCH  19  22
ENDBRANCH  14  16
ENDBRANCH  12  14
ENDBRANCH   6  12
TORSDOF 6
ENDMDL
MODEL       67
REMARK 921   NORMALIZED FREE ENERGY PREDICTED BY IDOCK:   -6.51 KCAL/MOL
REMARK 922        TOTAL FREE ENERGY PREDICTED BY IDOCK:   -9.32 KCAL/MOL
REMARK 923 INTER-LIGAND FREE ENERGY PREDICTED BY IDOCK:   -8.47 KCAL/MOL
REMARK 924 INTRA-LIGAND FREE ENERGY PREDICTED BY IDOCK:   -0.85 KCAL/MOL
REMARK 927      BINDING AFFINITY PREDICTED BY RF-SCORE:    0.00 PKD
ROOT
HETATM    1  O   UNL     1      -6.177  20.167  68.756  1.00  0.00    -0.275 OA 
HETATM    2  C   UNL     1      -6.563  18.980  68.240  1.00  0.00    -0.243 C  
HETATM    3  C   UNL     1      -7.888  19.003  67.565  1.00  0.00    -0.263 A  
HETATM    4  O   UNL     1      -5.908  17.958  68.367  1.00  0.00    -0.167 OA 
HETATM    5  C   UNL     1      -8.610  17.797  67.506  1.00  0.00    -0.228 A  
HETATM    6  C   UNL     1      -9.850  17.728  66.852  1.00  0.00    -0.312 A  
HETATM    7  C   UNL     1     -10.356  18.900  66.270  1.00  0.00    -0.512 A  
HETATM    8  O   UNL     1      -7.731  21.335  67.028  1.00  0.00    -0.733 OA 
HETATM    9  C   UNL     1      -8.418  20.151  66.967  1.00  0.00    -0.335 A  
HETATM   10  H   UNL     1      -8.090  22.115  66.621  1.00  0.00     0.000 HD 
HETATM   11  C   UNL     1      -9.649  20.106  66.319  1.00  0.00    -0.487 A  
ENDROOT
BRANCH   6  12
HETATM   12  N   UNL     1     -10.638  16.561  66.736  1.00  0.00    -0.268 NA 
HETATM   13  H   UNL     1     -11.248  16.219  67.479  1.00  0.00     0.000 HD 
BRANCH  12  14
HETATM   14  N   UNL     1     -10.511  15.990  65.633  1.00  0.00    -0.379 NA 
HETATM   15  H   UNL     1     -10.656  16.453  64.735  1.00  0.00     0.000 HD 
BRANCH  14  16
HETATM   16  C   UNL     1     -10.144  14.632  65.766  1.00  0.00    -0.340 A  
HETATM   17  C   UNL     1     -10.355  12.366  64.887  1.00  0.00    -0.319 A  
HETATM   18  C   UNL     1     -10.623  13.736  64.801  1.00  0.00    -0.444 A  
HETATM   19  C   UNL     1      -9.557  11.879  65.926  1.00  0.00    -0.231 A  
HETATM   20  C   UNL     1      -9.336  14.126  66.799  1.00  0.00    -0.295 A  
HETATM   21  C   UNL     1      -9.047  12.757  66.887  1.00  0.00    -0.221 A  
BRANCH  19  22
HETATM   22  S   UNL     1      -9.365  10.115  66.121  1.00  0.00    -0.183 S  
HETATM   23  O   UNL     1      -8.309   9.900  67.084  1.00  0.00    -0.120 OA 
HETATM   24  O   UNL     1      -9.271   9.560  64.784  1.00  0.00    -0.237 OA 
BRANCH  22  25
HETATM   25  N   UNL     1     -10.851   9.601  66.729  1.00  0.00    -0.063 N  
HETATM   26  H   UNL     1     -11.573   9.204  66.129  1.00  0.00     0.000 HD 
BRANCH  25  27
HETATM   27  C   UNL     1     -11.034   9.755  68.118  1.00  0.00    -0.175 A  
HETATM   28  N   UNL     1     -10.634   8.692  68.834  1.00  0.00    -0.185 NA 
HETATM   29  C   UNL     1     -10.711   8.816  70.178  1.00  0.00    -0.224 A  
HETATM   30  C   UNL     1     -11.196   9.943  70.824  1.00  0.00    -0.427 A  
HETATM   31  C   UNL     1     -11.632  11.011  70.046  1.00  0.00    -0.427 A  
HETATM   32  C   UNL     1     -11.550  10.920  68.659  1.00  0.00    -0.373 A  
ENDBRANCH  25  27
ENDBRANCH  22  25
ENDBRANCH  19  22
ENDBRANCH  14  16
ENDBRANCH  12  14
ENDBRANCH   6  12
TORSDOF 6
ENDMDL
MODEL       68
REMARK 921   NORMALIZED FREE ENERGY PREDICTED BY IDOCK:   -6.50 KCAL/MOL
REMARK 922        TOTAL FREE ENERGY PREDICTED BY IDOCK:   -9.30 KCAL/MOL
REMARK 923 INTER-LIGAND FREE ENERGY PREDICTED BY IDOCK:   -8.43 KCAL/MOL
REMARK 924 INTRA-LIGAND FREE ENERGY PREDICTED BY IDOCK:   -0.88 KCAL/MOL
REMARK 927      BINDING AFFINITY PREDICTED BY RF-SCORE:    0.00 PKD
ROOT
HETATM    1  O   UNL     1      -7.798  19.673  69.198  1.00  0.00    -0.328 OA 
HETATM    2  C   UNL     1      -7.619  18.498  68.556  1.00  0.00    -0.306 C  
HETATM    3  C   UNL     1      -8.693  18.155  67.586  1.00  0.00    -0.249 A  
HETATM    4  O   UNL     1      -6.684  17.750  68.793  1.00  0.00    -0.216 OA 
HETATM    5  C   UNL     1      -8.908  16.793  67.307  1.00  0.00    -0.216 A  
HETATM    6  C   UNL     1      -9.876  16.391  66.374  1.00  0.00    -0.294 A  
HETATM    7  C   UNL     1     -10.633  17.385  65.737  1.00  0.00    -0.185 A  
HETATM    8  O   UNL     1      -9.269  20.451  67.199  1.00  0.00    -0.374 OA 
HETATM    9  C   UNL     1      -9.459  19.122  66.927  1.00  0.00    -0.320 A  
HETATM   10  H   UNL     1      -9.789  21.108  66.750  1.00  0.00     0.000 HD 
HETATM   11  C   UNL     1     -10.429  18.743  66.003  1.00  0.00    -0.483 A  
ENDROOT
BRANCH   6  12
HETATM   12  N   UNL     1     -10.153  15.050  66.026  1.00  0.00    -0.282 NA 
HETATM   13  H   UNL     1      -9.447  14.404  65.672  1.00  0.00     0.000 HD 
BRANCH  12  14
HETATM   14  N   UNL     1     -11.350  14.735  66.195  1.00  0.00    -0.342 NA 
HETATM   15  H   UNL     1     -12.105  15.023  65.573  1.00  0.00     0.000 HD 
BRANCH  14  16
HETATM   16  C   UNL     1     -11.540  13.935  67.344  1.00  0.00    -0.368 A  
HETATM   17  C   UNL     1     -11.793  11.680  68.242  1.00  0.00    -0.335 A  
HETATM   18  C   UNL     1     -11.556  12.545  67.168  1.00  0.00    -0.437 A  
HETATM   19  C   UNL     1     -11.977  12.202  69.525  1.00  0.00    -0.275 A  
HETATM   20  C   UNL     1     -11.718  14.442  68.643  1.00  0.00    -0.367 A  
HETATM   21  C   UNL     1     -11.943  13.584  69.730  1.00  0.00    -0.405 A  
BRANCH  19  22
HETATM   22  S   UNL     1     -12.449  11.103  70.850  1.00  0.00    -0.394 S  
HETATM   23  O   UNL     1     -13.475  10.224  70.338  1.00  0.00    -0.099 OA 
HETATM   24  O   UNL     1     -12.702  11.939  72.009  1.00  0.00    -0.204 OA 
BRANCH  22  25
HETATM   25  N   UNL     1     -11.039  10.247  71.200  1.00  0.00    -0.243 N  
HETATM   26  H   UNL     1     -10.253  10.675  71.688  1.00  0.00     0.000 HD 
BRANCH  25  27
HETATM   27  C   UNL     1     -11.014   8.903  70.776  1.00  0.00    -0.253 A  
HETATM   28  N   UNL     1     -11.440   8.037  71.709  1.00  0.00    -0.264 NA 
HETATM   29  C   UNL     1     -11.513   6.741  71.329  1.00  0.00    -0.302 A  
HETATM   30  C   UNL     1     -11.153   6.282  70.071  1.00  0.00    -0.455 A  
HETATM   31  C   UNL     1     -10.686   7.207  69.143  1.00  0.00    -0.216 A  
HETATM   32  C   UNL     1     -10.613   8.551  69.498  1.00  0.00    -0.215 A  
ENDBRANCH  25  27
ENDBRANCH  22  25
ENDBRANCH  19  22
ENDBRANCH  14  16
ENDBRANCH  12  14
ENDBRANCH   6  12
TORSDOF 6
ENDMDL
MODEL       69
REMARK 921   NORMALIZED FREE ENERGY PREDICTED BY IDOCK:   -6.46 KCAL/MOL
REMARK 922        TOTAL FREE ENERGY PREDICTED BY IDOCK:   -9.25 KCAL/MOL
REMARK 923 INTER-LIGAND FREE ENERGY PREDICTED BY IDOCK:   -8.58 KCAL/MOL
REMARK 924 INTRA-LIGAND FREE ENERGY PREDICTED BY IDOCK:   -0.67 KCAL/MOL
REMARK 927      BINDING AFFINITY PREDICTED BY RF-SCORE:    0.00 PKD
ROOT
HETATM    1  O   UNL     1      -8.350   8.145  63.718  1.00  0.00    -0.110 OA 
HETATM    2  C   UNL     1      -8.664   9.354  64.232  1.00  0.00    -0.197 C  
HETATM    3  C   UNL     1      -9.405   9.303  65.521  1.00  0.00    -0.303 A  
HETATM    4  O   UNL     1      -8.413  10.402  63.661  1.00  0.00    -0.170 OA 
HETATM    5  C   UNL     1     -10.237  10.392  65.837  1.00  0.00    -0.302 A  
HETATM    6  C   UNL     1     -10.940  10.436  67.052  1.00  0.00    -0.154 A  
HETATM    7  C   UNL     1     -10.799   9.356  67.936  1.00  0.00    -0.215 A  
HETATM    8  O   UNL     1      -8.484   7.173  66.128  1.00  0.00    -0.128 OA 
HETATM    9  C   UNL     1      -9.281   8.246  66.429  1.00  0.00    -0.195 A  
HETATM   10  H   UNL     1      -8.399   6.455  66.745  1.00  0.00     0.000 HD 
HETATM   11  C   UNL     1      -9.974   8.267  67.636  1.00  0.00    -0.245 A  
ENDROOT
BRANCH   6  12
HETATM   12  N   UNL     1     -11.788  11.492  67.455  1.00  0.00    -0.631 NA 
HETATM   13  H   UNL     1     -12.100  11.625  68.417  1.00  0.00     0.000 HD 
BRANCH  12  14
HETATM   14  N   UNL     1     -12.117  12.245  66.515  1.00  0.00    -0.599 NA 
HETATM   15  H   UNL     1     -12.602  11.926  65.676  1.00  0.00     0.000 HD 
BRANCH  14  16
HETATM   16  C   UNL     1     -11.742  13.588  66.742  1.00  0.00    -0.391 A  
HETATM   17  C   UNL     1     -10.726  15.607  65.822  1.00  0.00    -0.350 A  
HETATM   18  C   UNL     1     -11.176  14.291  65.670  1.00  0.00    -0.314 A  
HETATM   19  C   UNL     1     -10.879  16.254  67.051  1.00  0.00    -0.173 A  
HETATM   20  C   UNL     1     -11.895  14.258  67.969  1.00  0.00    -0.379 A  
HETATM   21  C   UNL     1     -11.461  15.582  68.129  1.00  0.00    -0.332 A  
BRANCH  19  22
HETATM   22  S   UNL     1     -10.147  17.866  67.280  1.00  0.00    -0.359 S  
HETATM   23  O   UNL     1     -10.410  18.270  68.643  1.00  0.00    -0.367 OA 
HETATM   24  O   UNL     1     -10.592  18.684  66.168  1.00  0.00    -0.436 OA 
BRANCH  22  25
HETATM   25  N   UNL     1      -8.498  17.612  67.033  1.00  0.00    -0.229 N  
HETATM   26  H   UNL     1      -8.096  16.676  66.992  1.00  0.00     0.000 HD 
BRANCH  25  27
HETATM   27  C   UNL     1      -7.711  18.771  66.887  1.00  0.00    -0.236 A  
HETATM   28  N   UNL     1      -7.446  19.083  65.608  1.00  0.00    -0.479 NA 
HETATM   29  C   UNL     1      -6.762  20.232  65.405  1.00  0.00    -0.285 A  
HETATM   30  C   UNL     1      -6.316  21.057  66.426  1.00  0.00    -0.318 A  
HETATM   31  C   UNL     1      -6.582  20.682  67.739  1.00  0.00    -0.368 A  
HETATM   32  C   UNL     1      -7.298  19.513  67.980  1.00  0.00    -0.317 A  
ENDBRANCH  25  27
ENDBRANCH  22  25
ENDBRANCH  19  22
ENDBRANCH  14  16
ENDBRANCH  12  14
ENDBRANCH   6  12
TORSDOF 6
ENDMDL
MODEL       70
REMARK 921   NORMALIZED FREE ENERGY PREDICTED BY IDOCK:   -6.44 KCAL/MOL
REMARK 922        TOTAL FREE ENERGY PREDICTED BY IDOCK:   -9.23 KCAL/MOL
REMARK 923 INTER-LIGAND FREE ENERGY PREDICTED BY IDOCK:   -8.61 KCAL/MOL
REMARK 924 INTRA-LIGAND FREE ENERGY PREDICTED BY IDOCK:   -0.61 KCAL/MOL
REMARK 927      BINDING AFFINITY PREDICTED BY RF-SCORE:    0.00 PKD
ROOT
HETATM    1  O   UNL     1     -14.129  15.914  72.728  1.00  0.00    -0.567 OA 
HETATM    2  C   UNL     1     -13.804  14.700  72.233  1.00  0.00    -0.479 C  
HETATM    3  C   UNL     1     -12.811  14.730  71.127  1.00  0.00    -0.406 A  
HETATM    4  O   UNL     1     -14.325  13.666  72.621  1.00  0.00    -0.703 OA 
HETATM    5  C   UNL     1     -12.829  13.666  70.206  1.00  0.00    -0.053 A  
HETATM    6  C   UNL     1     -11.899  13.603  69.157  1.00  0.00    -0.348 A  
HETATM    7  C   UNL     1     -10.958  14.638  69.045  1.00  0.00    -0.269 A  
HETATM    8  O   UNL     1     -11.833  16.789  71.873  1.00  0.00    -0.606 OA 
HETATM    9  C   UNL     1     -11.854  15.741  70.991  1.00  0.00    -0.420 A  
HETATM   10  H   UNL     1     -11.182  17.475  71.781  1.00  0.00     0.000 HD 
HETATM   11  C   UNL     1     -10.926  15.700  69.954  1.00  0.00    -0.323 A  
ENDROOT
BRANCH   6  12
HETATM   12  N   UNL     1     -11.838  12.571  68.194  1.00  0.00    -0.341 NA 
HETATM   13  H   UNL     1     -11.448  12.696  67.260  1.00  0.00     0.000 HD 
BRANCH  12  14
HETATM   14  N   UNL     1     -12.309  11.489  68.603  1.00  0.00    -0.358 NA 
HETATM   15  H   UNL     1     -13.246  11.156  68.374  1.00  0.00     0.000 HD 
BRANCH  14  16
HETATM   16  C   UNL     1     -11.400  10.777  69.417  1.00  0.00    -0.285 A  
HETATM   17  C   UNL     1      -9.141   9.885  69.656  1.00  0.00    -0.245 A  
HETATM   18  C   UNL     1     -10.091  10.622  68.941  1.00  0.00    -0.215 A  
HETATM   19  C   UNL     1      -9.483   9.326  70.890  1.00  0.00    -0.261 A  
HETATM   20  C   UNL     1     -11.723  10.214  70.664  1.00  0.00    -0.425 A  
HETATM   21  C   UNL     1     -10.776   9.485  71.397  1.00  0.00    -0.348 A  
BRANCH  19  22
HETATM   22  S   UNL     1      -8.319   8.247  71.707  1.00  0.00    -0.161 S  
HETATM   23  O   UNL     1      -8.279   8.631  73.100  1.00  0.00    -0.409 OA 
HETATM   24  O   UNL     1      -7.113   8.256  70.902  1.00  0.00    -0.047 OA 
BRANCH  22  25
HETATM   25  N   UNL     1      -8.983   6.707  71.525  1.00  0.00    -0.139 N  
HETATM   26  H   UNL     1      -9.007   6.034  72.290  1.00  0.00     0.000 HD 
BRANCH  25  27
HETATM   27  C   UNL     1      -9.503   6.408  70.249  1.00  0.00    -0.161 A  
HETATM   28  N   UNL     1     -10.845   6.373  70.211  1.00  0.00    -0.266 NA 
HETATM   29  C   UNL     1     -11.400   6.171  68.994  1.00  0.00    -0.183 A  
HETATM   30  C   UNL     1     -10.668   5.976  67.833  1.00  0.00    -0.363 A  
HETATM   31  C   UNL     1      -9.280   5.986  67.920  1.00  0.00    -0.111 A  
HETATM   32  C   UNL     1      -8.678   6.209  69.156  1.00  0.00    -0.121 A  
ENDBRANCH  25  27
ENDBRANCH  22  25
ENDBRANCH  19  22
ENDBRANCH  14  16
ENDBRANCH  12  14
ENDBRANCH   6  12
TORSDOF 6
ENDMDL
MODEL       71
REMARK 921   NORMALIZED FREE ENERGY PREDICTED BY IDOCK:   -6.44 KCAL/MOL
REMARK 922        TOTAL FREE ENERGY PREDICTED BY IDOCK:   -9.22 KCAL/MOL
REMARK 923 INTER-LIGAND FREE ENERGY PREDICTED BY IDOCK:   -8.58 KCAL/MOL
REMARK 924 INTRA-LIGAND FREE ENERGY PREDICTED BY IDOCK:   -0.64 KCAL/MOL
REMARK 927      BINDING AFFINITY PREDICTED BY RF-SCORE:    0.00 PKD
ROOT
HETATM    1  O   UNL     1      -9.866   4.188  67.390  1.00  0.00    -0.179 OA 
HETATM    2  C   UNL     1     -10.279   5.319  68.001  1.00  0.00    -0.143 C  
HETATM    3  C   UNL     1     -10.376   5.221  69.482  1.00  0.00    -0.333 A  
HETATM    4  O   UNL     1     -10.602   6.323  67.387  1.00  0.00    -0.213 OA 
HETATM    5  C   UNL     1     -11.282   6.077  70.133  1.00  0.00    -0.412 A  
HETATM    6  C   UNL     1     -11.404   6.071  71.532  1.00  0.00    -0.246 A  
HETATM    7  C   UNL     1     -10.604   5.178  72.261  1.00  0.00    -0.278 A  
HETATM    8  O   UNL     1      -8.709   3.501  69.616  1.00  0.00    -0.064 OA 
HETATM    9  C   UNL     1      -9.588   4.348  70.240  1.00  0.00    -0.193 A  
HETATM   10  H   UNL     1      -8.174   2.908  70.131  1.00  0.00     0.000 HD 
HETATM   11  C   UNL     1      -9.697   4.323  71.627  1.00  0.00    -0.243 A  
ENDROOT
BRANCH   6  12
HETATM   12  N   UNL     1     -12.279   6.900  72.269  1.00  0.00    -0.505 NA 
HETATM   13  H   UNL     1     -13.274   6.707  72.381  1.00  0.00     0.000 HD 
BRANCH  12  14
HETATM   14  N   UNL     1     -11.710   7.892  72.770  1.00  0.00    -0.580 NA 
HETATM   15  H   UNL     1     -11.352   7.918  73.725  1.00  0.00     0.000 HD 
BRANCH  14  16
HETATM   16  C   UNL     1     -11.617   8.975  71.867  1.00  0.00    -0.370 A  
HETATM   17  C   UNL     1     -12.782  10.803  70.746  1.00  0.00    -0.451 A  
HETATM   18  C   UNL     1     -12.769   9.747  71.663  1.00  0.00    -0.517 A  
HETATM   19  C   UNL     1     -11.617  11.128  70.047  1.00  0.00    -0.338 A  
HETATM   20  C   UNL     1     -10.453   9.322  71.161  1.00  0.00    -0.401 A  
HETATM   21  C   UNL     1     -10.449  10.388  70.250  1.00  0.00    -0.110 A  
BRANCH  19  22
HETATM   22  S   UNL     1     -11.693  12.362  68.759  1.00  0.00    -0.326 S  
HETATM   23  O   UNL     1     -12.446  13.481  69.277  1.00  0.00    -0.179 OA 
HETATM   24  O   UNL     1     -12.122  11.675  67.555  1.00  0.00    -0.611 OA 
BRANCH  22  25
HETATM   25  N   UNL     1     -10.082  12.787  68.497  1.00  0.00    -0.326 N  
HETATM   26  H   UNL     1      -9.312  12.162  68.736  1.00  0.00     0.000 HD 
BRANCH  25  27
HETATM   27  C   UNL     1      -9.865  14.058  67.929  1.00  0.00    -0.233 A  
HETATM   28  N   UNL     1      -9.629  15.019  68.837  1.00  0.00    -0.215 NA 
HETATM   29  C   UNL     1      -9.334  16.244  68.344  1.00  0.00    -0.210 A  
HETATM   30  C   UNL     1      -9.295  16.544  66.991  1.00  0.00    -0.242 A  
HETATM   31  C   UNL     1      -9.578  15.529  66.083  1.00  0.00    -0.362 A  
HETATM   32  C   UNL     1      -9.870  14.252  66.559  1.00  0.00    -0.299 A  
ENDBRANCH  25  27
ENDBRANCH  22  25
ENDBRANCH  19  22
ENDBRANCH  14  16
ENDBRANCH  12  14
ENDBRANCH   6  12
TORSDOF 6
ENDMDL
MODEL       72
REMARK 921   NORMALIZED FREE ENERGY PREDICTED BY IDOCK:   -6.43 KCAL/MOL
REMARK 922        TOTAL FREE ENERGY PREDICTED BY IDOCK:   -9.21 KCAL/MOL
REMARK 923 INTER-LIGAND FREE ENERGY PREDICTED BY IDOCK:   -8.54 KCAL/MOL
REMARK 924 INTRA-LIGAND FREE ENERGY PREDICTED BY IDOCK:   -0.67 KCAL/MOL
REMARK 927      BINDING AFFINITY PREDICTED BY RF-SCORE:    0.00 PKD
ROOT
HETATM    1  O   UNL     1      -9.894   3.551  72.111  1.00  0.00    -0.151 OA 
HETATM    2  C   UNL     1      -9.963   4.440  71.096  1.00  0.00    -0.173 C  
HETATM    3  C   UNL     1     -10.259   5.835  71.518  1.00  0.00    -0.255 A  
HETATM    4  O   UNL     1      -9.850   4.118  69.924  1.00  0.00    -0.215 OA 
HETATM    5  C   UNL     1     -10.888   6.678  70.584  1.00  0.00    -0.301 A  
HETATM    6  C   UNL     1     -11.166   8.019  70.893  1.00  0.00    -0.266 A  
HETATM    7  C   UNL     1     -10.811   8.491  72.165  1.00  0.00    -0.427 A  
HETATM    8  O   UNL     1      -9.309   5.527  73.699  1.00  0.00    -0.137 OA 
HETATM    9  C   UNL     1      -9.911   6.341  72.775  1.00  0.00    -0.166 A  
HETATM   10  H   UNL     1      -9.072   5.870  74.552  1.00  0.00     0.000 HD 
HETATM   11  C   UNL     1     -10.183   7.666  73.103  1.00  0.00    -0.401 A  
ENDROOT
BRANCH   6  12
HETATM   12  N   UNL     1     -11.785   8.938  70.015  1.00  0.00    -0.444 NA 
HETATM   13  H   UNL     1     -12.621   9.471  70.258  1.00  0.00     0.000 HD 
BRANCH  12  14
HETATM   14  N   UNL     1     -11.205   9.032  68.913  1.00  0.00    -0.409 NA 
HETATM   15  H   UNL     1     -10.889   8.229  68.369  1.00  0.00     0.000 HD 
BRANCH  14  16
HETATM   16  C   UNL     1     -11.036  10.373  68.505  1.00  0.00    -0.254 A  
HETATM   17  C   UNL     1      -9.701  11.962  67.220  1.00  0.00    -0.191 A  
HETATM   18  C   UNL     1      -9.976  10.654  67.631  1.00  0.00    -0.197 A  
HETATM   19  C   UNL     1     -10.521  13.009  67.648  1.00  0.00    -0.225 A  
HETATM   20  C   UNL     1     -11.854  11.439  68.918  1.00  0.00    -0.413 A  
HETATM   21  C   UNL     1     -11.598  12.752  68.501  1.00  0.00    -0.358 A  
BRANCH  19  22
HETATM   22  S   UNL     1     -10.059  14.689  67.257  1.00  0.00    -0.237 S  
HETATM   23  O   UNL     1      -8.659  14.680  66.900  1.00  0.00    -0.225 OA 
HETATM   24  O   UNL     1     -10.539  15.514  68.349  1.00  0.00    -0.240 OA 
BRANCH  22  25
HETATM   25  N   UNL     1     -11.018  15.083  65.927  1.00  0.00    -0.337 N  
HETATM   26  H   UNL     1     -11.326  16.038  65.746  1.00  0.00     0.000 HD 
BRANCH  25  27
HETATM   27  C   UNL     1     -11.368  14.012  65.080  1.00  0.00    -0.328 A  
HETATM   28  N   UNL     1     -10.340  13.544  64.353  1.00  0.00    -0.391 NA 
HETATM   29  C   UNL     1     -10.599  12.463  63.583  1.00  0.00    -0.445 A  
HETATM   30  C   UNL     1     -11.843  11.857  63.495  1.00  0.00    -0.560 A  
HETATM   31  C   UNL     1     -12.890  12.391  64.239  1.00  0.00    -0.356 A  
HETATM   32  C   UNL     1     -12.651  13.494  65.054  1.00  0.00    -0.441 A  
ENDBRANCH  25  27
ENDBRANCH  22  25
ENDBRANCH  19  22
ENDBRANCH  14  16
ENDBRANCH  12  14
ENDBRANCH   6  12
TORSDOF 6
ENDMDL
MODEL       73
REMARK 921   NORMALIZED FREE ENERGY PREDICTED BY IDOCK:   -6.42 KCAL/MOL
REMARK 922        TOTAL FREE ENERGY PREDICTED BY IDOCK:   -9.20 KCAL/MOL
REMARK 923 INTER-LIGAND FREE ENERGY PREDICTED BY IDOCK:   -9.15 KCAL/MOL
REMARK 924 INTRA-LIGAND FREE ENERGY PREDICTED BY IDOCK:   -0.04 KCAL/MOL
REMARK 927      BINDING AFFINITY PREDICTED BY RF-SCORE:    0.00 PKD
ROOT
HETATM    1  O   UNL     1      -8.873   7.459  72.533  1.00  0.00    -0.123 OA 
HETATM    2  C   UNL     1      -9.081   8.618  71.871  1.00  0.00    -0.256 C  
HETATM    3  C   UNL     1     -10.510   8.919  71.589  1.00  0.00    -0.408 A  
HETATM    4  O   UNL     1      -8.170   9.332  71.484  1.00  0.00    -0.327 OA 
HETATM    5  C   UNL     1     -10.796   9.737  70.480  1.00  0.00    -0.387 A  
HETATM    6  C   UNL     1     -12.117  10.098  70.171  1.00  0.00    -0.149 A  
HETATM    7  C   UNL     1     -13.145   9.609  70.991  1.00  0.00    -0.310 A  
HETATM    8  O   UNL     1     -11.294   7.649  73.466  1.00  0.00    -0.604 OA 
HETATM    9  C   UNL     1     -11.558   8.456  72.390  1.00  0.00    -0.380 A  
HETATM   10  H   UNL     1     -12.006   7.334  74.011  1.00  0.00     0.000 HD 
HETATM   11  C   UNL     1     -12.875   8.798  72.097  1.00  0.00    -0.456 A  
ENDROOT
BRANCH   6  12
HETATM   12  N   UNL     1     -12.495  10.920  69.086  1.00  0.00    -0.670 NA 
HETATM   13  H   UNL     1     -13.277  11.575  69.122  1.00  0.00     0.000 HD 
BRANCH  12  14
HETATM   14  N   UNL     1     -11.776  10.765  68.077  1.00  0.00    -0.729 NA 
HETATM   15  H   UNL     1     -11.476   9.853  67.730  1.00  0.00     0.000 HD 
BRANCH  14  16
HETATM   16  C   UNL     1     -11.424  11.991  67.470  1.00  0.00    -0.333 A  
HETATM   17  C   UNL     1      -9.740  13.741  67.232  1.00  0.00    -0.242 A  
HETATM   18  C   UNL     1     -10.150  12.506  67.746  1.00  0.00    -0.218 A  
HETATM   19  C   UNL     1     -10.593  14.460  66.392  1.00  0.00    -0.297 A  
HETATM   20  C   UNL     1     -12.266  12.724  66.616  1.00  0.00    -0.162 A  
HETATM   21  C   UNL     1     -11.860  13.956  66.083  1.00  0.00    -0.422 A  
BRANCH  19  22
HETATM   22  S   UNL     1     -10.128  16.107  65.884  1.00  0.00    -0.361 S  
HETATM   23  O   UNL     1     -10.988  16.479  64.784  1.00  0.00    -0.688 OA 
HETATM   24  O   UNL     1      -8.686  16.098  65.725  1.00  0.00    -0.334 OA 
BRANCH  22  25
HETATM   25  N   UNL     1     -10.436  17.061  67.240  1.00  0.00    -0.316 N  
HETATM   26  H   UNL     1     -10.434  18.079  67.197  1.00  0.00     0.000 HD 
BRANCH  25  27
HETATM   27  C   UNL     1     -10.695  16.364  68.437  1.00  0.00    -0.327 A  
HETATM   28  N   UNL     1     -12.002  16.159  68.667  1.00  0.00    -0.115 NA 
HETATM   29  C   UNL     1     -12.305  15.424  69.761  1.00  0.00    -0.255 A  
HETATM   30  C   UNL     1     -11.360  14.916  70.639  1.00  0.00    -0.275 A  
HETATM   31  C   UNL     1     -10.018  15.178  70.384  1.00  0.00     0.255 A  
HETATM   32  C   UNL     1      -9.671  15.919  69.256  1.00  0.00    -0.263 A  
ENDBRANCH  25  27
ENDBRANCH  22  25
ENDBRANCH  19  22
ENDBRANCH  14  16
ENDBRANCH  12  14
ENDBRANCH   6  12
TORSDOF 6
ENDMDL
MODEL       74
REMARK 921   NORMALIZED FREE ENERGY PREDICTED BY IDOCK:   -6.40 KCAL/MOL
REMARK 922        TOTAL FREE ENERGY PREDICTED BY IDOCK:   -9.17 KCAL/MOL
REMARK 923 INTER-LIGAND FREE ENERGY PREDICTED BY IDOCK:   -8.49 KCAL/MOL
REMARK 924 INTRA-LIGAND FREE ENERGY PREDICTED BY IDOCK:   -0.68 KCAL/MOL
REMARK 927      BINDING AFFINITY PREDICTED BY RF-SCORE:    0.00 PKD
ROOT
HETATM    1  O   UNL     1     -10.059   3.695  72.398  1.00  0.00    -0.158 OA 
HETATM    2  C   UNL     1     -10.730   4.859  72.262  1.00  0.00    -0.150 C  
HETATM    3  C   UNL     1     -10.380   5.633  71.041  1.00  0.00    -0.297 A  
HETATM    4  O   UNL     1     -11.516   5.273  73.099  1.00  0.00    -0.310 OA 
HETATM    5  C   UNL     1     -10.562   7.028  71.080  1.00  0.00    -0.239 A  
HETATM    6  C   UNL     1     -10.291   7.823  69.955  1.00  0.00    -0.223 A  
HETATM    7  C   UNL     1      -9.821   7.190  68.795  1.00  0.00    -0.158 A  
HETATM    8  O   UNL     1      -9.723   3.677  69.818  1.00  0.00    -0.185 OA 
HETATM    9  C   UNL     1      -9.917   5.033  69.865  1.00  0.00    -0.251 A  
HETATM   10  H   UNL     1      -9.410   3.269  69.020  1.00  0.00     0.000 HD 
HETATM   11  C   UNL     1      -9.637   5.804  68.741  1.00  0.00    -0.156 A  
ENDROOT
BRANCH   6  12
HETATM   12  N   UNL     1     -10.454   9.226  69.901  1.00  0.00    -0.215 NA 
HETATM   13  H   UNL     1      -9.781   9.885  70.292  1.00  0.00     0.000 HD 
BRANCH  12  14
HETATM   14  N   UNL     1     -11.505   9.577  69.326  1.00  0.00    -0.438 NA 
HETATM   15  H   UNL     1     -12.429   9.215  69.563  1.00  0.00     0.000 HD 
BRANCH  14  16
HETATM   16  C   UNL     1     -11.273  10.532  68.311  1.00  0.00    -0.291 A  
HETATM   17  C   UNL     1     -11.621  12.823  67.547  1.00  0.00    -0.412 A  
HETATM   18  C   UNL     1     -11.758  11.830  68.522  1.00  0.00    -0.390 A  
HETATM   19  C   UNL     1     -10.951  12.537  66.355  1.00  0.00    -0.273 A  
HETATM   20  C   UNL     1     -10.595  10.265  67.109  1.00  0.00    -0.320 A  
HETATM   21  C   UNL     1     -10.438  11.256  66.131  1.00  0.00    -0.305 A  
BRANCH  19  22
HETATM   22  S   UNL     1     -10.934  13.758  65.053  1.00  0.00    -0.379 S  
HETATM   23  O   UNL     1     -12.204  14.447  65.091  1.00  0.00    -0.396 OA 
HETATM   24  O   UNL     1     -10.500  13.073  63.850  1.00  0.00    -0.392 OA 
BRANCH  22  25
HETATM   25  N   UNL     1      -9.672  14.794  65.473  1.00  0.00    -0.485 N  
HETATM   26  H   UNL     1      -8.699  14.575  65.262  1.00  0.00     0.000 HD 
BRANCH  25  27
HETATM   27  C   UNL     1     -10.044  15.982  66.134  1.00  0.00    -0.327 A  
HETATM   28  N   UNL     1     -10.071  17.058  65.332  1.00  0.00    -0.579 NA 
HETATM   29  C   UNL     1     -10.499  18.210  65.895  1.00  0.00    -0.283 A  
HETATM   30  C   UNL     1     -10.872  18.328  67.225  1.00  0.00    -0.269 A  
HETATM   31  C   UNL     1     -10.799  17.198  68.033  1.00  0.00    -0.317 A  
HETATM   32  C   UNL     1     -10.377  15.992  67.478  1.00  0.00    -0.287 A  
ENDBRANCH  25  27
ENDBRANCH  22  25
ENDBRANCH  19  22
ENDBRANCH  14  16
ENDBRANCH  12  14
ENDBRANCH   6  12
TORSDOF 6
ENDMDL
MODEL       75
REMARK 921   NORMALIZED FREE ENERGY PREDICTED BY IDOCK:   -6.39 KCAL/MOL
REMARK 922        TOTAL FREE ENERGY PREDICTED BY IDOCK:   -9.15 KCAL/MOL
REMARK 923 INTER-LIGAND FREE ENERGY PREDICTED BY IDOCK:   -8.33 KCAL/MOL
REMARK 924 INTRA-LIGAND FREE ENERGY PREDICTED BY IDOCK:   -0.83 KCAL/MOL
REMARK 927      BINDING AFFINITY PREDICTED BY RF-SCORE:    0.00 PKD
ROOT
HETATM    1  O   UNL     1      -5.484   9.065  69.446  1.00  0.00    -0.035 OA 
HETATM    2  C   UNL     1      -6.568   9.604  70.044  1.00  0.00    -0.072 C  
HETATM    3  C   UNL     1      -7.870   9.095  69.535  1.00  0.00    -0.082 A  
HETATM    4  O   UNL     1      -6.491  10.478  70.893  1.00  0.00    -0.344 OA 
HETATM    5  C   UNL     1      -8.990   9.937  69.657  1.00  0.00    -0.232 A  
HETATM    6  C   UNL     1     -10.261   9.514  69.235  1.00  0.00    -0.203 A  
HETATM    7  C   UNL     1     -10.380   8.233  68.677  1.00  0.00    -0.225 A  
HETATM    8  O   UNL     1      -6.940   6.994  68.847  1.00  0.00    -0.073 OA 
HETATM    9  C   UNL     1      -8.025   7.820  68.982  1.00  0.00    -0.123 A  
HETATM   10  H   UNL     1      -7.045   6.127  68.472  1.00  0.00     0.000 HD 
HETATM   11  C   UNL     1      -9.275   7.384  68.553  1.00  0.00    -0.142 A  
ENDROOT
BRANCH   6  12
HETATM   12  N   UNL     1     -11.440  10.288  69.326  1.00  0.00    -0.401 NA 
HETATM   13  H   UNL     1     -11.820  10.631  70.209  1.00  0.00     0.000 HD 
BRANCH  12  14
HETATM   14  N   UNL     1     -11.970  10.510  68.217  1.00  0.00    -0.784 NA 
HETATM   15  H   UNL     1     -12.577   9.846  67.736  1.00  0.00     0.000 HD 
BRANCH  14  16
HETATM   16  C   UNL     1     -11.635  11.783  67.704  1.00  0.00    -0.294 A  
HETATM   17  C   UNL     1     -10.294  13.051  66.107  1.00  0.00    -0.285 A  
HETATM   18  C   UNL     1     -10.724  11.831  66.640  1.00  0.00    -0.300 A  
HETATM   19  C   UNL     1     -10.811  14.247  66.610  1.00  0.00    -0.301 A  
HETATM   20  C   UNL     1     -12.150  12.996  68.192  1.00  0.00    -0.201 A  
HETATM   21  C   UNL     1     -11.739  14.225  67.656  1.00  0.00    -0.421 A  
BRANCH  19  22
HETATM   22  S   UNL     1     -10.129  15.796  66.040  1.00  0.00    -0.363 S  
HETATM   23  O   UNL     1     -10.743  16.096  64.767  1.00  0.00    -0.648 OA 
HETATM   24  O   UNL     1      -8.688  15.679  66.157  1.00  0.00    -0.317 OA 
BRANCH  22  25
HETATM   25  N   UNL     1     -10.598  16.911  67.215  1.00  0.00    -0.304 N  
HETATM   26  H   UNL     1     -11.341  16.713  67.883  1.00  0.00     0.000 HD 
BRANCH  25  27
HETATM   27  C   UNL     1      -9.898  18.135  67.216  1.00  0.00    -0.314 A  
HETATM   28  N   UNL     1     -10.281  18.974  66.240  1.00  0.00    -0.420 NA 
HETATM   29  C   UNL     1      -9.700  20.195  66.243  1.00  0.00    -0.397 A  
HETATM   30  C   UNL     1      -8.739  20.592  67.160  1.00  0.00    -0.375 A  
HETATM   31  C   UNL     1      -8.346  19.682  68.137  1.00  0.00    -0.347 A  
HETATM   32  C   UNL     1      -8.938  18.422  68.171  1.00  0.00    -0.325 A  
ENDBRANCH  25  27
ENDBRANCH  22  25
ENDBRANCH  19  22
ENDBRANCH  14  16
ENDBRANCH  12  14
ENDBRANCH   6  12
TORSDOF 6
ENDMDL
MODEL       76
REMARK 921   NORMALIZED FREE ENERGY PREDICTED BY IDOCK:   -6.37 KCAL/MOL
REMARK 922        TOTAL FREE ENERGY PREDICTED BY IDOCK:   -9.13 KCAL/MOL
REMARK 923 INTER-LIGAND FREE ENERGY PREDICTED BY IDOCK:   -8.06 KCAL/MOL
REMARK 924 INTRA-LIGAND FREE ENERGY PREDICTED BY IDOCK:   -1.07 KCAL/MOL
REMARK 927      BINDING AFFINITY PREDICTED BY RF-SCORE:    0.00 PKD
ROOT
HETATM    1  O   UNL     1     -12.953  14.261  65.175  1.00  0.00    -0.692 OA 
HETATM    2  C   UNL     1     -12.621  12.972  64.946  1.00  0.00    -0.428 C  
HETATM    3  C   UNL     1     -11.734  12.371  65.976  1.00  0.00    -0.469 A  
HETATM    4  O   UNL     1     -12.972  12.366  63.946  1.00  0.00    -0.754 OA 
HETATM    5  C   UNL     1     -10.907  11.304  65.581  1.00  0.00    -0.242 A  
HETATM    6  C   UNL     1     -10.069  10.658  66.504  1.00  0.00    -0.223 A  
HETATM    7  C   UNL     1     -10.070  11.117  67.830  1.00  0.00    -0.200 A  
HETATM    8  O   UNL     1     -12.507  13.844  67.704  1.00  0.00    -0.449 OA 
HETATM    9  C   UNL     1     -11.716  12.797  67.308  1.00  0.00    -0.378 A  
HETATM   10  H   UNL     1     -12.496  14.133  68.609  1.00  0.00     0.000 HD 
HETATM   11  C   UNL     1     -10.888  12.175  68.238  1.00  0.00    -0.256 A  
ENDROOT
BRANCH   6  12
HETATM   12  N   UNL     1      -9.214   9.575  66.198  1.00  0.00    -0.164 NA 
HETATM   13  H   UNL     1      -8.198   9.655  66.162  1.00  0.00     0.000 HD 
BRANCH  12  14
HETATM   14  N   UNL     1      -9.829   8.511  65.978  1.00  0.00    -0.472 NA 
HETATM   15  H   UNL     1     -10.431   8.362  65.167  1.00  0.00     0.000 HD 
BRANCH  14  16
HETATM   16  C   UNL     1      -9.599   7.537  66.975  1.00  0.00    -0.170 A  
HETATM   17  C   UNL     1     -10.363   5.472  68.026  1.00  0.00    -0.237 A  
HETATM   18  C   UNL     1     -10.484   6.453  67.036  1.00  0.00    -0.349 A  
HETATM   19  C   UNL     1      -9.317   5.544  68.949  1.00  0.00    -0.125 A  
HETATM   20  C   UNL     1      -8.548   7.589  67.907  1.00  0.00    -0.121 A  
HETATM   21  C   UNL     1      -8.407   6.604  68.895  1.00  0.00    -0.120 A  
BRANCH  19  22
HETATM   22  S   UNL     1      -9.275   4.386  70.307  1.00  0.00    -0.139 S  
HETATM   23  O   UNL     1      -8.020   4.577  70.999  1.00  0.00    -0.074 OA 
HETATM   24  O   UNL     1      -9.626   3.091  69.756  1.00  0.00    -0.140 OA 
BRANCH  22  25
HETATM   25  N   UNL     1     -10.576   4.840  71.279  1.00  0.00    -0.049 N  
HETATM   26  H   UNL     1     -11.189   4.154  71.717  1.00  0.00     0.000 HD 
BRANCH  25  27
HETATM   27  C   UNL     1     -10.763   6.227  71.448  1.00  0.00    -0.248 A  
HETATM   28  N   UNL     1      -9.754   6.830  72.096  1.00  0.00    -0.150 NA 
HETATM   29  C   UNL     1      -9.842   8.174  72.216  1.00  0.00    -0.260 A  
HETATM   30  C   UNL     1     -10.907   8.925  71.739  1.00  0.00    -0.436 A  
HETATM   31  C   UNL     1     -11.948   8.259  71.102  1.00  0.00    -0.290 A  
HETATM   32  C   UNL     1     -11.879   6.876  70.949  1.00  0.00    -0.424 A  
ENDBRANCH  25  27
ENDBRANCH  22  25
ENDBRANCH  19  22
ENDBRANCH  14  16
ENDBRANCH  12  14
ENDBRANCH   6  12
TORSDOF 6
ENDMDL
MODEL       77
REMARK 921   NORMALIZED FREE ENERGY PREDICTED BY IDOCK:   -6.37 KCAL/MOL
REMARK 922        TOTAL FREE ENERGY PREDICTED BY IDOCK:   -9.13 KCAL/MOL
REMARK 923 INTER-LIGAND FREE ENERGY PREDICTED BY IDOCK:   -7.93 KCAL/MOL
REMARK 924 INTRA-LIGAND FREE ENERGY PREDICTED BY IDOCK:   -1.19 KCAL/MOL
REMARK 927      BINDING AFFINITY PREDICTED BY RF-SCORE:    0.00 PKD
ROOT
HETATM    1  O   UNL     1      -5.772   9.047  63.802  1.00  0.00    -0.070 OA 
HETATM    2  C   UNL     1      -6.559  10.058  63.375  1.00  0.00    -0.135 C  
HETATM    3  C   UNL     1      -7.871  10.152  64.068  1.00  0.00    -0.149 A  
HETATM    4  O   UNL     1      -6.246  10.799  62.457  1.00  0.00    -0.139 OA 
HETATM    5  C   UNL     1      -8.935  10.750  63.368  1.00  0.00    -0.208 A  
HETATM    6  C   UNL     1     -10.195  10.911  63.967  1.00  0.00    -0.357 A  
HETATM    7  C   UNL     1     -10.366  10.447  65.280  1.00  0.00    -0.267 A  
HETATM    8  O   UNL     1      -7.050   9.113  66.067  1.00  0.00    -0.087 OA 
HETATM    9  C   UNL     1      -8.074   9.708  65.378  1.00  0.00    -0.127 A  
HETATM   10  H   UNL     1      -7.187   8.811  66.957  1.00  0.00     0.000 HD 
HETATM   11  C   UNL     1      -9.317   9.853  65.989  1.00  0.00    -0.240 A  
ENDROOT
BRANCH   6  12
HETATM   12  N   UNL     1     -11.314  11.507  63.344  1.00  0.00    -0.778 NA 
HETATM   13  H   UNL     1     -12.138  10.982  63.048  1.00  0.00     0.000 HD 
BRANCH  12  14
HETATM   14  N   UNL     1     -11.194  12.741  63.193  1.00  0.00    -0.707 NA 
HETATM   15  H   UNL     1     -11.052  13.190  62.288  1.00  0.00     0.000 HD 
BRANCH  14  16
HETATM   16  C   UNL     1     -11.277  13.445  64.415  1.00  0.00    -0.384 A  
HETATM   17  C   UNL     1     -10.104  14.791  66.078  1.00  0.00    -0.327 A  
HETATM   18  C   UNL     1     -10.128  14.116  64.854  1.00  0.00    -0.280 A  
HETATM   19  C   UNL     1     -11.258  14.841  66.865  1.00  0.00    -0.347 A  
HETATM   20  C   UNL     1     -12.431  13.512  65.216  1.00  0.00    -0.525 A  
HETATM   21  C   UNL     1     -12.424  14.199  66.438  1.00  0.00    -0.353 A  
BRANCH  19  22
HETATM   22  S   UNL     1     -11.166  15.556  68.498  1.00  0.00    -0.351 S  
HETATM   23  O   UNL     1     -12.519  15.686  68.989  1.00  0.00    -0.088 OA 
HETATM   24  O   UNL     1     -10.303  16.717  68.392  1.00  0.00    -0.281 OA 
BRANCH  22  25
HETATM   25  N   UNL     1     -10.303  14.422  69.399  1.00  0.00    -0.424 N  
HETATM   26  H   UNL     1      -9.385  14.628  69.792  1.00  0.00     0.000 HD 
BRANCH  25  27
HETATM   27  C   UNL     1     -10.929  13.172  69.577  1.00  0.00     0.085 A  
HETATM   28  N   UNL     1     -11.816  13.153  70.584  1.00  0.00    -0.146 NA 
HETATM   29  C   UNL     1     -12.506  12.001  70.748  1.00  0.00    -0.279 A  
HETATM   30  C   UNL     1     -12.321  10.871  69.967  1.00  0.00    -0.385 A  
HETATM   31  C   UNL     1     -11.369  10.920  68.954  1.00  0.00    -0.354 A  
HETATM   32  C   UNL     1     -10.653  12.097  68.749  1.00  0.00    -0.230 A  
ENDBRANCH  25  27
ENDBRANCH  22  25
ENDBRANCH  19  22
ENDBRANCH  14  16
ENDBRANCH  12  14
ENDBRANCH   6  12
TORSDOF 6
ENDMDL
MODEL       78
REMARK 921   NORMALIZED FREE ENERGY PREDICTED BY IDOCK:   -6.37 KCAL/MOL
REMARK 922        TOTAL FREE ENERGY PREDICTED BY IDOCK:   -9.13 KCAL/MOL
REMARK 923 INTER-LIGAND FREE ENERGY PREDICTED BY IDOCK:   -8.12 KCAL/MOL
REMARK 924 INTRA-LIGAND FREE ENERGY PREDICTED BY IDOCK:   -1.01 KCAL/MOL
REMARK 927      BINDING AFFINITY PREDICTED BY RF-SCORE:    0.00 PKD
ROOT
HETATM    1  O   UNL     1      -8.351   8.141  63.717  1.00  0.00    -0.110 OA 
HETATM    2  C   UNL     1      -8.650   9.369  64.193  1.00  0.00    -0.198 C  
HETATM    3  C   UNL     1      -9.367   9.367  65.496  1.00  0.00    -0.315 A  
HETATM    4  O   UNL     1      -8.404  10.396  63.580  1.00  0.00    -0.170 OA 
HETATM    5  C   UNL     1     -10.188  10.472  65.789  1.00  0.00    -0.310 A  
HETATM    6  C   UNL     1     -10.867  10.562  67.014  1.00  0.00    -0.225 A  
HETATM    7  C   UNL     1     -10.715   9.513  67.933  1.00  0.00    -0.285 A  
HETATM    8  O   UNL     1      -8.444   7.256  66.161  1.00  0.00    -0.128 OA 
HETATM    9  C   UNL     1      -9.231   8.343  66.439  1.00  0.00    -0.201 A  
HETATM   10  H   UNL     1      -8.351   6.560  66.801  1.00  0.00     0.000 HD 
HETATM   11  C   UNL     1      -9.901   8.410  67.657  1.00  0.00    -0.222 A  
ENDROOT
BRANCH   6  12
HETATM   12  N   UNL     1     -11.703  11.635  67.396  1.00  0.00    -0.606 NA 
HETATM   13  H   UNL     1     -11.975  11.820  68.362  1.00  0.00     0.000 HD 
BRANCH  12  14
HETATM   14  N   UNL     1     -12.076  12.335  66.431  1.00  0.00    -0.612 NA 
HETATM   15  H   UNL     1     -12.610  11.973  65.641  1.00  0.00     0.000 HD 
BRANCH  14  16
HETATM   16  C   UNL     1     -11.674  13.684  66.555  1.00  0.00    -0.382 A  
HETATM   17  C   UNL     1     -10.706  15.635  65.455  1.00  0.00    -0.424 A  
HETATM   18  C   UNL     1     -11.177  14.319  65.409  1.00  0.00    -0.329 A  
HETATM   19  C   UNL     1     -10.769  16.353  66.652  1.00  0.00    -0.173 A  
HETATM   20  C   UNL     1     -11.738  14.425  67.749  1.00  0.00    -0.407 A  
HETATM   21  C   UNL     1     -11.283  15.750  67.803  1.00  0.00    -0.286 A  
BRANCH  19  22
HETATM   22  S   UNL     1     -10.010  17.966  66.739  1.00  0.00    -0.357 S  
HETATM   23  O   UNL     1     -10.164  18.443  68.094  1.00  0.00    -0.353 OA 
HETATM   24  O   UNL     1     -10.533  18.729  65.622  1.00  0.00    -0.594 OA 
BRANCH  22  25
HETATM   25  N   UNL     1      -8.387  17.679  66.381  1.00  0.00    -0.261 N  
HETATM   26  H   UNL     1      -8.031  17.704  65.426  1.00  0.00     0.000 HD 
BRANCH  25  27
HETATM   27  C   UNL     1      -7.553  17.404  67.483  1.00  0.00    -0.187 A  
HETATM   28  N   UNL     1      -6.859  18.471  67.912  1.00  0.00    -0.216 NA 
HETATM   29  C   UNL     1      -6.103  18.285  69.018  1.00  0.00    -0.228 A  
HETATM   30  C   UNL     1      -5.997  17.075  69.686  1.00  0.00    -0.227 A  
HETATM   31  C   UNL     1      -6.705  15.985  69.192  1.00  0.00    -0.174 A  
HETATM   32  C   UNL     1      -7.506  16.149  68.064  1.00  0.00    -0.141 A  
ENDBRANCH  25  27
ENDBRANCH  22  25
ENDBRANCH  19  22
ENDBRANCH  14  16
ENDBRANCH  12  14
ENDBRANCH   6  12
TORSDOF 6
ENDMDL
MODEL       79
REMARK 921   NORMALIZED FREE ENERGY PREDICTED BY IDOCK:   -6.36 KCAL/MOL
REMARK 922        TOTAL FREE ENERGY PREDICTED BY IDOCK:   -9.12 KCAL/MOL
REMARK 923 INTER-LIGAND FREE ENERGY PREDICTED BY IDOCK:   -8.43 KCAL/MOL
REMARK 924 INTRA-LIGAND FREE ENERGY PREDICTED BY IDOCK:   -0.69 KCAL/MOL
REMARK 927      BINDING AFFINITY PREDICTED BY RF-SCORE:    0.00 PKD
ROOT
HETATM    1  O   UNL     1     -11.254   6.035  69.069  1.00  0.00    -0.367 OA 
HETATM    2  C   UNL     1     -10.912   6.627  67.903  1.00  0.00    -0.257 C  
HETATM    3  C   UNL     1     -10.490   8.047  68.034  1.00  0.00    -0.243 A  
HETATM    4  O   UNL     1     -10.997   6.063  66.824  1.00  0.00    -0.316 OA 
HETATM    5  C   UNL     1     -10.658   8.882  66.914  1.00  0.00    -0.254 A  
HETATM    6  C   UNL     1     -10.249  10.224  66.946  1.00  0.00    -0.230 A  
HETATM    7  C   UNL     1      -9.679  10.714  68.130  1.00  0.00    -0.167 A  
HETATM    8  O   UNL     1      -9.751   7.766  70.299  1.00  0.00    -0.179 OA 
HETATM    9  C   UNL     1      -9.910   8.565  69.196  1.00  0.00    -0.186 A  
HETATM   10  H   UNL     1      -9.357   8.118  71.088  1.00  0.00     0.000 HD 
HETATM   11  C   UNL     1      -9.503   9.895  69.250  1.00  0.00    -0.218 A  
ENDROOT
BRANCH   6  12
HETATM   12  N   UNL     1     -10.371  11.130  65.868  1.00  0.00    -0.253 NA 
HETATM   13  H   UNL     1      -9.670  11.226  65.133  1.00  0.00     0.000 HD 
BRANCH  12  14
HETATM   14  N   UNL     1     -11.423  11.801  65.907  1.00  0.00    -0.324 NA 
HETATM   15  H   UNL     1     -12.351  11.412  65.735  1.00  0.00     0.000 HD 
BRANCH  14  16
HETATM   16  C   UNL     1     -11.187  13.160  66.214  1.00  0.00    -0.301 A  
HETATM   17  C   UNL     1     -10.024  15.217  65.606  1.00  0.00    -0.397 A  
HETATM   18  C   UNL     1     -10.356  13.883  65.348  1.00  0.00    -0.364 A  
HETATM   19  C   UNL     1     -10.561  15.861  66.724  1.00  0.00    -0.309 A  
HETATM   20  C   UNL     1     -11.724  13.826  67.329  1.00  0.00    -0.416 A  
HETATM   21  C   UNL     1     -11.410  15.168  67.591  1.00  0.00    -0.327 A  
BRANCH  19  22
HETATM   22  S   UNL     1      -9.996  17.504  67.135  1.00  0.00    -0.327 S  
HETATM   23  O   UNL     1     -10.537  17.834  68.434  1.00  0.00    -0.357 OA 
HETATM   24  O   UNL     1     -10.278  18.338  65.983  1.00  0.00    -0.485 OA 
BRANCH  22  25
HETATM   25  N   UNL     1      -8.316  17.359  67.199  1.00  0.00    -0.209 N  
HETATM   26  H   UNL     1      -7.859  16.495  67.485  1.00  0.00     0.000 HD 
BRANCH  25  27
HETATM   27  C   UNL     1      -7.586  18.507  66.833  1.00  0.00    -0.221 A  
HETATM   28  N   UNL     1      -7.164  18.492  65.558  1.00  0.00    -0.532 NA 
HETATM   29  C   UNL     1      -6.527  19.604  65.128  1.00  0.00    -0.282 A  
HETATM   30  C   UNL     1      -6.274  20.708  65.927  1.00  0.00    -0.265 A  
HETATM   31  C   UNL     1      -6.698  20.673  67.252  1.00  0.00    -0.350 A  
HETATM   32  C   UNL     1      -7.372  19.547  67.721  1.00  0.00    -0.297 A  
ENDBRANCH  25  27
ENDBRANCH  22  25
ENDBRANCH  19  22
ENDBRANCH  14  16
ENDBRANCH  12  14
ENDBRANCH   6  12
TORSDOF 6
ENDMDL
MODEL       80
REMARK 921   NORMALIZED FREE ENERGY PREDICTED BY IDOCK:   -6.35 KCAL/MOL
REMARK 922        TOTAL FREE ENERGY PREDICTED BY IDOCK:   -9.10 KCAL/MOL
REMARK 923 INTER-LIGAND FREE ENERGY PREDICTED BY IDOCK:   -8.59 KCAL/MOL
REMARK 924 INTRA-LIGAND FREE ENERGY PREDICTED BY IDOCK:   -0.52 KCAL/MOL
REMARK 927      BINDING AFFINITY PREDICTED BY RF-SCORE:    0.00 PKD
ROOT
HETATM    1  O   UNL     1     -10.853  10.928  63.342  1.00  0.00    -0.170 OA 
HETATM    2  C   UNL     1     -10.458  11.089  64.623  1.00  0.00    -0.329 C  
HETATM    3  C   UNL     1     -10.973  12.321  65.278  1.00  0.00    -0.347 A  
HETATM    4  O   UNL     1      -9.694  10.318  65.182  1.00  0.00    -0.254 OA 
HETATM    5  C   UNL     1     -10.218  12.860  66.336  1.00  0.00    -0.273 A  
HETATM    6  C   UNL     1     -10.657  13.998  67.030  1.00  0.00    -0.279 A  
HETATM    7  C   UNL     1     -11.863  14.592  66.629  1.00  0.00    -0.383 A  
HETATM    8  O   UNL     1     -12.914  12.425  63.873  1.00  0.00    -0.754 OA 
HETATM    9  C   UNL     1     -12.175  12.933  64.910  1.00  0.00    -0.453 A  
HETATM   10  H   UNL     1     -13.731  12.841  63.623  1.00  0.00     0.000 HD 
HETATM   11  C   UNL     1     -12.625  14.066  65.581  1.00  0.00    -0.542 A  
ENDROOT
BRANCH   6  12
HETATM   12  N   UNL     1      -9.971  14.601  68.108  1.00  0.00    -0.219 NA 
HETATM   13  H   UNL     1     -10.439  15.101  68.863  1.00  0.00     0.000 HD 
BRANCH  12  14
HETATM   14  N   UNL     1      -8.732  14.458  68.043  1.00  0.00    -0.162 NA 
HETATM   15  H   UNL     1      -8.258  13.561  68.154  1.00  0.00     0.000 HD 
BRANCH  14  16
HETATM   16  C   UNL     1      -8.060  15.676  67.797  1.00  0.00    -0.146 A  
HETATM   17  C   UNL     1      -7.136  17.725  68.749  1.00  0.00    -0.263 A  
HETATM   18  C   UNL     1      -7.750  16.478  68.905  1.00  0.00    -0.236 A  
HETATM   19  C   UNL     1      -6.781  18.168  67.472  1.00  0.00    -0.191 A  
HETATM   20  C   UNL     1      -7.688  16.135  66.522  1.00  0.00    -0.219 A  
HETATM   21  C   UNL     1      -7.058  17.376  66.354  1.00  0.00    -0.328 A  
BRANCH  19  22
HETATM   22  S   UNL     1      -6.157  19.828  67.271  1.00  0.00    -0.183 S  
HETATM   23  O   UNL     1      -5.148  19.788  66.237  1.00  0.00    -0.161 OA 
HETATM   24  O   UNL     1      -5.834  20.312  68.600  1.00  0.00    -0.250 OA 
BRANCH  22  25
HETATM   25  N   UNL     1      -7.499  20.718  66.771  1.00  0.00    -0.518 N  
HETATM   26  H   UNL     1      -7.408  21.634  66.333  1.00  0.00     0.000 HD 
BRANCH  25  27
HETATM   27  C   UNL     1      -8.754  20.117  66.995  1.00  0.00    -0.337 A  
HETATM   28  N   UNL     1      -9.329  19.640  65.879  1.00  0.00    -0.397 NA 
HETATM   29  C   UNL     1     -10.498  18.981  66.047  1.00  0.00    -0.458 A  
HETATM   30  C   UNL     1     -11.119  18.809  67.274  1.00  0.00    -0.066 A  
HETATM   31  C   UNL     1     -10.508  19.346  68.402  1.00  0.00    -0.356 A  
HETATM   32  C   UNL     1      -9.295  20.016  68.265  1.00  0.00    -0.310 A  
ENDBRANCH  25  27
ENDBRANCH  22  25
ENDBRANCH  19  22
ENDBRANCH  14  16
ENDBRANCH  12  14
ENDBRANCH   6  12
TORSDOF 6
ENDMDL
MODEL       81
REMARK 921   NORMALIZED FREE ENERGY PREDICTED BY IDOCK:   -6.33 KCAL/MOL
REMARK 922        TOTAL FREE ENERGY PREDICTED BY IDOCK:   -9.07 KCAL/MOL
REMARK 923 INTER-LIGAND FREE ENERGY PREDICTED BY IDOCK:   -8.42 KCAL/MOL
REMARK 924 INTRA-LIGAND FREE ENERGY PREDICTED BY IDOCK:   -0.65 KCAL/MOL
REMARK 927      BINDING AFFINITY PREDICTED BY RF-SCORE:    0.00 PKD
ROOT
HETATM    1  O   UNL     1     -10.837  14.115  64.960  1.00  0.00    -0.350 OA 
HETATM    2  C   UNL     1     -11.642  13.425  65.797  1.00  0.00    -0.332 C  
HETATM    3  C   UNL     1     -11.573  13.860  67.218  1.00  0.00    -0.393 A  
HETATM    4  O   UNL     1     -12.328  12.484  65.430  1.00  0.00    -0.579 OA 
HETATM    5  C   UNL     1     -11.896  12.911  68.205  1.00  0.00    -0.372 A  
HETATM    6  C   UNL     1     -11.891  13.255  69.566  1.00  0.00    -0.327 A  
HETATM    7  C   UNL     1     -11.542  14.568  69.915  1.00  0.00    -0.340 A  
HETATM    8  O   UNL     1     -10.908  16.093  66.649  1.00  0.00    -0.268 OA 
HETATM    9  C   UNL     1     -11.237  15.163  67.600  1.00  0.00    -0.327 A  
HETATM   10  H   UNL     1     -10.681  16.978  66.908  1.00  0.00     0.000 HD 
HETATM   11  C   UNL     1     -11.221  15.522  68.944  1.00  0.00    -0.306 A  
ENDROOT
BRANCH   6  12
HETATM   12  N   UNL     1     -12.211  12.372  70.622  1.00  0.00    -0.427 NA 
HETATM   13  H   UNL     1     -12.150  12.629  71.607  1.00  0.00     0.000 HD 
BRANCH  12  14
HETATM   14  N   UNL     1     -12.575  11.245  70.227  1.00  0.00    -0.218 NA 
HETATM   15  H   UNL     1     -13.281  11.098  69.505  1.00  0.00     0.000 HD 
BRANCH  14  16
HETATM   16  C   UNL     1     -11.902  10.196  70.892  1.00  0.00    -0.374 A  
HETATM   17  C   UNL     1      -9.822   8.945  71.147  1.00  0.00    -0.345 A  
HETATM   18  C   UNL     1     -10.551   9.994  70.578  1.00  0.00    -0.313 A  
HETATM   19  C   UNL     1     -10.434   8.103  72.080  1.00  0.00    -0.263 A  
HETATM   20  C   UNL     1     -12.498   9.343  71.838  1.00  0.00    -0.468 A  
HETATM   21  C   UNL     1     -11.774   8.297  72.426  1.00  0.00    -0.463 A  
BRANCH  19  22
HETATM   22  S   UNL     1      -9.548   6.668  72.667  1.00  0.00    -0.145 S  
HETATM   23  O   UNL     1      -9.560   6.714  74.111  1.00  0.00    -0.205 OA 
HETATM   24  O   UNL     1      -8.293   6.631  71.939  1.00  0.00    -0.114 OA 
BRANCH  22  25
HETATM   25  N   UNL     1     -10.450   5.362  72.096  1.00  0.00    -0.213 N  
HETATM   26  H   UNL     1     -11.124   4.873  72.683  1.00  0.00     0.000 HD 
BRANCH  25  27
HETATM   27  C   UNL     1     -10.214   4.989  70.757  1.00  0.00    -0.229 A  
HETATM   28  N   UNL     1     -10.900   5.723  69.866  1.00  0.00    -0.347 NA 
HETATM   29  C   UNL     1     -10.651   5.462  68.563  1.00  0.00    -0.082 A  
HETATM   30  C   UNL     1      -9.770   4.485  68.124  1.00  0.00    -0.188 A  
HETATM   31  C   UNL     1      -9.103   3.724  69.079  1.00  0.00    -0.199 A  
HETATM   32  C   UNL     1      -9.326   3.980  70.430  1.00  0.00    -0.230 A  
ENDBRANCH  25  27
ENDBRANCH  22  25
ENDBRANCH  19  22
ENDBRANCH  14  16
ENDBRANCH  12  14
ENDBRANCH   6  12
TORSDOF 6
ENDMDL
MODEL       82
REMARK 921   NORMALIZED FREE ENERGY PREDICTED BY IDOCK:   -6.33 KCAL/MOL
REMARK 922        TOTAL FREE ENERGY PREDICTED BY IDOCK:   -9.07 KCAL/MOL
REMARK 923 INTER-LIGAND FREE ENERGY PREDICTED BY IDOCK:   -8.13 KCAL/MOL
REMARK 924 INTRA-LIGAND FREE ENERGY PREDICTED BY IDOCK:   -0.93 KCAL/MOL
REMARK 927      BINDING AFFINITY PREDICTED BY RF-SCORE:    0.00 PKD
ROOT
HETATM    1  O   UNL     1      -9.861  19.907  67.033  1.00  0.00    -0.357 OA 
HETATM    2  C   UNL     1     -10.440  18.927  66.306  1.00  0.00    -0.445 C  
HETATM    3  C   UNL     1     -10.455  17.595  66.966  1.00  0.00    -0.305 A  
HETATM    4  O   UNL     1     -10.865  19.105  65.175  1.00  0.00    -0.458 OA 
HETATM    5  C   UNL     1     -10.498  16.458  66.138  1.00  0.00    -0.321 A  
HETATM    6  C   UNL     1     -10.553  15.167  66.686  1.00  0.00    -0.304 A  
HETATM    7  C   UNL     1     -10.551  15.041  68.083  1.00  0.00    -0.248 A  
HETATM    8  O   UNL     1     -10.408  18.532  69.173  1.00  0.00    -0.483 OA 
HETATM    9  C   UNL     1     -10.462  17.434  68.355  1.00  0.00    -0.384 A  
HETATM   10  H   UNL     1     -10.413  18.423  70.117  1.00  0.00     0.000 HD 
HETATM   11  C   UNL     1     -10.510  16.162  68.919  1.00  0.00    -0.258 A  
ENDROOT
BRANCH   6  12
HETATM   12  N   UNL     1     -10.608  13.973  65.932  1.00  0.00    -0.293 NA 
HETATM   13  H   UNL     1     -11.481  13.538  65.631  1.00  0.00     0.000 HD 
BRANCH  12  14
HETATM   14  N   UNL     1      -9.481  13.503  65.673  1.00  0.00    -0.488 NA 
HETATM   15  H   UNL     1      -8.764  14.006  65.149  1.00  0.00     0.000 HD 
BRANCH  14  16
HETATM   16  C   UNL     1      -9.308  12.198  66.185  1.00  0.00    -0.195 A  
HETATM   17  C   UNL     1     -10.212   9.938  66.360  1.00  0.00    -0.292 A  
HETATM   18  C   UNL     1     -10.275  11.240  65.851  1.00  0.00    -0.298 A  
HETATM   19  C   UNL     1      -9.146   9.566  67.182  1.00  0.00    -0.134 A  
HETATM   20  C   UNL     1      -8.238  11.803  67.007  1.00  0.00    -0.172 A  
HETATM   21  C   UNL     1      -8.157  10.497  67.511  1.00  0.00    -0.107 A  
BRANCH  19  22
HETATM   22  S   UNL     1      -9.169   7.959  67.960  1.00  0.00    -0.130 S  
HETATM   23  O   UNL     1      -8.324   8.034  69.131  1.00  0.00    -0.128 OA 
HETATM   24  O   UNL     1      -8.900   6.990  66.915  1.00  0.00    -0.118 OA 
BRANCH  22  25
HETATM   25  N   UNL     1     -10.783   7.733  68.395  1.00  0.00    -0.402 N  
HETATM   26  H   UNL     1     -11.488   7.438  67.720  1.00  0.00     0.000 HD 
BRANCH  25  27
HETATM   27  C   UNL     1     -11.096   7.976  69.747  1.00  0.00    -0.064 A  
HETATM   28  N   UNL     1     -11.216   6.857  70.480  1.00  0.00    -0.288 NA 
HETATM   29  C   UNL     1     -11.437   7.034  71.803  1.00  0.00    -0.267 A  
HETATM   30  C   UNL     1     -11.568   8.275  72.406  1.00  0.00    -0.464 A  
HETATM   31  C   UNL     1     -11.470   9.409  71.607  1.00  0.00    -0.463 A  
HETATM   32  C   UNL     1     -11.227   9.261  70.243  1.00  0.00    -0.267 A  
ENDBRANCH  25  27
ENDBRANCH  22  25
ENDBRANCH  19  22
ENDBRANCH  14  16
ENDBRANCH  12  14
ENDBRANCH   6  12
TORSDOF 6
ENDMDL
MODEL       83
REMARK 921   NORMALIZED FREE ENERGY PREDICTED BY IDOCK:   -6.26 KCAL/MOL
REMARK 922        TOTAL FREE ENERGY PREDICTED BY IDOCK:   -8.98 KCAL/MOL
REMARK 923 INTER-LIGAND FREE ENERGY PREDICTED BY IDOCK:   -8.39 KCAL/MOL
REMARK 924 INTRA-LIGAND FREE ENERGY PREDICTED BY IDOCK:   -0.59 KCAL/MOL
REMARK 927      BINDING AFFINITY PREDICTED BY RF-SCORE:    0.00 PKD
ROOT
HETATM    1  O   UNL     1      -9.644   3.130  71.880  1.00  0.00    -0.129 OA 
HETATM    2  C   UNL     1      -9.530   4.223  71.094  1.00  0.00    -0.163 C  
HETATM    3  C   UNL     1     -10.129   5.458  71.664  1.00  0.00    -0.259 A  
HETATM    4  O   UNL     1      -9.028   4.189  69.982  1.00  0.00    -0.083 OA 
HETATM    5  C   UNL     1     -10.561   6.449  70.763  1.00  0.00    -0.288 A  
HETATM    6  C   UNL     1     -11.102   7.659  71.224  1.00  0.00    -0.246 A  
HETATM    7  C   UNL     1     -11.213   7.848  72.610  1.00  0.00    -0.459 A  
HETATM    8  O   UNL     1      -9.841   4.721  73.928  1.00  0.00    -0.138 OA 
HETATM    9  C   UNL     1     -10.246   5.683  73.040  1.00  0.00    -0.189 A  
HETATM   10  H   UNL     1      -9.920   4.873  74.863  1.00  0.00     0.000 HD 
HETATM   11  C   UNL     1     -10.786   6.873  73.518  1.00  0.00    -0.342 A  
ENDROOT
BRANCH   6  12
HETATM   12  N   UNL     1     -11.551   8.710  70.394  1.00  0.00    -0.457 NA 
HETATM   13  H   UNL     1     -12.424   9.215  70.549  1.00  0.00     0.000 HD 
BRANCH  12  14
HETATM   14  N   UNL     1     -10.772   8.958  69.450  1.00  0.00    -0.322 NA 
HETATM   15  H   UNL     1      -9.982   8.365  69.197  1.00  0.00     0.000 HD 
BRANCH  14  16
HETATM   16  C   UNL     1     -11.107  10.152  68.773  1.00  0.00    -0.203 A  
HETATM   17  C   UNL     1     -11.140  11.353  66.649  1.00  0.00    -0.333 A  
HETATM   18  C   UNL     1     -10.888  10.193  67.389  1.00  0.00    -0.323 A  
HETATM   19  C   UNL     1     -11.659  12.483  67.286  1.00  0.00    -0.367 A  
HETATM   20  C   UNL     1     -11.637  11.296  69.395  1.00  0.00    -0.390 A  
HETATM   21  C   UNL     1     -11.907  12.460  68.661  1.00  0.00    -0.348 A  
BRANCH  19  22
HETATM   22  S   UNL     1     -11.812  14.005  66.366  1.00  0.00    -0.437 S  
HETATM   23  O   UNL     1     -12.987  13.890  65.533  1.00  0.00    -0.673 OA 
HETATM   24  O   UNL     1     -10.512  14.265  65.778  1.00  0.00    -0.291 OA 
BRANCH  22  25
HETATM   25  N   UNL     1     -12.026  15.186  67.551  1.00  0.00    -0.353 N  
HETATM   26  H   UNL     1     -12.929  15.349  67.995  1.00  0.00     0.000 HD 
BRANCH  25  27
HETATM   27  C   UNL     1     -10.880  15.932  67.891  1.00  0.00    -0.327 A  
HETATM   28  N   UNL     1     -10.891  17.185  67.408  1.00  0.00    -0.233 NA 
HETATM   29  C   UNL     1      -9.854  17.972  67.771  1.00  0.00    -0.305 A  
HETATM   30  C   UNL     1      -8.803  17.547  68.568  1.00  0.00    -0.282 A  
HETATM   31  C   UNL     1      -8.810  16.233  69.022  1.00  0.00    -0.243 A  
HETATM   32  C   UNL     1      -9.874  15.401  68.679  1.00  0.00    -0.208 A  
ENDBRANCH  25  27
ENDBRANCH  22  25
ENDBRANCH  19  22
ENDBRANCH  14  16
ENDBRANCH  12  14
ENDBRANCH   6  12
TORSDOF 6
ENDMDL
MODEL       84
REMARK 921   NORMALIZED FREE ENERGY PREDICTED BY IDOCK:   -6.25 KCAL/MOL
REMARK 922        TOTAL FREE ENERGY PREDICTED BY IDOCK:   -8.97 KCAL/MOL
REMARK 923 INTER-LIGAND FREE ENERGY PREDICTED BY IDOCK:   -8.35 KCAL/MOL
REMARK 924 INTRA-LIGAND FREE ENERGY PREDICTED BY IDOCK:   -0.62 KCAL/MOL
REMARK 927      BINDING AFFINITY PREDICTED BY RF-SCORE:    0.00 PKD
ROOT
HETATM    1  O   UNL     1     -11.453  16.278  69.964  1.00  0.00    -0.318 OA 
HETATM    2  C   UNL     1     -11.763  15.119  69.343  1.00  0.00    -0.332 C  
HETATM    3  C   UNL     1     -12.275  14.054  70.246  1.00  0.00    -0.430 A  
HETATM    4  O   UNL     1     -11.585  14.939  68.149  1.00  0.00    -0.315 OA 
HETATM    5  C   UNL     1     -12.093  12.717  69.844  1.00  0.00    -0.329 A  
HETATM    6  C   UNL     1     -12.582  11.657  70.623  1.00  0.00    -0.230 A  
HETATM    7  C   UNL     1     -13.245  11.966  71.819  1.00  0.00    -0.426 A  
HETATM    8  O   UNL     1     -13.122  15.624  71.849  1.00  0.00    -0.428 OA 
HETATM    9  C   UNL     1     -12.949  14.327  71.440  1.00  0.00    -0.341 A  
HETATM   10  H   UNL     1     -13.580  15.810  72.660  1.00  0.00     0.000 HD 
HETATM   11  C   UNL     1     -13.436  13.289  72.230  1.00  0.00    -0.679 A  
ENDROOT
BRANCH   6  12
HETATM   12  N   UNL     1     -12.453  10.289  70.294  1.00  0.00    -0.495 NA 
HETATM   13  H   UNL     1     -11.907   9.950  69.501  1.00  0.00     0.000 HD 
BRANCH  12  14
HETATM   14  N   UNL     1     -13.075   9.535  71.072  1.00  0.00    -0.542 NA 
HETATM   15  H   UNL     1     -14.059   9.657  71.313  1.00  0.00     0.000 HD 
BRANCH  14  16
HETATM   16  C   UNL     1     -12.264   8.496  71.580  1.00  0.00    -0.322 A  
HETATM   17  C   UNL     1     -12.082   6.118  72.099  1.00  0.00    -0.263 A  
HETATM   18  C   UNL     1     -12.793   7.198  71.565  1.00  0.00    -0.434 A  
HETATM   19  C   UNL     1     -10.802   6.322  72.620  1.00  0.00    -0.242 A  
HETATM   20  C   UNL     1     -10.972   8.680  72.102  1.00  0.00    -0.434 A  
HETATM   21  C   UNL     1     -10.243   7.603  72.627  1.00  0.00    -0.321 A  
BRANCH  19  22
HETATM   22  S   UNL     1      -9.978   4.974  73.452  1.00  0.00    -0.165 S  
HETATM   23  O   UNL     1     -10.966   4.297  74.261  1.00  0.00    -0.214 OA 
HETATM   24  O   UNL     1      -8.783   5.530  74.056  1.00  0.00    -0.120 OA 
BRANCH  22  25
HETATM   25  N   UNL     1      -9.441   3.980  72.199  1.00  0.00    -0.127 N  
HETATM   26  H   UNL     1      -9.351   2.971  72.310  1.00  0.00     0.000 HD 
BRANCH  25  27
HETATM   27  C   UNL     1      -9.125   4.631  70.990  1.00  0.00    -0.132 A  
HETATM   28  N   UNL     1     -10.009   4.396  70.006  1.00  0.00    -0.221 NA 
HETATM   29  C   UNL     1      -9.799   5.060  68.847  1.00  0.00    -0.175 A  
HETATM   30  C   UNL     1      -8.734   5.920  68.630  1.00  0.00    -0.109 A  
HETATM   31  C   UNL     1      -7.822   6.112  69.663  1.00  0.00    -0.103 A  
HETATM   32  C   UNL     1      -8.019   5.455  70.875  1.00  0.00    -0.104 A  
ENDBRANCH  25  27
ENDBRANCH  22  25
ENDBRANCH  19  22
ENDBRANCH  14  16
ENDBRANCH  12  14
ENDBRANCH   6  12
TORSDOF 6
ENDMDL
MODEL       85
REMARK 921   NORMALIZED FREE ENERGY PREDICTED BY IDOCK:   -6.24 KCAL/MOL
REMARK 922        TOTAL FREE ENERGY PREDICTED BY IDOCK:   -8.95 KCAL/MOL
REMARK 923 INTER-LIGAND FREE ENERGY PREDICTED BY IDOCK:   -8.93 KCAL/MOL
REMARK 924 INTRA-LIGAND FREE ENERGY PREDICTED BY IDOCK:   -0.02 KCAL/MOL
REMARK 927      BINDING AFFINITY PREDICTED BY RF-SCORE:    0.00 PKD
ROOT
HETATM    1  O   UNL     1     -10.568   4.968  66.781  1.00  0.00    -0.252 OA 
HETATM    2  C   UNL     1     -10.775   6.040  67.577  1.00  0.00    -0.301 C  
HETATM    3  C   UNL     1     -10.711   5.747  69.034  1.00  0.00    -0.354 A  
HETATM    4  O   UNL     1     -11.049   7.146  67.141  1.00  0.00    -0.326 OA 
HETATM    5  C   UNL     1     -11.433   6.590  69.900  1.00  0.00    -0.467 A  
HETATM    6  C   UNL     1     -11.392   6.403  71.290  1.00  0.00    -0.306 A  
HETATM    7  C   UNL     1     -10.622   5.343  71.792  1.00  0.00    -0.286 A  
HETATM    8  O   UNL     1      -9.249   3.869  68.736  1.00  0.00    -0.127 OA 
HETATM    9  C   UNL     1      -9.947   4.705  69.569  1.00  0.00    -0.196 A  
HETATM   10  H   UNL     1      -8.729   3.162  69.099  1.00  0.00     0.000 HD 
HETATM   11  C   UNL     1      -9.898   4.499  70.944  1.00  0.00    -0.269 A  
ENDROOT
BRANCH   6  12
HETATM   12  N   UNL     1     -12.076   7.204  72.232  1.00  0.00    -0.468 NA 
HETATM   13  H   UNL     1     -12.983   6.956  72.628  1.00  0.00     0.000 HD 
BRANCH  12  14
HETATM   14  N   UNL     1     -11.457   8.247  72.531  1.00  0.00    -0.392 NA 
HETATM   15  H   UNL     1     -10.959   8.377  73.412  1.00  0.00     0.000 HD 
BRANCH  14  16
HETATM   16  C   UNL     1     -11.523   9.225  71.514  1.00  0.00    -0.384 A  
HETATM   17  C   UNL     1     -10.335  10.410  69.742  1.00  0.00    -0.252 A  
HETATM   18  C   UNL     1     -10.376   9.425  70.734  1.00  0.00    -0.366 A  
HETATM   19  C   UNL     1     -11.470  11.185  69.488  1.00  0.00    -0.303 A  
HETATM   20  C   UNL     1     -12.657  10.008  71.239  1.00  0.00    -0.495 A  
HETATM   21  C   UNL     1     -12.634  10.989  70.237  1.00  0.00    -0.321 A  
BRANCH  19  22
HETATM   22  S   UNL     1     -11.351  12.549  68.343  1.00  0.00    -0.318 S  
HETATM   23  O   UNL     1     -11.342  13.767  69.121  1.00  0.00    -0.255 OA 
HETATM   24  O   UNL     1     -12.365  12.327  67.330  1.00  0.00    -0.363 OA 
BRANCH  22  25
HETATM   25  N   UNL     1      -9.870  12.314  67.571  1.00  0.00    -0.190 N  
HETATM   26  H   UNL     1      -8.983  12.391  68.068  1.00  0.00     0.000 HD 
BRANCH  25  27
HETATM   27  C   UNL     1      -9.933  12.006  66.198  1.00  0.00    -0.231 A  
HETATM   28  N   UNL     1      -9.653  10.722  65.922  1.00  0.00    -0.198 NA 
HETATM   29  C   UNL     1      -9.778  10.350  64.627  1.00  0.00    -0.329 A  
HETATM   30  C   UNL     1     -10.142  11.214  63.606  1.00  0.00    -0.432 A  
HETATM   31  C   UNL     1     -10.393  12.545  63.928  1.00  0.00    -0.436 A  
HETATM   32  C   UNL     1     -10.289  12.955  65.255  1.00  0.00    -0.315 A  
ENDBRANCH  25  27
ENDBRANCH  22  25
ENDBRANCH  19  22
ENDBRANCH  14  16
ENDBRANCH  12  14
ENDBRANCH   6  12
TORSDOF 6
ENDMDL
MODEL       86
REMARK 921   NORMALIZED FREE ENERGY PREDICTED BY IDOCK:   -6.23 KCAL/MOL
REMARK 922        TOTAL FREE ENERGY PREDICTED BY IDOCK:   -8.94 KCAL/MOL
REMARK 923 INTER-LIGAND FREE ENERGY PREDICTED BY IDOCK:   -8.51 KCAL/MOL
REMARK 924 INTRA-LIGAND FREE ENERGY PREDICTED BY IDOCK:   -0.43 KCAL/MOL
REMARK 927      BINDING AFFINITY PREDICTED BY RF-SCORE:    0.00 PKD
ROOT
HETATM    1  O   UNL     1      -9.265   3.162  69.169  1.00  0.00    -0.130 OA 
HETATM    2  C   UNL     1      -9.690   4.430  69.359  1.00  0.00    -0.197 C  
HETATM    3  C   UNL     1     -10.239   4.699  70.714  1.00  0.00    -0.214 A  
HETATM    4  O   UNL     1      -9.678   5.272  68.476  1.00  0.00    -0.128 OA 
HETATM    5  C   UNL     1     -11.180   5.738  70.841  1.00  0.00    -0.200 A  
HETATM    6  C   UNL     1     -11.716   6.079  72.092  1.00  0.00    -0.279 A  
HETATM    7  C   UNL     1     -11.298   5.345  73.212  1.00  0.00    -0.266 A  
HETATM    8  O   UNL     1      -8.933   2.970  71.742  1.00  0.00    -0.083 OA 
HETATM    9  C   UNL     1      -9.838   3.993  71.853  1.00  0.00    -0.177 A  
HETATM   10  H   UNL     1      -8.660   2.491  72.516  1.00  0.00     0.000 HD 
HETATM   11  C   UNL     1     -10.363   4.311  73.102  1.00  0.00    -0.237 A  
ENDROOT
BRANCH   6  12
HETATM   12  N   UNL     1     -12.655   7.111  72.314  1.00  0.00    -0.520 NA 
HETATM   13  H   UNL     1     -13.655   7.008  72.137  1.00  0.00     0.000 HD 
BRANCH  12  14
HETATM   14  N   UNL     1     -12.138   8.162  72.748  1.00  0.00    -0.602 NA 
HETATM   15  H   UNL     1     -12.065   8.390  73.739  1.00  0.00     0.000 HD 
BRANCH  14  16
HETATM   16  C   UNL     1     -11.666   8.999  71.712  1.00  0.00    -0.369 A  
HETATM   17  C   UNL     1     -12.229  10.657  70.012  1.00  0.00    -0.373 A  
HETATM   18  C   UNL     1     -12.598   9.836  71.083  1.00  0.00    -0.438 A  
HETATM   19  C   UNL     1     -10.899  10.681  69.584  1.00  0.00    -0.268 A  
HETATM   20  C   UNL     1     -10.332   9.043  71.273  1.00  0.00    -0.383 A  
HETATM   21  C   UNL     1      -9.947   9.873  70.210  1.00  0.00    -0.261 A  
BRANCH  19  22
HETATM   22  S   UNL     1     -10.478  11.599  68.111  1.00  0.00    -0.203 S  
HETATM   23  O   UNL     1     -10.124  10.639  67.091  1.00  0.00    -0.191 OA 
HETATM   24  O   UNL     1      -9.537  12.625  68.520  1.00  0.00    -0.195 OA 
BRANCH  22  25
HETATM   25  N   UNL     1     -11.900  12.411  67.709  1.00  0.00    -0.345 N  
HETATM   26  H   UNL     1     -12.671  12.510  68.368  1.00  0.00     0.000 HD 
BRANCH  25  27
HETATM   27  C   UNL     1     -11.956  12.945  66.406  1.00  0.00    -0.395 A  
HETATM   28  N   UNL     1     -12.254  12.036  65.464  1.00  0.00    -0.421 NA 
HETATM   29  C   UNL     1     -12.401  12.508  64.206  1.00  0.00    -0.456 A  
HETATM   30  C   UNL     1     -12.234  13.839  63.855  1.00  0.00    -0.402 A  
HETATM   31  C   UNL     1     -11.892  14.745  64.853  1.00  0.00    -0.377 A  
HETATM   32  C   UNL     1     -11.750  14.293  66.163  1.00  0.00    -0.397 A  
ENDBRANCH  25  27
ENDBRANCH  22  25
ENDBRANCH  19  22
ENDBRANCH  14  16
ENDBRANCH  12  14
ENDBRANCH   6  12
TORSDOF 6
ENDMDL
MODEL       87
REMARK 921   NORMALIZED FREE ENERGY PREDICTED BY IDOCK:   -6.22 KCAL/MOL
REMARK 922        TOTAL FREE ENERGY PREDICTED BY IDOCK:   -8.93 KCAL/MOL
REMARK 923 INTER-LIGAND FREE ENERGY PREDICTED BY IDOCK:   -8.22 KCAL/MOL
REMARK 924 INTRA-LIGAND FREE ENERGY PREDICTED BY IDOCK:   -0.71 KCAL/MOL
REMARK 927      BINDING AFFINITY PREDICTED BY RF-SCORE:    0.00 PKD
ROOT
HETATM    1  O   UNL     1     -14.387  13.584  72.826  1.00  0.00    -0.640 OA 
HETATM    2  C   UNL     1     -13.398  13.180  72.000  1.00  0.00    -0.493 C  
HETATM    3  C   UNL     1     -12.593  14.286  71.415  1.00  0.00    -0.434 A  
HETATM    4  O   UNL     1     -13.213  12.009  71.711  1.00  0.00    -0.450 OA 
HETATM    5  C   UNL     1     -11.961  14.048  70.181  1.00  0.00    -0.399 A  
HETATM    6  C   UNL     1     -11.153  15.027  69.582  1.00  0.00    -0.273 A  
HETATM    7  C   UNL     1     -11.005  16.256  70.243  1.00  0.00    -0.314 A  
HETATM    8  O   UNL     1     -13.038  15.769  73.247  1.00  0.00    -0.496 OA 
HETATM    9  C   UNL     1     -12.417  15.519  72.051  1.00  0.00    -0.398 A  
HETATM   10  H   UNL     1     -12.918  16.606  73.679  1.00  0.00     0.000 HD 
HETATM   11  C   UNL     1     -11.626  16.506  71.471  1.00  0.00    -0.167 A  
ENDROOT
BRANCH   6  12
HETATM   12  N   UNL     1     -10.474  14.872  68.353  1.00  0.00    -0.238 NA 
HETATM   13  H   UNL     1      -9.598  15.345  68.131  1.00  0.00     0.000 HD 
BRANCH  12  14
HETATM   14  N   UNL     1     -11.055  14.096  67.565  1.00  0.00    -0.283 NA 
HETATM   15  H   UNL     1     -11.807  14.383  66.939  1.00  0.00     0.000 HD 
BRANCH  14  16
HETATM   16  C   UNL     1     -10.553  12.778  67.638  1.00  0.00    -0.219 A  
HETATM   17  C   UNL     1      -8.584  11.352  67.857  1.00  0.00    -0.140 A  
HETATM   18  C   UNL     1      -9.173  12.621  67.829  1.00  0.00    -0.195 A  
HETATM   19  C   UNL     1      -9.385  10.214  67.737  1.00  0.00    -0.141 A  
HETATM   20  C   UNL     1     -11.343  11.620  67.527  1.00  0.00    -0.364 A  
HETATM   21  C   UNL     1     -10.766  10.343  67.569  1.00  0.00    -0.339 A  
BRANCH  19  22
HETATM   22  S   UNL     1      -8.604   8.614  67.603  1.00  0.00    -0.136 S  
HETATM   23  O   UNL     1      -7.324   8.810  66.961  1.00  0.00    -0.079 OA 
HETATM   24  O   UNL     1      -9.591   7.720  67.026  1.00  0.00    -0.159 OA 
BRANCH  22  25
HETATM   25  N   UNL     1      -8.408   8.113  69.201  1.00  0.00    -0.129 N  
HETATM   26  H   UNL     1      -7.517   7.762  69.552  1.00  0.00     0.000 HD 
BRANCH  25  27
HETATM   27  C   UNL     1      -9.549   8.209  70.021  1.00  0.00    -0.171 A  
HETATM   28  N   UNL     1     -10.420   7.201  69.852  1.00  0.00    -0.217 NA 
HETATM   29  C   UNL     1     -11.495   7.199  70.671  1.00  0.00    -0.308 A  
HETATM   30  C   UNL     1     -11.743   8.174  71.625  1.00  0.00    -0.330 A  
HETATM   31  C   UNL     1     -10.834   9.220  71.747  1.00  0.00    -0.358 A  
HETATM   32  C   UNL     1      -9.708   9.242  70.929  1.00  0.00    -0.346 A  
ENDBRANCH  25  27
ENDBRANCH  22  25
ENDBRANCH  19  22
ENDBRANCH  14  16
ENDBRANCH  12  14
ENDBRANCH   6  12
TORSDOF 6
ENDMDL
MODEL       88
REMARK 921   NORMALIZED FREE ENERGY PREDICTED BY IDOCK:   -6.22 KCAL/MOL
REMARK 922        TOTAL FREE ENERGY PREDICTED BY IDOCK:   -8.92 KCAL/MOL
REMARK 923 INTER-LIGAND FREE ENERGY PREDICTED BY IDOCK:   -8.36 KCAL/MOL
REMARK 924 INTRA-LIGAND FREE ENERGY PREDICTED BY IDOCK:   -0.56 KCAL/MOL
REMARK 927      BINDING AFFINITY PREDICTED BY RF-SCORE:    0.00 PKD
ROOT
HETATM    1  O   UNL     1     -12.966  13.620  65.872  1.00  0.00    -0.357 OA 
HETATM    2  C   UNL     1     -11.689  13.777  65.458  1.00  0.00    -0.346 C  
HETATM    3  C   UNL     1     -10.664  13.334  66.440  1.00  0.00    -0.291 A  
HETATM    4  O   UNL     1     -11.397  14.292  64.391  1.00  0.00    -0.347 OA 
HETATM    5  C   UNL     1      -9.395  13.939  66.375  1.00  0.00    -0.226 A  
HETATM    6  C   UNL     1      -8.363  13.549  67.242  1.00  0.00    -0.179 A  
HETATM    7  C   UNL     1      -8.636  12.548  68.185  1.00  0.00    -0.189 A  
HETATM    8  O   UNL     1     -12.134  11.744  67.471  1.00  0.00    -0.599 OA 
HETATM    9  C   UNL     1     -10.900  12.333  67.388  1.00  0.00    -0.239 A  
HETATM   10  H   UNL     1     -12.294  11.063  68.114  1.00  0.00     0.000 HD 
HETATM   11  C   UNL     1      -9.891  11.936  68.261  1.00  0.00    -0.199 A  
ENDROOT
BRANCH   6  12
HETATM   12  N   UNL     1      -7.059  14.094  67.241  1.00  0.00    -0.363 NA 
HETATM   13  H   UNL     1      -6.381  13.926  66.498  1.00  0.00     0.000 HD 
BRANCH  12  14
HETATM   14  N   UNL     1      -6.822  14.802  68.242  1.00  0.00    -0.104 NA 
HETATM   15  H   UNL     1      -6.729  14.433  69.188  1.00  0.00     0.000 HD 
BRANCH  14  16
HETATM   16  C   UNL     1      -6.695  16.171  67.917  1.00  0.00    -0.137 A  
HETATM   17  C   UNL     1      -6.466  18.453  68.750  1.00  0.00    -0.239 A  
HETATM   18  C   UNL     1      -6.543  17.075  68.977  1.00  0.00    -0.216 A  
HETATM   19  C   UNL     1      -6.497  18.943  67.442  1.00  0.00    -0.193 A  
HETATM   20  C   UNL     1      -6.716  16.682  66.608  1.00  0.00    -0.192 A  
HETATM   21  C   UNL     1      -6.625  18.060  66.366  1.00  0.00    -0.256 A  
BRANCH  19  22
HETATM   22  S   UNL     1      -6.572  20.707  67.176  1.00  0.00    -0.306 S  
HETATM   23  O   UNL     1      -5.990  20.973  65.880  1.00  0.00    -0.237 OA 
HETATM   24  O   UNL     1      -6.032  21.328  68.371  1.00  0.00    -0.305 OA 
BRANCH  22  25
HETATM   25  N   UNL     1      -8.222  21.057  67.181  1.00  0.00    -0.533 N  
HETATM   26  H   UNL     1      -8.572  22.011  67.098  1.00  0.00     0.000 HD 
BRANCH  25  27
HETATM   27  C   UNL     1      -9.085  19.951  67.306  1.00  0.00    -0.339 A  
HETATM   28  N   UNL     1      -9.453  19.420  66.129  1.00  0.00    -0.393 NA 
HETATM   29  C   UNL     1     -10.217  18.306  66.191  1.00  0.00    -0.381 A  
HETATM   30  C   UNL     1     -10.645  17.727  67.376  1.00  0.00    -0.341 A  
HETATM   31  C   UNL     1     -10.270  18.325  68.574  1.00  0.00    -0.402 A  
HETATM   32  C   UNL     1      -9.469  19.465  68.544  1.00  0.00    -0.451 A  
ENDBRANCH  25  27
ENDBRANCH  22  25
ENDBRANCH  19  22
ENDBRANCH  14  16
ENDBRANCH  12  14
ENDBRANCH   6  12
TORSDOF 6
ENDMDL
MODEL       89
REMARK 921   NORMALIZED FREE ENERGY PREDICTED BY IDOCK:   -6.22 KCAL/MOL
REMARK 922        TOTAL FREE ENERGY PREDICTED BY IDOCK:   -8.92 KCAL/MOL
REMARK 923 INTER-LIGAND FREE ENERGY PREDICTED BY IDOCK:   -8.14 KCAL/MOL
REMARK 924 INTRA-LIGAND FREE ENERGY PREDICTED BY IDOCK:   -0.79 KCAL/MOL
REMARK 927      BINDING AFFINITY PREDICTED BY RF-SCORE:    0.00 PKD
ROOT
HETATM    1  O   UNL     1     -12.899  12.136  62.658  1.00  0.00     0.209 OA 
HETATM    2  C   UNL     1     -12.317  12.998  63.519  1.00  0.00    -0.417 C  
HETATM    3  C   UNL     1     -11.294  12.386  64.408  1.00  0.00    -0.396 A  
HETATM    4  O   UNL     1     -12.643  14.172  63.603  1.00  0.00    -0.831 OA 
HETATM    5  C   UNL     1     -11.056  13.005  65.649  1.00  0.00    -0.301 A  
HETATM    6  C   UNL     1     -10.079  12.509  66.527  1.00  0.00    -0.238 A  
HETATM    7  C   UNL     1      -9.356  11.372  66.138  1.00  0.00    -0.232 A  
HETATM    8  O   UNL     1     -10.780  10.639  62.847  1.00  0.00    -0.634 OA 
HETATM    9  C   UNL     1     -10.549  11.258  64.048  1.00  0.00    -0.386 A  
HETATM   10  H   UNL     1     -10.274   9.873  62.602  1.00  0.00     0.000 HD 
HETATM   11  C   UNL     1      -9.581  10.748  64.907  1.00  0.00    -0.307 A  
ENDROOT
BRANCH   6  12
HETATM   12  N   UNL     1      -9.767  13.071  67.786  1.00  0.00    -0.212 NA 
HETATM   13  H   UNL     1     -10.471  13.427  68.432  1.00  0.00     0.000 HD 
BRANCH  12  14
HETATM   14  N   UNL     1      -8.542  13.086  68.027  1.00  0.00    -0.177 NA 
HETATM   15  H   UNL     1      -7.973  12.245  68.125  1.00  0.00     0.000 HD 
BRANCH  14  16
HETATM   16  C   UNL     1      -8.032  14.398  68.147  1.00  0.00    -0.136 A  
HETATM   17  C   UNL     1      -7.365  16.442  66.993  1.00  0.00    -0.255 A  
HETATM   18  C   UNL     1      -7.911  15.155  66.974  1.00  0.00    -0.223 A  
HETATM   19  C   UNL     1      -6.969  17.009  68.208  1.00  0.00    -0.180 A  
HETATM   20  C   UNL     1      -7.636  14.988  69.361  1.00  0.00    -0.195 A  
HETATM   21  C   UNL     1      -7.101  16.283  69.395  1.00  0.00    -0.204 A  
BRANCH  19  22
HETATM   22  S   UNL     1      -6.117  18.578  68.198  1.00  0.00    -0.195 S  
HETATM   23  O   UNL     1      -5.611  18.786  66.860  1.00  0.00    -0.144 OA 
HETATM   24  O   UNL     1      -5.218  18.567  69.336  1.00  0.00    -0.192 OA 
BRANCH  22  25
HETATM   25  N   UNL     1      -7.318  19.703  68.570  1.00  0.00    -0.328 N  
HETATM   26  H   UNL     1      -7.164  20.456  69.240  1.00  0.00     0.000 HD 
BRANCH  25  27
HETATM   27  C   UNL     1      -8.546  19.538  67.899  1.00  0.00    -0.316 A  
HETATM   28  N   UNL     1      -8.589  20.142  66.701  1.00  0.00    -0.305 NA 
HETATM   29  C   UNL     1      -9.715  19.949  65.977  1.00  0.00    -0.375 A  
HETATM   30  C   UNL     1     -10.798  19.204  66.417  1.00  0.00    -0.327 A  
HETATM   31  C   UNL     1     -10.728  18.621  67.678  1.00  0.00    -0.428 A  
HETATM   32  C   UNL     1      -9.575  18.787  68.441  1.00  0.00    -0.409 A  
ENDBRANCH  25  27
ENDBRANCH  22  25
ENDBRANCH  19  22
ENDBRANCH  14  16
ENDBRANCH  12  14
ENDBRANCH   6  12
TORSDOF 6
ENDMDL
MODEL       90
REMARK 921   NORMALIZED FREE ENERGY PREDICTED BY IDOCK:   -6.19 KCAL/MOL
REMARK 922        TOTAL FREE ENERGY PREDICTED BY IDOCK:   -8.88 KCAL/MOL
REMARK 923 INTER-LIGAND FREE ENERGY PREDICTED BY IDOCK:   -8.02 KCAL/MOL
REMARK 924 INTRA-LIGAND FREE ENERGY PREDICTED BY IDOCK:   -0.86 KCAL/MOL
REMARK 927      BINDING AFFINITY PREDICTED BY RF-SCORE:    0.00 PKD
ROOT
HETATM    1  O   UNL     1     -11.328  12.398  64.236  1.00  0.00    -0.319 OA 
HETATM    2  C   UNL     1     -10.859  11.677  65.277  1.00  0.00    -0.283 C  
HETATM    3  C   UNL     1      -9.878  10.623  64.905  1.00  0.00    -0.363 A  
HETATM    4  O   UNL     1     -11.249  11.836  66.422  1.00  0.00    -0.316 OA 
HETATM    5  C   UNL     1      -9.768   9.507  65.754  1.00  0.00    -0.357 A  
HETATM    6  C   UNL     1      -8.839   8.488  65.492  1.00  0.00    -0.154 A  
HETATM    7  C   UNL     1      -8.031   8.608  64.352  1.00  0.00    -0.146 A  
HETATM    8  O   UNL     1      -9.157  11.791  62.938  1.00  0.00    -0.635 OA 
HETATM    9  C   UNL     1      -9.052  10.715  63.780  1.00  0.00    -0.227 A  
HETATM   10  H   UNL     1      -8.595  11.853  62.174  1.00  0.00     0.000 HD 
HETATM   11  C   UNL     1      -8.128   9.713  63.499  1.00  0.00    -0.149 A  
ENDROOT
BRANCH   6  12
HETATM   12  N   UNL     1      -8.654   7.339  66.294  1.00  0.00    -0.136 NA 
HETATM   13  H   UNL     1      -7.738   7.006  66.595  1.00  0.00     0.000 HD 
BRANCH  12  14
HETATM   14  N   UNL     1      -9.725   6.773  66.596  1.00  0.00    -0.229 NA 
HETATM   15  H   UNL     1     -10.431   6.494  65.914  1.00  0.00     0.000 HD 
BRANCH  14  16
HETATM   16  C   UNL     1      -9.850   6.562  67.987  1.00  0.00    -0.123 A  
HETATM   17  C   UNL     1     -11.364   6.277  69.880  1.00  0.00    -0.504 A  
HETATM   18  C   UNL     1     -11.145   6.433  68.507  1.00  0.00    -0.385 A  
HETATM   19  C   UNL     1     -10.275   6.205  70.752  1.00  0.00    -0.198 A  
HETATM   20  C   UNL     1      -8.766   6.479  68.879  1.00  0.00    -0.127 A  
HETATM   21  C   UNL     1      -8.973   6.308  70.255  1.00  0.00    -0.154 A  
BRANCH  19  22
HETATM   22  S   UNL     1     -10.571   6.180  72.512  1.00  0.00    -0.225 S  
HETATM   23  O   UNL     1      -9.523   5.387  73.115  1.00  0.00    -0.142 OA 
HETATM   24  O   UNL     1     -11.965   5.821  72.691  1.00  0.00    -0.250 OA 
BRANCH  22  25
HETATM   25  N   UNL     1     -10.448   7.797  72.976  1.00  0.00    -0.349 N  
HETATM   26  H   UNL     1      -9.926   8.084  73.803  1.00  0.00     0.000 HD 
BRANCH  25  27
HETATM   27  C   UNL     1     -11.111   8.726  72.150  1.00  0.00    -0.336 A  
HETATM   28  N   UNL     1     -10.295   9.364  71.296  1.00  0.00    -0.320 NA 
HETATM   29  C   UNL     1     -10.889  10.209  70.423  1.00  0.00    -0.301 A  
HETATM   30  C   UNL     1     -12.253  10.457  70.393  1.00  0.00    -0.389 A  
HETATM   31  C   UNL     1     -13.061   9.801  71.316  1.00  0.00    -0.465 A  
HETATM   32  C   UNL     1     -12.481   8.912  72.218  1.00  0.00    -0.440 A  
ENDBRANCH  25  27
ENDBRANCH  22  25
ENDBRANCH  19  22
ENDBRANCH  14  16
ENDBRANCH  12  14
ENDBRANCH   6  12
TORSDOF 6
ENDMDL
MODEL       91
REMARK 921   NORMALIZED FREE ENERGY PREDICTED BY IDOCK:   -6.19 KCAL/MOL
REMARK 922        TOTAL FREE ENERGY PREDICTED BY IDOCK:   -8.88 KCAL/MOL
REMARK 923 INTER-LIGAND FREE ENERGY PREDICTED BY IDOCK:   -8.08 KCAL/MOL
REMARK 924 INTRA-LIGAND FREE ENERGY PREDICTED BY IDOCK:   -0.81 KCAL/MOL
REMARK 927      BINDING AFFINITY PREDICTED BY RF-SCORE:    0.00 PKD
ROOT
HETATM    1  O   UNL     1      -8.092   4.697  70.768  1.00  0.00    -0.080 OA 
HETATM    2  C   UNL     1      -7.985   5.972  70.333  1.00  0.00    -0.107 C  
HETATM    3  C   UNL     1      -8.824   6.290  69.147  1.00  0.00    -0.128 A  
HETATM    4  O   UNL     1      -7.221   6.781  70.834  1.00  0.00    -0.070 OA 
HETATM    5  C   UNL     1      -8.393   7.334  68.307  1.00  0.00    -0.125 A  
HETATM    6  C   UNL     1      -9.149   7.720  67.189  1.00  0.00    -0.134 A  
HETATM    7  C   UNL     1     -10.340   7.027  66.926  1.00  0.00    -0.338 A  
HETATM    8  O   UNL     1     -10.445   4.600  69.663  1.00  0.00    -0.058 OA 
HETATM    9  C   UNL     1     -10.020   5.626  68.860  1.00  0.00    -0.166 A  
HETATM   10  H   UNL     1     -11.258   4.149  69.468  1.00  0.00     0.000 HD 
HETATM   11  C   UNL     1     -10.782   5.990  67.753  1.00  0.00    -0.369 A  
ENDROOT
BRANCH   6  12
HETATM   12  N   UNL     1      -8.799   8.759  66.298  1.00  0.00    -0.148 NA 
HETATM   13  H   UNL     1      -7.998   9.375  66.440  1.00  0.00     0.000 HD 
BRANCH  12  14
HETATM   14  N   UNL     1      -9.569   8.848  65.319  1.00  0.00    -0.425 NA 
HETATM   15  H   UNL     1      -9.824   8.059  64.725  1.00  0.00     0.000 HD 
BRANCH  14  16
HETATM   16  C   UNL     1     -10.049  10.163  65.127  1.00  0.00    -0.259 A  
HETATM   17  C   UNL     1     -10.992  12.162  66.160  1.00  0.00    -0.335 A  
HETATM   18  C   UNL     1     -10.453  10.876  66.264  1.00  0.00    -0.304 A  
HETATM   19  C   UNL     1     -11.093  12.773  64.907  1.00  0.00    -0.292 A  
HETATM   20  C   UNL     1     -10.151  10.796  63.876  1.00  0.00    -0.397 A  
HETATM   21  C   UNL     1     -10.676  12.091  63.761  1.00  0.00    -0.478 A  
BRANCH  19  22
HETATM   22  S   UNL     1     -11.938  14.339  64.769  1.00  0.00    -0.461 S  
HETATM   23  O   UNL     1     -12.511  14.636  66.063  1.00  0.00    -0.220 OA 
HETATM   24  O   UNL     1     -12.779  14.252  63.590  1.00  0.00    -0.783 OA 
BRANCH  22  25
HETATM   25  N   UNL     1     -10.717  15.436  64.384  1.00  0.00    -0.515 N  
HETATM   26  H   UNL     1     -10.454  15.636  63.420  1.00  0.00     0.000 HD 
BRANCH  25  27
HETATM   27  C   UNL     1     -10.082  16.060  65.477  1.00  0.00    -0.304 A  
HETATM   28  N   UNL     1     -10.609  17.253  65.795  1.00  0.00    -0.464 NA 
HETATM   29  C   UNL     1     -10.092  17.860  66.887  1.00  0.00    -0.348 A  
HETATM   30  C   UNL     1      -9.058  17.334  67.647  1.00  0.00    -0.228 A  
HETATM   31  C   UNL     1      -8.517  16.111  67.266  1.00  0.00    -0.203 A  
HETATM   32  C   UNL     1      -9.039  15.453  66.155  1.00  0.00    -0.339 A  
ENDBRANCH  25  27
ENDBRANCH  22  25
ENDBRANCH  19  22
ENDBRANCH  14  16
ENDBRANCH  12  14
ENDBRANCH   6  12
TORSDOF 6
ENDMDL
MODEL       92
REMARK 921   NORMALIZED FREE ENERGY PREDICTED BY IDOCK:   -6.18 KCAL/MOL
REMARK 922        TOTAL FREE ENERGY PREDICTED BY IDOCK:   -8.87 KCAL/MOL
REMARK 923 INTER-LIGAND FREE ENERGY PREDICTED BY IDOCK:   -8.31 KCAL/MOL
REMARK 924 INTRA-LIGAND FREE ENERGY PREDICTED BY IDOCK:   -0.57 KCAL/MOL
REMARK 927      BINDING AFFINITY PREDICTED BY RF-SCORE:    0.00 PKD
ROOT
HETATM    1  O   UNL     1     -11.467  16.659  63.896  1.00  0.00    -1.186 OA 
HETATM    2  C   UNL     1     -11.635  15.571  64.678  1.00  0.00    -0.281 C  
HETATM    3  C   UNL     1     -10.709  15.497  65.839  1.00  0.00    -0.346 A  
HETATM    4  O   UNL     1     -12.440  14.690  64.422  1.00  0.00    -0.624 OA 
HETATM    5  C   UNL     1     -10.412  14.222  66.355  1.00  0.00    -0.282 A  
HETATM    6  C   UNL     1      -9.577  14.071  67.473  1.00  0.00    -0.228 A  
HETATM    7  C   UNL     1      -9.037  15.228  68.055  1.00  0.00    -0.176 A  
HETATM    8  O   UNL     1     -10.431  17.876  65.948  1.00  0.00    -0.497 OA 
HETATM    9  C   UNL     1     -10.160  16.630  66.448  1.00  0.00    -0.315 A  
HETATM   10  H   UNL     1     -10.058  18.646  66.362  1.00  0.00     0.000 HD 
HETATM   11  C   UNL     1      -9.325  16.502  67.554  1.00  0.00    -0.218 A  
ENDROOT
BRANCH   6  12
HETATM   12  N   UNL     1      -9.234  12.834  68.063  1.00  0.00    -0.203 NA 
HETATM   13  H   UNL     1      -8.403  12.301  67.805  1.00  0.00     0.000 HD 
BRANCH  12  14
HETATM   14  N   UNL     1     -10.049  12.459  68.931  1.00  0.00    -0.428 NA 
HETATM   15  H   UNL     1     -10.578  13.098  69.525  1.00  0.00     0.000 HD 
BRANCH  14  16
HETATM   16  C   UNL     1     -10.159  11.053  68.998  1.00  0.00    -0.180 A  
HETATM   17  C   UNL     1     -10.046   8.937  67.787  1.00  0.00    -0.263 A  
HETATM   18  C   UNL     1      -9.907  10.328  67.825  1.00  0.00    -0.195 A  
HETATM   19  C   UNL     1     -10.400   8.244  68.947  1.00  0.00    -0.215 A  
HETATM   20  C   UNL     1     -10.507  10.338  70.157  1.00  0.00    -0.259 A  
HETATM   21  C   UNL     1     -10.635   8.942  70.135  1.00  0.00    -0.243 A  
BRANCH  19  22
HETATM   22  S   UNL     1     -10.741   6.495  68.844  1.00  0.00    -0.297 S  
HETATM   23  O   UNL     1     -11.236   6.229  67.512  1.00  0.00    -0.328 OA 
HETATM   24  O   UNL     1     -11.538   6.160  70.009  1.00  0.00    -0.392 OA 
BRANCH  22  25
HETATM   25  N   UNL     1      -9.240   5.765  69.088  1.00  0.00    -0.119 N  
HETATM   26  H   UNL     1      -8.386   6.310  69.198  1.00  0.00     0.000 HD 
BRANCH  25  27
HETATM   27  C   UNL     1      -9.240   4.357  69.130  1.00  0.00    -0.140 A  
HETATM   28  N   UNL     1      -9.123   3.782  67.922  1.00  0.00    -0.138 NA 
HETATM   29  C   UNL     1      -9.036   2.433  67.910  1.00  0.00    -0.155 A  
HETATM   30  C   UNL     1      -9.089   1.645  69.049  1.00  0.00    -0.164 A  
HETATM   31  C   UNL     1      -9.243   2.275  70.279  1.00  0.00    -0.193 A  
HETATM   32  C   UNL     1      -9.320   3.665  70.326  1.00  0.00    -0.241 A  
ENDBRANCH  25  27
ENDBRANCH  22  25
ENDBRANCH  19  22
ENDBRANCH  14  16
ENDBRANCH  12  14
ENDBRANCH   6  12
TORSDOF 6
ENDMDL
MODEL       93
REMARK 921   NORMALIZED FREE ENERGY PREDICTED BY IDOCK:   -6.14 KCAL/MOL
REMARK 922        TOTAL FREE ENERGY PREDICTED BY IDOCK:   -8.82 KCAL/MOL
REMARK 923 INTER-LIGAND FREE ENERGY PREDICTED BY IDOCK:   -7.74 KCAL/MOL
REMARK 924 INTRA-LIGAND FREE ENERGY PREDICTED BY IDOCK:   -1.09 KCAL/MOL
REMARK 927      BINDING AFFINITY PREDICTED BY RF-SCORE:    0.00 PKD
ROOT
HETATM    1  O   UNL     1     -14.396   9.077  72.544  1.00  0.00    -0.570 OA 
HETATM    2  C   UNL     1     -13.365   9.335  71.710  1.00  0.00    -0.409 C  
HETATM    3  C   UNL     1     -12.321   8.277  71.674  1.00  0.00    -0.349 A  
HETATM    4  O   UNL     1     -13.268  10.376  71.080  1.00  0.00    -0.373 OA 
HETATM    5  C   UNL     1     -11.015   8.663  71.319  1.00  0.00    -0.333 A  
HETATM    6  C   UNL     1      -9.982   7.717  71.225  1.00  0.00    -0.179 A  
HETATM    7  C   UNL     1     -10.286   6.377  71.509  1.00  0.00    -0.239 A  
HETATM    8  O   UNL     1     -13.855   6.543  72.301  1.00  0.00    -0.510 OA 
HETATM    9  C   UNL     1     -12.591   6.931  71.942  1.00  0.00    -0.297 A  
HETATM   10  H   UNL     1     -14.039   5.629  72.483  1.00  0.00     0.000 HD 
HETATM   11  C   UNL     1     -11.579   5.978  71.861  1.00  0.00    -0.312 A  
ENDROOT
BRANCH   6  12
HETATM   12  N   UNL     1      -8.648   8.012  70.868  1.00  0.00    -0.129 NA 
HETATM   13  H   UNL     1      -8.080   8.712  71.346  1.00  0.00     0.000 HD 
BRANCH  12  14
HETATM   14  N   UNL     1      -8.234   7.330  69.907  1.00  0.00    -0.131 NA 
HETATM   15  H   UNL     1      -7.829   6.399  70.006  1.00  0.00     0.000 HD 
BRANCH  14  16
HETATM   16  C   UNL     1      -8.389   7.991  68.668  1.00  0.00    -0.127 A  
HETATM   17  C   UNL     1      -7.874   9.966  67.331  1.00  0.00    -0.098 A  
HETATM   18  C   UNL     1      -7.731   9.218  68.503  1.00  0.00    -0.085 A  
HETATM   19  C   UNL     1      -8.652   9.469  66.282  1.00  0.00    -0.130 A  
HETATM   20  C   UNL     1      -9.160   7.503  67.599  1.00  0.00    -0.127 A  
HETATM   21  C   UNL     1      -9.300   8.238  66.413  1.00  0.00    -0.274 A  
BRANCH  19  22
HETATM   22  S   UNL     1      -8.965  10.508  64.864  1.00  0.00    -0.208 S  
HETATM   23  O   UNL     1     -10.322  10.255  64.435  1.00  0.00    -0.235 OA 
HETATM   24  O   UNL     1      -7.853  10.313  63.955  1.00  0.00    -0.155 OA 
BRANCH  22  25
HETATM   25  N   UNL     1      -8.804  12.079  65.459  1.00  0.00    -0.350 N  
HETATM   26  H   UNL     1      -7.893  12.486  65.669  1.00  0.00     0.000 HD 
BRANCH  25  27
HETATM   27  C   UNL     1     -10.004  12.793  65.645  1.00  0.00    -0.238 A  
HETATM   28  N   UNL     1     -10.704  12.396  66.720  1.00  0.00    -0.230 NA 
HETATM   29  C   UNL     1     -11.825  13.101  66.994  1.00  0.00    -0.379 A  
HETATM   30  C   UNL     1     -12.280  14.160  66.223  1.00  0.00    -0.474 A  
HETATM   31  C   UNL     1     -11.545  14.519  65.098  1.00  0.00    -0.371 A  
HETATM   32  C   UNL     1     -10.376  13.823  64.799  1.00  0.00    -0.422 A  
ENDBRANCH  25  27
ENDBRANCH  22  25
ENDBRANCH  19  22
ENDBRANCH  14  16
ENDBRANCH  12  14
ENDBRANCH   6  12
TORSDOF 6
ENDMDL
MODEL       94
REMARK 921   NORMALIZED FREE ENERGY PREDICTED BY IDOCK:   -6.14 KCAL/MOL
REMARK 922        TOTAL FREE ENERGY PREDICTED BY IDOCK:   -8.82 KCAL/MOL
REMARK 923 INTER-LIGAND FREE ENERGY PREDICTED BY IDOCK:   -8.11 KCAL/MOL
REMARK 924 INTRA-LIGAND FREE ENERGY PREDICTED BY IDOCK:   -0.71 KCAL/MOL
REMARK 927      BINDING AFFINITY PREDICTED BY RF-SCORE:    0.00 PKD
ROOT
HETATM    1  O   UNL     1      -7.168  21.321  67.666  1.00  0.00    -0.407 OA 
HETATM    2  C   UNL     1      -7.080  19.974  67.690  1.00  0.00    -0.266 C  
HETATM    3  C   UNL     1      -8.387  19.272  67.793  1.00  0.00    -0.335 A  
HETATM    4  O   UNL     1      -6.014  19.379  67.687  1.00  0.00    -0.196 OA 
HETATM    5  C   UNL     1      -8.394  17.990  68.373  1.00  0.00    -0.305 A  
HETATM    6  C   UNL     1      -9.582  17.248  68.472  1.00  0.00    -0.291 A  
HETATM    7  C   UNL     1     -10.764  17.826  67.987  1.00  0.00    -0.317 A  
HETATM    8  O   UNL     1      -9.593  21.067  66.756  1.00  0.00    -0.631 OA 
HETATM    9  C   UNL     1      -9.583  19.815  67.312  1.00  0.00    -0.359 A  
HETATM   10  H   UNL     1     -10.405  21.436  66.429  1.00  0.00     0.000 HD 
HETATM   11  C   UNL     1     -10.772  19.098  67.406  1.00  0.00    -0.578 A  
ENDROOT
BRANCH   6  12
HETATM   12  N   UNL     1      -9.680  15.953  69.029  1.00  0.00    -0.228 NA 
HETATM   13  H   UNL     1      -8.923  15.505  69.546  1.00  0.00     0.000 HD 
BRANCH  12  14
HETATM   14  N   UNL     1     -10.787  15.413  68.825  1.00  0.00    -0.242 NA 
HETATM   15  H   UNL     1     -11.681  15.888  68.949  1.00  0.00     0.000 HD 
BRANCH  14  16
HETATM   16  C   UNL     1     -10.663  14.070  68.404  1.00  0.00    -0.251 A  
HETATM   17  C   UNL     1      -9.152  12.257  67.783  1.00  0.00    -0.191 A  
HETATM   18  C   UNL     1      -9.368  13.558  68.249  1.00  0.00    -0.205 A  
HETATM   19  C   UNL     1     -10.244  11.431  67.505  1.00  0.00    -0.185 A  
HETATM   20  C   UNL     1     -11.749  13.222  68.127  1.00  0.00    -0.397 A  
HETATM   21  C   UNL     1     -11.546  11.911  67.673  1.00  0.00    -0.382 A  
BRANCH  19  22
HETATM   22  S   UNL     1      -9.959   9.838  66.750  1.00  0.00    -0.232 S  
HETATM   23  O   UNL     1      -8.636   9.407  67.140  1.00  0.00    -0.126 OA 
HETATM   24  O   UNL     1     -10.309   9.977  65.349  1.00  0.00    -0.245 OA 
BRANCH  22  25
HETATM   25  N   UNL     1     -11.142   8.843  67.424  1.00  0.00    -0.342 N  
HETATM   26  H   UNL     1     -12.111   9.143  67.519  1.00  0.00     0.000 HD 
BRANCH  25  27
HETATM   27  C   UNL     1     -10.708   7.570  67.846  1.00  0.00    -0.133 A  
HETATM   28  N   UNL     1     -10.492   7.487  69.169  1.00  0.00    -0.216 NA 
HETATM   29  C   UNL     1     -10.152   6.266  69.641  1.00  0.00    -0.174 A  
HETATM   30  C   UNL     1      -9.994   5.145  68.842  1.00  0.00    -0.245 A  
HETATM   31  C   UNL     1     -10.195   5.279  67.472  1.00  0.00    -0.229 A  
HETATM   32  C   UNL     1     -10.562   6.520  66.956  1.00  0.00    -0.402 A  
ENDBRANCH  25  27
ENDBRANCH  22  25
ENDBRANCH  19  22
ENDBRANCH  14  16
ENDBRANCH  12  14
ENDBRANCH   6  12
TORSDOF 6
ENDMDL
MODEL       95
REMARK 921   NORMALIZED FREE ENERGY PREDICTED BY IDOCK:   -6.14 KCAL/MOL
REMARK 922        TOTAL FREE ENERGY PREDICTED BY IDOCK:   -8.81 KCAL/MOL
REMARK 923 INTER-LIGAND FREE ENERGY PREDICTED BY IDOCK:   -8.06 KCAL/MOL
REMARK 924 INTRA-LIGAND FREE ENERGY PREDICTED BY IDOCK:   -0.75 KCAL/MOL
REMARK 927      BINDING AFFINITY PREDICTED BY RF-SCORE:    0.00 PKD
ROOT
HETATM    1  O   UNL     1      -9.495   3.261  68.440  1.00  0.00    -0.181 OA 
HETATM    2  C   UNL     1      -9.708   4.594  68.456  1.00  0.00    -0.142 C  
HETATM    3  C   UNL     1     -10.258   5.116  69.736  1.00  0.00    -0.357 A  
HETATM    4  O   UNL     1      -9.519   5.307  67.483  1.00  0.00    -0.117 OA 
HETATM    5  C   UNL     1     -11.014   6.301  69.684  1.00  0.00    -0.440 A  
HETATM    6  C   UNL     1     -11.534   6.877  70.854  1.00  0.00    -0.323 A  
HETATM    7  C   UNL     1     -11.290   6.231  72.074  1.00  0.00    -0.348 A  
HETATM    8  O   UNL     1      -9.302   3.339  71.033  1.00  0.00    -0.117 OA 
HETATM    9  C   UNL     1     -10.026   4.501  70.971  1.00  0.00    -0.187 A  
HETATM   10  H   UNL     1      -9.144   2.922  71.872  1.00  0.00     0.000 HD 
HETATM   11  C   UNL     1     -10.539   5.053  72.141  1.00  0.00    -0.259 A  
ENDROOT
BRANCH   6  12
HETATM   12  N   UNL     1     -12.294   8.068  70.897  1.00  0.00    -0.500 NA 
HETATM   13  H   UNL     1     -13.251   8.136  70.550  1.00  0.00     0.000 HD 
BRANCH  12  14
HETATM   14  N   UNL     1     -11.677   9.027  71.405  1.00  0.00    -0.298 NA 
HETATM   15  H   UNL     1     -11.429   9.083  72.393  1.00  0.00     0.000 HD 
BRANCH  14  16
HETATM   16  C   UNL     1     -11.359  10.027  70.458  1.00  0.00    -0.335 A  
HETATM   17  C   UNL     1      -9.640  11.023  69.041  1.00  0.00    -0.136 A  
HETATM   18  C   UNL     1     -10.057  10.036  69.941  1.00  0.00    -0.289 A  
HETATM   19  C   UNL     1     -10.546  11.995  68.611  1.00  0.00    -0.229 A  
HETATM   20  C   UNL     1     -12.259  11.008  70.007  1.00  0.00    -0.418 A  
HETATM   21  C   UNL     1     -11.858  11.993  69.094  1.00  0.00    -0.369 A  
BRANCH  19  22
HETATM   22  S   UNL     1      -9.958  13.344  67.600  1.00  0.00    -0.234 S  
HETATM   23  O   UNL     1      -9.758  12.829  66.265  1.00  0.00    -0.259 OA 
HETATM   24  O   UNL     1      -8.863  13.958  68.328  1.00  0.00    -0.177 OA 
BRANCH  22  25
HETATM   25  N   UNL     1     -11.217  14.466  67.632  1.00  0.00    -0.300 N  
HETATM   26  H   UNL     1     -12.194  14.180  67.703  1.00  0.00     0.000 HD 
BRANCH  25  27
HETATM   27  C   UNL     1     -10.838  15.821  67.556  1.00  0.00    -0.315 A  
HETATM   28  N   UNL     1     -10.642  16.254  66.301  1.00  0.00    -0.288 NA 
HETATM   29  C   UNL     1     -10.355  17.568  66.163  1.00  0.00    -0.329 A  
HETATM   30  C   UNL     1     -10.230  18.448  67.227  1.00  0.00    -0.396 A  
HETATM   31  C   UNL     1     -10.408  17.954  68.515  1.00  0.00    -0.365 A  
HETATM   32  C   UNL     1     -10.721  16.608  68.689  1.00  0.00    -0.349 A  
ENDBRANCH  25  27
ENDBRANCH  22  25
ENDBRANCH  19  22
ENDBRANCH  14  16
ENDBRANCH  12  14
ENDBRANCH   6  12
TORSDOF 6
ENDMDL
MODEL       96
REMARK 921   NORMALIZED FREE ENERGY PREDICTED BY IDOCK:   -6.13 KCAL/MOL
REMARK 922        TOTAL FREE ENERGY PREDICTED BY IDOCK:   -8.81 KCAL/MOL
REMARK 923 INTER-LIGAND FREE ENERGY PREDICTED BY IDOCK:   -7.97 KCAL/MOL
REMARK 924 INTRA-LIGAND FREE ENERGY PREDICTED BY IDOCK:   -0.83 KCAL/MOL
REMARK 927      BINDING AFFINITY PREDICTED BY RF-SCORE:    0.00 PKD
ROOT
HETATM    1  O   UNL     1      -9.206   2.701  69.385  1.00  0.00    -0.113 OA 
HETATM    2  C   UNL     1      -9.440   4.003  69.658  1.00  0.00    -0.192 C  
HETATM    3  C   UNL     1     -10.060   4.253  70.986  1.00  0.00    -0.165 A  
HETATM    4  O   UNL     1      -9.215   4.898  68.859  1.00  0.00    -0.107 OA 
HETATM    5  C   UNL     1     -10.830   5.421  71.135  1.00  0.00    -0.188 A  
HETATM    6  C   UNL     1     -11.417   5.747  72.369  1.00  0.00    -0.288 A  
HETATM    7  C   UNL     1     -11.223   4.868  73.445  1.00  0.00    -0.415 A  
HETATM    8  O   UNL     1      -9.143   2.256  71.947  1.00  0.00    -0.076 OA 
HETATM    9  C   UNL     1      -9.881   3.403  72.083  1.00  0.00    -0.166 A  
HETATM   10  H   UNL     1      -9.020   1.679  72.692  1.00  0.00     0.000 HD 
HETATM   11  C   UNL     1     -10.458   3.705  73.312  1.00  0.00    -0.260 A  
ENDROOT
BRANCH   6  12
HETATM   12  N   UNL     1     -12.196   6.900  72.611  1.00  0.00    -0.476 NA 
HETATM   13  H   UNL     1     -13.210   6.927  72.500  1.00  0.00     0.000 HD 
BRANCH  12  14
HETATM   14  N   UNL     1     -11.518   7.884  72.975  1.00  0.00    -0.548 NA 
HETATM   15  H   UNL     1     -11.210   8.035  73.936  1.00  0.00     0.000 HD 
BRANCH  14  16
HETATM   16  C   UNL     1     -11.226   8.763  71.909  1.00  0.00    -0.368 A  
HETATM   17  C   UNL     1     -12.093  10.385  70.305  1.00  0.00    -0.370 A  
HETATM   18  C   UNL     1     -12.281   9.530  71.396  1.00  0.00    -0.455 A  
HETATM   19  C   UNL     1     -10.823  10.515  69.737  1.00  0.00    -0.281 A  
HETATM   20  C   UNL     1      -9.954   8.913  71.330  1.00  0.00    -0.358 A  
HETATM   21  C   UNL     1      -9.750   9.778  70.245  1.00  0.00    -0.279 A  
BRANCH  19  22
HETATM   22  S   UNL     1     -10.634  11.474  68.243  1.00  0.00    -0.211 S  
HETATM   23  O   UNL     1     -10.717  10.558  67.129  1.00  0.00    -0.256 OA 
HETATM   24  O   UNL     1      -9.460  12.305  68.432  1.00  0.00    -0.211 OA 
BRANCH  22  25
HETATM   25  N   UNL     1     -11.951  12.528  68.258  1.00  0.00    -0.296 N  
HETATM   26  H   UNL     1     -12.871  12.248  67.922  1.00  0.00     0.000 HD 
BRANCH  25  27
HETATM   27  C   UNL     1     -11.700  13.819  68.764  1.00  0.00    -0.356 A  
HETATM   28  N   UNL     1     -11.508  14.743  67.808  1.00  0.00    -0.333 NA 
HETATM   29  C   UNL     1     -11.343  16.015  68.235  1.00  0.00    -0.326 A  
HETATM   30  C   UNL     1     -11.337  16.389  69.570  1.00  0.00    -0.192 A  
HETATM   31  C   UNL     1     -11.507  15.398  70.531  1.00  0.00    -0.354 A  
HETATM   32  C   UNL     1     -11.695  14.079  70.123  1.00  0.00    -0.331 A  
ENDBRANCH  25  27
ENDBRANCH  22  25
ENDBRANCH  19  22
ENDBRANCH  14  16
ENDBRANCH  12  14
ENDBRANCH   6  12
TORSDOF 6
ENDMDL
MODEL       97
REMARK 921   NORMALIZED FREE ENERGY PREDICTED BY IDOCK:   -6.13 KCAL/MOL
REMARK 922        TOTAL FREE ENERGY PREDICTED BY IDOCK:   -8.80 KCAL/MOL
REMARK 923 INTER-LIGAND FREE ENERGY PREDICTED BY IDOCK:   -8.31 KCAL/MOL
REMARK 924 INTRA-LIGAND FREE ENERGY PREDICTED BY IDOCK:   -0.49 KCAL/MOL
REMARK 927      BINDING AFFINITY PREDICTED BY RF-SCORE:    0.00 PKD
ROOT
HETATM    1  O   UNL     1      -9.128  19.477  67.524  1.00  0.00    -0.292 OA 
HETATM    2  C   UNL     1      -9.709  18.466  68.206  1.00  0.00    -0.344 C  
HETATM    3  C   UNL     1      -9.972  17.247  67.397  1.00  0.00    -0.278 A  
HETATM    4  O   UNL     1     -10.044  18.563  69.376  1.00  0.00    -0.191 OA 
HETATM    5  C   UNL     1     -11.022  16.406  67.809  1.00  0.00    -0.261 A  
HETATM    6  C   UNL     1     -11.308  15.217  67.119  1.00  0.00    -0.290 A  
HETATM    7  C   UNL     1     -10.526  14.897  66.000  1.00  0.00    -0.326 A  
HETATM    8  O   UNL     1      -8.189  17.711  65.861  1.00  0.00    -0.534 OA 
HETATM    9  C   UNL     1      -9.206  16.894  66.281  1.00  0.00    -0.267 A  
HETATM   10  H   UNL     1      -7.668  17.471  65.104  1.00  0.00     0.000 HD 
HETATM   11  C   UNL     1      -9.478  15.722  65.580  1.00  0.00    -0.252 A  
ENDROOT
BRANCH   6  12
HETATM   12  N   UNL     1     -12.335  14.310  67.467  1.00  0.00    -0.587 NA 
HETATM   13  H   UNL     1     -12.963  13.884  66.785  1.00  0.00     0.000 HD 
BRANCH  12  14
HETATM   14  N   UNL     1     -12.395  14.082  68.694  1.00  0.00    -0.503 NA 
HETATM   15  H   UNL     1     -12.748  14.752  69.377  1.00  0.00     0.000 HD 
BRANCH  14  16
HETATM   16  C   UNL     1     -11.920  12.795  69.028  1.00  0.00    -0.242 A  
HETATM   17  C   UNL     1     -12.113  10.872  70.518  1.00  0.00    -0.464 A  
HETATM   18  C   UNL     1     -12.553  12.126  70.084  1.00  0.00     0.022 A  
HETATM   19  C   UNL     1     -11.048  10.247  69.863  1.00  0.00    -0.304 A  
HETATM   20  C   UNL     1     -10.856  12.147  68.376  1.00  0.00    -0.255 A  
HETATM   21  C   UNL     1     -10.414  10.883  68.792  1.00  0.00    -0.224 A  
BRANCH  19  22
HETATM   22  S   UNL     1     -10.386   8.730  70.533  1.00  0.00    -0.215 S  
HETATM   23  O   UNL     1      -9.015   8.988  70.912  1.00  0.00    -0.205 OA 
HETATM   24  O   UNL     1     -10.706   7.684  69.581  1.00  0.00    -0.242 OA 
BRANCH  22  25
HETATM   25  N   UNL     1     -11.340   8.426  71.890  1.00  0.00    -0.291 N  
HETATM   26  H   UNL     1     -12.161   8.989  72.112  1.00  0.00     0.000 HD 
BRANCH  25  27
HETATM   27  C   UNL     1     -10.935   7.345  72.698  1.00  0.00    -0.317 A  
HETATM   28  N   UNL     1     -11.646   6.224  72.494  1.00  0.00    -0.263 NA 
HETATM   29  C   UNL     1     -11.247   5.132  73.184  1.00  0.00    -0.330 A  
HETATM   30  C   UNL     1     -10.191   5.128  74.083  1.00  0.00    -0.280 A  
HETATM   31  C   UNL     1      -9.500   6.317  74.292  1.00  0.00    -0.212 A  
HETATM   32  C   UNL     1      -9.876   7.456  73.583  1.00  0.00    -0.365 A  
ENDBRANCH  25  27
ENDBRANCH  22  25
ENDBRANCH  19  22
ENDBRANCH  14  16
ENDBRANCH  12  14
ENDBRANCH   6  12
TORSDOF 6
ENDMDL
MODEL       98
REMARK 921   NORMALIZED FREE ENERGY PREDICTED BY IDOCK:   -6.13 KCAL/MOL
REMARK 922        TOTAL FREE ENERGY PREDICTED BY IDOCK:   -8.80 KCAL/MOL
REMARK 923 INTER-LIGAND FREE ENERGY PREDICTED BY IDOCK:   -7.94 KCAL/MOL
REMARK 924 INTRA-LIGAND FREE ENERGY PREDICTED BY IDOCK:   -0.86 KCAL/MOL
REMARK 927      BINDING AFFINITY PREDICTED BY RF-SCORE:    0.00 PKD
ROOT
HETATM    1  O   UNL     1      -6.953   7.244  72.255  1.00  0.00    -0.062 OA 
HETATM    2  C   UNL     1      -7.997   7.766  72.935  1.00  0.00    -0.124 C  
HETATM    3  C   UNL     1      -9.332   7.349  72.429  1.00  0.00    -0.179 A  
HETATM    4  O   UNL     1      -7.860   8.561  73.851  1.00  0.00    -0.367 OA 
HETATM    5  C   UNL     1     -10.416   8.217  72.660  1.00  0.00    -0.401 A  
HETATM    6  C   UNL     1     -11.714   7.877  72.248  1.00  0.00    -0.355 A  
HETATM    7  C   UNL     1     -11.898   6.653  71.588  1.00  0.00    -0.383 A  
HETATM    8  O   UNL     1      -8.504   5.284  71.533  1.00  0.00    -0.119 OA 
HETATM    9  C   UNL     1      -9.553   6.133  71.775  1.00  0.00    -0.150 A  
HETATM   10  H   UNL     1      -8.654   4.458  71.090  1.00  0.00     0.000 HD 
HETATM   11  C   UNL     1     -10.831   5.780  71.353  1.00  0.00    -0.316 A  
ENDROOT
BRANCH   6  12
HETATM   12  N   UNL     1     -12.859   8.680  72.445  1.00  0.00    -0.503 NA 
HETATM   13  H   UNL     1     -13.194   8.964  73.366  1.00  0.00     0.000 HD 
BRANCH  12  14
HETATM   14  N   UNL     1     -13.419   9.008  71.378  1.00  0.00    -0.493 NA 
HETATM   15  H   UNL     1     -14.093   8.419  70.888  1.00  0.00     0.000 HD 
BRANCH  14  16
HETATM   16  C   UNL     1     -13.017  10.285  70.927  1.00  0.00    -0.371 A  
HETATM   17  C   UNL     1     -12.029  11.592  69.119  1.00  0.00    -0.386 A  
HETATM   18  C   UNL     1     -12.502  10.378  69.627  1.00  0.00     0.022 A  
HETATM   19  C   UNL     1     -12.108  12.748  69.900  1.00  0.00    -0.259 A  
HETATM   20  C   UNL     1     -13.097  11.459  71.695  1.00  0.00    -0.498 A  
HETATM   21  C   UNL     1     -12.639  12.685  71.191  1.00  0.00    -0.354 A  
BRANCH  19  22
HETATM   22  S   UNL     1     -11.347  14.250  69.307  1.00  0.00    -0.296 S  
HETATM   23  O   UNL     1     -11.435  15.226  70.369  1.00  0.00    -0.254 OA 
HETATM   24  O   UNL     1     -11.924  14.520  68.005  1.00  0.00    -0.326 OA 
BRANCH  22  25
HETATM   25  N   UNL     1      -9.743  13.815  69.019  1.00  0.00    -0.415 N  
HETATM   26  H   UNL     1      -9.394  12.876  69.210  1.00  0.00     0.000 HD 
BRANCH  25  27
HETATM   27  C   UNL     1      -8.914  14.829  68.498  1.00  0.00    -0.182 A  
HETATM   28  N   UNL     1      -8.271  15.535  69.441  1.00  0.00    -0.252 NA 
HETATM   29  C   UNL     1      -7.399  16.468  68.995  1.00  0.00    -0.228 A  
HETATM   30  C   UNL     1      -7.172  16.736  67.654  1.00  0.00    -0.163 A  
HETATM   31  C   UNL     1      -7.883  16.006  66.707  1.00  0.00    -0.288 A  
HETATM   32  C   UNL     1      -8.776  15.026  67.135  1.00  0.00    -0.242 A  
ENDBRANCH  25  27
ENDBRANCH  22  25
ENDBRANCH  19  22
ENDBRANCH  14  16
ENDBRANCH  12  14
ENDBRANCH   6  12
TORSDOF 6
ENDMDL
MODEL       99
REMARK 921   NORMALIZED FREE ENERGY PREDICTED BY IDOCK:   -6.12 KCAL/MOL
REMARK 922        TOTAL FREE ENERGY PREDICTED BY IDOCK:   -8.79 KCAL/MOL
REMARK 923 INTER-LIGAND FREE ENERGY PREDICTED BY IDOCK:   -8.26 KCAL/MOL
REMARK 924 INTRA-LIGAND FREE ENERGY PREDICTED BY IDOCK:   -0.53 KCAL/MOL
REMARK 927      BINDING AFFINITY PREDICTED BY RF-SCORE:    0.00 PKD
ROOT
HETATM    1  O   UNL     1     -11.626  16.694  63.942  1.00  0.00    -1.204 OA 
HETATM    2  C   UNL     1     -11.670  15.489  64.552  1.00  0.00    -0.253 C  
HETATM    3  C   UNL     1     -10.486  15.184  65.398  1.00  0.00    -0.416 A  
HETATM    4  O   UNL     1     -12.577  14.692  64.378  1.00  0.00    -0.662 OA 
HETATM    5  C   UNL     1     -10.162  13.829  65.601  1.00  0.00    -0.326 A  
HETATM    6  C   UNL     1      -9.083  13.459  66.418  1.00  0.00    -0.045 A  
HETATM    7  C   UNL     1      -8.327  14.478  67.016  1.00  0.00    -0.195 A  
HETATM    8  O   UNL     1     -10.012  17.497  65.818  1.00  0.00    -0.546 OA 
HETATM    9  C   UNL     1      -9.716  16.174  66.017  1.00  0.00    -0.344 A  
HETATM   10  H   UNL     1      -9.490  18.170  66.238  1.00  0.00     0.000 HD 
HETATM   11  C   UNL     1      -8.638  15.828  66.826  1.00  0.00    -0.306 A  
ENDROOT
BRANCH   6  12
HETATM   12  N   UNL     1      -8.693  12.127  66.684  1.00  0.00    -0.292 NA 
HETATM   13  H   UNL     1      -7.774  11.873  67.046  1.00  0.00     0.000 HD 
BRANCH  12  14
HETATM   14  N   UNL     1      -9.587  11.293  66.432  1.00  0.00    -0.193 NA 
HETATM   15  H   UNL     1     -10.478  11.532  65.995  1.00  0.00     0.000 HD 
BRANCH  14  16
HETATM   16  C   UNL     1      -9.229   9.982  66.818  1.00  0.00    -0.148 A  
HETATM   17  C   UNL     1      -9.597   7.590  66.505  1.00  0.00    -0.239 A  
HETATM   18  C   UNL     1      -9.851   8.919  66.150  1.00  0.00    -0.326 A  
HETATM   19  C   UNL     1      -8.673   7.308  67.515  1.00  0.00    -0.121 A  
HETATM   20  C   UNL     1      -8.296   9.679  67.825  1.00  0.00    -0.121 A  
HETATM   21  C   UNL     1      -8.021   8.350  68.180  1.00  0.00    -0.119 A  
BRANCH  19  22
HETATM   22  S   UNL     1      -8.486   5.623  68.075  1.00  0.00    -0.101 S  
HETATM   23  O   UNL     1      -7.622   5.646  69.233  1.00  0.00    -0.083 OA 
HETATM   24  O   UNL     1      -8.136   4.836  66.907  1.00  0.00    -0.106 OA 
BRANCH  22  25
HETATM   25  N   UNL     1     -10.049   5.151  68.497  1.00  0.00    -0.164 N  
HETATM   26  H   UNL     1     -10.630   4.588  67.876  1.00  0.00     0.000 HD 
BRANCH  25  27
HETATM   27  C   UNL     1     -10.502   5.582  69.759  1.00  0.00    -0.319 A  
HETATM   28  N   UNL     1     -11.368   6.607  69.699  1.00  0.00    -0.341 NA 
HETATM   29  C   UNL     1     -11.897   7.008  70.877  1.00  0.00    -0.356 A  
HETATM   30  C   UNL     1     -11.575   6.446  72.102  1.00  0.00    -0.357 A  
HETATM   31  C   UNL     1     -10.649   5.407  72.126  1.00  0.00    -0.284 A  
HETATM   32  C   UNL     1     -10.098   4.960  70.928  1.00  0.00    -0.292 A  
ENDBRANCH  25  27
ENDBRANCH  22  25
ENDBRANCH  19  22
ENDBRANCH  14  16
ENDBRANCH  12  14
ENDBRANCH   6  12
TORSDOF 6
ENDMDL
MODEL      100
REMARK 921   NORMALIZED FREE ENERGY PREDICTED BY IDOCK:   -6.11 KCAL/MOL
REMARK 922        TOTAL FREE ENERGY PREDICTED BY IDOCK:   -8.78 KCAL/MOL
REMARK 923 INTER-LIGAND FREE ENERGY PREDICTED BY IDOCK:   -8.38 KCAL/MOL
REMARK 924 INTRA-LIGAND FREE ENERGY PREDICTED BY IDOCK:   -0.39 KCAL/MOL
REMARK 927      BINDING AFFINITY PREDICTED BY RF-SCORE:    0.00 PKD
ROOT
HETATM    1  O   UNL     1      -5.808  21.139  67.582  1.00  0.00    -0.281 OA 
HETATM    2  C   UNL     1      -6.266  20.013  68.170  1.00  0.00    -0.252 C  
HETATM    3  C   UNL     1      -7.644  19.625  67.768  1.00  0.00    -0.313 A  
HETATM    4  O   UNL     1      -5.627  19.395  69.006  1.00  0.00    -0.198 OA 
HETATM    5  C   UNL     1      -8.397  18.861  68.678  1.00  0.00    -0.384 A  
HETATM    6  C   UNL     1      -9.691  18.422  68.356  1.00  0.00    -0.356 A  
HETATM    7  C   UNL     1     -10.218  18.779  67.106  1.00  0.00    -0.433 A  
HETATM    8  O   UNL     1      -7.479  20.710  65.635  1.00  0.00    -0.515 OA 
HETATM    9  C   UNL     1      -8.197  19.956  66.526  1.00  0.00    -0.331 A  
HETATM   10  H   UNL     1      -7.854  20.934  64.791  1.00  0.00     0.000 HD 
HETATM   11  C   UNL     1      -9.481  19.536  66.190  1.00  0.00    -0.401 A  
ENDROOT
BRANCH   6  12
HETATM   12  N   UNL     1     -10.514  17.646  69.203  1.00  0.00    -0.405 NA 
HETATM   13  H   UNL     1     -10.414  17.625  70.218  1.00  0.00     0.000 HD 
BRANCH  12  14
HETATM   14  N   UNL     1     -11.375  16.987  68.583  1.00  0.00    -0.105 NA 
HETATM   15  H   UNL     1     -12.223  17.394  68.187  1.00  0.00     0.000 HD 
BRANCH  14  16
HETATM   16  C   UNL     1     -11.044  15.617  68.491  1.00  0.00    -0.322 A  
HETATM   17  C   UNL     1      -9.265  13.951  68.377  1.00  0.00    -0.194 A  
HETATM   18  C   UNL     1      -9.685  15.277  68.519  1.00  0.00    -0.211 A  
HETATM   19  C   UNL     1     -10.214  12.933  68.249  1.00  0.00    -0.245 A  
HETATM   20  C   UNL     1     -11.985  14.579  68.369  1.00  0.00    -0.309 A  
HETATM   21  C   UNL     1     -11.577  13.244  68.241  1.00  0.00    -0.369 A  
BRANCH  19  22
HETATM   22  S   UNL     1      -9.664  11.271  67.898  1.00  0.00    -0.182 S  
HETATM   23  O   UNL     1      -9.793  10.507  69.118  1.00  0.00    -0.205 OA 
HETATM   24  O   UNL     1      -8.381  11.393  67.233  1.00  0.00    -0.138 OA 
BRANCH  22  25
HETATM   25  N   UNL     1     -10.741  10.719  66.723  1.00  0.00    -0.251 N  
HETATM   26  H   UNL     1     -11.660  10.349  66.963  1.00  0.00     0.000 HD 
BRANCH  25  27
HETATM   27  C   UNL     1     -10.292  10.800  65.390  1.00  0.00    -0.247 A  
HETATM   28  N   UNL     1     -10.692  11.914  64.755  1.00  0.00    -0.294 NA 
HETATM   29  C   UNL     1     -10.223  12.083  63.498  1.00  0.00    -0.450 A  
HETATM   30  C   UNL     1      -9.401  11.175  62.850  1.00  0.00    -0.385 A  
HETATM   31  C   UNL     1      -9.035  10.017  63.530  1.00  0.00    -0.279 A  
HETATM   32  C   UNL     1      -9.489   9.821  64.832  1.00  0.00    -0.331 A  
ENDBRANCH  25  27
ENDBRANCH  22  25
ENDBRANCH  19  22
ENDBRANCH  14  16
ENDBRANCH  12  14
ENDBRANCH   6  12
TORSDOF 6
ENDMDL
MODEL      101
REMARK 921   NORMALIZED FREE ENERGY PREDICTED BY IDOCK:   -6.11 KCAL/MOL
REMARK 922        TOTAL FREE ENERGY PREDICTED BY IDOCK:   -8.78 KCAL/MOL
REMARK 923 INTER-LIGAND FREE ENERGY PREDICTED BY IDOCK:   -8.24 KCAL/MOL
REMARK 924 INTRA-LIGAND FREE ENERGY PREDICTED BY IDOCK:   -0.53 KCAL/MOL
REMARK 927      BINDING AFFINITY PREDICTED BY RF-SCORE:    0.00 PKD
ROOT
HETATM    1  O   UNL     1      -9.554   5.643  68.976  1.00  0.00    -0.125 OA 
HETATM    2  C   UNL     1     -10.422   6.575  69.428  1.00  0.00    -0.221 C  
HETATM    3  C   UNL     1     -10.486   7.810  68.603  1.00  0.00    -0.199 A  
HETATM    4  O   UNL     1     -11.060   6.440  70.460  1.00  0.00    -0.278 OA 
HETATM    5  C   UNL     1     -10.884   8.999  69.241  1.00  0.00    -0.131 A  
HETATM    6  C   UNL     1     -11.005  10.199  68.523  1.00  0.00    -0.232 A  
HETATM    7  C   UNL     1     -10.705  10.182  67.153  1.00  0.00    -0.286 A  
HETATM    8  O   UNL     1      -9.801   6.678  66.602  1.00  0.00    -0.178 OA 
HETATM    9  C   UNL     1     -10.202   7.827  67.233  1.00  0.00    -0.273 A  
HETATM   10  H   UNL     1      -9.609   6.689  65.672  1.00  0.00     0.000 HD 
HETATM   11  C   UNL     1     -10.311   9.007  66.504  1.00  0.00    -0.263 A  
ENDROOT
BRANCH   6  12
HETATM   12  N   UNL     1     -11.406  11.435  69.078  1.00  0.00    -0.252 NA 
HETATM   13  H   UNL     1     -12.380  11.680  69.260  1.00  0.00     0.000 HD 
BRANCH  12  14
HETATM   14  N   UNL     1     -10.448  12.197  69.324  1.00  0.00    -0.430 NA 
HETATM   15  H   UNL     1      -9.759  12.023  70.056  1.00  0.00     0.000 HD 
BRANCH  14  16
HETATM   16  C   UNL     1     -10.426  13.327  68.476  1.00  0.00    -0.250 A  
HETATM   17  C   UNL     1      -9.056  14.910  67.222  1.00  0.00    -0.211 A  
HETATM   18  C   UNL     1      -9.176  13.768  68.020  1.00  0.00    -0.195 A  
HETATM   19  C   UNL     1     -10.202  15.607  66.833  1.00  0.00    -0.281 A  
HETATM   20  C   UNL     1     -11.569  14.036  68.068  1.00  0.00    -0.372 A  
HETATM   21  C   UNL     1     -11.462  15.174  67.256  1.00  0.00    -0.284 A  
BRANCH  19  22
HETATM   22  S   UNL     1     -10.024  17.155  65.962  1.00  0.00    -0.207 S  
HETATM   23  O   UNL     1     -11.052  17.201  64.947  1.00  0.00    -0.737 OA 
HETATM   24  O   UNL     1      -8.624  17.267  65.601  1.00  0.00    -0.476 OA 
BRANCH  22  25
HETATM   25  N   UNL     1     -10.291  18.328  67.144  1.00  0.00    -0.368 N  
HETATM   26  H   UNL     1     -11.209  18.476  67.562  1.00  0.00     0.000 HD 
BRANCH  25  27
HETATM   27  C   UNL     1      -9.166  19.090  67.520  1.00  0.00    -0.287 A  
HETATM   28  N   UNL     1      -8.608  18.692  68.674  1.00  0.00    -0.327 NA 
HETATM   29  C   UNL     1      -7.477  19.336  69.042  1.00  0.00    -0.336 A  
HETATM   30  C   UNL     1      -6.907  20.372  68.318  1.00  0.00    -0.288 A  
HETATM   31  C   UNL     1      -7.534  20.777  67.144  1.00  0.00    -0.366 A  
HETATM   32  C   UNL     1      -8.691  20.123  66.730  1.00  0.00    -0.390 A  
ENDBRANCH  25  27
ENDBRANCH  22  25
ENDBRANCH  19  22
ENDBRANCH  14  16
ENDBRANCH  12  14
ENDBRANCH   6  12
TORSDOF 6
ENDMDL
MODEL      102
REMARK 921   NORMALIZED FREE ENERGY PREDICTED BY IDOCK:   -6.11 KCAL/MOL
REMARK 922        TOTAL FREE ENERGY PREDICTED BY IDOCK:   -8.77 KCAL/MOL
REMARK 923 INTER-LIGAND FREE ENERGY PREDICTED BY IDOCK:   -8.19 KCAL/MOL
REMARK 924 INTRA-LIGAND FREE ENERGY PREDICTED BY IDOCK:   -0.58 KCAL/MOL
REMARK 927      BINDING AFFINITY PREDICTED BY RF-SCORE:    0.00 PKD
ROOT
HETATM    1  O   UNL     1     -10.912   5.293  73.405  1.00  0.00    -0.281 OA 
HETATM    2  C   UNL     1     -11.382   6.096  72.425  1.00  0.00    -0.296 C  
HETATM    3  C   UNL     1     -10.424   7.139  71.970  1.00  0.00    -0.232 A  
HETATM    4  O   UNL     1     -12.518   6.012  71.988  1.00  0.00    -0.164 OA 
HETATM    5  C   UNL     1     -10.959   8.315  71.413  1.00  0.00    -0.301 A  
HETATM    6  C   UNL     1     -10.120   9.330  70.926  1.00  0.00    -0.302 A  
HETATM    7  C   UNL     1      -8.733   9.144  71.022  1.00  0.00    -0.251 A  
HETATM    8  O   UNL     1      -8.503   5.847  72.595  1.00  0.00    -0.119 OA 
HETATM    9  C   UNL     1      -9.036   6.982  72.044  1.00  0.00    -0.131 A  
HETATM   10  H   UNL     1      -7.560   5.740  72.645  1.00  0.00     0.000 HD 
HETATM   11  C   UNL     1      -8.188   7.979  71.572  1.00  0.00    -0.135 A  
ENDROOT
BRANCH   6  12
HETATM   12  N   UNL     1     -10.569  10.537  70.344  1.00  0.00    -0.414 NA 
HETATM   13  H   UNL     1     -10.660  11.411  70.862  1.00  0.00     0.000 HD 
BRANCH  12  14
HETATM   14  N   UNL     1     -10.842  10.425  69.130  1.00  0.00    -0.220 NA 
HETATM   15  H   UNL     1     -11.092   9.542  68.684  1.00  0.00     0.000 HD 
BRANCH  14  16
HETATM   16  C   UNL     1     -10.767  11.658  68.444  1.00  0.00    -0.217 A  
HETATM   17  C   UNL     1      -9.335  13.288  67.328  1.00  0.00    -0.226 A  
HETATM   18  C   UNL     1      -9.510  12.057  67.969  1.00  0.00    -0.199 A  
HETATM   19  C   UNL     1     -10.435  14.121  67.114  1.00  0.00    -0.270 A  
HETATM   20  C   UNL     1     -11.864  12.506  68.213  1.00  0.00    -0.361 A  
HETATM   21  C   UNL     1     -11.703  13.735  67.558  1.00  0.00    -0.410 A  
BRANCH  19  22
HETATM   22  S   UNL     1     -10.170  15.758  66.451  1.00  0.00    -0.309 S  
HETATM   23  O   UNL     1     -11.031  15.902  65.299  1.00  0.00    -0.361 OA 
HETATM   24  O   UNL     1      -8.735  15.926  66.328  1.00  0.00    -0.306 OA 
BRANCH  22  25
HETATM   25  N   UNL     1     -10.650  16.791  67.695  1.00  0.00    -0.331 N  
HETATM   26  H   UNL     1     -11.332  16.510  68.399  1.00  0.00     0.000 HD 
BRANCH  25  27
HETATM   27  C   UNL     1     -10.049  18.065  67.703  1.00  0.00    -0.347 A  
HETATM   28  N   UNL     1      -9.020  18.170  68.560  1.00  0.00    -0.302 NA 
HETATM   29  C   UNL     1      -8.355  19.347  68.550  1.00  0.00    -0.363 A  
HETATM   30  C   UNL     1      -8.695  20.421  67.743  1.00  0.00    -0.240 A  
HETATM   31  C   UNL     1      -9.788  20.285  66.893  1.00  0.00    -0.597 A  
HETATM   32  C   UNL     1     -10.484  19.079  66.867  1.00  0.00    -0.505 A  
ENDBRANCH  25  27
ENDBRANCH  22  25
ENDBRANCH  19  22
ENDBRANCH  14  16
ENDBRANCH  12  14
ENDBRANCH   6  12
TORSDOF 6
ENDMDL
MODEL      103
REMARK 921   NORMALIZED FREE ENERGY PREDICTED BY IDOCK:   -6.10 KCAL/MOL
REMARK 922        TOTAL FREE ENERGY PREDICTED BY IDOCK:   -8.76 KCAL/MOL
REMARK 923 INTER-LIGAND FREE ENERGY PREDICTED BY IDOCK:   -8.05 KCAL/MOL
REMARK 924 INTRA-LIGAND FREE ENERGY PREDICTED BY IDOCK:   -0.71 KCAL/MOL
REMARK 927      BINDING AFFINITY PREDICTED BY RF-SCORE:    0.00 PKD
ROOT
HETATM    1  O   UNL     1      -9.436   3.090  67.806  1.00  0.00    -0.208 OA 
HETATM    2  C   UNL     1      -9.570   4.434  67.821  1.00  0.00    -0.160 C  
HETATM    3  C   UNL     1     -10.065   4.990  69.108  1.00  0.00    -0.257 A  
HETATM    4  O   UNL     1      -9.359   5.132  66.842  1.00  0.00    -0.121 OA 
HETATM    5  C   UNL     1     -10.752   6.217  69.067  1.00  0.00    -0.362 A  
HETATM    6  C   UNL     1     -11.216   6.825  70.244  1.00  0.00    -0.334 A  
HETATM    7  C   UNL     1     -10.987   6.168  71.462  1.00  0.00    -0.328 A  
HETATM    8  O   UNL     1      -9.190   3.164  70.394  1.00  0.00    -0.116 OA 
HETATM    9  C   UNL     1      -9.846   4.366  70.341  1.00  0.00    -0.216 A  
HETATM   10  H   UNL     1      -9.041   2.740  71.231  1.00  0.00     0.000 HD 
HETATM   11  C   UNL     1     -10.304   4.949  71.519  1.00  0.00    -0.228 A  
ENDROOT
BRANCH   6  12
HETATM   12  N   UNL     1     -11.905   8.058  70.297  1.00  0.00    -0.462 NA 
HETATM   13  H   UNL     1     -12.916   8.141  70.194  1.00  0.00     0.000 HD 
BRANCH  12  14
HETATM   14  N   UNL     1     -11.150   9.035  70.484  1.00  0.00    -0.248 NA 
HETATM   15  H   UNL     1     -10.538   9.132  71.294  1.00  0.00     0.000 HD 
BRANCH  14  16
HETATM   16  C   UNL     1     -11.239   9.992  69.448  1.00  0.00    -0.188 A  
HETATM   17  C   UNL     1     -11.938  12.238  68.799  1.00  0.00    -0.281 A  
HETATM   18  C   UNL     1     -11.763  11.250  69.774  1.00  0.00    -0.422 A  
HETATM   19  C   UNL     1     -11.545  11.989  67.482  1.00  0.00    -0.330 A  
HETATM   20  C   UNL     1     -10.842   9.762  68.119  1.00  0.00    -0.264 A  
HETATM   21  C   UNL     1     -10.998  10.750  67.136  1.00  0.00    -0.324 A  
BRANCH  19  22
HETATM   22  S   UNL     1     -11.931  13.190  66.218  1.00  0.00    -0.406 S  
HETATM   23  O   UNL     1     -12.397  14.384  66.886  1.00  0.00    -0.371 OA 
HETATM   24  O   UNL     1     -12.767  12.512  65.246  1.00  0.00    -0.654 OA 
BRANCH  22  25
HETATM   25  N   UNL     1     -10.457  13.466  65.446  1.00  0.00    -0.294 N  
HETATM   26  H   UNL     1     -10.165  12.929  64.630  1.00  0.00     0.000 HD 
BRANCH  25  27
HETATM   27  C   UNL     1      -9.655  14.485  65.996  1.00  0.00    -0.275 A  
HETATM   28  N   UNL     1      -8.781  14.044  66.915  1.00  0.00    -0.202 NA 
HETATM   29  C   UNL     1      -7.930  14.967  67.418  1.00  0.00    -0.199 A  
HETATM   30  C   UNL     1      -7.941  16.306  67.059  1.00  0.00    -0.248 A  
HETATM   31  C   UNL     1      -8.883  16.730  66.128  1.00  0.00    -0.298 A  
HETATM   32  C   UNL     1      -9.763  15.801  65.579  1.00  0.00    -0.255 A  
ENDBRANCH  25  27
ENDBRANCH  22  25
ENDBRANCH  19  22
ENDBRANCH  14  16
ENDBRANCH  12  14
ENDBRANCH   6  12
TORSDOF 6
ENDMDL
MODEL      104
REMARK 921   NORMALIZED FREE ENERGY PREDICTED BY IDOCK:   -6.10 KCAL/MOL
REMARK 922        TOTAL FREE ENERGY PREDICTED BY IDOCK:   -8.76 KCAL/MOL
REMARK 923 INTER-LIGAND FREE ENERGY PREDICTED BY IDOCK:   -8.10 KCAL/MOL
REMARK 924 INTRA-LIGAND FREE ENERGY PREDICTED BY IDOCK:   -0.66 KCAL/MOL
REMARK 927      BINDING AFFINITY PREDICTED BY RF-SCORE:    0.00 PKD
ROOT
HETATM    1  O   UNL     1     -10.260   7.556  71.736  1.00  0.00    -0.186 OA 
HETATM    2  C   UNL     1     -10.132   8.504  70.783  1.00  0.00    -0.198 C  
HETATM    3  C   UNL     1     -10.236   7.996  69.389  1.00  0.00    -0.210 A  
HETATM    4  O   UNL     1      -9.893   9.673  71.040  1.00  0.00    -0.226 OA 
HETATM    5  C   UNL     1      -9.586   8.729  68.379  1.00  0.00    -0.157 A  
HETATM    6  C   UNL     1      -9.669   8.335  67.034  1.00  0.00    -0.211 A  
HETATM    7  C   UNL     1     -10.408   7.183  66.727  1.00  0.00    -0.297 A  
HETATM    8  O   UNL     1     -11.598   6.126  70.022  1.00  0.00    -0.392 OA 
HETATM    9  C   UNL     1     -10.971   6.856  69.047  1.00  0.00    -0.181 A  
HETATM   10  H   UNL     1     -12.098   5.352  69.790  1.00  0.00     0.000 HD 
HETATM   11  C   UNL     1     -11.061   6.446  67.720  1.00  0.00    -0.376 A  
ENDROOT
BRANCH   6  12
HETATM   12  N   UNL     1      -9.059   9.014  65.956  1.00  0.00    -0.192 NA 
HETATM   13  H   UNL     1      -8.048   9.108  65.850  1.00  0.00     0.000 HD 
BRANCH  12  14
HETATM   14  N   UNL     1      -9.881   9.489  65.144  1.00  0.00    -0.437 NA 
HETATM   15  H   UNL     1     -10.368   8.933  64.441  1.00  0.00     0.000 HD 
BRANCH  14  16
HETATM   16  C   UNL     1     -10.062  10.880  65.309  1.00  0.00    -0.280 A  
HETATM   17  C   UNL     1     -11.155  12.906  64.499  1.00  0.00    -0.373 A  
HETATM   18  C   UNL     1     -10.957  11.522  64.443  1.00  0.00    -0.390 A  
HETATM   19  C   UNL     1     -10.485  13.663  65.463  1.00  0.00    -0.306 A  
HETATM   20  C   UNL     1      -9.402  11.657  66.277  1.00  0.00    -0.228 A  
HETATM   21  C   UNL     1      -9.604  13.042  66.353  1.00  0.00    -0.258 A  
BRANCH  19  22
HETATM   22  S   UNL     1     -10.614  15.443  65.413  1.00  0.00    -0.436 S  
HETATM   23  O   UNL     1     -11.737  15.771  64.565  1.00  0.00    -0.346 OA 
HETATM   24  O   UNL     1      -9.287  15.945  65.110  1.00  0.00    -0.125 OA 
BRANCH  22  25
HETATM   25  N   UNL     1     -10.917  15.881  67.013  1.00  0.00    -0.248 N  
HETATM   26  H   UNL     1     -11.580  15.373  67.597  1.00  0.00     0.000 HD 
BRANCH  25  27
HETATM   27  C   UNL     1     -10.196  16.993  67.494  1.00  0.00    -0.323 A  
HETATM   28  N   UNL     1      -9.076  16.662  68.157  1.00  0.00    -0.209 NA 
HETATM   29  C   UNL     1      -8.303  17.692  68.571  1.00  0.00    -0.291 A  
HETATM   30  C   UNL     1      -8.622  19.026  68.372  1.00  0.00    -0.383 A  
HETATM   31  C   UNL     1      -9.808  19.328  67.710  1.00  0.00    -0.431 A  
HETATM   32  C   UNL     1     -10.618  18.290  67.257  1.00  0.00    -0.406 A  
ENDBRANCH  25  27
ENDBRANCH  22  25
ENDBRANCH  19  22
ENDBRANCH  14  16
ENDBRANCH  12  14
ENDBRANCH   6  12
TORSDOF 6
ENDMDL
MODEL      105
REMARK 921   NORMALIZED FREE ENERGY PREDICTED BY IDOCK:   -6.09 KCAL/MOL
REMARK 922        TOTAL FREE ENERGY PREDICTED BY IDOCK:   -8.76 KCAL/MOL
REMARK 923 INTER-LIGAND FREE ENERGY PREDICTED BY IDOCK:   -7.84 KCAL/MOL
REMARK 924 INTRA-LIGAND FREE ENERGY PREDICTED BY IDOCK:   -0.92 KCAL/MOL
REMARK 927      BINDING AFFINITY PREDICTED BY RF-SCORE:    0.00 PKD
ROOT
HETATM    1  O   UNL     1      -6.074   9.342  68.779  1.00  0.00    -0.043 OA 
HETATM    2  C   UNL     1      -7.274   9.762  69.235  1.00  0.00    -0.072 C  
HETATM    3  C   UNL     1      -8.380   9.657  68.247  1.00  0.00    -0.117 A  
HETATM    4  O   UNL     1      -7.429  10.242  70.347  1.00  0.00    -0.250 OA 
HETATM    5  C   UNL     1      -9.468  10.538  68.392  1.00  0.00    -0.158 A  
HETATM    6  C   UNL     1     -10.568  10.476  67.522  1.00  0.00    -0.259 A  
HETATM    7  C   UNL     1     -10.547   9.519  66.497  1.00  0.00    -0.133 A  
HETATM    8  O   UNL     1      -7.337   7.854  67.059  1.00  0.00    -0.087 OA 
HETATM    9  C   UNL     1      -8.395   8.709  67.219  1.00  0.00    -0.108 A  
HETATM   10  H   UNL     1      -7.347   7.210  66.361  1.00  0.00     0.000 HD 
HETATM   11  C   UNL     1      -9.474   8.636  66.342  1.00  0.00    -0.295 A  
ENDROOT
BRANCH   6  12
HETATM   12  N   UNL     1     -11.704  11.312  67.599  1.00  0.00    -0.605 NA 
HETATM   13  H   UNL     1     -12.303  11.374  68.423  1.00  0.00     0.000 HD 
BRANCH  12  14
HETATM   14  N   UNL     1     -11.902  11.969  66.555  1.00  0.00    -0.605 NA 
HETATM   15  H   UNL     1     -12.349  11.587  65.721  1.00  0.00     0.000 HD 
BRANCH  14  16
HETATM   16  C   UNL     1     -11.439  13.300  66.658  1.00  0.00    -0.347 A  
HETATM   17  C   UNL     1     -10.066  15.064  65.679  1.00  0.00    -0.390 A  
HETATM   18  C   UNL     1     -10.615  13.778  65.631  1.00  0.00    -0.302 A  
HETATM   19  C   UNL     1     -10.376  15.909  66.748  1.00  0.00    -0.298 A  
HETATM   20  C   UNL     1     -11.745  14.167  67.721  1.00  0.00    -0.408 A  
HETATM   21  C   UNL     1     -11.214  15.463  67.774  1.00  0.00    -0.321 A  
BRANCH  19  22
HETATM   22  S   UNL     1      -9.536  17.479  66.886  1.00  0.00    -0.290 S  
HETATM   23  O   UNL     1     -10.528  18.516  66.715  1.00  0.00    -0.379 OA 
HETATM   24  O   UNL     1      -8.382  17.408  66.009  1.00  0.00    -0.498 OA 
BRANCH  22  25
HETATM   25  N   UNL     1      -8.922  17.484  68.456  1.00  0.00    -0.277 N  
HETATM   26  H   UNL     1      -9.365  16.961  69.211  1.00  0.00     0.000 HD 
BRANCH  25  27
HETATM   27  C   UNL     1      -7.759  18.253  68.660  1.00  0.00    -0.302 A  
HETATM   28  N   UNL     1      -6.660  17.517  68.890  1.00  0.00    -0.216 NA 
HETATM   29  C   UNL     1      -5.500  18.201  69.013  1.00  0.00    -0.194 A  
HETATM   30  C   UNL     1      -5.406  19.582  68.942  1.00  0.00    -0.209 A  
HETATM   31  C   UNL     1      -6.572  20.312  68.736  1.00  0.00    -0.312 A  
HETATM   32  C   UNL     1      -7.781  19.636  68.589  1.00  0.00    -0.363 A  
ENDBRANCH  25  27
ENDBRANCH  22  25
ENDBRANCH  19  22
ENDBRANCH  14  16
ENDBRANCH  12  14
ENDBRANCH   6  12
TORSDOF 6
ENDMDL
MODEL      106
REMARK 921   NORMALIZED FREE ENERGY PREDICTED BY IDOCK:   -6.09 KCAL/MOL
REMARK 922        TOTAL FREE ENERGY PREDICTED BY IDOCK:   -8.76 KCAL/MOL
REMARK 923 INTER-LIGAND FREE ENERGY PREDICTED BY IDOCK:   -8.12 KCAL/MOL
REMARK 924 INTRA-LIGAND FREE ENERGY PREDICTED BY IDOCK:   -0.64 KCAL/MOL
REMARK 927      BINDING AFFINITY PREDICTED BY RF-SCORE:    0.00 PKD
ROOT
HETATM    1  O   UNL     1     -11.944   7.743  72.351  1.00  0.00    -0.318 OA 
HETATM    2  C   UNL     1     -12.557   8.917  72.085  1.00  0.00    -0.399 C  
HETATM    3  C   UNL     1     -12.001   9.653  70.919  1.00  0.00    -0.391 A  
HETATM    4  O   UNL     1     -13.456   9.366  72.778  1.00  0.00    -0.338 OA 
HETATM    5  C   UNL     1     -12.154  11.052  70.899  1.00  0.00    -0.444 A  
HETATM    6  C   UNL     1     -11.691  11.813  69.815  1.00  0.00    -0.335 A  
HETATM    7  C   UNL     1     -11.058  11.142  68.758  1.00  0.00    -0.291 A  
HETATM    8  O   UNL     1     -11.206   7.655  69.858  1.00  0.00    -0.408 OA 
HETATM    9  C   UNL     1     -11.373   9.015  69.845  1.00  0.00    -0.001 A  
HETATM   10  H   UNL     1     -10.779   7.221  69.128  1.00  0.00     0.000 HD 
HETATM   11  C   UNL     1     -10.900   9.753  68.763  1.00  0.00    -0.219 A  
ENDROOT
BRANCH   6  12
HETATM   12  N   UNL     1     -11.810  13.217  69.706  1.00  0.00    -0.349 NA 
HETATM   13  H   UNL     1     -11.720  13.852  70.499  1.00  0.00     0.000 HD 
BRANCH  12  14
HETATM   14  N   UNL     1     -12.035  13.602  68.539  1.00  0.00    -0.369 NA 
HETATM   15  H   UNL     1     -12.592  13.075  67.866  1.00  0.00     0.000 HD 
BRANCH  14  16
HETATM   16  C   UNL     1     -11.434  14.849  68.257  1.00  0.00    -0.324 A  
HETATM   17  C   UNL     1     -10.220  16.207  66.633  1.00  0.00    -0.291 A  
HETATM   18  C   UNL     1     -10.883  15.026  66.980  1.00  0.00    -0.311 A  
HETATM   19  C   UNL     1     -10.138  17.253  67.556  1.00  0.00    -0.315 A  
HETATM   20  C   UNL     1     -11.349  15.915  69.169  1.00  0.00    -0.366 A  
HETATM   21  C   UNL     1     -10.700  17.110  68.828  1.00  0.00    -0.289 A  
BRANCH  19  22
HETATM   22  S   UNL     1      -9.144  18.683  67.163  1.00  0.00    -0.294 S  
HETATM   23  O   UNL     1      -9.179  19.561  68.311  1.00  0.00    -0.331 OA 
HETATM   24  O   UNL     1      -9.587  19.149  65.862  1.00  0.00    -0.445 OA 
BRANCH  22  25
HETATM   25  N   UNL     1      -7.596  18.059  66.926  1.00  0.00    -0.206 N  
HETATM   26  H   UNL     1      -7.114  18.133  66.031  1.00  0.00     0.000 HD 
BRANCH  25  27
HETATM   27  C   UNL     1      -7.009  17.429  68.042  1.00  0.00    -0.186 A  
HETATM   28  N   UNL     1      -7.100  16.089  68.013  1.00  0.00    -0.126 NA 
HETATM   29  C   UNL     1      -6.482  15.429  69.018  1.00  0.00    -0.113 A  
HETATM   30  C   UNL     1      -5.808  16.055  70.055  1.00  0.00    -0.173 A  
HETATM   31  C   UNL     1      -5.764  17.445  70.068  1.00  0.00    -0.243 A  
HETATM   32  C   UNL     1      -6.377  18.154  69.037  1.00  0.00    -0.242 A  
ENDBRANCH  25  27
ENDBRANCH  22  25
ENDBRANCH  19  22
ENDBRANCH  14  16
ENDBRANCH  12  14
ENDBRANCH   6  12
TORSDOF 6
ENDMDL
MODEL      107
REMARK 921   NORMALIZED FREE ENERGY PREDICTED BY IDOCK:   -6.08 KCAL/MOL
REMARK 922        TOTAL FREE ENERGY PREDICTED BY IDOCK:   -8.74 KCAL/MOL
REMARK 923 INTER-LIGAND FREE ENERGY PREDICTED BY IDOCK:   -8.14 KCAL/MOL
REMARK 924 INTRA-LIGAND FREE ENERGY PREDICTED BY IDOCK:   -0.61 KCAL/MOL
REMARK 927      BINDING AFFINITY PREDICTED BY RF-SCORE:    0.00 PKD
ROOT
HETATM    1  O   UNL     1      -7.577   6.542  71.657  1.00  0.00    -0.091 OA 
HETATM    2  C   UNL     1      -8.179   7.690  72.036  1.00  0.00    -0.105 C  
HETATM    3  C   UNL     1      -9.638   7.743  71.753  1.00  0.00    -0.204 A  
HETATM    4  O   UNL     1      -7.569   8.630  72.520  1.00  0.00    -0.311 OA 
HETATM    5  C   UNL     1     -10.222   9.012  71.579  1.00  0.00    -0.414 A  
HETATM    6  C   UNL     1     -11.599   9.148  71.346  1.00  0.00    -0.341 A  
HETATM    7  C   UNL     1     -12.376   7.982  71.279  1.00  0.00    -0.290 A  
HETATM    8  O   UNL     1      -9.886   5.359  71.844  1.00  0.00    -0.163 OA 
HETATM    9  C   UNL     1     -10.444   6.602  71.688  1.00  0.00    -0.207 A  
HETATM   10  H   UNL     1     -10.433   4.584  71.800  1.00  0.00     0.000 HD 
HETATM   11  C   UNL     1     -11.811   6.714  71.453  1.00  0.00    -0.388 A  
ENDROOT
BRANCH   6  12
HETATM   12  N   UNL     1     -12.270  10.379  71.170  1.00  0.00    -0.368 NA 
HETATM   13  H   UNL     1     -12.619  10.944  71.943  1.00  0.00     0.000 HD 
BRANCH  12  14
HETATM   14  N   UNL     1     -12.392  10.704  69.970  1.00  0.00    -0.450 NA 
HETATM   15  H   UNL     1     -12.814  10.105  69.260  1.00  0.00     0.000 HD 
BRANCH  14  16
HETATM   16  C   UNL     1     -11.880  11.994  69.706  1.00  0.00    -0.331 A  
HETATM   17  C   UNL     1     -10.321  13.343  68.400  1.00  0.00    -0.253 A  
HETATM   18  C   UNL     1     -10.921  12.113  68.691  1.00  0.00    -0.284 A  
HETATM   19  C   UNL     1     -10.711  14.487  69.100  1.00  0.00    -0.252 A  
HETATM   20  C   UNL     1     -12.266  13.158  70.393  1.00  0.00    -0.389 A  
HETATM   21  C   UNL     1     -11.683  14.399  70.101  1.00  0.00    -0.361 A  
BRANCH  19  22
HETATM   22  S   UNL     1      -9.819  16.011  68.840  1.00  0.00    -0.245 S  
HETATM   23  O   UNL     1      -8.510  15.852  69.432  1.00  0.00    -0.255 OA 
HETATM   24  O   UNL     1     -10.698  17.083  69.267  1.00  0.00    -0.323 OA 
BRANCH  22  25
HETATM   25  N   UNL     1      -9.710  16.146  67.162  1.00  0.00    -0.230 N  
HETATM   26  H   UNL     1     -10.133  15.462  66.536  1.00  0.00     0.000 HD 
BRANCH  25  27
HETATM   27  C   UNL     1      -9.000  17.264  66.679  1.00  0.00    -0.256 A  
HETATM   28  N   UNL     1      -9.738  18.383  66.614  1.00  0.00    -0.321 NA 
HETATM   29  C   UNL     1      -9.086  19.505  66.234  1.00  0.00    -0.360 A  
HETATM   30  C   UNL     1      -7.743  19.541  65.894  1.00  0.00    -0.288 A  
HETATM   31  C   UNL     1      -7.020  18.354  65.942  1.00  0.00    -0.306 A  
HETATM   32  C   UNL     1      -7.659  17.184  66.346  1.00  0.00    -0.347 A  
ENDBRANCH  25  27
ENDBRANCH  22  25
ENDBRANCH  19  22
ENDBRANCH  14  16
ENDBRANCH  12  14
ENDBRANCH   6  12
TORSDOF 6
ENDMDL
MODEL      108
REMARK 921   NORMALIZED FREE ENERGY PREDICTED BY IDOCK:   -6.06 KCAL/MOL
REMARK 922        TOTAL FREE ENERGY PREDICTED BY IDOCK:   -8.71 KCAL/MOL
REMARK 923 INTER-LIGAND FREE ENERGY PREDICTED BY IDOCK:   -8.14 KCAL/MOL
REMARK 924 INTRA-LIGAND FREE ENERGY PREDICTED BY IDOCK:   -0.57 KCAL/MOL
REMARK 927      BINDING AFFINITY PREDICTED BY RF-SCORE:    0.00 PKD
ROOT
HETATM    1  O   UNL     1      -9.718   3.613  68.299  1.00  0.00    -0.133 OA 
HETATM    2  C   UNL     1      -9.386   4.901  68.061  1.00  0.00    -0.129 C  
HETATM    3  C   UNL     1     -10.005   5.880  68.993  1.00  0.00    -0.211 A  
HETATM    4  O   UNL     1      -8.682   5.240  67.124  1.00  0.00    -0.109 OA 
HETATM    5  C   UNL     1     -10.192   7.195  68.527  1.00  0.00    -0.189 A  
HETATM    6  C   UNL     1     -10.734   8.186  69.359  1.00  0.00    -0.156 A  
HETATM    7  C   UNL     1     -11.098   7.826  70.665  1.00  0.00    -0.264 A  
HETATM    8  O   UNL     1     -10.206   4.278  70.767  1.00  0.00    -0.142 OA 
HETATM    9  C   UNL     1     -10.371   5.558  70.304  1.00  0.00    -0.279 A  
HETATM   10  H   UNL     1     -10.454   4.059  71.657  1.00  0.00     0.000 HD 
HETATM   11  C   UNL     1     -10.916   6.525  71.143  1.00  0.00    -0.314 A  
ENDROOT
BRANCH   6  12
HETATM   12  N   UNL     1     -10.948   9.530  68.979  1.00  0.00    -0.398 NA 
HETATM   13  H   UNL     1     -11.150  10.277  69.644  1.00  0.00     0.000 HD 
BRANCH  12  14
HETATM   14  N   UNL     1     -10.865   9.712  67.746  1.00  0.00    -0.426 NA 
HETATM   15  H   UNL     1     -10.966   8.967  67.056  1.00  0.00     0.000 HD 
BRANCH  14  16
HETATM   16  C   UNL     1     -10.616  11.062  67.415  1.00  0.00    -0.237 A  
HETATM   17  C   UNL     1     -11.558  13.191  66.683  1.00  0.00    -0.403 A  
HETATM   18  C   UNL     1     -11.719  11.858  67.077  1.00  0.00    -0.304 A  
HETATM   19  C   UNL     1     -10.282  13.759  66.663  1.00  0.00    -0.276 A  
HETATM   20  C   UNL     1      -9.341  11.653  67.397  1.00  0.00    -0.168 A  
HETATM   21  C   UNL     1      -9.169  12.992  67.018  1.00  0.00    -0.232 A  
BRANCH  19  22
HETATM   22  S   UNL     1     -10.072  15.401  65.995  1.00  0.00    -0.353 S  
HETATM   23  O   UNL     1     -10.856  15.477  64.783  1.00  0.00    -0.430 OA 
HETATM   24  O   UNL     1      -8.645  15.657  65.970  1.00  0.00    -0.242 OA 
BRANCH  22  25
HETATM   25  N   UNL     1     -10.701  16.416  67.186  1.00  0.00    -0.279 N  
HETATM   26  H   UNL     1     -11.432  16.109  67.827  1.00  0.00     0.000 HD 
BRANCH  25  27
HETATM   27  C   UNL     1     -10.154  17.713  67.241  1.00  0.00    -0.331 A  
HETATM   28  N   UNL     1     -10.454  18.469  66.173  1.00  0.00    -0.439 NA 
HETATM   29  C   UNL     1     -10.022  19.750  66.209  1.00  0.00    -0.478 A  
HETATM   30  C   UNL     1      -9.285  20.288  67.254  1.00  0.00    -0.523 A  
HETATM   31  C   UNL     1      -8.967  19.464  68.328  1.00  0.00    -0.384 A  
HETATM   32  C   UNL     1      -9.411  18.144  68.327  1.00  0.00    -0.312 A  
ENDBRANCH  25  27
ENDBRANCH  22  25
ENDBRANCH  19  22
ENDBRANCH  14  16
ENDBRANCH  12  14
ENDBRANCH   6  12
TORSDOF 6
ENDMDL
MODEL      109
REMARK 921   NORMALIZED FREE ENERGY PREDICTED BY IDOCK:   -6.06 KCAL/MOL
REMARK 922        TOTAL FREE ENERGY PREDICTED BY IDOCK:   -8.71 KCAL/MOL
REMARK 923 INTER-LIGAND FREE ENERGY PREDICTED BY IDOCK:   -7.96 KCAL/MOL
REMARK 924 INTRA-LIGAND FREE ENERGY PREDICTED BY IDOCK:   -0.74 KCAL/MOL
REMARK 927      BINDING AFFINITY PREDICTED BY RF-SCORE:    0.00 PKD
ROOT
HETATM    1  O   UNL     1      -9.720   8.377  70.825  1.00  0.00    -0.168 OA 
HETATM    2  C   UNL     1     -10.739   8.980  70.174  1.00  0.00    -0.233 C  
HETATM    3  C   UNL     1     -10.418   9.406  68.786  1.00  0.00    -0.236 A  
HETATM    4  O   UNL     1     -11.817   9.210  70.699  1.00  0.00    -0.264 OA 
HETATM    5  C   UNL     1     -11.147  10.483  68.250  1.00  0.00    -0.340 A  
HETATM    6  C   UNL     1     -10.929  10.919  66.934  1.00  0.00    -0.223 A  
HETATM    7  C   UNL     1      -9.954  10.258  66.172  1.00  0.00    -0.300 A  
HETATM    8  O   UNL     1      -8.733   7.721  68.510  1.00  0.00    -0.128 OA 
HETATM    9  C   UNL     1      -9.459   8.764  67.996  1.00  0.00    -0.143 A  
HETATM   10  H   UNL     1      -8.082   7.285  67.973  1.00  0.00     0.000 HD 
HETATM   11  C   UNL     1      -9.223   9.185  66.690  1.00  0.00    -0.207 A  
ENDROOT
BRANCH   6  12
HETATM   12  N   UNL     1     -11.619  11.984  66.312  1.00  0.00    -0.486 NA 
HETATM   13  H   UNL     1     -11.603  12.152  65.306  1.00  0.00     0.000 HD 
BRANCH  12  14
HETATM   14  N   UNL     1     -12.252  12.697  67.119  1.00  0.00    -0.406 NA 
HETATM   15  H   UNL     1     -13.015  12.353  67.702  1.00  0.00     0.000 HD 
BRANCH  14  16
HETATM   16  C   UNL     1     -11.793  14.033  67.133  1.00  0.00    -0.411 A  
HETATM   17  C   UNL     1     -10.792  15.861  65.864  1.00  0.00    -0.237 A  
HETATM   18  C   UNL     1     -11.316  14.566  65.928  1.00  0.00    -0.341 A  
HETATM   19  C   UNL     1     -10.779  16.661  67.010  1.00  0.00    -0.174 A  
HETATM   20  C   UNL     1     -11.780  14.855  68.273  1.00  0.00    -0.342 A  
HETATM   21  C   UNL     1     -11.271  16.160  68.219  1.00  0.00    -0.343 A  
BRANCH  19  22
HETATM   22  S   UNL     1      -9.953  18.243  66.955  1.00  0.00    -0.362 S  
HETATM   23  O   UNL     1     -10.122  18.862  68.250  1.00  0.00    -0.354 OA 
HETATM   24  O   UNL     1     -10.414  18.908  65.752  1.00  0.00    -0.554 OA 
BRANCH  22  25
HETATM   25  N   UNL     1      -8.336  17.856  66.677  1.00  0.00    -0.252 N  
HETATM   26  H   UNL     1      -8.032  17.376  65.831  1.00  0.00     0.000 HD 
BRANCH  25  27
HETATM   27  C   UNL     1      -7.429  18.236  67.687  1.00  0.00    -0.216 A  
HETATM   28  N   UNL     1      -7.054  17.222  68.483  1.00  0.00    -0.209 NA 
HETATM   29  C   UNL     1      -6.123  17.513  69.420  1.00  0.00    -0.245 A  
HETATM   30  C   UNL     1      -5.580  18.775  69.604  1.00  0.00    -0.238 A  
HETATM   31  C   UNL     1      -6.019  19.807  68.781  1.00  0.00    -0.280 A  
HETATM   32  C   UNL     1      -6.965  19.536  67.795  1.00  0.00    -0.275 A  
ENDBRANCH  25  27
ENDBRANCH  22  25
ENDBRANCH  19  22
ENDBRANCH  14  16
ENDBRANCH  12  14
ENDBRANCH   6  12
TORSDOF 6
ENDMDL
MODEL      110
REMARK 921   NORMALIZED FREE ENERGY PREDICTED BY IDOCK:   -6.05 KCAL/MOL
REMARK 922        TOTAL FREE ENERGY PREDICTED BY IDOCK:   -8.70 KCAL/MOL
REMARK 923 INTER-LIGAND FREE ENERGY PREDICTED BY IDOCK:   -8.40 KCAL/MOL
REMARK 924 INTRA-LIGAND FREE ENERGY PREDICTED BY IDOCK:   -0.30 KCAL/MOL
REMARK 927      BINDING AFFINITY PREDICTED BY RF-SCORE:    0.00 PKD
ROOT
HETATM    1  O   UNL     1     -10.297   9.957  69.377  1.00  0.00    -0.194 OA 
HETATM    2  C   UNL     1     -11.234  10.524  68.586  1.00  0.00    -0.270 C  
HETATM    3  C   UNL     1     -10.842  10.647  67.156  1.00  0.00    -0.328 A  
HETATM    4  O   UNL     1     -12.292  10.954  69.016  1.00  0.00    -0.464 OA 
HETATM    5  C   UNL     1     -11.444  11.670  66.402  1.00  0.00    -0.238 A  
HETATM    6  C   UNL     1     -11.155  11.827  65.037  1.00  0.00    -0.284 A  
HETATM    7  C   UNL     1     -10.239  10.942  64.450  1.00  0.00    -0.423 A  
HETATM    8  O   UNL     1      -9.336   8.783  67.264  1.00  0.00    -0.142 OA 
HETATM    9  C   UNL     1      -9.939   9.776  66.537  1.00  0.00    -0.239 A  
HETATM   10  H   UNL     1      -8.723   8.191  66.843  1.00  0.00     0.000 HD 
HETATM   11  C   UNL     1      -9.635   9.918  65.186  1.00  0.00    -0.367 A  
ENDROOT
BRANCH   6  12
HETATM   12  N   UNL     1     -11.719  12.818  64.202  1.00  0.00    -0.369 NA 
HETATM   13  H   UNL     1     -12.700  12.827  63.924  1.00  0.00     0.000 HD 
BRANCH  12  14
HETATM   14  N   UNL     1     -10.893  13.682  63.840  1.00  0.00    -0.467 NA 
HETATM   15  H   UNL     1     -10.545  13.768  62.885  1.00  0.00     0.000 HD 
BRANCH  14  16
HETATM   16  C   UNL     1     -10.498  14.529  64.899  1.00  0.00    -0.409 A  
HETATM   17  C   UNL     1      -8.947  14.895  66.748  1.00  0.00    -0.295 A  
HETATM   18  C   UNL     1      -9.376  14.146  65.648  1.00  0.00     0.166 A  
HETATM   19  C   UNL     1      -9.618  16.073  67.088  1.00  0.00    -0.218 A  
HETATM   20  C   UNL     1     -11.155  15.720  65.252  1.00  0.00    -0.280 A  
HETATM   21  C   UNL     1     -10.726  16.488  66.344  1.00  0.00    -0.146 A  
BRANCH  19  22
HETATM   22  S   UNL     1      -9.169  16.925  68.592  1.00  0.00    -0.262 S  
HETATM   23  O   UNL     1      -8.501  18.149  68.212  1.00  0.00    -0.270 OA 
HETATM   24  O   UNL     1      -8.504  15.950  69.436  1.00  0.00    -0.255 OA 
BRANCH  22  25
HETATM   25  N   UNL     1     -10.646  17.250  69.340  1.00  0.00    -0.359 N  
HETATM   26  H   UNL     1     -11.060  18.181  69.337  1.00  0.00     0.000 HD 
BRANCH  25  27
HETATM   27  C   UNL     1     -11.271  16.155  69.969  1.00  0.00    -0.357 A  
HETATM   28  N   UNL     1     -11.423  16.311  71.294  1.00  0.00    -0.392 NA 
HETATM   29  C   UNL     1     -12.090  15.326  71.937  1.00  0.00    -0.381 A  
HETATM   30  C   UNL     1     -12.581  14.190  71.313  1.00  0.00    -0.438 A  
HETATM   31  C   UNL     1     -12.375  14.049  69.945  1.00  0.00    -0.367 A  
HETATM   32  C   UNL     1     -11.706  15.054  69.251  1.00  0.00    -0.349 A  
ENDBRANCH  25  27
ENDBRANCH  22  25
ENDBRANCH  19  22
ENDBRANCH  14  16
ENDBRANCH  12  14
ENDBRANCH   6  12
TORSDOF 6
ENDMDL
MODEL      111
REMARK 921   NORMALIZED FREE ENERGY PREDICTED BY IDOCK:   -6.03 KCAL/MOL
REMARK 922        TOTAL FREE ENERGY PREDICTED BY IDOCK:   -8.67 KCAL/MOL
REMARK 923 INTER-LIGAND FREE ENERGY PREDICTED BY IDOCK:   -7.90 KCAL/MOL
REMARK 924 INTRA-LIGAND FREE ENERGY PREDICTED BY IDOCK:   -0.78 KCAL/MOL
REMARK 927      BINDING AFFINITY PREDICTED BY RF-SCORE:    0.00 PKD
ROOT
HETATM    1  O   UNL     1      -9.846  17.922  65.604  1.00  0.00    -0.512 OA 
HETATM    2  C   UNL     1      -9.647  16.790  66.314  1.00  0.00    -0.289 C  
HETATM    3  C   UNL     1     -10.636  15.712  66.045  1.00  0.00    -0.336 A  
HETATM    4  O   UNL     1      -8.764  16.678  67.149  1.00  0.00    -0.186 OA 
HETATM    5  C   UNL     1     -10.870  14.774  67.067  1.00  0.00    -0.315 A  
HETATM    6  C   UNL     1     -11.760  13.705  66.876  1.00  0.00    -0.389 A  
HETATM    7  C   UNL     1     -12.421  13.607  65.643  1.00  0.00    -0.540 A  
HETATM    8  O   UNL     1     -11.097  16.495  63.825  1.00  0.00    -1.125 OA 
HETATM    9  C   UNL     1     -11.306  15.580  64.824  1.00  0.00    -0.357 A  
HETATM   10  H   UNL     1     -11.551  16.405  62.995  1.00  0.00     0.000 HD 
HETATM   11  C   UNL     1     -12.197  14.532  64.617  1.00  0.00    -0.474 A  
ENDROOT
BRANCH   6  12
HETATM   12  N   UNL     1     -12.048  12.713  67.840  1.00  0.00    -0.338 NA 
HETATM   13  H   UNL     1     -12.378  12.924  68.783  1.00  0.00     0.000 HD 
BRANCH  12  14
HETATM   14  N   UNL     1     -11.859  11.552  67.422  1.00  0.00    -0.620 NA 
HETATM   15  H   UNL     1     -12.205  11.208  66.526  1.00  0.00     0.000 HD 
BRANCH  14  16
HETATM   16  C   UNL     1     -11.112  10.767  68.329  1.00  0.00    -0.271 A  
HETATM   17  C   UNL     1      -8.949   9.769  68.863  1.00  0.00    -0.144 A  
HETATM   18  C   UNL     1      -9.751  10.577  68.050  1.00  0.00    -0.162 A  
HETATM   19  C   UNL     1      -9.497   9.172  70.001  1.00  0.00    -0.198 A  
HETATM   20  C   UNL     1     -11.643  10.164  69.482  1.00  0.00    -0.181 A  
HETATM   21  C   UNL     1     -10.846   9.364  70.313  1.00  0.00    -0.303 A  
BRANCH  19  22
HETATM   22  S   UNL     1      -8.511   8.009  70.931  1.00  0.00    -0.129 S  
HETATM   23  O   UNL     1      -9.405   6.992  71.435  1.00  0.00    -0.156 OA 
HETATM   24  O   UNL     1      -7.695   8.793  71.838  1.00  0.00    -0.265 OA 
BRANCH  22  25
HETATM   25  N   UNL     1      -7.446   7.366  69.793  1.00  0.00    -0.090 N  
HETATM   26  H   UNL     1      -6.617   7.871  69.481  1.00  0.00     0.000 HD 
BRANCH  25  27
HETATM   27  C   UNL     1      -7.771   6.087  69.299  1.00  0.00    -0.095 A  
HETATM   28  N   UNL     1      -8.621   6.111  68.259  1.00  0.00    -0.116 NA 
HETATM   29  C   UNL     1      -8.904   4.916  67.694  1.00  0.00    -0.103 A  
HETATM   30  C   UNL     1      -8.395   3.708  68.143  1.00  0.00    -0.095 A  
HETATM   31  C   UNL     1      -7.544   3.720  69.244  1.00  0.00    -0.053 A  
HETATM   32  C   UNL     1      -7.220   4.937  69.839  1.00  0.00    -0.055 A  
ENDBRANCH  25  27
ENDBRANCH  22  25
ENDBRANCH  19  22
ENDBRANCH  14  16
ENDBRANCH  12  14
ENDBRANCH   6  12
TORSDOF 6
ENDMDL
MODEL      112
REMARK 921   NORMALIZED FREE ENERGY PREDICTED BY IDOCK:   -6.03 KCAL/MOL
REMARK 922        TOTAL FREE ENERGY PREDICTED BY IDOCK:   -8.67 KCAL/MOL
REMARK 923 INTER-LIGAND FREE ENERGY PREDICTED BY IDOCK:   -7.75 KCAL/MOL
REMARK 924 INTRA-LIGAND FREE ENERGY PREDICTED BY IDOCK:   -0.92 KCAL/MOL
REMARK 927      BINDING AFFINITY PREDICTED BY RF-SCORE:    0.00 PKD
ROOT
HETATM    1  O   UNL     1      -6.501  20.583  68.325  1.00  0.00    -0.293 OA 
HETATM    2  C   UNL     1      -6.775  19.266  68.199  1.00  0.00    -0.247 C  
HETATM    3  C   UNL     1      -8.218  18.951  68.026  1.00  0.00    -0.323 A  
HETATM    4  O   UNL     1      -5.918  18.400  68.279  1.00  0.00    -0.182 OA 
HETATM    5  C   UNL     1      -8.661  17.681  68.440  1.00  0.00    -0.284 A  
HETATM    6  C   UNL     1     -10.001  17.294  68.275  1.00  0.00    -0.313 A  
HETATM    7  C   UNL     1     -10.888  18.214  67.698  1.00  0.00    -0.260 A  
HETATM    8  O   UNL     1      -8.712  21.085  67.050  1.00  0.00    -0.579 OA 
HETATM    9  C   UNL     1      -9.128  19.841  67.446  1.00  0.00    -0.330 A  
HETATM   10  H   UNL     1      -9.330  21.690  66.656  1.00  0.00     0.000 HD 
HETATM   11  C   UNL     1     -10.461  19.478  67.279  1.00  0.00    -0.590 A  
ENDROOT
BRANCH   6  12
HETATM   12  N   UNL     1     -10.530  16.039  68.652  1.00  0.00    -0.239 NA 
HETATM   13  H   UNL     1     -10.149  15.474  69.411  1.00  0.00     0.000 HD 
BRANCH  12  14
HETATM   14  N   UNL     1     -11.511  15.693  67.962  1.00  0.00    -0.328 NA 
HETATM   15  H   UNL     1     -12.425  16.145  68.009  1.00  0.00     0.000 HD 
BRANCH  14  16
HETATM   16  C   UNL     1     -11.216  14.605  67.110  1.00  0.00    -0.344 A  
HETATM   17  C   UNL     1     -11.147  12.180  66.846  1.00  0.00    -0.348 A  
HETATM   18  C   UNL     1     -11.462  13.315  67.601  1.00  0.00    -0.360 A  
HETATM   19  C   UNL     1     -10.618  12.326  65.562  1.00  0.00    -0.269 A  
HETATM   20  C   UNL     1     -10.690  14.733  65.813  1.00  0.00    -0.333 A  
HETATM   21  C   UNL     1     -10.385  13.603  65.041  1.00  0.00    -0.393 A  
BRANCH  19  22
HETATM   22  S   UNL     1     -10.062  10.876  64.681  1.00  0.00    -0.350 S  
HETATM   23  O   UNL     1     -10.642  10.927  63.358  1.00  0.00    -0.282 OA 
HETATM   24  O   UNL     1     -10.307   9.744  65.553  1.00  0.00    -0.178 OA 
BRANCH  22  25
HETATM   25  N   UNL     1      -8.386  11.051  64.612  1.00  0.00    -0.369 N  
HETATM   26  H   UNL     1      -7.925  11.553  63.854  1.00  0.00     0.000 HD 
BRANCH  25  27
HETATM   27  C   UNL     1      -7.662  10.460  65.667  1.00  0.00    -0.150 A  
HETATM   28  N   UNL     1      -7.232   9.217  65.395  1.00  0.00    -0.088 NA 
HETATM   29  C   UNL     1      -6.463   8.633  66.341  1.00  0.00    -0.062 A  
HETATM   30  C   UNL     1      -6.134   9.230  67.548  1.00  0.00    -0.054 A  
HETATM   31  C   UNL     1      -6.626  10.505  67.807  1.00  0.00    -0.061 A  
HETATM   32  C   UNL     1      -7.408  11.141  66.846  1.00  0.00    -0.138 A  
ENDBRANCH  25  27
ENDBRANCH  22  25
ENDBRANCH  19  22
ENDBRANCH  14  16
ENDBRANCH  12  14
ENDBRANCH   6  12
TORSDOF 6
ENDMDL
MODEL      113
REMARK 921   NORMALIZED FREE ENERGY PREDICTED BY IDOCK:   -6.02 KCAL/MOL
REMARK 922        TOTAL FREE ENERGY PREDICTED BY IDOCK:   -8.65 KCAL/MOL
REMARK 923 INTER-LIGAND FREE ENERGY PREDICTED BY IDOCK:   -7.92 KCAL/MOL
REMARK 924 INTRA-LIGAND FREE ENERGY PREDICTED BY IDOCK:   -0.73 KCAL/MOL
REMARK 927      BINDING AFFINITY PREDICTED BY RF-SCORE:    0.00 PKD
ROOT
HETATM    1  O   UNL     1      -9.773   3.347  73.220  1.00  0.00    -0.107 OA 
HETATM    2  C   UNL     1      -9.375   4.058  72.142  1.00  0.00    -0.128 C  
HETATM    3  C   UNL     1     -10.367   5.056  71.660  1.00  0.00    -0.262 A  
HETATM    4  O   UNL     1      -8.313   3.860  71.574  1.00  0.00    -0.072 OA 
HETATM    5  C   UNL     1     -10.317   5.419  70.302  1.00  0.00    -0.357 A  
HETATM    6  C   UNL     1     -11.195   6.382  69.779  1.00  0.00    -0.419 A  
HETATM    7  C   UNL     1     -12.131   6.963  70.647  1.00  0.00    -0.363 A  
HETATM    8  O   UNL     1     -11.374   5.307  73.822  1.00  0.00    -0.417 OA 
HETATM    9  C   UNL     1     -11.307   5.661  72.500  1.00  0.00    -0.294 A  
HETATM   10  H   UNL     1     -12.013   5.719  74.393  1.00  0.00     0.000 HD 
HETATM   11  C   UNL     1     -12.190   6.614  72.000  1.00  0.00    -0.337 A  
ENDROOT
BRANCH   6  12
HETATM   12  N   UNL     1     -11.211   6.813  68.434  1.00  0.00    -0.543 NA 
HETATM   13  H   UNL     1     -12.046   6.800  67.849  1.00  0.00     0.000 HD 
BRANCH  12  14
HETATM   14  N   UNL     1     -10.097   7.213  68.033  1.00  0.00    -0.162 NA 
HETATM   15  H   UNL     1      -9.323   6.591  67.798  1.00  0.00     0.000 HD 
BRANCH  14  16
HETATM   16  C   UNL     1     -10.030   8.621  67.941  1.00  0.00    -0.188 A  
HETATM   17  C   UNL     1      -8.609  10.580  67.625  1.00  0.00    -0.118 A  
HETATM   18  C   UNL     1      -8.777   9.192  67.678  1.00  0.00    -0.120 A  
HETATM   19  C   UNL     1      -9.714  11.419  67.793  1.00  0.00    -0.175 A  
HETATM   20  C   UNL     1     -11.131   9.481  68.099  1.00  0.00    -0.052 A  
HETATM   21  C   UNL     1     -10.978  10.873  68.033  1.00  0.00    -0.317 A  
BRANCH  19  22
HETATM   22  S   UNL     1      -9.457  13.182  67.895  1.00  0.00    -0.225 S  
HETATM   23  O   UNL     1      -8.168  13.397  68.513  1.00  0.00    -0.150 OA 
HETATM   24  O   UNL     1     -10.661  13.742  68.480  1.00  0.00    -0.242 OA 
BRANCH  22  25
HETATM   25  N   UNL     1      -9.448  13.693  66.287  1.00  0.00    -0.430 N  
HETATM   26  H   UNL     1      -8.777  14.378  65.941  1.00  0.00     0.000 HD 
BRANCH  25  27
HETATM   27  C   UNL     1     -10.424  13.114  65.452  1.00  0.00    -0.296 A  
HETATM   28  N   UNL     1     -11.670  13.546  65.702  1.00  0.00    -0.327 NA 
HETATM   29  C   UNL     1     -12.637  13.085  64.876  1.00  0.00    -0.428 A  
HETATM   30  C   UNL     1     -12.407  12.195  63.838  1.00  0.00    -0.587 A  
HETATM   31  C   UNL     1     -11.107  11.745  63.632  1.00  0.00    -0.518 A  
HETATM   32  C   UNL     1     -10.087  12.214  64.455  1.00  0.00    -0.286 A  
ENDBRANCH  25  27
ENDBRANCH  22  25
ENDBRANCH  19  22
ENDBRANCH  14  16
ENDBRANCH  12  14
ENDBRANCH   6  12
TORSDOF 6
ENDMDL
MODEL      114
REMARK 921   NORMALIZED FREE ENERGY PREDICTED BY IDOCK:   -6.01 KCAL/MOL
REMARK 922        TOTAL FREE ENERGY PREDICTED BY IDOCK:   -8.64 KCAL/MOL
REMARK 923 INTER-LIGAND FREE ENERGY PREDICTED BY IDOCK:   -7.86 KCAL/MOL
REMARK 924 INTRA-LIGAND FREE ENERGY PREDICTED BY IDOCK:   -0.77 KCAL/MOL
REMARK 927      BINDING AFFINITY PREDICTED BY RF-SCORE:    0.00 PKD
ROOT
HETATM    1  O   UNL     1     -11.666  16.296  63.691  1.00  0.00    -0.860 OA 
HETATM    2  C   UNL     1     -11.865  15.264  64.540  1.00  0.00    -0.295 C  
HETATM    3  C   UNL     1     -10.758  15.039  65.507  1.00  0.00    -0.372 A  
HETATM    4  O   UNL     1     -12.845  14.539  64.483  1.00  0.00    -0.613 OA 
HETATM    5  C   UNL     1     -10.592  13.738  66.016  1.00  0.00    -0.290 A  
HETATM    6  C   UNL     1      -9.595  13.454  66.961  1.00  0.00    -0.244 A  
HETATM    7  C   UNL     1      -8.759  14.501  67.376  1.00  0.00    -0.210 A  
HETATM    8  O   UNL     1     -10.055  17.332  65.452  1.00  0.00    -0.574 OA 
HETATM    9  C   UNL     1      -9.913  16.062  65.948  1.00  0.00    -0.352 A  
HETATM   10  H   UNL     1      -9.481  18.027  65.752  1.00  0.00     0.000 HD 
HETATM   11  C   UNL     1      -8.913  15.800  66.881  1.00  0.00    -0.266 A  
ENDROOT
BRANCH   6  12
HETATM   12  N   UNL     1      -9.363  12.181  67.531  1.00  0.00    -0.177 NA 
HETATM   13  H   UNL     1      -8.440  11.751  67.587  1.00  0.00     0.000 HD 
BRANCH  12  14
HETATM   14  N   UNL     1     -10.402  11.638  67.960  1.00  0.00    -0.186 NA 
HETATM   15  H   UNL     1     -11.321  11.757  67.534  1.00  0.00     0.000 HD 
BRANCH  14  16
HETATM   16  C   UNL     1     -10.163  10.841  69.102  1.00  0.00    -0.211 A  
HETATM   17  C   UNL     1      -8.521   9.614  70.426  1.00  0.00    -0.187 A  
HETATM   18  C   UNL     1      -8.841  10.448  69.351  1.00  0.00    -0.138 A  
HETATM   19  C   UNL     1      -9.528   9.193  71.300  1.00  0.00    -0.243 A  
HETATM   20  C   UNL     1     -11.161  10.415  69.996  1.00  0.00    -0.379 A  
HETATM   21  C   UNL     1     -10.851   9.590  71.086  1.00  0.00    -0.425 A  
BRANCH  19  22
HETATM   22  S   UNL     1      -9.137   7.994  72.563  1.00  0.00    -0.234 S  
HETATM   23  O   UNL     1     -10.356   7.284  72.876  1.00  0.00    -0.212 OA 
HETATM   24  O   UNL     1      -8.408   8.704  73.596  1.00  0.00    -0.380 OA 
BRANCH  22  25
HETATM   25  N   UNL     1      -8.014   6.971  71.829  1.00  0.00    -0.098 N  
HETATM   26  H   UNL     1      -7.011   7.142  71.883  1.00  0.00     0.000 HD 
BRANCH  25  27
HETATM   27  C   UNL     1      -8.549   5.865  71.137  1.00  0.00    -0.129 A  
HETATM   28  N   UNL     1      -8.763   4.795  71.919  1.00  0.00    -0.122 NA 
HETATM   29  C   UNL     1      -9.350   3.732  71.324  1.00  0.00    -0.145 A  
HETATM   30  C   UNL     1      -9.702   3.692  69.984  1.00  0.00    -0.180 A  
HETATM   31  C   UNL     1      -9.434   4.809  69.200  1.00  0.00    -0.215 A  
HETATM   32  C   UNL     1      -8.844   5.927  69.786  1.00  0.00    -0.129 A  
ENDBRANCH  25  27
ENDBRANCH  22  25
ENDBRANCH  19  22
ENDBRANCH  14  16
ENDBRANCH  12  14
ENDBRANCH   6  12
TORSDOF 6
ENDMDL
MODEL      115
REMARK 921   NORMALIZED FREE ENERGY PREDICTED BY IDOCK:   -6.00 KCAL/MOL
REMARK 922        TOTAL FREE ENERGY PREDICTED BY IDOCK:   -8.62 KCAL/MOL
REMARK 923 INTER-LIGAND FREE ENERGY PREDICTED BY IDOCK:   -7.77 KCAL/MOL
REMARK 924 INTRA-LIGAND FREE ENERGY PREDICTED BY IDOCK:   -0.86 KCAL/MOL
REMARK 927      BINDING AFFINITY PREDICTED BY RF-SCORE:    0.00 PKD
ROOT
HETATM    1  O   UNL     1      -8.942  20.933  67.277  1.00  0.00    -0.266 OA 
HETATM    2  C   UNL     1      -9.707  19.908  67.710  1.00  0.00    -0.392 C  
HETATM    3  C   UNL     1      -9.369  18.589  67.111  1.00  0.00    -0.280 A  
HETATM    4  O   UNL     1     -10.637  20.057  68.486  1.00  0.00    -0.326 OA 
HETATM    5  C   UNL     1     -10.391  17.624  67.041  1.00  0.00    -0.330 A  
HETATM    6  C   UNL     1     -10.141  16.344  66.524  1.00  0.00    -0.295 A  
HETATM    7  C   UNL     1      -8.846  16.057  66.066  1.00  0.00    -0.314 A  
HETATM    8  O   UNL     1      -7.086  19.203  66.703  1.00  0.00    -0.202 OA 
HETATM    9  C   UNL     1      -8.087  18.268  66.652  1.00  0.00    -0.260 A  
HETATM   10  H   UNL     1      -6.215  18.984  66.392  1.00  0.00     0.000 HD 
HETATM   11  C   UNL     1      -7.820  17.005  66.130  1.00  0.00    -0.295 A  
ENDROOT
BRANCH   6  12
HETATM   12  N   UNL     1     -11.101  15.312  66.425  1.00  0.00    -0.310 NA 
HETATM   13  H   UNL     1     -11.542  15.038  65.547  1.00  0.00     0.000 HD 
BRANCH  12  14
HETATM   14  N   UNL     1     -11.355  14.770  67.521  1.00  0.00    -0.332 NA 
HETATM   15  H   UNL     1     -11.886  15.221  68.267  1.00  0.00     0.000 HD 
BRANCH  14  16
HETATM   16  C   UNL     1     -10.825  13.464  67.614  1.00  0.00    -0.259 A  
HETATM   17  C   UNL     1     -11.184  11.083  67.215  1.00  0.00    -0.330 A  
HETATM   18  C   UNL     1     -11.606  12.413  67.115  1.00  0.00    -0.435 A  
HETATM   19  C   UNL     1      -9.941  10.792  67.783  1.00  0.00    -0.171 A  
HETATM   20  C   UNL     1      -9.574  13.153  68.174  1.00  0.00    -0.227 A  
HETATM   21  C   UNL     1      -9.133  11.825  68.267  1.00  0.00    -0.187 A  
BRANCH  19  22
HETATM   22  S   UNL     1      -9.490   9.087  68.061  1.00  0.00    -0.143 S  
HETATM   23  O   UNL     1      -8.306   8.820  67.277  1.00  0.00    -0.104 OA 
HETATM   24  O   UNL     1     -10.697   8.305  67.868  1.00  0.00    -0.178 OA 
BRANCH  22  25
HETATM   25  N   UNL     1      -9.152   9.012  69.711  1.00  0.00    -0.151 N  
HETATM   26  H   UNL     1      -8.204   9.107  70.074  1.00  0.00     0.000 HD 
BRANCH  25  27
HETATM   27  C   UNL     1     -10.260   8.810  70.558  1.00  0.00    -0.202 A  
HETATM   28  N   UNL     1     -10.338   7.563  71.052  1.00  0.00    -0.199 NA 
HETATM   29  C   UNL     1     -11.336   7.335  71.936  1.00  0.00    -0.254 A  
HETATM   30  C   UNL     1     -12.265   8.291  72.317  1.00  0.00    -0.428 A  
HETATM   31  C   UNL     1     -12.170   9.561  71.758  1.00  0.00    -0.465 A  
HETATM   32  C   UNL     1     -11.143   9.833  70.857  1.00  0.00    -0.428 A  
ENDBRANCH  25  27
ENDBRANCH  22  25
ENDBRANCH  19  22
ENDBRANCH  14  16
ENDBRANCH  12  14
ENDBRANCH   6  12
TORSDOF 6
ENDMDL
MODEL      116
REMARK 921   NORMALIZED FREE ENERGY PREDICTED BY IDOCK:   -5.99 KCAL/MOL
REMARK 922        TOTAL FREE ENERGY PREDICTED BY IDOCK:   -8.62 KCAL/MOL
REMARK 923 INTER-LIGAND FREE ENERGY PREDICTED BY IDOCK:   -7.80 KCAL/MOL
REMARK 924 INTRA-LIGAND FREE ENERGY PREDICTED BY IDOCK:   -0.82 KCAL/MOL
REMARK 927      BINDING AFFINITY PREDICTED BY RF-SCORE:    0.00 PKD
ROOT
HETATM    1  O   UNL     1     -11.887  16.380  71.112  1.00  0.00    -0.344 OA 
HETATM    2  C   UNL     1     -11.997  15.373  70.218  1.00  0.00    -0.355 C  
HETATM    3  C   UNL     1     -12.422  14.073  70.804  1.00  0.00    -0.442 A  
HETATM    4  O   UNL     1     -11.715  15.501  69.038  1.00  0.00    -0.346 OA 
HETATM    5  C   UNL     1     -12.036  12.899  70.131  1.00  0.00    -0.373 A  
HETATM    6  C   UNL     1     -12.430  11.636  70.600  1.00  0.00    -0.295 A  
HETATM    7  C   UNL     1     -13.209  11.577  71.765  1.00  0.00    -0.456 A  
HETATM    8  O   UNL     1     -13.578  15.114  72.630  1.00  0.00    -0.430 OA 
HETATM    9  C   UNL     1     -13.206  13.978  71.959  1.00  0.00    -0.412 A  
HETATM   10  H   UNL     1     -14.110  15.049  73.414  1.00  0.00     0.000 HD 
HETATM   11  C   UNL     1     -13.602  12.735  72.443  1.00  0.00    -0.507 A  
ENDROOT
BRANCH   6  12
HETATM   12  N   UNL     1     -12.098  10.408  69.985  1.00  0.00    -0.439 NA 
HETATM   13  H   UNL     1     -11.502  10.336  69.160  1.00  0.00     0.000 HD 
BRANCH  12  14
HETATM   14  N   UNL     1     -12.607   9.420  70.554  1.00  0.00    -0.482 NA 
HETATM   15  H   UNL     1     -13.596   9.350  70.791  1.00  0.00     0.000 HD 
BRANCH  14  16
HETATM   16  C   UNL     1     -11.660   8.409  70.830  1.00  0.00    -0.262 A  
HETATM   17  C   UNL     1      -9.364   7.883  71.469  1.00  0.00    -0.179 A  
HETATM   18  C   UNL     1     -10.379   8.815  71.228  1.00  0.00    -0.331 A  
HETATM   19  C   UNL     1      -9.636   6.517  71.354  1.00  0.00    -0.165 A  
HETATM   20  C   UNL     1     -11.917   7.030  70.728  1.00  0.00    -0.392 A  
HETATM   21  C   UNL     1     -10.912   6.086  70.981  1.00  0.00    -0.350 A  
BRANCH  19  22
HETATM   22  S   UNL     1      -8.293   5.349  71.495  1.00  0.00    -0.124 S  
HETATM   23  O   UNL     1      -8.877   4.032  71.614  1.00  0.00    -0.103 OA 
HETATM   24  O   UNL     1      -7.406   5.861  72.523  1.00  0.00    -0.091 OA 
BRANCH  22  25
HETATM   25  N   UNL     1      -7.453   5.507  70.041  1.00  0.00    -0.068 N  
HETATM   26  H   UNL     1      -6.444   5.652  70.013  1.00  0.00     0.000 HD 
BRANCH  25  27
HETATM   27  C   UNL     1      -8.230   5.427  68.869  1.00  0.00    -0.100 A  
HETATM   28  N   UNL     1      -8.585   4.174  68.543  1.00  0.00    -0.091 NA 
HETATM   29  C   UNL     1      -9.400   4.045  67.472  1.00  0.00    -0.183 A  
HETATM   30  C   UNL     1      -9.845   5.111  66.706  1.00  0.00    -0.205 A  
HETATM   31  C   UNL     1      -9.428   6.392  67.056  1.00  0.00    -0.159 A  
HETATM   32  C   UNL     1      -8.602   6.559  68.164  1.00  0.00    -0.118 A  
ENDBRANCH  25  27
ENDBRANCH  22  25
ENDBRANCH  19  22
ENDBRANCH  14  16
ENDBRANCH  12  14
ENDBRANCH   6  12
TORSDOF 6
ENDMDL
MODEL      117
REMARK 921   NORMALIZED FREE ENERGY PREDICTED BY IDOCK:   -5.98 KCAL/MOL
REMARK 922        TOTAL FREE ENERGY PREDICTED BY IDOCK:   -8.60 KCAL/MOL
REMARK 923 INTER-LIGAND FREE ENERGY PREDICTED BY IDOCK:   -7.88 KCAL/MOL
REMARK 924 INTRA-LIGAND FREE ENERGY PREDICTED BY IDOCK:   -0.72 KCAL/MOL
REMARK 927      BINDING AFFINITY PREDICTED BY RF-SCORE:    0.00 PKD
ROOT
HETATM    1  O   UNL     1     -11.365  16.555  70.490  1.00  0.00    -0.311 OA 
HETATM    2  C   UNL     1     -11.619  15.445  69.763  1.00  0.00    -0.323 C  
HETATM    3  C   UNL     1     -12.177  14.310  70.545  1.00  0.00    -0.427 A  
HETATM    4  O   UNL     1     -11.359  15.358  68.574  1.00  0.00    -0.299 OA 
HETATM    5  C   UNL     1     -11.953  13.010  70.056  1.00  0.00    -0.383 A  
HETATM    6  C   UNL     1     -12.480  11.889  70.717  1.00  0.00    -0.291 A  
HETATM    7  C   UNL     1     -13.226  12.101  71.886  1.00  0.00    -0.474 A  
HETATM    8  O   UNL     1     -13.148  15.746  72.203  1.00  0.00    -0.441 OA 
HETATM    9  C   UNL     1     -12.933  14.486  71.709  1.00  0.00    -0.341 A  
HETATM   10  H   UNL     1     -13.662  15.866  72.993  1.00  0.00     0.000 HD 
HETATM   11  C   UNL     1     -13.459  13.387  72.382  1.00  0.00    -0.685 A  
ENDROOT
BRANCH   6  12
HETATM   12  N   UNL     1     -12.313  10.551  70.294  1.00  0.00    -0.406 NA 
HETATM   13  H   UNL     1     -11.622  10.263  69.601  1.00  0.00     0.000 HD 
BRANCH  12  14
HETATM   14  N   UNL     1     -13.098   9.757  70.853  1.00  0.00    -0.562 NA 
HETATM   15  H   UNL     1     -14.110   9.882  70.876  1.00  0.00     0.000 HD 
BRANCH  14  16
HETATM   16  C   UNL     1     -12.428   8.666  71.451  1.00  0.00    -0.301 A  
HETATM   17  C   UNL     1     -10.355   7.836  72.436  1.00  0.00    -0.311 A  
HETATM   18  C   UNL     1     -11.112   8.875  71.884  1.00  0.00    -0.442 A  
HETATM   19  C   UNL     1     -10.930   6.573  72.602  1.00  0.00    -0.255 A  
HETATM   20  C   UNL     1     -12.992   7.391  71.633  1.00  0.00    -0.409 A  
HETATM   21  C   UNL     1     -12.249   6.346  72.199  1.00  0.00    -0.278 A  
BRANCH  19  22
HETATM   22  S   UNL     1      -9.904   5.217  73.145  1.00  0.00    -0.156 S  
HETATM   23  O   UNL     1      -9.894   4.232  72.087  1.00  0.00    -0.152 OA 
HETATM   24  O   UNL     1     -10.357   4.865  74.478  1.00  0.00    -0.253 OA 
BRANCH  22  25
HETATM   25  N   UNL     1      -8.378   5.906  73.344  1.00  0.00    -0.115 N  
HETATM   26  H   UNL     1      -8.187   6.599  74.067  1.00  0.00     0.000 HD 
BRANCH  25  27
HETATM   27  C   UNL     1      -7.382   5.464  72.450  1.00  0.00    -0.094 A  
HETATM   28  N   UNL     1      -6.790   4.319  72.828  1.00  0.00    -0.050 NA 
HETATM   29  C   UNL     1      -5.883   3.805  71.967  1.00  0.00    -0.009 A  
HETATM   30  C   UNL     1      -5.530   4.404  70.767  1.00  0.00    -0.008 A  
HETATM   31  C   UNL     1      -6.142   5.607  70.427  1.00  0.00    -0.026 A  
HETATM   32  C   UNL     1      -7.093   6.153  71.286  1.00  0.00    -0.077 A  
ENDBRANCH  25  27
ENDBRANCH  22  25
ENDBRANCH  19  22
ENDBRANCH  14  16
ENDBRANCH  12  14
ENDBRANCH   6  12
TORSDOF 6
ENDMDL
MODEL      118
REMARK 921   NORMALIZED FREE ENERGY PREDICTED BY IDOCK:   -5.95 KCAL/MOL
REMARK 922        TOTAL FREE ENERGY PREDICTED BY IDOCK:   -8.57 KCAL/MOL
REMARK 923 INTER-LIGAND FREE ENERGY PREDICTED BY IDOCK:   -7.70 KCAL/MOL
REMARK 924 INTRA-LIGAND FREE ENERGY PREDICTED BY IDOCK:   -0.86 KCAL/MOL
REMARK 927      BINDING AFFINITY PREDICTED BY RF-SCORE:    0.00 PKD
ROOT
HETATM    1  O   UNL     1      -5.860  10.977  71.071  1.00  0.00    -0.325 OA 
HETATM    2  C   UNL     1      -6.555  11.066  69.917  1.00  0.00    -0.142 C  
HETATM    3  C   UNL     1      -7.309   9.837  69.554  1.00  0.00    -0.092 A  
HETATM    4  O   UNL     1      -6.522  12.053  69.199  1.00  0.00    -0.084 OA 
HETATM    5  C   UNL     1      -7.578   9.616  68.191  1.00  0.00    -0.082 A  
HETATM    6  C   UNL     1      -8.317   8.499  67.772  1.00  0.00    -0.130 A  
HETATM    7  C   UNL     1      -8.770   7.602  68.750  1.00  0.00    -0.128 A  
HETATM    8  O   UNL     1      -7.517   9.123  71.834  1.00  0.00    -0.338 OA 
HETATM    9  C   UNL     1      -7.783   8.926  70.504  1.00  0.00    -0.104 A  
HETATM   10  H   UNL     1      -7.840   8.505  72.480  1.00  0.00     0.000 HD 
HETATM   11  C   UNL     1      -8.513   7.809  70.109  1.00  0.00    -0.134 A  
ENDROOT
BRANCH   6  12
HETATM   12  N   UNL     1      -8.641   8.204  66.429  1.00  0.00    -0.132 NA 
HETATM   13  H   UNL     1      -7.950   7.922  65.733  1.00  0.00     0.000 HD 
BRANCH  12  14
HETATM   14  N   UNL     1      -9.859   8.322  66.179  1.00  0.00    -0.463 NA 
HETATM   15  H   UNL     1     -10.494   7.532  66.064  1.00  0.00     0.000 HD 
BRANCH  14  16
HETATM   16  C   UNL     1     -10.260   9.673  66.075  1.00  0.00    -0.185 A  
HETATM   17  C   UNL     1     -11.399  11.551  67.138  1.00  0.00    -0.354 A  
HETATM   18  C   UNL     1     -10.919  10.238  67.176  1.00  0.00    -0.233 A  
HETATM   19  C   UNL     1     -11.184  12.336  66.002  1.00  0.00    -0.332 A  
HETATM   20  C   UNL     1     -10.046  10.480  64.944  1.00  0.00    -0.403 A  
HETATM   21  C   UNL     1     -10.510  11.802  64.900  1.00  0.00    -0.334 A  
BRANCH  19  22
HETATM   22  S   UNL     1     -11.949  13.945  65.901  1.00  0.00    -0.432 S  
HETATM   23  O   UNL     1     -13.263  13.764  65.325  1.00  0.00    -0.755 OA 
HETATM   24  O   UNL     1     -10.981  14.824  65.272  1.00  0.00    -0.329 OA 
BRANCH  22  25
HETATM   25  N   UNL     1     -12.059  14.454  67.505  1.00  0.00    -0.587 N  
HETATM   26  H   UNL     1     -12.883  14.271  68.075  1.00  0.00     0.000 HD 
BRANCH  25  27
HETATM   27  C   UNL     1     -10.940  15.148  68.008  1.00  0.00    -0.295 A  
HETATM   28  N   UNL     1     -11.077  16.483  67.977  1.00  0.00    -0.319 NA 
HETATM   29  C   UNL     1     -10.067  17.198  68.523  1.00  0.00    -0.329 A  
HETATM   30  C   UNL     1      -8.925  16.631  69.067  1.00  0.00    -0.204 A  
HETATM   31  C   UNL     1      -8.806  15.245  69.051  1.00  0.00    -0.226 A  
HETATM   32  C   UNL     1      -9.837  14.480  68.511  1.00  0.00    -0.231 A  
ENDBRANCH  25  27
ENDBRANCH  22  25
ENDBRANCH  19  22
ENDBRANCH  14  16
ENDBRANCH  12  14
ENDBRANCH   6  12
TORSDOF 6
ENDMDL
MODEL      119
REMARK 921   NORMALIZED FREE ENERGY PREDICTED BY IDOCK:   -5.95 KCAL/MOL
REMARK 922        TOTAL FREE ENERGY PREDICTED BY IDOCK:   -8.56 KCAL/MOL
REMARK 923 INTER-LIGAND FREE ENERGY PREDICTED BY IDOCK:   -7.63 KCAL/MOL
REMARK 924 INTRA-LIGAND FREE ENERGY PREDICTED BY IDOCK:   -0.93 KCAL/MOL
REMARK 927      BINDING AFFINITY PREDICTED BY RF-SCORE:    0.00 PKD
ROOT
HETATM    1  O   UNL     1     -10.598   5.024  68.644  1.00  0.00    -0.042 OA 
HETATM    2  C   UNL     1      -9.532   5.724  69.087  1.00  0.00    -0.128 C  
HETATM    3  C   UNL     1      -9.840   7.118  69.504  1.00  0.00    -0.162 A  
HETATM    4  O   UNL     1      -8.398   5.272  69.092  1.00  0.00    -0.091 OA 
HETATM    5  C   UNL     1      -8.799   8.063  69.436  1.00  0.00    -0.144 A  
HETATM    6  C   UNL     1      -9.001   9.390  69.848  1.00  0.00    -0.200 A  
HETATM    7  C   UNL     1     -10.272   9.750  70.317  1.00  0.00    -0.346 A  
HETATM    8  O   UNL     1     -12.119   6.602  70.044  1.00  0.00    -0.633 OA 
HETATM    9  C   UNL     1     -11.094   7.510  69.985  1.00  0.00    -0.204 A  
HETATM   10  H   UNL     1     -12.971   6.868  70.371  1.00  0.00     0.000 HD 
HETATM   11  C   UNL     1     -11.315   8.822  70.393  1.00  0.00    -0.213 A  
ENDROOT
BRANCH   6  12
HETATM   12  N   UNL     1      -8.013  10.400  69.824  1.00  0.00    -0.328 NA 
HETATM   13  H   UNL     1      -7.719  10.918  70.652  1.00  0.00     0.000 HD 
BRANCH  12  14
HETATM   14  N   UNL     1      -7.537  10.595  68.686  1.00  0.00    -0.095 NA 
HETATM   15  H   UNL     1      -6.743  10.078  68.308  1.00  0.00     0.000 HD 
BRANCH  14  16
HETATM   16  C   UNL     1      -8.222  11.610  67.981  1.00  0.00    -0.146 A  
HETATM   17  C   UNL     1      -8.701  13.995  67.791  1.00  0.00    -0.185 A  
HETATM   18  C   UNL     1      -8.021  12.933  68.396  1.00  0.00    -0.137 A  
HETATM   19  C   UNL     1      -9.565  13.745  66.722  1.00  0.00    -0.279 A  
HETATM   20  C   UNL     1      -9.088  11.379  66.899  1.00  0.00    -0.178 A  
HETATM   21  C   UNL     1      -9.764  12.437  66.274  1.00  0.00    -0.253 A  
BRANCH  19  22
HETATM   22  S   UNL     1     -10.553  15.083  66.073  1.00  0.00    -0.338 S  
HETATM   23  O   UNL     1     -11.525  15.432  67.085  1.00  0.00    -0.266 OA 
HETATM   24  O   UNL     1     -10.979  14.676  64.748  1.00  0.00    -0.392 OA 
BRANCH  22  25
HETATM   25  N   UNL     1      -9.450  16.337  65.837  1.00  0.00    -0.319 N  
HETATM   26  H   UNL     1      -8.675  16.259  65.180  1.00  0.00     0.000 HD 
BRANCH  25  27
HETATM   27  C   UNL     1      -9.666  17.499  66.604  1.00  0.00    -0.299 A  
HETATM   28  N   UNL     1     -10.389  18.436  65.970  1.00  0.00    -0.548 NA 
HETATM   29  C   UNL     1     -10.696  19.539  66.688  1.00  0.00    -0.445 A  
HETATM   30  C   UNL     1     -10.285  19.749  67.996  1.00  0.00    -0.581 A  
HETATM   31  C   UNL     1      -9.510  18.770  68.608  1.00  0.00    -0.412 A  
HETATM   32  C   UNL     1      -9.191  17.614  67.899  1.00  0.00    -0.267 A  
ENDBRANCH  25  27
ENDBRANCH  22  25
ENDBRANCH  19  22
ENDBRANCH  14  16
ENDBRANCH  12  14
ENDBRANCH   6  12
TORSDOF 6
ENDMDL
MODEL      120
REMARK 921   NORMALIZED FREE ENERGY PREDICTED BY IDOCK:   -5.95 KCAL/MOL
REMARK 922        TOTAL FREE ENERGY PREDICTED BY IDOCK:   -8.56 KCAL/MOL
REMARK 923 INTER-LIGAND FREE ENERGY PREDICTED BY IDOCK:   -7.75 KCAL/MOL
REMARK 924 INTRA-LIGAND FREE ENERGY PREDICTED BY IDOCK:   -0.81 KCAL/MOL
REMARK 927      BINDING AFFINITY PREDICTED BY RF-SCORE:    0.00 PKD
ROOT
HETATM    1  O   UNL     1     -12.457  15.847  63.828  1.00  0.00    -0.735 OA 
HETATM    2  C   UNL     1     -12.264  14.931  64.802  1.00  0.00    -0.284 C  
HETATM    3  C   UNL     1     -10.950  15.032  65.492  1.00  0.00    -0.364 A  
HETATM    4  O   UNL     1     -13.076  14.056  65.059  1.00  0.00    -0.742 OA 
HETATM    5  C   UNL     1     -10.431  13.863  66.077  1.00  0.00    -0.299 A  
HETATM    6  C   UNL     1      -9.216  13.884  66.779  1.00  0.00    -0.254 A  
HETATM    7  C   UNL     1      -8.526  15.103  66.868  1.00  0.00    -0.278 A  
HETATM    8  O   UNL     1     -10.729  17.375  65.030  1.00  0.00    -0.688 OA 
HETATM    9  C   UNL     1     -10.241  16.232  65.607  1.00  0.00    -0.343 A  
HETATM   10  H   UNL     1     -10.247  18.190  65.109  1.00  0.00     0.000 HD 
HETATM   11  C   UNL     1      -9.031  16.273  66.293  1.00  0.00    -0.366 A  
ENDROOT
BRANCH   6  12
HETATM   12  N   UNL     1      -8.626  12.764  67.405  1.00  0.00    -0.184 NA 
HETATM   13  H   UNL     1      -7.797  12.290  67.044  1.00  0.00     0.000 HD 
BRANCH  12  14
HETATM   14  N   UNL     1      -9.221  12.412  68.445  1.00  0.00    -0.311 NA 
HETATM   15  H   UNL     1      -9.402  13.035  69.233  1.00  0.00     0.000 HD 
BRANCH  14  16
HETATM   16  C   UNL     1      -9.616  11.056  68.409  1.00  0.00    -0.181 A  
HETATM   17  C   UNL     1      -9.561   8.884  69.522  1.00  0.00    -0.171 A  
HETATM   18  C   UNL     1      -9.259  10.250  69.499  1.00  0.00    -0.191 A  
HETATM   19  C   UNL     1     -10.269   8.314  68.461  1.00  0.00    -0.208 A  
HETATM   20  C   UNL     1     -10.335  10.466  67.355  1.00  0.00    -0.275 A  
HETATM   21  C   UNL     1     -10.656   9.102  67.373  1.00  0.00    -0.315 A  
BRANCH  19  22
HETATM   22  S   UNL     1     -10.497   6.544  68.421  1.00  0.00    -0.244 S  
HETATM   23  O   UNL     1     -11.282   6.236  67.247  1.00  0.00    -0.332 OA 
HETATM   24  O   UNL     1     -10.957   6.156  69.741  1.00  0.00    -0.317 OA 
BRANCH  22  25
HETATM   25  N   UNL     1      -8.933   5.928  68.279  1.00  0.00    -0.113 N  
HETATM   26  H   UNL     1      -8.609   5.141  68.840  1.00  0.00     0.000 HD 
BRANCH  25  27
HETATM   27  C   UNL     1      -8.102   6.569  67.339  1.00  0.00    -0.121 A  
HETATM   28  N   UNL     1      -8.523   6.436  66.071  1.00  0.00    -0.138 NA 
HETATM   29  C   UNL     1      -7.808   7.098  65.133  1.00  0.00    -0.124 A  
HETATM   30  C   UNL     1      -6.683   7.859  65.413  1.00  0.00    -0.048 A  
HETATM   31  C   UNL     1      -6.260   7.945  66.735  1.00  0.00    -0.053 A  
HETATM   32  C   UNL     1      -6.984   7.287  67.726  1.00  0.00    -0.076 A  
ENDBRANCH  25  27
ENDBRANCH  22  25
ENDBRANCH  19  22
ENDBRANCH  14  16
ENDBRANCH  12  14
ENDBRANCH   6  12
TORSDOF 6
ENDMDL
MODEL      121
REMARK 921   NORMALIZED FREE ENERGY PREDICTED BY IDOCK:   -5.95 KCAL/MOL
REMARK 922        TOTAL FREE ENERGY PREDICTED BY IDOCK:   -8.56 KCAL/MOL
REMARK 923 INTER-LIGAND FREE ENERGY PREDICTED BY IDOCK:   -8.09 KCAL/MOL
REMARK 924 INTRA-LIGAND FREE ENERGY PREDICTED BY IDOCK:   -0.47 KCAL/MOL
REMARK 927      BINDING AFFINITY PREDICTED BY RF-SCORE:    0.00 PKD
ROOT
HETATM    1  O   UNL     1      -7.941   4.521  67.400  1.00  0.00    -0.099 OA 
HETATM    2  C   UNL     1      -9.094   5.092  67.809  1.00  0.00    -0.114 C  
HETATM    3  C   UNL     1      -9.313   6.473  67.301  1.00  0.00    -0.129 A  
HETATM    4  O   UNL     1      -9.867   4.545  68.579  1.00  0.00    -0.150 OA 
HETATM    5  C   UNL     1     -10.128   7.326  68.067  1.00  0.00    -0.207 A  
HETATM    6  C   UNL     1     -10.413   8.631  67.636  1.00  0.00    -0.244 A  
HETATM    7  C   UNL     1      -9.852   9.065  66.425  1.00  0.00    -0.356 A  
HETATM    8  O   UNL     1      -7.971   6.117  65.346  1.00  0.00    -0.103 OA 
HETATM    9  C   UNL     1      -8.776   6.934  66.095  1.00  0.00    -0.145 A  
HETATM   10  H   UNL     1      -7.607   6.430  64.526  1.00  0.00     0.000 HD 
HETATM   11  C   UNL     1      -9.042   8.226  65.652  1.00  0.00    -0.122 A  
ENDROOT
BRANCH   6  12
HETATM   12  N   UNL     1     -11.226   9.552  68.334  1.00  0.00    -0.489 NA 
HETATM   13  H   UNL     1     -12.244   9.489  68.368  1.00  0.00     0.000 HD 
BRANCH  12  14
HETATM   14  N   UNL     1     -10.573  10.451  68.905  1.00  0.00    -0.202 NA 
HETATM   15  H   UNL     1     -10.146  10.343  69.825  1.00  0.00     0.000 HD 
BRANCH  14  16
HETATM   16  C   UNL     1     -10.491  11.631  68.134  1.00  0.00    -0.195 A  
HETATM   17  C   UNL     1      -9.081  13.463  67.351  1.00  0.00    -0.216 A  
HETATM   18  C   UNL     1      -9.241  12.261  68.048  1.00  0.00    -0.195 A  
HETATM   19  C   UNL     1     -10.172  14.032  66.690  1.00  0.00    -0.275 A  
HETATM   20  C   UNL     1     -11.575  12.214  67.456  1.00  0.00    -0.413 A  
HETATM   21  C   UNL     1     -11.424  13.411  66.742  1.00  0.00    -0.376 A  
BRANCH  19  22
HETATM   22  S   UNL     1      -9.996  15.649  65.953  1.00  0.00    -0.375 S  
HETATM   23  O   UNL     1     -10.570  15.584  64.628  1.00  0.00    -0.365 OA 
HETATM   24  O   UNL     1      -8.611  16.039  66.141  1.00  0.00    -0.333 OA 
BRANCH  22  25
HETATM   25  N   UNL     1     -10.899  16.661  66.955  1.00  0.00    -0.141 N  
HETATM   26  H   UNL     1     -11.737  16.338  67.437  1.00  0.00     0.000 HD 
BRANCH  25  27
HETATM   27  C   UNL     1     -10.425  17.982  67.084  1.00  0.00    -0.367 A  
HETATM   28  N   UNL     1     -10.442  18.675  65.934  1.00  0.00    -0.587 NA 
HETATM   29  C   UNL     1     -10.074  19.973  66.016  1.00  0.00    -0.450 A  
HETATM   30  C   UNL     1      -9.666  20.589  67.189  1.00  0.00    -0.581 A  
HETATM   31  C   UNL     1      -9.630  19.829  68.354  1.00  0.00    -0.454 A  
HETATM   32  C   UNL     1     -10.019  18.492  68.305  1.00  0.00    -0.409 A  
ENDBRANCH  25  27
ENDBRANCH  22  25
ENDBRANCH  19  22
ENDBRANCH  14  16
ENDBRANCH  12  14
ENDBRANCH   6  12
TORSDOF 6
ENDMDL
MODEL      122
REMARK 921   NORMALIZED FREE ENERGY PREDICTED BY IDOCK:   -5.94 KCAL/MOL
REMARK 922        TOTAL FREE ENERGY PREDICTED BY IDOCK:   -8.54 KCAL/MOL
REMARK 923 INTER-LIGAND FREE ENERGY PREDICTED BY IDOCK:   -7.66 KCAL/MOL
REMARK 924 INTRA-LIGAND FREE ENERGY PREDICTED BY IDOCK:   -0.89 KCAL/MOL
REMARK 927      BINDING AFFINITY PREDICTED BY RF-SCORE:    0.00 PKD
ROOT
HETATM    1  O   UNL     1      -8.382  16.172  66.520  1.00  0.00    -0.261 OA 
HETATM    2  C   UNL     1      -8.521  14.886  66.910  1.00  0.00    -0.223 C  
HETATM    3  C   UNL     1      -9.839  14.280  66.579  1.00  0.00    -0.299 A  
HETATM    4  O   UNL     1      -7.660  14.286  67.533  1.00  0.00    -0.163 OA 
HETATM    5  C   UNL     1     -10.289  13.220  67.387  1.00  0.00    -0.243 A  
HETATM    6  C   UNL     1     -11.504  12.571  67.116  1.00  0.00    -0.351 A  
HETATM    7  C   UNL     1     -12.263  13.018  66.025  1.00  0.00    -0.463 A  
HETATM    8  O   UNL     1     -10.197  15.736  64.707  1.00  0.00    -0.508 OA 
HETATM    9  C   UNL     1     -10.617  14.696  65.494  1.00  0.00    -0.355 A  
HETATM   10  H   UNL     1     -10.725  16.019  63.969  1.00  0.00     0.000 HD 
HETATM   11  C   UNL     1     -11.828  14.070  65.212  1.00  0.00    -0.363 A  
ENDROOT
BRANCH   6  12
HETATM   12  N   UNL     1     -12.027  11.494  67.866  1.00  0.00    -0.641 NA 
HETATM   13  H   UNL     1     -12.824  11.583  68.496  1.00  0.00     0.000 HD 
BRANCH  12  14
HETATM   14  N   UNL     1     -11.416  10.421  67.679  1.00  0.00    -0.592 NA 
HETATM   15  H   UNL     1     -11.454   9.891  66.808  1.00  0.00     0.000 HD 
BRANCH  14  16
HETATM   16  C   UNL     1     -10.664  10.024  68.807  1.00  0.00    -0.223 A  
HETATM   17  C   UNL     1      -8.453   9.538  69.718  1.00  0.00    -0.185 A  
HETATM   18  C   UNL     1      -9.270   9.973  68.670  1.00  0.00    -0.152 A  
HETATM   19  C   UNL     1      -9.026   9.186  70.943  1.00  0.00    -0.237 A  
HETATM   20  C   UNL     1     -11.222   9.674  70.049  1.00  0.00    -0.271 A  
HETATM   21  C   UNL     1     -10.412   9.251  71.112  1.00  0.00    -0.401 A  
BRANCH  19  22
HETATM   22  S   UNL     1      -7.993   8.471  72.212  1.00  0.00    -0.020 S  
HETATM   23  O   UNL     1      -8.711   8.574  73.462  1.00  0.00    -0.314 OA 
HETATM   24  O   UNL     1      -6.680   9.070  72.062  1.00  0.00    -0.251 OA 
BRANCH  22  25
HETATM   25  N   UNL     1      -7.820   6.860  71.745  1.00  0.00    -0.099 N  
HETATM   26  H   UNL     1      -7.130   6.568  71.054  1.00  0.00     0.000 HD 
BRANCH  25  27
HETATM   27  C   UNL     1      -8.687   5.942  72.370  1.00  0.00    -0.127 A  
HETATM   28  N   UNL     1      -8.129   5.294  73.405  1.00  0.00    -0.110 NA 
HETATM   29  C   UNL     1      -8.940   4.459  74.092  1.00  0.00    -0.108 A  
HETATM   30  C   UNL     1     -10.269   4.231  73.768  1.00  0.00    -0.221 A  
HETATM   31  C   UNL     1     -10.801   4.896  72.669  1.00  0.00    -0.264 A  
HETATM   32  C   UNL     1      -9.995   5.775  71.950  1.00  0.00    -0.214 A  
ENDBRANCH  25  27
ENDBRANCH  22  25
ENDBRANCH  19  22
ENDBRANCH  14  16
ENDBRANCH  12  14
ENDBRANCH   6  12
TORSDOF 6
ENDMDL
MODEL      123
REMARK 921   NORMALIZED FREE ENERGY PREDICTED BY IDOCK:   -5.93 KCAL/MOL
REMARK 922        TOTAL FREE ENERGY PREDICTED BY IDOCK:   -8.54 KCAL/MOL
REMARK 923 INTER-LIGAND FREE ENERGY PREDICTED BY IDOCK:   -7.58 KCAL/MOL
REMARK 924 INTRA-LIGAND FREE ENERGY PREDICTED BY IDOCK:   -0.96 KCAL/MOL
REMARK 927      BINDING AFFINITY PREDICTED BY RF-SCORE:    0.00 PKD
ROOT
HETATM    1  O   UNL     1      -9.127   6.826  72.730  1.00  0.00    -0.135 OA 
HETATM    2  C   UNL     1      -9.022   8.058  72.185  1.00  0.00    -0.164 C  
HETATM    3  C   UNL     1     -10.322   8.702  71.860  1.00  0.00    -0.405 A  
HETATM    4  O   UNL     1      -7.948   8.578  71.925  1.00  0.00    -0.130 OA 
HETATM    5  C   UNL     1     -10.334   9.662  70.831  1.00  0.00    -0.334 A  
HETATM    6  C   UNL     1     -11.515  10.342  70.491  1.00  0.00    -0.343 A  
HETATM    7  C   UNL     1     -12.685  10.028  71.198  1.00  0.00    -0.484 A  
HETATM    8  O   UNL     1     -11.510   7.478  73.546  1.00  0.00    -0.608 OA 
HETATM    9  C   UNL     1     -11.505   8.419  72.550  1.00  0.00    -0.352 A  
HETATM   10  H   UNL     1     -12.314   7.286  74.015  1.00  0.00     0.000 HD 
HETATM   11  C   UNL     1     -12.687   9.078  72.225  1.00  0.00    -0.457 A  
ENDROOT
BRANCH   6  12
HETATM   12  N   UNL     1     -11.617  11.324  69.481  1.00  0.00    -0.297 NA 
HETATM   13  H   UNL     1     -11.220  12.260  69.566  1.00  0.00     0.000 HD 
BRANCH  12  14
HETATM   14  N   UNL     1     -12.243  10.931  68.474  1.00  0.00    -0.809 NA 
HETATM   15  H   UNL     1     -13.246  10.744  68.468  1.00  0.00     0.000 HD 
BRANCH  14  16
HETATM   16  C   UNL     1     -11.407  10.775  67.346  1.00  0.00    -0.160 A  
HETATM   17  C   UNL     1      -9.946   9.286  66.080  1.00  0.00    -0.325 A  
HETATM   18  C   UNL     1     -10.830   9.514  67.140  1.00  0.00    -0.156 A  
HETATM   19  C   UNL     1      -9.663  10.316  65.180  1.00  0.00    -0.300 A  
HETATM   20  C   UNL     1     -11.116  11.796  66.426  1.00  0.00    -0.360 A  
HETATM   21  C   UNL     1     -10.244  11.575  65.351  1.00  0.00    -0.311 A  
BRANCH  19  22
HETATM   22  S   UNL     1      -8.406  10.062  63.937  1.00  0.00    -0.179 S  
HETATM   23  O   UNL     1      -8.745  10.893  62.804  1.00  0.00    -0.233 OA 
HETATM   24  O   UNL     1      -8.260   8.627  63.784  1.00  0.00    -0.161 OA 
BRANCH  22  25
HETATM   25  N   UNL     1      -6.984  10.593  64.672  1.00  0.00    -0.358 N  
HETATM   26  H   UNL     1      -6.256  11.081  64.152  1.00  0.00     0.000 HD 
BRANCH  25  27
HETATM   27  C   UNL     1      -6.864  10.322  66.050  1.00  0.00    -0.119 A  
HETATM   28  N   UNL     1      -7.066  11.397  66.829  1.00  0.00    -0.143 NA 
HETATM   29  C   UNL     1      -7.043  11.178  68.163  1.00  0.00    -0.071 A  
HETATM   30  C   UNL     1      -6.801   9.940  68.739  1.00  0.00    -0.054 A  
HETATM   31  C   UNL     1      -6.564   8.857  67.899  1.00  0.00    -0.061 A  
HETATM   32  C   UNL     1      -6.597   9.048  66.519  1.00  0.00    -0.067 A  
ENDBRANCH  25  27
ENDBRANCH  22  25
ENDBRANCH  19  22
ENDBRANCH  14  16
ENDBRANCH  12  14
ENDBRANCH   6  12
TORSDOF 6
ENDMDL
MODEL      124
REMARK 921   NORMALIZED FREE ENERGY PREDICTED BY IDOCK:   -5.93 KCAL/MOL
REMARK 922        TOTAL FREE ENERGY PREDICTED BY IDOCK:   -8.53 KCAL/MOL
REMARK 923 INTER-LIGAND FREE ENERGY PREDICTED BY IDOCK:   -7.81 KCAL/MOL
REMARK 924 INTRA-LIGAND FREE ENERGY PREDICTED BY IDOCK:   -0.72 KCAL/MOL
REMARK 927      BINDING AFFINITY PREDICTED BY RF-SCORE:    0.00 PKD
ROOT
HETATM    1  O   UNL     1      -9.346  20.378  66.875  1.00  0.00    -0.368 OA 
HETATM    2  C   UNL     1     -10.176  19.352  67.161  1.00  0.00    -0.412 C  
HETATM    3  C   UNL     1      -9.622  18.006  66.854  1.00  0.00    -0.295 A  
HETATM    4  O   UNL     1     -11.310  19.514  67.582  1.00  0.00    -0.111 OA 
HETATM    5  C   UNL     1     -10.536  16.973  66.578  1.00  0.00    -0.250 A  
HETATM    6  C   UNL     1     -10.092  15.667  66.317  1.00  0.00    -0.299 A  
HETATM    7  C   UNL     1      -8.711  15.424  66.325  1.00  0.00    -0.240 A  
HETATM    8  O   UNL     1      -7.350  18.728  67.117  1.00  0.00    -0.211 OA 
HETATM    9  C   UNL     1      -8.251  17.728  66.862  1.00  0.00    -0.232 A  
HETATM   10  H   UNL     1      -6.418  18.539  67.123  1.00  0.00     0.000 HD 
HETATM   11  C   UNL     1      -7.790  16.441  66.600  1.00  0.00    -0.316 A  
ENDROOT
BRANCH   6  12
HETATM   12  N   UNL     1     -10.937  14.568  66.040  1.00  0.00    -0.317 NA 
HETATM   13  H   UNL     1     -10.786  13.926  65.262  1.00  0.00     0.000 HD 
BRANCH  12  14
HETATM   14  N   UNL     1     -11.886  14.463  66.845  1.00  0.00    -0.407 NA 
HETATM   15  H   UNL     1     -12.678  15.105  66.874  1.00  0.00     0.000 HD 
BRANCH  14  16
HETATM   16  C   UNL     1     -11.739  13.357  67.711  1.00  0.00    -0.359 A  
HETATM   17  C   UNL     1     -11.263  10.972  67.912  1.00  0.00    -0.375 A  
HETATM   18  C   UNL     1     -11.377  12.131  67.137  1.00  0.00    -0.393 A  
HETATM   19  C   UNL     1     -11.471  11.038  69.292  1.00  0.00    -0.300 A  
HETATM   20  C   UNL     1     -11.937  13.406  69.102  1.00  0.00    -0.363 A  
HETATM   21  C   UNL     1     -11.811  12.254  69.892  1.00  0.00    -0.383 A  
BRANCH  19  22
HETATM   22  S   UNL     1     -11.493   9.526  70.241  1.00  0.00    -0.163 S  
HETATM   23  O   UNL     1     -10.992   8.473  69.387  1.00  0.00    -0.147 OA 
HETATM   24  O   UNL     1     -12.813   9.430  70.836  1.00  0.00    -0.219 OA 
BRANCH  22  25
HETATM   25  N   UNL     1     -10.433   9.823  71.518  1.00  0.00    -0.040 N  
HETATM   26  H   UNL     1     -10.153  10.767  71.780  1.00  0.00     0.000 HD 
BRANCH  25  27
HETATM   27  C   UNL     1      -9.958   8.685  72.201  1.00  0.00    -0.316 A  
HETATM   28  N   UNL     1      -8.620   8.564  72.179  1.00  0.00    -0.274 NA 
HETATM   29  C   UNL     1      -8.104   7.535  72.888  1.00  0.00    -0.106 A  
HETATM   30  C   UNL     1      -8.871   6.616  73.587  1.00  0.00    -0.143 A  
HETATM   31  C   UNL     1     -10.255   6.756  73.559  1.00  0.00    -0.320 A  
HETATM   32  C   UNL     1     -10.817   7.816  72.851  1.00  0.00    -0.453 A  
ENDBRANCH  25  27
ENDBRANCH  22  25
ENDBRANCH  19  22
ENDBRANCH  14  16
ENDBRANCH  12  14
ENDBRANCH   6  12
TORSDOF 6
ENDMDL
MODEL      125
REMARK 921   NORMALIZED FREE ENERGY PREDICTED BY IDOCK:   -5.92 KCAL/MOL
REMARK 922        TOTAL FREE ENERGY PREDICTED BY IDOCK:   -8.52 KCAL/MOL
REMARK 923 INTER-LIGAND FREE ENERGY PREDICTED BY IDOCK:   -7.77 KCAL/MOL
REMARK 924 INTRA-LIGAND FREE ENERGY PREDICTED BY IDOCK:   -0.76 KCAL/MOL
REMARK 927      BINDING AFFINITY PREDICTED BY RF-SCORE:    0.00 PKD
ROOT
HETATM    1  O   UNL     1     -10.399  18.329  65.777  1.00  0.00    -0.594 OA 
HETATM    2  C   UNL     1      -9.511  17.365  66.102  1.00  0.00    -0.169 C  
HETATM    3  C   UNL     1      -9.999  15.977  65.881  1.00  0.00    -0.380 A  
HETATM    4  O   UNL     1      -8.420  17.607  66.593  1.00  0.00    -0.237 OA 
HETATM    5  C   UNL     1      -9.436  14.956  66.668  1.00  0.00    -0.286 A  
HETATM    6  C   UNL     1      -9.817  13.616  66.492  1.00  0.00    -0.293 A  
HETATM    7  C   UNL     1     -10.783  13.326  65.518  1.00  0.00    -0.299 A  
HETATM    8  O   UNL     1     -11.519  16.639  64.148  1.00  0.00    -1.375 OA 
HETATM    9  C   UNL     1     -10.954  15.652  64.912  1.00  0.00    -0.431 A  
HETATM   10  H   UNL     1     -12.168  16.418  63.489  1.00  0.00     0.000 HD 
HETATM   11  C   UNL     1     -11.349  14.330  64.727  1.00  0.00    -0.382 A  
ENDROOT
BRANCH   6  12
HETATM   12  N   UNL     1      -9.299  12.527  67.229  1.00  0.00    -0.184 NA 
HETATM   13  H   UNL     1      -8.491  11.981  66.932  1.00  0.00     0.000 HD 
BRANCH  12  14
HETATM   14  N   UNL     1      -9.931  12.302  68.282  1.00  0.00    -0.214 NA 
HETATM   15  H   UNL     1     -10.335  13.032  68.869  1.00  0.00     0.000 HD 
BRANCH  14  16
HETATM   16  C   UNL     1     -10.026  10.922  68.570  1.00  0.00    -0.182 A  
HETATM   17  C   UNL     1     -10.842   8.738  67.849  1.00  0.00    -0.078 A  
HETATM   18  C   UNL     1     -10.655  10.105  67.621  1.00  0.00    -0.316 A  
HETATM   19  C   UNL     1     -10.355   8.159  69.024  1.00  0.00    -0.218 A  
HETATM   20  C   UNL     1      -9.536  10.320  69.743  1.00  0.00    -0.146 A  
HETATM   21  C   UNL     1      -9.704   8.948  69.976  1.00  0.00    -0.187 A  
BRANCH  19  22
HETATM   22  S   UNL     1     -10.750   6.454  69.380  1.00  0.00    -0.325 S  
HETATM   23  O   UNL     1     -11.951   6.448  70.184  1.00  0.00    -0.354 OA 
HETATM   24  O   UNL     1      -9.529   5.842  69.869  1.00  0.00    -0.144 OA 
BRANCH  22  25
HETATM   25  N   UNL     1     -11.033   5.770  67.865  1.00  0.00    -0.228 N  
HETATM   26  H   UNL     1     -11.948   5.807  67.418  1.00  0.00     0.000 HD 
BRANCH  25  27
HETATM   27  C   UNL     1      -9.928   5.143  67.256  1.00  0.00    -0.186 A  
HETATM   28  N   UNL     1      -9.898   3.813  67.435  1.00  0.00    -0.083 NA 
HETATM   29  C   UNL     1      -8.902   3.150  66.804  1.00  0.00    -0.146 A  
HETATM   30  C   UNL     1      -7.931   3.767  66.031  1.00  0.00    -0.090 A  
HETATM   31  C   UNL     1      -7.977   5.151  65.897  1.00  0.00    -0.108 A  
HETATM   32  C   UNL     1      -8.999   5.861  66.522  1.00  0.00    -0.133 A  
ENDBRANCH  25  27
ENDBRANCH  22  25
ENDBRANCH  19  22
ENDBRANCH  14  16
ENDBRANCH  12  14
ENDBRANCH   6  12
TORSDOF 6
ENDMDL
MODEL      126
REMARK 921   NORMALIZED FREE ENERGY PREDICTED BY IDOCK:   -5.92 KCAL/MOL
REMARK 922        TOTAL FREE ENERGY PREDICTED BY IDOCK:   -8.52 KCAL/MOL
REMARK 923 INTER-LIGAND FREE ENERGY PREDICTED BY IDOCK:   -7.94 KCAL/MOL
REMARK 924 INTRA-LIGAND FREE ENERGY PREDICTED BY IDOCK:   -0.58 KCAL/MOL
REMARK 927      BINDING AFFINITY PREDICTED BY RF-SCORE:    0.00 PKD
ROOT
HETATM    1  O   UNL     1     -12.879  13.873  64.174  1.00  0.00    -0.586 OA 
HETATM    2  C   UNL     1     -12.363  13.613  65.395  1.00  0.00    -0.476 C  
HETATM    3  C   UNL     1     -11.574  12.355  65.475  1.00  0.00    -0.432 A  
HETATM    4  O   UNL     1     -12.574  14.320  66.367  1.00  0.00    -0.396 OA 
HETATM    5  C   UNL     1     -11.484  11.722  66.729  1.00  0.00    -0.352 A  
HETATM    6  C   UNL     1     -10.727  10.552  66.894  1.00  0.00    -0.219 A  
HETATM    7  C   UNL     1     -10.072  10.024  65.772  1.00  0.00    -0.320 A  
HETATM    8  O   UNL     1     -10.991  12.406  63.149  1.00  0.00    -0.635 OA 
HETATM    9  C   UNL     1     -10.902  11.806  64.378  1.00  0.00    -0.334 A  
HETATM   10  H   UNL     1     -10.534  12.033  62.404  1.00  0.00     0.000 HD 
HETATM   11  C   UNL     1     -10.150  10.643  64.520  1.00  0.00    -0.421 A  
ENDROOT
BRANCH   6  12
HETATM   12  N   UNL     1     -10.573   9.856  68.115  1.00  0.00    -0.213 NA 
HETATM   13  H   UNL     1     -10.485  10.321  69.019  1.00  0.00     0.000 HD 
BRANCH  12  14
HETATM   14  N   UNL     1     -10.558   8.615  67.975  1.00  0.00    -0.399 NA 
HETATM   15  H   UNL     1     -10.599   8.147  67.070  1.00  0.00     0.000 HD 
BRANCH  14  16
HETATM   16  C   UNL     1     -10.475   7.934  69.209  1.00  0.00    -0.216 A  
HETATM   17  C   UNL     1     -11.251   6.053  70.557  1.00  0.00    -0.363 A  
HETATM   18  C   UNL     1     -11.230   6.761  69.351  1.00  0.00    -0.288 A  
HETATM   19  C   UNL     1     -10.474   6.492  71.632  1.00  0.00    -0.213 A  
HETATM   20  C   UNL     1      -9.693   8.355  70.298  1.00  0.00    -0.178 A  
HETATM   21  C   UNL     1      -9.694   7.646  71.508  1.00  0.00    -0.191 A  
BRANCH  19  22
HETATM   22  S   UNL     1     -10.641   5.682  73.214  1.00  0.00    -0.269 S  
HETATM   23  O   UNL     1     -11.900   4.971  73.203  1.00  0.00    -0.279 OA 
HETATM   24  O   UNL     1     -10.368   6.686  74.224  1.00  0.00    -0.361 OA 
BRANCH  22  25
HETATM   25  N   UNL     1      -9.342   4.608  73.269  1.00  0.00    -0.117 N  
HETATM   26  H   UNL     1      -8.605   4.686  73.969  1.00  0.00     0.000 HD 
BRANCH  25  27
HETATM   27  C   UNL     1      -9.338   3.595  72.289  1.00  0.00    -0.122 A  
HETATM   28  N   UNL     1     -10.135   2.556  72.586  1.00  0.00    -0.147 NA 
HETATM   29  C   UNL     1     -10.233   1.592  71.643  1.00  0.00    -0.064 A  
HETATM   30  C   UNL     1      -9.547   1.617  70.438  1.00  0.00    -0.116 A  
HETATM   31  C   UNL     1      -8.706   2.694  70.181  1.00  0.00    -0.126 A  
HETATM   32  C   UNL     1      -8.597   3.712  71.126  1.00  0.00    -0.108 A  
ENDBRANCH  25  27
ENDBRANCH  22  25
ENDBRANCH  19  22
ENDBRANCH  14  16
ENDBRANCH  12  14
ENDBRANCH   6  12
TORSDOF 6
ENDMDL
MODEL      127
REMARK 921   NORMALIZED FREE ENERGY PREDICTED BY IDOCK:   -5.87 KCAL/MOL
REMARK 922        TOTAL FREE ENERGY PREDICTED BY IDOCK:   -8.45 KCAL/MOL
REMARK 923 INTER-LIGAND FREE ENERGY PREDICTED BY IDOCK:   -7.63 KCAL/MOL
REMARK 924 INTRA-LIGAND FREE ENERGY PREDICTED BY IDOCK:   -0.82 KCAL/MOL
REMARK 927      BINDING AFFINITY PREDICTED BY RF-SCORE:    0.00 PKD
ROOT
HETATM    1  O   UNL     1      -5.538   7.288  73.314  1.00  0.00    -0.045 OA 
HETATM    2  C   UNL     1      -6.639   8.002  73.635  1.00  0.00    -0.105 C  
HETATM    3  C   UNL     1      -7.898   7.212  73.671  1.00  0.00    -0.123 A  
HETATM    4  O   UNL     1      -6.614   9.208  73.824  1.00  0.00    -0.332 OA 
HETATM    5  C   UNL     1      -9.104   7.897  73.435  1.00  0.00    -0.347 A  
HETATM    6  C   UNL     1     -10.337   7.229  73.490  1.00  0.00    -0.366 A  
HETATM    7  C   UNL     1     -10.333   5.856  73.774  1.00  0.00    -0.272 A  
HETATM    8  O   UNL     1      -6.762   5.161  74.179  1.00  0.00    -0.072 OA 
HETATM    9  C   UNL     1      -7.930   5.844  73.959  1.00  0.00    -0.104 A  
HETATM   10  H   UNL     1      -6.784   4.232  74.375  1.00  0.00     0.000 HD 
HETATM   11  C   UNL     1      -9.142   5.161  74.012  1.00  0.00    -0.118 A  
ENDROOT
BRANCH   6  12
HETATM   12  N   UNL     1     -11.595   7.838  73.277  1.00  0.00    -0.606 NA 
HETATM   13  H   UNL     1     -12.037   8.464  73.949  1.00  0.00     0.000 HD 
BRANCH  12  14
HETATM   14  N   UNL     1     -12.109   7.531  72.181  1.00  0.00    -0.382 NA 
HETATM   15  H   UNL     1     -12.627   6.667  72.020  1.00  0.00     0.000 HD 
BRANCH  14  16
HETATM   16  C   UNL     1     -11.895   8.515  71.190  1.00  0.00    -0.284 A  
HETATM   17  C   UNL     1     -10.773   9.098  69.102  1.00  0.00    -0.190 A  
HETATM   18  C   UNL     1     -11.083   8.169  70.101  1.00  0.00    -0.187 A  
HETATM   19  C   UNL     1     -11.315  10.384  69.161  1.00  0.00    -0.226 A  
HETATM   20  C   UNL     1     -12.437   9.811  71.227  1.00  0.00    -0.461 A  
HETATM   21  C   UNL     1     -12.146  10.747  70.224  1.00  0.00    -0.433 A  
BRANCH  19  22
HETATM   22  S   UNL     1     -10.776  11.608  67.978  1.00  0.00    -0.221 S  
HETATM   23  O   UNL     1     -11.910  11.927  67.140  1.00  0.00    -0.588 OA 
HETATM   24  O   UNL     1      -9.545  11.107  67.397  1.00  0.00    -0.167 OA 
BRANCH  22  25
HETATM   25  N   UNL     1     -10.333  12.932  68.924  1.00  0.00    -0.429 N  
HETATM   26  H   UNL     1     -10.180  12.852  69.929  1.00  0.00     0.000 HD 
BRANCH  25  27
HETATM   27  C   UNL     1     -10.188  14.156  68.241  1.00  0.00    -0.243 A  
HETATM   28  N   UNL     1     -11.101  15.077  68.587  1.00  0.00    -0.252 NA 
HETATM   29  C   UNL     1     -10.960  16.297  68.022  1.00  0.00    -0.328 A  
HETATM   30  C   UNL     1      -9.964  16.617  67.111  1.00  0.00    -0.268 A  
HETATM   31  C   UNL     1      -9.057  15.626  66.753  1.00  0.00    -0.281 A  
HETATM   32  C   UNL     1      -9.166  14.363  67.330  1.00  0.00    -0.199 A  
ENDBRANCH  25  27
ENDBRANCH  22  25
ENDBRANCH  19  22
ENDBRANCH  14  16
ENDBRANCH  12  14
ENDBRANCH   6  12
TORSDOF 6
ENDMDL
MODEL      128
REMARK 921   NORMALIZED FREE ENERGY PREDICTED BY IDOCK:   -5.86 KCAL/MOL
REMARK 922        TOTAL FREE ENERGY PREDICTED BY IDOCK:   -8.44 KCAL/MOL
REMARK 923 INTER-LIGAND FREE ENERGY PREDICTED BY IDOCK:   -7.65 KCAL/MOL
REMARK 924 INTRA-LIGAND FREE ENERGY PREDICTED BY IDOCK:   -0.79 KCAL/MOL
REMARK 927      BINDING AFFINITY PREDICTED BY RF-SCORE:    0.00 PKD
ROOT
HETATM    1  O   UNL     1     -12.620  15.926  71.755  1.00  0.00    -0.441 OA 
HETATM    2  C   UNL     1     -12.445  15.170  70.649  1.00  0.00    -0.388 C  
HETATM    3  C   UNL     1     -12.537  13.704  70.883  1.00  0.00    -0.421 A  
HETATM    4  O   UNL     1     -12.177  15.645  69.557  1.00  0.00    -0.337 OA 
HETATM    5  C   UNL     1     -11.847  12.858  69.996  1.00  0.00    -0.356 A  
HETATM    6  C   UNL     1     -11.916  11.462  70.128  1.00  0.00    -0.377 A  
HETATM    7  C   UNL     1     -12.682  10.934  71.177  1.00  0.00    -0.530 A  
HETATM    8  O   UNL     1     -13.966  13.957  72.793  1.00  0.00    -0.697 OA 
HETATM    9  C   UNL     1     -13.299  13.144  71.914  1.00  0.00    -0.455 A  
HETATM   10  H   UNL     1     -14.484  13.577  73.493  1.00  0.00     0.000 HD 
HETATM   11  C   UNL     1     -13.375  11.763  72.066  1.00  0.00    -0.417 A  
ENDROOT
BRANCH   6  12
HETATM   12  N   UNL     1     -11.264  10.539  69.279  1.00  0.00    -0.246 NA 
HETATM   13  H   UNL     1     -11.754   9.809  68.762  1.00  0.00     0.000 HD 
BRANCH  12  14
HETATM   14  N   UNL     1     -10.028  10.707  69.227  1.00  0.00    -0.307 NA 
HETATM   15  H   UNL     1      -9.441  10.862  70.047  1.00  0.00     0.000 HD 
BRANCH  14  16
HETATM   16  C   UNL     1      -9.532  10.659  67.905  1.00  0.00    -0.159 A  
HETATM   17  C   UNL     1      -9.985  10.091  65.575  1.00  0.00    -0.367 A  
HETATM   18  C   UNL     1     -10.408  10.223  66.902  1.00  0.00    -0.298 A  
HETATM   19  C   UNL     1      -8.677  10.440  65.227  1.00  0.00    -0.179 A  
HETATM   20  C   UNL     1      -8.223  11.013  67.534  1.00  0.00    -0.117 A  
HETATM   21  C   UNL     1      -7.791  10.900  66.205  1.00  0.00    -0.158 A  
BRANCH  19  22
HETATM   22  S   UNL     1      -8.101  10.106  63.571  1.00  0.00    -0.159 S  
HETATM   23  O   UNL     1      -6.656  10.072  63.615  1.00  0.00    -0.122 OA 
HETATM   24  O   UNL     1      -8.792  11.035  62.697  1.00  0.00    -0.275 OA 
BRANCH  22  25
HETATM   25  N   UNL     1      -8.730   8.583  63.213  1.00  0.00    -0.421 N  
HETATM   26  H   UNL     1      -9.652   8.463  62.795  1.00  0.00     0.000 HD 
BRANCH  25  27
HETATM   27  C   UNL     1      -7.903   7.486  63.527  1.00  0.00    -0.112 A  
HETATM   28  N   UNL     1      -8.045   7.048  64.788  1.00  0.00    -0.122 NA 
HETATM   29  C   UNL     1      -7.335   5.946  65.120  1.00  0.00    -0.076 A  
HETATM   30  C   UNL     1      -6.475   5.290  64.252  1.00  0.00    -0.037 A  
HETATM   31  C   UNL     1      -6.330   5.794  62.964  1.00  0.00    -0.024 A  
HETATM   32  C   UNL     1      -7.060   6.918  62.586  1.00  0.00    -0.054 A  
ENDBRANCH  25  27
ENDBRANCH  22  25
ENDBRANCH  19  22
ENDBRANCH  14  16
ENDBRANCH  12  14
ENDBRANCH   6  12
TORSDOF 6
ENDMDL
MODEL      129
REMARK 921   NORMALIZED FREE ENERGY PREDICTED BY IDOCK:   -5.86 KCAL/MOL
REMARK 922        TOTAL FREE ENERGY PREDICTED BY IDOCK:   -8.43 KCAL/MOL
REMARK 923 INTER-LIGAND FREE ENERGY PREDICTED BY IDOCK:   -7.52 KCAL/MOL
REMARK 924 INTRA-LIGAND FREE ENERGY PREDICTED BY IDOCK:   -0.92 KCAL/MOL
REMARK 927      BINDING AFFINITY PREDICTED BY RF-SCORE:    0.00 PKD
ROOT
HETATM    1  O   UNL     1      -7.694   6.290  68.109  1.00  0.00    -0.100 OA 
HETATM    2  C   UNL     1      -8.297   6.519  66.922  1.00  0.00    -0.113 C  
HETATM    3  C   UNL     1      -7.883   7.781  66.254  1.00  0.00    -0.091 A  
HETATM    4  O   UNL     1      -9.153   5.781  66.460  1.00  0.00    -0.132 OA 
HETATM    5  C   UNL     1      -8.797   8.378  65.366  1.00  0.00    -0.146 A  
HETATM    6  C   UNL     1      -8.465   9.550  64.667  1.00  0.00    -0.166 A  
HETATM    7  C   UNL     1      -7.202  10.116  64.890  1.00  0.00    -0.131 A  
HETATM    8  O   UNL     1      -5.733   7.804  67.317  1.00  0.00    -0.034 OA 
HETATM    9  C   UNL     1      -6.628   8.368  66.446  1.00  0.00    -0.058 A  
HETATM   10  H   UNL     1      -4.880   8.203  67.447  1.00  0.00     0.000 HD 
HETATM   11  C   UNL     1      -6.282   9.534  65.767  1.00  0.00    -0.064 A  
ENDROOT
BRANCH   6  12
HETATM   12  N   UNL     1      -9.315  10.210  63.752  1.00  0.00    -0.278 NA 
HETATM   13  H   UNL     1      -9.018  10.505  62.821  1.00  0.00     0.000 HD 
BRANCH  12  14
HETATM   14  N   UNL     1     -10.467  10.398  64.197  1.00  0.00    -0.365 NA 
HETATM   15  H   UNL     1     -11.253   9.773  64.017  1.00  0.00     0.000 HD 
BRANCH  14  16
HETATM   16  C   UNL     1     -10.560  11.571  64.978  1.00  0.00    -0.297 A  
HETATM   17  C   UNL     1     -10.328  14.000  65.048  1.00  0.00    -0.432 A  
HETATM   18  C   UNL     1     -10.312  12.794  64.339  1.00  0.00    -0.388 A  
HETATM   19  C   UNL     1     -10.639  13.998  66.410  1.00  0.00    -0.280 A  
HETATM   20  C   UNL     1     -10.879  11.591  66.347  1.00  0.00    -0.334 A  
HETATM   21  C   UNL     1     -10.913  12.794  67.065  1.00  0.00    -0.295 A  
BRANCH  19  22
HETATM   22  S   UNL     1     -10.488  15.517  67.337  1.00  0.00    -0.286 S  
HETATM   23  O   UNL     1      -9.225  15.471  68.038  1.00  0.00    -0.186 OA 
HETATM   24  O   UNL     1     -11.732  15.682  68.065  1.00  0.00    -0.306 OA 
BRANCH  22  25
HETATM   25  N   UNL     1     -10.481  16.723  66.158  1.00  0.00    -0.307 N  
HETATM   26  H   UNL     1     -10.850  16.565  65.221  1.00  0.00     0.000 HD 
BRANCH  25  27
HETATM   27  C   UNL     1      -9.933  17.961  66.547  1.00  0.00    -0.357 A  
HETATM   28  N   UNL     1      -8.705  18.186  66.052  1.00  0.00    -0.509 NA 
HETATM   29  C   UNL     1      -8.164  19.394  66.327  1.00  0.00    -0.330 A  
HETATM   30  C   UNL     1      -8.789  20.365  67.095  1.00  0.00    -0.435 A  
HETATM   31  C   UNL     1     -10.047  20.081  67.618  1.00  0.00    -0.562 A  
HETATM   32  C   UNL     1     -10.638  18.851  67.339  1.00  0.00    -0.534 A  
ENDBRANCH  25  27
ENDBRANCH  22  25
ENDBRANCH  19  22
ENDBRANCH  14  16
ENDBRANCH  12  14
ENDBRANCH   6  12
TORSDOF 6
ENDMDL
MODEL      130
REMARK 921   NORMALIZED FREE ENERGY PREDICTED BY IDOCK:   -5.83 KCAL/MOL
REMARK 922        TOTAL FREE ENERGY PREDICTED BY IDOCK:   -8.40 KCAL/MOL
REMARK 923 INTER-LIGAND FREE ENERGY PREDICTED BY IDOCK:   -7.49 KCAL/MOL
REMARK 924 INTRA-LIGAND FREE ENERGY PREDICTED BY IDOCK:   -0.91 KCAL/MOL
REMARK 927      BINDING AFFINITY PREDICTED BY RF-SCORE:    0.00 PKD
ROOT
HETATM    1  O   UNL     1      -9.956   7.575  71.736  1.00  0.00    -0.171 OA 
HETATM    2  C   UNL     1      -9.595   8.435  70.759  1.00  0.00    -0.173 C  
HETATM    3  C   UNL     1      -9.815   7.927  69.378  1.00  0.00    -0.180 A  
HETATM    4  O   UNL     1      -9.079   9.517  70.986  1.00  0.00    -0.224 OA 
HETATM    5  C   UNL     1      -9.001   8.448  68.356  1.00  0.00    -0.136 A  
HETATM    6  C   UNL     1      -9.173   8.047  67.021  1.00  0.00    -0.147 A  
HETATM    7  C   UNL     1     -10.169   7.102  66.738  1.00  0.00    -0.289 A  
HETATM    8  O   UNL     1     -11.595   6.466  70.048  1.00  0.00    -0.425 OA 
HETATM    9  C   UNL     1     -10.805   6.991  69.060  1.00  0.00    -0.182 A  
HETATM   10  H   UNL     1     -12.268   5.831  69.832  1.00  0.00     0.000 HD 
HETATM   11  C   UNL     1     -10.986   6.576  67.744  1.00  0.00    -0.407 A  
ENDROOT
BRANCH   6  12
HETATM   12  N   UNL     1      -8.410   8.524  65.932  1.00  0.00    -0.130 NA 
HETATM   13  H   UNL     1      -7.397   8.417  65.865  1.00  0.00     0.000 HD 
BRANCH  12  14
HETATM   14  N   UNL     1      -9.100   9.089  65.058  1.00  0.00    -0.404 NA 
HETATM   15  H   UNL     1      -9.371   8.651  64.178  1.00  0.00     0.000 HD 
BRANCH  14  16
HETATM   16  C   UNL     1      -9.466  10.404  65.425  1.00  0.00    -0.232 A  
HETATM   17  C   UNL     1     -11.090  12.210  65.193  1.00  0.00    -0.369 A  
HETATM   18  C   UNL     1     -10.677  10.901  64.925  1.00  0.00    -0.240 A  
HETATM   19  C   UNL     1     -10.307  13.030  66.009  1.00  0.00    -0.285 A  
HETATM   20  C   UNL     1      -8.695  11.240  66.251  1.00  0.00    -0.184 A  
HETATM   21  C   UNL     1      -9.106  12.550  66.539  1.00  0.00    -0.177 A  
BRANCH  19  22
HETATM   22  S   UNL     1     -10.756  14.748  66.202  1.00  0.00    -0.324 S  
HETATM   23  O   UNL     1     -10.874  15.314  64.878  1.00  0.00    -0.415 OA 
HETATM   24  O   UNL     1      -9.831  15.310  67.167  1.00  0.00    -0.222 OA 
BRANCH  22  25
HETATM   25  N   UNL     1     -12.255  14.700  66.974  1.00  0.00    -0.478 N  
HETATM   26  H   UNL     1     -13.129  14.821  66.464  1.00  0.00     0.000 HD 
BRANCH  25  27
HETATM   27  C   UNL     1     -12.224  14.482  68.366  1.00  0.00    -0.119 A  
HETATM   28  N   UNL     1     -12.376  15.603  69.089  1.00  0.00    -0.128 NA 
HETATM   29  C   UNL     1     -12.435  15.443  70.430  1.00  0.00    -0.404 A  
HETATM   30  C   UNL     1     -12.321  14.217  71.068  1.00  0.00    -0.431 A  
HETATM   31  C   UNL     1     -12.132  13.083  70.286  1.00  0.00    -0.388 A  
HETATM   32  C   UNL     1     -12.083  13.213  68.900  1.00  0.00    -0.232 A  
ENDBRANCH  25  27
ENDBRANCH  22  25
ENDBRANCH  19  22
ENDBRANCH  14  16
ENDBRANCH  12  14
ENDBRANCH   6  12
TORSDOF 6
ENDMDL
MODEL      131
REMARK 921   NORMALIZED FREE ENERGY PREDICTED BY IDOCK:   -5.83 KCAL/MOL
REMARK 922        TOTAL FREE ENERGY PREDICTED BY IDOCK:   -8.40 KCAL/MOL
REMARK 923 INTER-LIGAND FREE ENERGY PREDICTED BY IDOCK:   -7.92 KCAL/MOL
REMARK 924 INTRA-LIGAND FREE ENERGY PREDICTED BY IDOCK:   -0.48 KCAL/MOL
REMARK 927      BINDING AFFINITY PREDICTED BY RF-SCORE:    0.00 PKD
ROOT
HETATM    1  O   UNL     1     -12.507  13.926  63.231  1.00  0.00    -0.817 OA 
HETATM    2  C   UNL     1     -11.872  12.843  63.729  1.00  0.00    -0.504 C  
HETATM    3  C   UNL     1     -11.648  12.881  65.199  1.00  0.00    -0.367 A  
HETATM    4  O   UNL     1     -11.463  11.933  63.026  1.00  0.00    -0.193 OA 
HETATM    5  C   UNL     1     -10.564  12.145  65.712  1.00  0.00    -0.295 A  
HETATM    6  C   UNL     1     -10.309  12.100  67.091  1.00  0.00    -0.214 A  
HETATM    7  C   UNL     1     -11.158  12.821  67.944  1.00  0.00    -0.281 A  
HETATM    8  O   UNL     1     -13.531  14.314  65.591  1.00  0.00    -0.688 OA 
HETATM    9  C   UNL     1     -12.480  13.582  66.078  1.00  0.00    -0.399 A  
HETATM   10  H   UNL     1     -14.097  14.789  66.188  1.00  0.00     0.000 HD 
HETATM   11  C   UNL     1     -12.241  13.555  67.449  1.00  0.00    -0.278 A  
ENDROOT
BRANCH   6  12
HETATM   12  N   UNL     1      -9.252  11.381  67.694  1.00  0.00    -0.156 NA 
HETATM   13  H   UNL     1      -8.641  10.746  67.180  1.00  0.00     0.000 HD 
BRANCH  12  14
HETATM   14  N   UNL     1      -9.143  11.601  68.918  1.00  0.00    -0.396 NA 
HETATM   15  H   UNL     1      -8.930  12.518  69.312  1.00  0.00     0.000 HD 
BRANCH  14  16
HETATM   16  C   UNL     1      -9.347  10.440  69.696  1.00  0.00    -0.066 A  
HETATM   17  C   UNL     1      -8.378   8.387  70.591  1.00  0.00    -0.129 A  
HETATM   18  C   UNL     1      -8.252   9.585  69.881  1.00  0.00    -0.169 A  
HETATM   19  C   UNL     1      -9.606   8.048  71.166  1.00  0.00    -0.160 A  
HETATM   20  C   UNL     1     -10.572  10.087  70.289  1.00  0.00    -0.354 A  
HETATM   21  C   UNL     1     -10.707   8.895  71.016  1.00  0.00    -0.315 A  
BRANCH  19  22
HETATM   22  S   UNL     1      -9.798   6.441  71.919  1.00  0.00    -0.156 S  
HETATM   23  O   UNL     1     -10.285   6.649  73.264  1.00  0.00    -0.197 OA 
HETATM   24  O   UNL     1      -8.559   5.724  71.684  1.00  0.00    -0.130 OA 
BRANCH  22  25
HETATM   25  N   UNL     1     -10.961   5.675  70.967  1.00  0.00    -0.221 N  
HETATM   26  H   UNL     1     -11.923   5.553  71.283  1.00  0.00     0.000 HD 
BRANCH  25  27
HETATM   27  C   UNL     1     -10.522   5.214  69.710  1.00  0.00    -0.204 A  
HETATM   28  N   UNL     1     -10.930   5.978  68.685  1.00  0.00    -0.309 NA 
HETATM   29  C   UNL     1     -10.470   5.628  67.462  1.00  0.00    -0.229 A  
HETATM   30  C   UNL     1      -9.648   4.536  67.228  1.00  0.00    -0.213 A  
HETATM   31  C   UNL     1      -9.274   3.750  68.313  1.00  0.00    -0.215 A  
HETATM   32  C   UNL     1      -9.718   4.093  69.587  1.00  0.00    -0.269 A  
ENDBRANCH  25  27
ENDBRANCH  22  25
ENDBRANCH  19  22
ENDBRANCH  14  16
ENDBRANCH  12  14
ENDBRANCH   6  12
TORSDOF 6
ENDMDL
MODEL      132
REMARK 921   NORMALIZED FREE ENERGY PREDICTED BY IDOCK:   -5.83 KCAL/MOL
REMARK 922        TOTAL FREE ENERGY PREDICTED BY IDOCK:   -8.40 KCAL/MOL
REMARK 923 INTER-LIGAND FREE ENERGY PREDICTED BY IDOCK:   -8.06 KCAL/MOL
REMARK 924 INTRA-LIGAND FREE ENERGY PREDICTED BY IDOCK:   -0.34 KCAL/MOL
REMARK 927      BINDING AFFINITY PREDICTED BY RF-SCORE:    0.00 PKD
ROOT
HETATM    1  O   UNL     1     -10.024   6.314  72.996  1.00  0.00    -0.167 OA 
HETATM    2  C   UNL     1     -10.466   7.350  72.250  1.00  0.00    -0.223 C  
HETATM    3  C   UNL     1     -10.429   7.113  70.782  1.00  0.00    -0.227 A  
HETATM    4  O   UNL     1     -10.813   8.415  72.736  1.00  0.00    -0.312 OA 
HETATM    5  C   UNL     1     -10.318   8.238  69.944  1.00  0.00    -0.218 A  
HETATM    6  C   UNL     1     -10.316   8.100  68.547  1.00  0.00    -0.198 A  
HETATM    7  C   UNL     1     -10.414   6.808  68.010  1.00  0.00    -0.253 A  
HETATM    8  O   UNL     1     -10.629   4.735  71.019  1.00  0.00    -0.109 OA 
HETATM    9  C   UNL     1     -10.533   5.840  70.214  1.00  0.00    -0.280 A  
HETATM   10  H   UNL     1     -10.700   3.870  70.632  1.00  0.00     0.000 HD 
HETATM   11  C   UNL     1     -10.527   5.681  68.831  1.00  0.00    -0.310 A  
ENDROOT
BRANCH   6  12
HETATM   12  N   UNL     1     -10.218   9.172  67.631  1.00  0.00    -0.221 NA 
HETATM   13  H   UNL     1      -9.348   9.443  67.174  1.00  0.00     0.000 HD 
BRANCH  12  14
HETATM   14  N   UNL     1     -11.306   9.754  67.438  1.00  0.00    -0.324 NA 
HETATM   15  H   UNL     1     -12.126   9.303  67.031  1.00  0.00     0.000 HD 
BRANCH  14  16
HETATM   16  C   UNL     1     -11.276  11.106  67.846  1.00  0.00    -0.302 A  
HETATM   17  C   UNL     1     -10.584  13.384  67.311  1.00  0.00    -0.256 A  
HETATM   18  C   UNL     1     -10.705  12.034  66.965  1.00  0.00    -0.280 A  
HETATM   19  C   UNL     1     -11.078  13.831  68.539  1.00  0.00    -0.267 A  
HETATM   20  C   UNL     1     -11.775  11.576  69.073  1.00  0.00    -0.400 A  
HETATM   21  C   UNL     1     -11.672  12.929  69.426  1.00  0.00    -0.382 A  
BRANCH  19  22
HETATM   22  S   UNL     1     -10.763  15.516  69.040  1.00  0.00    -0.260 S  
HETATM   23  O   UNL     1      -9.541  15.516  69.811  1.00  0.00    -0.279 OA 
HETATM   24  O   UNL     1     -11.999  16.014  69.614  1.00  0.00    -0.299 OA 
BRANCH  22  25
HETATM   25  N   UNL     1     -10.561  16.349  67.588  1.00  0.00    -0.310 N  
HETATM   26  H   UNL     1     -10.668  15.892  66.683  1.00  0.00     0.000 HD 
BRANCH  25  27
HETATM   27  C   UNL     1     -10.236  17.716  67.702  1.00  0.00    -0.351 A  
HETATM   28  N   UNL     1      -9.220  17.958  68.546  1.00  0.00    -0.284 NA 
HETATM   29  C   UNL     1      -8.813  19.244  68.632  1.00  0.00    -0.374 A  
HETATM   30  C   UNL     1      -9.397  20.290  67.934  1.00  0.00    -0.362 A  
HETATM   31  C   UNL     1     -10.469  20.003  67.095  1.00  0.00    -0.513 A  
HETATM   32  C   UNL     1     -10.902  18.684  66.971  1.00  0.00    -0.297 A  
ENDBRANCH  25  27
ENDBRANCH  22  25
ENDBRANCH  19  22
ENDBRANCH  14  16
ENDBRANCH  12  14
ENDBRANCH   6  12
TORSDOF 6
ENDMDL
MODEL      133
REMARK 921   NORMALIZED FREE ENERGY PREDICTED BY IDOCK:   -5.83 KCAL/MOL
REMARK 922        TOTAL FREE ENERGY PREDICTED BY IDOCK:   -8.39 KCAL/MOL
REMARK 923 INTER-LIGAND FREE ENERGY PREDICTED BY IDOCK:   -7.70 KCAL/MOL
REMARK 924 INTRA-LIGAND FREE ENERGY PREDICTED BY IDOCK:   -0.70 KCAL/MOL
REMARK 927      BINDING AFFINITY PREDICTED BY RF-SCORE:    0.00 PKD
ROOT
HETATM    1  O   UNL     1     -12.631  13.370  62.876  1.00  0.00    -0.576 OA 
HETATM    2  C   UNL     1     -12.342  13.595  64.176  1.00  0.00    -0.330 C  
HETATM    3  C   UNL     1     -11.629  12.478  64.851  1.00  0.00    -0.386 A  
HETATM    4  O   UNL     1     -12.688  14.606  64.766  1.00  0.00    -0.552 OA 
HETATM    5  C   UNL     1     -11.781  12.358  66.245  1.00  0.00    -0.457 A  
HETATM    6  C   UNL     1     -11.109  11.354  66.960  1.00  0.00    -0.303 A  
HETATM    7  C   UNL     1     -10.293  10.465  66.244  1.00  0.00    -0.270 A  
HETATM    8  O   UNL     1     -10.655  11.680  62.810  1.00  0.00    -0.627 OA 
HETATM    9  C   UNL     1     -10.801  11.581  64.169  1.00  0.00    -0.372 A  
HETATM   10  H   UNL     1     -10.092  11.070  62.347  1.00  0.00     0.000 HD 
HETATM   11  C   UNL     1     -10.131  10.574  64.859  1.00  0.00    -0.403 A  
ENDROOT
BRANCH   6  12
HETATM   12  N   UNL     1     -11.195  11.164  68.358  1.00  0.00    -0.238 NA 
HETATM   13  H   UNL     1     -11.019  11.905  69.037  1.00  0.00     0.000 HD 
BRANCH  12  14
HETATM   14  N   UNL     1     -11.509   9.998  68.678  1.00  0.00    -0.510 NA 
HETATM   15  H   UNL     1     -12.306   9.498  68.284  1.00  0.00     0.000 HD 
BRANCH  14  16
HETATM   16  C   UNL     1     -10.637   9.450  69.644  1.00  0.00    -0.225 A  
HETATM   17  C   UNL     1     -10.412   8.043  71.625  1.00  0.00    -0.272 A  
HETATM   18  C   UNL     1     -11.191   8.587  70.599  1.00  0.00    -0.278 A  
HETATM   19  C   UNL     1      -9.045   8.326  71.681  1.00  0.00    -0.185 A  
HETATM   20  C   UNL     1      -9.258   9.716  69.712  1.00  0.00    -0.237 A  
HETATM   21  C   UNL     1      -8.463   9.165  70.727  1.00  0.00    -0.256 A  
BRANCH  19  22
HETATM   22  S   UNL     1      -8.099   7.767  73.089  1.00  0.00    -0.152 S  
HETATM   23  O   UNL     1      -8.991   7.006  73.934  1.00  0.00    -0.156 OA 
HETATM   24  O   UNL     1      -7.402   8.930  73.606  1.00  0.00    -0.374 OA 
BRANCH  22  25
HETATM   25  N   UNL     1      -6.908   6.777  72.421  1.00  0.00    -0.063 N  
HETATM   26  H   UNL     1      -5.937   6.818  72.726  1.00  0.00     0.000 HD 
BRANCH  25  27
HETATM   27  C   UNL     1      -7.339   5.888  71.415  1.00  0.00    -0.084 A  
HETATM   28  N   UNL     1      -8.152   4.919  71.866  1.00  0.00    -0.111 NA 
HETATM   29  C   UNL     1      -8.660   4.086  70.931  1.00  0.00    -0.075 A  
HETATM   30  C   UNL     1      -8.366   4.169  69.579  1.00  0.00    -0.074 A  
HETATM   31  C   UNL     1      -7.494   5.167  69.155  1.00  0.00    -0.065 A  
HETATM   32  C   UNL     1      -6.966   6.052  70.092  1.00  0.00    -0.069 A  
ENDBRANCH  25  27
ENDBRANCH  22  25
ENDBRANCH  19  22
ENDBRANCH  14  16
ENDBRANCH  12  14
ENDBRANCH   6  12
TORSDOF 6
ENDMDL
MODEL      134
REMARK 921   NORMALIZED FREE ENERGY PREDICTED BY IDOCK:   -5.83 KCAL/MOL
REMARK 922        TOTAL FREE ENERGY PREDICTED BY IDOCK:   -8.39 KCAL/MOL
REMARK 923 INTER-LIGAND FREE ENERGY PREDICTED BY IDOCK:   -7.51 KCAL/MOL
REMARK 924 INTRA-LIGAND FREE ENERGY PREDICTED BY IDOCK:   -0.88 KCAL/MOL
REMARK 927      BINDING AFFINITY PREDICTED BY RF-SCORE:    0.00 PKD
ROOT
HETATM    1  O   UNL     1     -11.277   5.938  69.615  1.00  0.00    -0.395 OA 
HETATM    2  C   UNL     1     -10.690   7.129  69.864  1.00  0.00    -0.239 C  
HETATM    3  C   UNL     1     -10.053   7.762  68.679  1.00  0.00    -0.211 A  
HETATM    4  O   UNL     1     -10.635   7.620  70.980  1.00  0.00    -0.215 OA 
HETATM    5  C   UNL     1      -8.987   8.651  68.909  1.00  0.00    -0.142 A  
HETATM    6  C   UNL     1      -8.359   9.317  67.845  1.00  0.00    -0.116 A  
HETATM    7  C   UNL     1      -8.816   9.063  66.544  1.00  0.00    -0.158 A  
HETATM    8  O   UNL     1     -11.519   6.665  67.129  1.00  0.00    -0.779 OA 
HETATM    9  C   UNL     1     -10.490   7.538  67.369  1.00  0.00    -0.297 A  
HETATM   10  H   UNL     1     -11.816   6.513  66.240  1.00  0.00     0.000 HD 
HETATM   11  C   UNL     1      -9.877   8.184  66.300  1.00  0.00    -0.193 A  
ENDROOT
BRANCH   6  12
HETATM   12  N   UNL     1      -7.290  10.231  67.984  1.00  0.00    -0.085 NA 
HETATM   13  H   UNL     1      -6.442  10.194  67.418  1.00  0.00     0.000 HD 
BRANCH  12  14
HETATM   14  N   UNL     1      -7.488  11.089  68.870  1.00  0.00    -0.114 NA 
HETATM   15  H   UNL     1      -7.124  11.017  69.820  1.00  0.00     0.000 HD 
BRANCH  14  16
HETATM   16  C   UNL     1      -8.273  12.169  68.409  1.00  0.00    -0.145 A  
HETATM   17  C   UNL     1      -8.301  14.350  67.314  1.00  0.00    -0.228 A  
HETATM   18  C   UNL     1      -7.610  13.216  67.753  1.00  0.00    -0.155 A  
HETATM   19  C   UNL     1      -9.685  14.430  67.490  1.00  0.00    -0.215 A  
HETATM   20  C   UNL     1      -9.666  12.264  68.570  1.00  0.00    -0.142 A  
HETATM   21  C   UNL     1     -10.372  13.389  68.121  1.00  0.00    -0.249 A  
BRANCH  19  22
HETATM   22  S   UNL     1     -10.526  15.951  67.082  1.00  0.00    -0.315 S  
HETATM   23  O   UNL     1      -9.590  17.032  67.295  1.00  0.00    -0.237 OA 
HETATM   24  O   UNL     1     -11.795  15.922  67.783  1.00  0.00    -0.046 OA 
BRANCH  22  25
HETATM   25  N   UNL     1     -10.900  15.791  65.445  1.00  0.00    -0.370 N  
HETATM   26  H   UNL     1     -10.893  16.587  64.808  1.00  0.00     0.000 HD 
BRANCH  25  27
HETATM   27  C   UNL     1     -11.222  14.489  65.011  1.00  0.00    -0.382 A  
HETATM   28  N   UNL     1     -10.184  13.830  64.471  1.00  0.00    -0.335 NA 
HETATM   29  C   UNL     1     -10.416  12.547  64.112  1.00  0.00    -0.403 A  
HETATM   30  C   UNL     1     -11.643  11.916  64.246  1.00  0.00    -0.405 A  
HETATM   31  C   UNL     1     -12.703  12.643  64.779  1.00  0.00    -0.460 A  
HETATM   32  C   UNL     1     -12.492  13.962  65.175  1.00  0.00    -0.479 A  
ENDBRANCH  25  27
ENDBRANCH  22  25
ENDBRANCH  19  22
ENDBRANCH  14  16
ENDBRANCH  12  14
ENDBRANCH   6  12
TORSDOF 6
ENDMDL
MODEL      135
REMARK 921   NORMALIZED FREE ENERGY PREDICTED BY IDOCK:   -5.82 KCAL/MOL
REMARK 922        TOTAL FREE ENERGY PREDICTED BY IDOCK:   -8.38 KCAL/MOL
REMARK 923 INTER-LIGAND FREE ENERGY PREDICTED BY IDOCK:   -7.99 KCAL/MOL
REMARK 924 INTRA-LIGAND FREE ENERGY PREDICTED BY IDOCK:   -0.39 KCAL/MOL
REMARK 927      BINDING AFFINITY PREDICTED BY RF-SCORE:    0.00 PKD
ROOT
HETATM    1  O   UNL     1      -7.248   3.717  70.169  1.00  0.00    -0.041 OA 
HETATM    2  C   UNL     1      -7.281   4.770  69.322  1.00  0.00    -0.052 C  
HETATM    3  C   UNL     1      -8.636   5.340  69.099  1.00  0.00    -0.102 A  
HETATM    4  O   UNL     1      -6.290   5.184  68.743  1.00  0.00    -0.032 OA 
HETATM    5  C   UNL     1      -8.868   6.010  67.883  1.00  0.00    -0.110 A  
HETATM    6  C   UNL     1     -10.109   6.608  67.614  1.00  0.00    -0.155 A  
HETATM    7  C   UNL     1     -11.116   6.507  68.585  1.00  0.00    -0.348 A  
HETATM    8  O   UNL     1      -9.451   4.604  71.231  1.00  0.00    -0.141 OA 
HETATM    9  C   UNL     1      -9.660   5.265  70.049  1.00  0.00    -0.174 A  
HETATM   10  H   UNL     1     -10.146   4.553  71.877  1.00  0.00     0.000 HD 
HETATM   11  C   UNL     1     -10.899   5.846  69.798  1.00  0.00    -0.447 A  
ENDROOT
BRANCH   6  12
HETATM   12  N   UNL     1     -10.426   7.307  66.428  1.00  0.00    -0.447 NA 
HETATM   13  H   UNL     1     -11.301   7.181  65.918  1.00  0.00     0.000 HD 
BRANCH  12  14
HETATM   14  N   UNL     1      -9.528   8.096  66.067  1.00  0.00    -0.410 NA 
HETATM   15  H   UNL     1      -8.564   7.814  65.889  1.00  0.00     0.000 HD 
BRANCH  14  16
HETATM   16  C   UNL     1      -9.996   9.422  65.932  1.00  0.00    -0.256 A  
HETATM   17  C   UNL     1     -11.148  11.297  66.987  1.00  0.00    -0.356 A  
HETATM   18  C   UNL     1     -10.607  10.009  67.048  1.00  0.00    -0.279 A  
HETATM   19  C   UNL     1     -11.042  12.037  65.806  1.00  0.00    -0.324 A  
HETATM   20  C   UNL     1      -9.892  10.185  64.755  1.00  0.00    -0.382 A  
HETATM   21  C   UNL     1     -10.417  11.483  64.686  1.00  0.00    -0.356 A  
BRANCH  19  22
HETATM   22  S   UNL     1     -11.885  13.606  65.687  1.00  0.00    -0.387 S  
HETATM   23  O   UNL     1     -13.116  13.382  64.963  1.00  0.00    -0.734 OA 
HETATM   24  O   UNL     1     -10.908  14.564  65.204  1.00  0.00    -0.345 OA 
BRANCH  22  25
HETATM   25  N   UNL     1     -12.195  14.033  67.289  1.00  0.00    -0.539 N  
HETATM   26  H   UNL     1     -13.045  13.743  67.770  1.00  0.00     0.000 HD 
BRANCH  25  27
HETATM   27  C   UNL     1     -11.207  14.814  67.920  1.00  0.00    -0.306 A  
HETATM   28  N   UNL     1     -10.098  14.126  68.237  1.00  0.00    -0.234 NA 
HETATM   29  C   UNL     1      -9.085  14.843  68.772  1.00  0.00    -0.189 A  
HETATM   30  C   UNL     1      -9.150  16.205  69.024  1.00  0.00    -0.250 A  
HETATM   31  C   UNL     1     -10.327  16.876  68.712  1.00  0.00    -0.324 A  
HETATM   32  C   UNL     1     -11.384  16.169  68.144  1.00  0.00    -0.270 A  
ENDBRANCH  25  27
ENDBRANCH  22  25
ENDBRANCH  19  22
ENDBRANCH  14  16
ENDBRANCH  12  14
ENDBRANCH   6  12
TORSDOF 6
ENDMDL
MODEL      136
REMARK 921   NORMALIZED FREE ENERGY PREDICTED BY IDOCK:   -5.82 KCAL/MOL
REMARK 922        TOTAL FREE ENERGY PREDICTED BY IDOCK:   -8.38 KCAL/MOL
REMARK 923 INTER-LIGAND FREE ENERGY PREDICTED BY IDOCK:   -7.18 KCAL/MOL
REMARK 924 INTRA-LIGAND FREE ENERGY PREDICTED BY IDOCK:   -1.20 KCAL/MOL
REMARK 927      BINDING AFFINITY PREDICTED BY RF-SCORE:    0.00 PKD
ROOT
HETATM    1  O   UNL     1     -12.628  12.538  65.554  1.00  0.00    -0.642 OA 
HETATM    2  C   UNL     1     -11.323  12.485  65.209  1.00  0.00    -0.324 C  
HETATM    3  C   UNL     1     -10.390  12.290  66.352  1.00  0.00    -0.250 A  
HETATM    4  O   UNL     1     -10.934  12.641  64.063  1.00  0.00    -0.349 OA 
HETATM    5  C   UNL     1      -9.075  12.767  66.207  1.00  0.00    -0.033 A  
HETATM    6  C   UNL     1      -8.125  12.588  67.225  1.00  0.00    -0.179 A  
HETATM    7  C   UNL     1      -8.529  11.931  68.396  1.00  0.00    -0.155 A  
HETATM    8  O   UNL     1     -12.039  11.173  67.689  1.00  0.00    -0.541 OA 
HETATM    9  C   UNL     1     -10.757  11.632  67.530  1.00  0.00    -0.215 A  
HETATM   10  H   UNL     1     -12.288  10.725  68.489  1.00  0.00     0.000 HD 
HETATM   11  C   UNL     1      -9.832  11.449  68.554  1.00  0.00    -0.200 A  
ENDROOT
BRANCH   6  12
HETATM   12  N   UNL     1      -6.783  13.025  67.162  1.00  0.00    -0.439 NA 
HETATM   13  H   UNL     1      -6.184  12.886  66.347  1.00  0.00     0.000 HD 
BRANCH  12  14
HETATM   14  N   UNL     1      -6.403  13.598  68.204  1.00  0.00    -0.107 NA 
HETATM   15  H   UNL     1      -6.009  13.110  69.008  1.00  0.00     0.000 HD 
BRANCH  14  16
HETATM   16  C   UNL     1      -6.580  14.999  68.145  1.00  0.00    -0.127 A  
HETATM   17  C   UNL     1      -7.099  17.043  69.373  1.00  0.00    -0.113 A  
HETATM   18  C   UNL     1      -6.856  15.666  69.347  1.00  0.00    -0.186 A  
HETATM   19  C   UNL     1      -7.025  17.782  68.189  1.00  0.00    -0.212 A  
HETATM   20  C   UNL     1      -6.502  15.760  66.966  1.00  0.00     0.102 A  
HETATM   21  C   UNL     1      -6.729  17.143  66.982  1.00  0.00    -0.227 A  
BRANCH  19  22
HETATM   22  S   UNL     1      -7.505  19.502  68.207  1.00  0.00    -0.324 S  
HETATM   23  O   UNL     1      -7.166  20.058  66.918  1.00  0.00    -0.222 OA 
HETATM   24  O   UNL     1      -6.959  20.070  69.425  1.00  0.00    -0.291 OA 
BRANCH  22  25
HETATM   25  N   UNL     1      -9.177  19.462  68.427  1.00  0.00    -0.347 N  
HETATM   26  H   UNL     1      -9.680  20.223  68.883  1.00  0.00     0.000 HD 
BRANCH  25  27
HETATM   27  C   UNL     1      -9.835  18.315  67.942  1.00  0.00    -0.317 A  
HETATM   28  N   UNL     1      -9.822  18.213  66.604  1.00  0.00    -0.332 NA 
HETATM   29  C   UNL     1     -10.369  17.089  66.087  1.00  0.00    -0.319 A  
HETATM   30  C   UNL     1     -10.946  16.088  66.852  1.00  0.00    -0.124 A  
HETATM   31  C   UNL     1     -10.969  16.245  68.234  1.00  0.00    -0.348 A  
HETATM   32  C   UNL     1     -10.400  17.384  68.798  1.00  0.00    -0.357 A  
ENDBRANCH  25  27
ENDBRANCH  22  25
ENDBRANCH  19  22
ENDBRANCH  14  16
ENDBRANCH  12  14
ENDBRANCH   6  12
TORSDOF 6
ENDMDL
MODEL      137
REMARK 921   NORMALIZED FREE ENERGY PREDICTED BY IDOCK:   -5.82 KCAL/MOL
REMARK 922        TOTAL FREE ENERGY PREDICTED BY IDOCK:   -8.38 KCAL/MOL
REMARK 923 INTER-LIGAND FREE ENERGY PREDICTED BY IDOCK:   -7.25 KCAL/MOL
REMARK 924 INTRA-LIGAND FREE ENERGY PREDICTED BY IDOCK:   -1.14 KCAL/MOL
REMARK 927      BINDING AFFINITY PREDICTED BY RF-SCORE:    0.00 PKD
ROOT
HETATM    1  O   UNL     1     -11.100  15.034  66.071  1.00  0.00    -0.334 OA 
HETATM    2  C   UNL     1     -11.300  14.591  67.331  1.00  0.00    -0.356 C  
HETATM    3  C   UNL     1     -11.186  13.117  67.492  1.00  0.00    -0.314 A  
HETATM    4  O   UNL     1     -11.607  15.330  68.253  1.00  0.00    -0.333 OA 
HETATM    5  C   UNL     1     -11.894  12.520  68.551  1.00  0.00    -0.341 A  
HETATM    6  C   UNL     1     -11.806  11.140  68.792  1.00  0.00    -0.320 A  
HETATM    7  C   UNL     1     -11.003  10.370  67.938  1.00  0.00    -0.354 A  
HETATM    8  O   UNL     1      -9.702  12.887  65.622  1.00  0.00    -0.407 OA 
HETATM    9  C   UNL     1     -10.387  12.320  66.664  1.00  0.00    -0.215 A  
HETATM   10  H   UNL     1      -9.158  12.347  65.060  1.00  0.00     0.000 HD 
HETATM   11  C   UNL     1     -10.291  10.949  66.883  1.00  0.00    -0.285 A  
ENDROOT
BRANCH   6  12
HETATM   12  N   UNL     1     -12.474  10.459  69.835  1.00  0.00    -0.543 NA 
HETATM   13  H   UNL     1     -13.414  10.074  69.743  1.00  0.00     0.000 HD 
BRANCH  12  14
HETATM   14  N   UNL     1     -11.796  10.376  70.880  1.00  0.00    -0.359 NA 
HETATM   15  H   UNL     1     -11.673  11.145  71.539  1.00  0.00     0.000 HD 
BRANCH  14  16
HETATM   16  C   UNL     1     -11.218   9.098  71.049  1.00  0.00    -0.312 A  
HETATM   17  C   UNL     1      -9.204   7.821  71.569  1.00  0.00    -0.164 A  
HETATM   18  C   UNL     1      -9.871   9.043  71.432  1.00  0.00    -0.381 A  
HETATM   19  C   UNL     1      -9.899   6.626  71.364  1.00  0.00    -0.179 A  
HETATM   20  C   UNL     1     -11.903   7.885  70.855  1.00  0.00    -0.242 A  
HETATM   21  C   UNL     1     -11.249   6.654  71.004  1.00  0.00    -0.349 A  
BRANCH  19  22
HETATM   22  S   UNL     1      -8.998   5.085  71.372  1.00  0.00    -0.137 S  
HETATM   23  O   UNL     1      -9.964   4.019  71.239  1.00  0.00    -0.185 OA 
HETATM   24  O   UNL     1      -8.105   5.135  72.514  1.00  0.00    -0.107 OA 
BRANCH  22  25
HETATM   25  N   UNL     1      -8.008   5.176  70.010  1.00  0.00    -0.081 N  
HETATM   26  H   UNL     1      -6.993   5.101  70.072  1.00  0.00     0.000 HD 
BRANCH  25  27
HETATM   27  C   UNL     1      -8.670   5.363  68.780  1.00  0.00    -0.097 A  
HETATM   28  N   UNL     1      -9.173   4.231  68.263  1.00  0.00    -0.132 NA 
HETATM   29  C   UNL     1      -9.889   4.364  67.123  1.00  0.00    -0.178 A  
HETATM   30  C   UNL     1     -10.092   5.573  66.474  1.00  0.00    -0.241 A  
HETATM   31  C   UNL     1      -9.526   6.718  67.024  1.00  0.00    -0.175 A  
HETATM   32  C   UNL     1      -8.797   6.617  68.206  1.00  0.00    -0.124 A  
ENDBRANCH  25  27
ENDBRANCH  22  25
ENDBRANCH  19  22
ENDBRANCH  14  16
ENDBRANCH  12  14
ENDBRANCH   6  12
TORSDOF 6
ENDMDL
MODEL      138
REMARK 921   NORMALIZED FREE ENERGY PREDICTED BY IDOCK:   -5.81 KCAL/MOL
REMARK 922        TOTAL FREE ENERGY PREDICTED BY IDOCK:   -8.37 KCAL/MOL
REMARK 923 INTER-LIGAND FREE ENERGY PREDICTED BY IDOCK:   -7.71 KCAL/MOL
REMARK 924 INTRA-LIGAND FREE ENERGY PREDICTED BY IDOCK:   -0.65 KCAL/MOL
REMARK 927      BINDING AFFINITY PREDICTED BY RF-SCORE:    0.00 PKD
ROOT
HETATM    1  O   UNL     1     -12.776  13.410  63.153  1.00  0.00    -0.663 OA 
HETATM    2  C   UNL     1     -11.996  12.539  63.830  1.00  0.00    -0.517 C  
HETATM    3  C   UNL     1     -11.602  12.992  65.191  1.00  0.00    -0.357 A  
HETATM    4  O   UNL     1     -11.599  11.491  63.345  1.00  0.00    -0.363 OA 
HETATM    5  C   UNL     1     -10.407  12.479  65.726  1.00  0.00    -0.288 A  
HETATM    6  C   UNL     1      -9.986  12.829  67.019  1.00  0.00    -0.231 A  
HETATM    7  C   UNL     1     -10.786  13.714  67.757  1.00  0.00    -0.255 A  
HETATM    8  O   UNL     1     -13.541  14.382  65.442  1.00  0.00    -0.526 OA 
HETATM    9  C   UNL     1     -12.380  13.866  65.957  1.00  0.00    -0.475 A  
HETATM   10  H   UNL     1     -14.069  14.975  65.963  1.00  0.00     0.000 HD 
HETATM   11  C   UNL     1     -11.978  14.230  67.239  1.00  0.00    -0.439 A  
ENDROOT
BRANCH   6  12
HETATM   12  N   UNL     1      -8.808  12.357  67.640  1.00  0.00    -0.168 NA 
HETATM   13  H   UNL     1      -7.941  12.172  67.133  1.00  0.00     0.000 HD 
BRANCH  12  14
HETATM   14  N   UNL     1      -8.934  12.188  68.871  1.00  0.00    -0.373 NA 
HETATM   15  H   UNL     1      -8.797  12.926  69.561  1.00  0.00     0.000 HD 
BRANCH  14  16
HETATM   16  C   UNL     1      -9.288  10.861  69.200  1.00  0.00    -0.078 A  
HETATM   17  C   UNL     1     -11.028   9.355  70.014  1.00  0.00    -0.267 A  
HETATM   18  C   UNL     1     -10.606  10.628  69.616  1.00  0.00    -0.260 A  
HETATM   19  C   UNL     1     -10.137   8.281  69.958  1.00  0.00    -0.196 A  
HETATM   20  C   UNL     1      -8.408   9.766  69.143  1.00  0.00    -0.137 A  
HETATM   21  C   UNL     1      -8.823   8.483  69.525  1.00  0.00    -0.141 A  
BRANCH  19  22
HETATM   22  S   UNL     1     -10.634   6.703  70.629  1.00  0.00    -0.238 S  
HETATM   23  O   UNL     1     -11.433   6.039  69.624  1.00  0.00    -0.394 OA 
HETATM   24  O   UNL     1     -11.176   6.968  71.948  1.00  0.00    -0.237 OA 
BRANCH  22  25
HETATM   25  N   UNL     1      -9.182   5.884  70.883  1.00  0.00    -0.152 N  
HETATM   26  H   UNL     1      -8.285   6.369  70.906  1.00  0.00     0.000 HD 
BRANCH  25  27
HETATM   27  C   UNL     1      -9.284   4.490  71.062  1.00  0.00    -0.140 A  
HETATM   28  N   UNL     1      -9.460   4.124  72.342  1.00  0.00    -0.125 NA 
HETATM   29  C   UNL     1      -9.645   2.803  72.563  1.00  0.00    -0.116 A  
HETATM   30  C   UNL     1      -9.633   1.843  71.563  1.00  0.00    -0.207 A  
HETATM   31  C   UNL     1      -9.415   2.258  70.253  1.00  0.00    -0.148 A  
HETATM   32  C   UNL     1      -9.237   3.615  69.991  1.00  0.00    -0.223 A  
ENDBRANCH  25  27
ENDBRANCH  22  25
ENDBRANCH  19  22
ENDBRANCH  14  16
ENDBRANCH  12  14
ENDBRANCH   6  12
TORSDOF 6
ENDMDL
MODEL      139
REMARK 921   NORMALIZED FREE ENERGY PREDICTED BY IDOCK:   -5.80 KCAL/MOL
REMARK 922        TOTAL FREE ENERGY PREDICTED BY IDOCK:   -8.36 KCAL/MOL
REMARK 923 INTER-LIGAND FREE ENERGY PREDICTED BY IDOCK:   -7.83 KCAL/MOL
REMARK 924 INTRA-LIGAND FREE ENERGY PREDICTED BY IDOCK:   -0.53 KCAL/MOL
REMARK 927      BINDING AFFINITY PREDICTED BY RF-SCORE:    0.00 PKD
ROOT
HETATM    1  O   UNL     1     -10.081   4.315  67.796  1.00  0.00    -0.060 OA 
HETATM    2  C   UNL     1     -10.046   5.665  67.820  1.00  0.00    -0.171 C  
HETATM    3  C   UNL     1     -10.369   6.267  69.141  1.00  0.00    -0.262 A  
HETATM    4  O   UNL     1      -9.823   6.339  66.828  1.00  0.00    -0.153 OA 
HETATM    5  C   UNL     1     -10.898   7.570  69.151  1.00  0.00    -0.105 A  
HETATM    6  C   UNL     1     -11.193   8.221  70.359  1.00  0.00    -0.219 A  
HETATM    7  C   UNL     1     -10.957   7.530  71.557  1.00  0.00    -0.256 A  
HETATM    8  O   UNL     1      -9.635   4.335  70.359  1.00  0.00    -0.161 OA 
HETATM    9  C   UNL     1     -10.138   5.609  70.354  1.00  0.00    -0.219 A  
HETATM   10  H   UNL     1      -9.478   3.888  71.183  1.00  0.00     0.000 HD 
HETATM   11  C   UNL     1     -10.429   6.235  71.563  1.00  0.00    -0.266 A  
ENDROOT
BRANCH   6  12
HETATM   12  N   UNL     1     -11.717   9.530  70.463  1.00  0.00    -0.371 NA 
HETATM   13  H   UNL     1     -11.874  10.003  71.353  1.00  0.00     0.000 HD 
BRANCH  12  14
HETATM   14  N   UNL     1     -11.967  10.048  69.355  1.00  0.00    -0.469 NA 
HETATM   15  H   UNL     1     -12.330   9.529  68.555  1.00  0.00     0.000 HD 
BRANCH  14  16
HETATM   16  C   UNL     1     -11.694  11.434  69.333  1.00  0.00    -0.338 A  
HETATM   17  C   UNL     1     -10.438  13.250  68.293  1.00  0.00    -0.257 A  
HETATM   18  C   UNL     1     -10.808  11.903  68.353  1.00  0.00    -0.263 A  
HETATM   19  C   UNL     1     -10.991  14.161  69.197  1.00  0.00    -0.251 A  
HETATM   20  C   UNL     1     -12.245  12.367  70.229  1.00  0.00    -0.345 A  
HETATM   21  C   UNL     1     -11.894  13.723  70.169  1.00  0.00    -0.360 A  
BRANCH  19  22
HETATM   22  S   UNL     1     -10.382  15.839  69.220  1.00  0.00    -0.266 S  
HETATM   23  O   UNL     1      -8.938  15.775  69.183  1.00  0.00    -0.224 OA 
HETATM   24  O   UNL     1     -11.065  16.511  70.310  1.00  0.00    -0.348 OA 
BRANCH  22  25
HETATM   25  N   UNL     1     -10.993  16.521  67.804  1.00  0.00    -0.298 N  
HETATM   26  H   UNL     1     -11.772  16.105  67.296  1.00  0.00     0.000 HD 
BRANCH  25  27
HETATM   27  C   UNL     1     -10.359  17.702  67.366  1.00  0.00    -0.360 A  
HETATM   28  N   UNL     1      -9.267  17.480  66.618  1.00  0.00    -0.255 NA 
HETATM   29  C   UNL     1      -8.665  18.576  66.104  1.00  0.00    -0.118 A  
HETATM   30  C   UNL     1      -9.097  19.874  66.331  1.00  0.00    -0.450 A  
HETATM   31  C   UNL     1     -10.214  20.064  67.138  1.00  0.00    -0.580 A  
HETATM   32  C   UNL     1     -10.866  18.954  67.670  1.00  0.00    -0.407 A  
ENDBRANCH  25  27
ENDBRANCH  22  25
ENDBRANCH  19  22
ENDBRANCH  14  16
ENDBRANCH  12  14
ENDBRANCH   6  12
TORSDOF 6
ENDMDL
MODEL      140
REMARK 921   NORMALIZED FREE ENERGY PREDICTED BY IDOCK:   -5.80 KCAL/MOL
REMARK 922        TOTAL FREE ENERGY PREDICTED BY IDOCK:   -8.36 KCAL/MOL
REMARK 923 INTER-LIGAND FREE ENERGY PREDICTED BY IDOCK:   -7.76 KCAL/MOL
REMARK 924 INTRA-LIGAND FREE ENERGY PREDICTED BY IDOCK:   -0.60 KCAL/MOL
REMARK 927      BINDING AFFINITY PREDICTED BY RF-SCORE:    0.00 PKD
ROOT
HETATM    1  O   UNL     1      -8.398   3.439  64.730  1.00  0.00    -0.090 OA 
HETATM    2  C   UNL     1      -7.895   4.646  65.069  1.00  0.00    -0.094 C  
HETATM    3  C   UNL     1      -8.862   5.548  65.750  1.00  0.00    -0.154 A  
HETATM    4  O   UNL     1      -6.759   4.992  64.790  1.00  0.00    -0.045 OA 
HETATM    5  C   UNL     1      -8.651   6.934  65.636  1.00  0.00    -0.119 A  
HETATM    6  C   UNL     1      -9.497   7.850  66.281  1.00  0.00    -0.151 A  
HETATM    7  C   UNL     1     -10.568   7.343  67.032  1.00  0.00    -0.414 A  
HETATM    8  O   UNL     1     -10.160   3.729  66.622  1.00  0.00    -0.370 OA 
HETATM    9  C   UNL     1      -9.935   5.077  66.513  1.00  0.00    -0.224 A  
HETATM   10  H   UNL     1     -10.889   3.409  67.141  1.00  0.00     0.000 HD 
HETATM   11  C   UNL     1     -10.790   5.968  67.156  1.00  0.00    -0.414 A  
ENDROOT
BRANCH   6  12
HETATM   12  N   UNL     1      -9.354   9.255  66.230  1.00  0.00    -0.182 NA 
HETATM   13  H   UNL     1      -8.453   9.725  66.156  1.00  0.00     0.000 HD 
BRANCH  12  14
HETATM   14  N   UNL     1     -10.445   9.862  66.285  1.00  0.00    -0.154 NA 
HETATM   15  H   UNL     1     -11.331   9.463  65.976  1.00  0.00     0.000 HD 
BRANCH  14  16
HETATM   16  C   UNL     1     -10.313  11.161  66.822  1.00  0.00    -0.241 A  
HETATM   17  C   UNL     1     -11.438  13.073  67.841  1.00  0.00    -0.352 A  
HETATM   18  C   UNL     1     -11.466  11.767  67.340  1.00  0.00    -0.375 A  
HETATM   19  C   UNL     1     -10.232  13.778  67.870  1.00  0.00    -0.245 A  
HETATM   20  C   UNL     1      -9.107  11.883  66.867  1.00  0.00    -0.196 A  
HETATM   21  C   UNL     1      -9.063  13.187  67.381  1.00  0.00    -0.208 A  
BRANCH  19  22
HETATM   22  S   UNL     1     -10.243  15.497  68.350  1.00  0.00    -0.218 S  
HETATM   23  O   UNL     1      -9.536  15.599  69.606  1.00  0.00    -0.277 OA 
HETATM   24  O   UNL     1     -11.616  15.950  68.235  1.00  0.00    -0.355 OA 
BRANCH  22  25
HETATM   25  N   UNL     1      -9.396  16.277  67.117  1.00  0.00    -0.219 N  
HETATM   26  H   UNL     1      -8.806  15.767  66.460  1.00  0.00     0.000 HD 
BRANCH  25  27
HETATM   27  C   UNL     1      -9.556  17.675  67.049  1.00  0.00    -0.276 A  
HETATM   28  N   UNL     1     -10.191  18.091  65.941  1.00  0.00    -0.588 NA 
HETATM   29  C   UNL     1     -10.444  19.417  65.863  1.00  0.00    -0.472 A  
HETATM   30  C   UNL     1     -10.063  20.336  66.829  1.00  0.00    -0.556 A  
HETATM   31  C   UNL     1      -9.377  19.870  67.946  1.00  0.00    -0.448 A  
HETATM   32  C   UNL     1      -9.117  18.507  68.065  1.00  0.00    -0.319 A  
ENDBRANCH  25  27
ENDBRANCH  22  25
ENDBRANCH  19  22
ENDBRANCH  14  16
ENDBRANCH  12  14
ENDBRANCH   6  12
TORSDOF 6
ENDMDL
MODEL      141
REMARK 921   NORMALIZED FREE ENERGY PREDICTED BY IDOCK:   -5.80 KCAL/MOL
REMARK 922        TOTAL FREE ENERGY PREDICTED BY IDOCK:   -8.36 KCAL/MOL
REMARK 923 INTER-LIGAND FREE ENERGY PREDICTED BY IDOCK:   -7.50 KCAL/MOL
REMARK 924 INTRA-LIGAND FREE ENERGY PREDICTED BY IDOCK:   -0.85 KCAL/MOL
REMARK 927      BINDING AFFINITY PREDICTED BY RF-SCORE:    0.00 PKD
ROOT
HETATM    1  O   UNL     1     -12.628  13.986  63.159  1.00  0.00    -0.733 OA 
HETATM    2  C   UNL     1     -12.405  12.707  63.532  1.00  0.00    -0.496 C  
HETATM    3  C   UNL     1     -11.267  12.529  64.474  1.00  0.00    -0.370 A  
HETATM    4  O   UNL     1     -13.044  11.766  63.089  1.00  0.00    -0.568 OA 
HETATM    5  C   UNL     1     -10.614  11.283  64.477  1.00  0.00    -0.401 A  
HETATM    6  C   UNL     1      -9.557  11.024  65.364  1.00  0.00    -0.225 A  
HETATM    7  C   UNL     1      -9.161  12.048  66.237  1.00  0.00    -0.208 A  
HETATM    8  O   UNL     1     -11.472  14.748  65.361  1.00  0.00    -0.342 OA 
HETATM    9  C   UNL     1     -10.853  13.525  65.363  1.00  0.00    -0.294 A  
HETATM   10  H   UNL     1     -11.191  15.424  65.966  1.00  0.00     0.000 HD 
HETATM   11  C   UNL     1      -9.803  13.291  66.246  1.00  0.00    -0.288 A  
ENDROOT
BRANCH   6  12
HETATM   12  N   UNL     1      -8.852   9.802  65.443  1.00  0.00    -0.157 NA 
HETATM   13  H   UNL     1      -7.843   9.726  65.314  1.00  0.00     0.000 HD 
BRANCH  12  14
HETATM   14  N   UNL     1      -9.589   8.824  65.688  1.00  0.00    -0.458 NA 
HETATM   15  H   UNL     1     -10.115   8.319  64.975  1.00  0.00     0.000 HD 
BRANCH  14  16
HETATM   16  C   UNL     1      -9.612   8.496  67.062  1.00  0.00    -0.188 A  
HETATM   17  C   UNL     1     -10.851   7.461  68.892  1.00  0.00    -0.088 A  
HETATM   18  C   UNL     1     -10.720   7.780  67.537  1.00  0.00    -0.265 A  
HETATM   19  C   UNL     1      -9.843   7.821  69.790  1.00  0.00    -0.178 A  
HETATM   20  C   UNL     1      -8.604   8.843  67.978  1.00  0.00    -0.130 A  
HETATM   21  C   UNL     1      -8.717   8.515  69.337  1.00  0.00    -0.136 A  
BRANCH  19  22
HETATM   22  S   UNL     1     -10.102   7.562  71.537  1.00  0.00    -0.180 S  
HETATM   23  O   UNL     1     -10.792   8.724  72.049  1.00  0.00    -0.332 OA 
HETATM   24  O   UNL     1      -8.823   7.159  72.089  1.00  0.00    -0.128 OA 
BRANCH  22  25
HETATM   25  N   UNL     1     -11.087   6.195  71.611  1.00  0.00    -0.267 N  
HETATM   26  H   UNL     1     -12.104   6.260  71.598  1.00  0.00     0.000 HD 
BRANCH  25  27
HETATM   27  C   UNL     1     -10.417   4.957  71.692  1.00  0.00    -0.126 A  
HETATM   28  N   UNL     1     -10.362   4.456  72.936  1.00  0.00    -0.171 NA 
HETATM   29  C   UNL     1      -9.802   3.231  73.060  1.00  0.00    -0.132 A  
HETATM   30  C   UNL     1      -9.276   2.511  71.999  1.00  0.00    -0.151 A  
HETATM   31  C   UNL     1      -9.323   3.079  70.730  1.00  0.00    -0.223 A  
HETATM   32  C   UNL     1      -9.908   4.332  70.567  1.00  0.00    -0.269 A  
ENDBRANCH  25  27
ENDBRANCH  22  25
ENDBRANCH  19  22
ENDBRANCH  14  16
ENDBRANCH  12  14
ENDBRANCH   6  12
TORSDOF 6
ENDMDL
MODEL      142
REMARK 921   NORMALIZED FREE ENERGY PREDICTED BY IDOCK:   -5.79 KCAL/MOL
REMARK 922        TOTAL FREE ENERGY PREDICTED BY IDOCK:   -8.35 KCAL/MOL
REMARK 923 INTER-LIGAND FREE ENERGY PREDICTED BY IDOCK:   -7.64 KCAL/MOL
REMARK 924 INTRA-LIGAND FREE ENERGY PREDICTED BY IDOCK:   -0.71 KCAL/MOL
REMARK 927      BINDING AFFINITY PREDICTED BY RF-SCORE:    0.00 PKD
ROOT
HETATM    1  O   UNL     1     -11.742   5.624  72.790  1.00  0.00    -0.283 OA 
HETATM    2  C   UNL     1     -11.638   6.665  71.936  1.00  0.00    -0.303 C  
HETATM    3  C   UNL     1     -10.399   6.664  71.112  1.00  0.00    -0.232 A  
HETATM    4  O   UNL     1     -12.462   7.563  71.882  1.00  0.00    -0.306 OA 
HETATM    5  C   UNL     1      -9.930   7.905  70.643  1.00  0.00    -0.188 A  
HETATM    6  C   UNL     1      -8.789   7.984  69.828  1.00  0.00    -0.144 A  
HETATM    7  C   UNL     1      -8.123   6.792  69.506  1.00  0.00    -0.126 A  
HETATM    8  O   UNL     1     -10.155   4.281  71.226  1.00  0.00    -0.177 OA 
HETATM    9  C   UNL     1      -9.716   5.494  70.765  1.00  0.00    -0.177 A  
HETATM   10  H   UNL     1      -9.692   3.486  70.990  1.00  0.00     0.000 HD 
HETATM   11  C   UNL     1      -8.580   5.552  69.963  1.00  0.00    -0.120 A  
ENDROOT
BRANCH   6  12
HETATM   12  N   UNL     1      -8.253   9.182  69.305  1.00  0.00    -0.114 NA 
HETATM   13  H   UNL     1      -7.474   9.209  68.646  1.00  0.00     0.000 HD 
BRANCH  12  14
HETATM   14  N   UNL     1      -8.830  10.205  69.730  1.00  0.00    -0.351 NA 
HETATM   15  H   UNL     1      -8.757  10.539  70.691  1.00  0.00     0.000 HD 
BRANCH  14  16
HETATM   16  C   UNL     1      -9.593  10.849  68.731  1.00  0.00    -0.189 A  
HETATM   17  C   UNL     1      -9.584  12.342  66.800  1.00  0.00    -0.220 A  
HETATM   18  C   UNL     1      -8.903  11.625  67.790  1.00  0.00    -0.159 A  
HETATM   19  C   UNL     1     -10.976  12.253  66.715  1.00  0.00    -0.276 A  
HETATM   20  C   UNL     1     -10.992  10.766  68.624  1.00  0.00    -0.285 A  
HETATM   21  C   UNL     1     -11.685  11.468  67.627  1.00  0.00    -0.283 A  
BRANCH  19  22
HETATM   22  S   UNL     1     -11.844  13.304  65.561  1.00  0.00    -0.395 S  
HETATM   23  O   UNL     1     -12.922  12.525  64.994  1.00  0.00    -0.779 OA 
HETATM   24  O   UNL     1     -10.835  13.901  64.707  1.00  0.00    -0.376 OA 
BRANCH  22  25
HETATM   25  N   UNL     1     -12.443  14.560  66.514  1.00  0.00    -0.421 N  
HETATM   26  H   UNL     1     -13.407  14.882  66.440  1.00  0.00     0.000 HD 
BRANCH  25  27
HETATM   27  C   UNL     1     -11.528  15.136  67.418  1.00  0.00    -0.277 A  
HETATM   28  N   UNL     1     -10.565  15.858  66.823  1.00  0.00    -0.317 NA 
HETATM   29  C   UNL     1      -9.707  16.500  67.647  1.00  0.00    -0.239 A  
HETATM   30  C   UNL     1      -9.761  16.425  69.030  1.00  0.00    -0.262 A  
HETATM   31  C   UNL     1     -10.753  15.641  69.609  1.00  0.00    -0.278 A  
HETATM   32  C   UNL     1     -11.663  14.979  68.787  1.00  0.00    -0.360 A  
ENDBRANCH  25  27
ENDBRANCH  22  25
ENDBRANCH  19  22
ENDBRANCH  14  16
ENDBRANCH  12  14
ENDBRANCH   6  12
TORSDOF 6
ENDMDL
MODEL      143
REMARK 921   NORMALIZED FREE ENERGY PREDICTED BY IDOCK:   -5.79 KCAL/MOL
REMARK 922        TOTAL FREE ENERGY PREDICTED BY IDOCK:   -8.34 KCAL/MOL
REMARK 923 INTER-LIGAND FREE ENERGY PREDICTED BY IDOCK:   -8.14 KCAL/MOL
REMARK 924 INTRA-LIGAND FREE ENERGY PREDICTED BY IDOCK:   -0.19 KCAL/MOL
REMARK 927      BINDING AFFINITY PREDICTED BY RF-SCORE:    0.00 PKD
ROOT
HETATM    1  O   UNL     1      -5.576  21.010  67.671  1.00  0.00    -0.239 OA 
HETATM    2  C   UNL     1      -6.147  20.001  68.365  1.00  0.00    -0.258 C  
HETATM    3  C   UNL     1      -7.502  19.615  67.888  1.00  0.00    -0.321 A  
HETATM    4  O   UNL     1      -5.621  19.487  69.338  1.00  0.00    -0.205 OA 
HETATM    5  C   UNL     1      -8.375  19.023  68.820  1.00  0.00    -0.364 A  
HETATM    6  C   UNL     1      -9.657  18.596  68.438  1.00  0.00    -0.359 A  
HETATM    7  C   UNL     1     -10.047  18.787  67.105  1.00  0.00    -0.397 A  
HETATM    8  O   UNL     1      -7.085  20.369  65.650  1.00  0.00    -0.408 OA 
HETATM    9  C   UNL     1      -7.921  19.783  66.564  1.00  0.00    -0.319 A  
HETATM   10  H   UNL     1      -7.369  20.483  64.751  1.00  0.00     0.000 HD 
HETATM   11  C   UNL     1      -9.189  19.372  66.167  1.00  0.00    -0.323 A  
ENDROOT
BRANCH   6  12
HETATM   12  N   UNL     1     -10.594  17.985  69.302  1.00  0.00    -0.294 NA 
HETATM   13  H   UNL     1     -10.563  18.075  70.317  1.00  0.00     0.000 HD 
BRANCH  12  14
HETATM   14  N   UNL     1     -11.463  17.324  68.696  1.00  0.00     0.122 NA 
HETATM   15  H   UNL     1     -12.330  17.723  68.336  1.00  0.00     0.000 HD 
BRANCH  14  16
HETATM   16  C   UNL     1     -11.111  15.962  68.563  1.00  0.00    -0.340 A  
HETATM   17  C   UNL     1     -11.368  13.904  67.277  1.00  0.00    -0.344 A  
HETATM   18  C   UNL     1     -11.620  15.268  67.457  1.00  0.00    -0.223 A  
HETATM   19  C   UNL     1     -10.558  13.223  68.189  1.00  0.00    -0.249 A  
HETATM   20  C   UNL     1     -10.291  15.262  69.465  1.00  0.00    -0.267 A  
HETATM   21  C   UNL     1     -10.019  13.899  69.288  1.00  0.00     0.235 A  
BRANCH  19  22
HETATM   22  S   UNL     1     -10.385  11.452  68.044  1.00  0.00    -0.192 S  
HETATM   23  O   UNL     1      -9.396  11.197  67.022  1.00  0.00    -0.167 OA 
HETATM   24  O   UNL     1     -11.727  10.915  67.925  1.00  0.00    -0.557 OA 
BRANCH  22  25
HETATM   25  N   UNL     1      -9.827  10.965  69.559  1.00  0.00    -0.437 N  
HETATM   26  H   UNL     1      -8.854  11.082  69.840  1.00  0.00     0.000 HD 
BRANCH  25  27
HETATM   27  C   UNL     1     -10.788  10.387  70.412  1.00  0.00    -0.189 A  
HETATM   28  N   UNL     1     -11.871  11.157  70.602  1.00  0.00    -0.337 NA 
HETATM   29  C   UNL     1     -12.862  10.617  71.348  1.00  0.00    -0.451 A  
HETATM   30  C   UNL     1     -12.796   9.359  71.927  1.00  0.00    -0.497 A  
HETATM   31  C   UNL     1     -11.643   8.605  71.734  1.00  0.00    -0.403 A  
HETATM   32  C   UNL     1     -10.612   9.126  70.957  1.00  0.00    -0.362 A  
ENDBRANCH  25  27
ENDBRANCH  22  25
ENDBRANCH  19  22
ENDBRANCH  14  16
ENDBRANCH  12  14
ENDBRANCH   6  12
TORSDOF 6
ENDMDL
MODEL      144
REMARK 921   NORMALIZED FREE ENERGY PREDICTED BY IDOCK:   -5.78 KCAL/MOL
REMARK 922        TOTAL FREE ENERGY PREDICTED BY IDOCK:   -8.33 KCAL/MOL
REMARK 923 INTER-LIGAND FREE ENERGY PREDICTED BY IDOCK:   -7.84 KCAL/MOL
REMARK 924 INTRA-LIGAND FREE ENERGY PREDICTED BY IDOCK:   -0.49 KCAL/MOL
REMARK 927      BINDING AFFINITY PREDICTED BY RF-SCORE:    0.00 PKD
ROOT
HETATM    1  O   UNL     1      -9.218   1.571  67.739  1.00  0.00    -0.134 OA 
HETATM    2  C   UNL     1      -9.046   2.750  67.102  1.00  0.00    -0.165 C  
HETATM    3  C   UNL     1      -9.653   3.918  67.794  1.00  0.00    -0.199 A  
HETATM    4  O   UNL     1      -8.489   2.843  66.020  1.00  0.00    -0.096 OA 
HETATM    5  C   UNL     1     -10.022   5.023  67.004  1.00  0.00    -0.231 A  
HETATM    6  C   UNL     1     -10.566   6.178  67.586  1.00  0.00    -0.270 A  
HETATM    7  C   UNL     1     -10.743   6.196  68.978  1.00  0.00    -0.377 A  
HETATM    8  O   UNL     1      -9.493   2.899  69.959  1.00  0.00    -0.153 OA 
HETATM    9  C   UNL     1      -9.836   3.973  69.179  1.00  0.00    -0.002 A  
HETATM   10  H   UNL     1      -9.617   2.936  70.900  1.00  0.00     0.000 HD 
HETATM   11  C   UNL     1     -10.379   5.107  69.776  1.00  0.00    -0.332 A  
ENDROOT
BRANCH   6  12
HETATM   12  N   UNL     1     -10.955   7.335  66.873  1.00  0.00    -0.588 NA 
HETATM   13  H   UNL     1     -11.868   7.777  66.976  1.00  0.00     0.000 HD 
BRANCH  12  14
HETATM   14  N   UNL     1     -10.067   7.760  66.105  1.00  0.00    -0.420 NA 
HETATM   15  H   UNL     1      -9.640   7.199  65.367  1.00  0.00     0.000 HD 
BRANCH  14  16
HETATM   16  C   UNL     1      -9.721   9.103  66.370  1.00  0.00    -0.262 A  
HETATM   17  C   UNL     1     -10.149  11.093  67.716  1.00  0.00    -0.200 A  
HETATM   18  C   UNL     1     -10.390   9.748  67.419  1.00  0.00    -0.297 A  
HETATM   19  C   UNL     1      -9.194  11.804  66.984  1.00  0.00    -0.187 A  
HETATM   20  C   UNL     1      -8.758   9.832  65.651  1.00  0.00    -0.168 A  
HETATM   21  C   UNL     1      -8.497  11.177  65.948  1.00  0.00    -0.105 A  
BRANCH  19  22
HETATM   22  S   UNL     1      -9.021  13.560  67.257  1.00  0.00    -0.230 S  
HETATM   23  O   UNL     1      -7.627  13.818  67.539  1.00  0.00    -0.163 OA 
HETATM   24  O   UNL     1     -10.049  13.933  68.210  1.00  0.00    -0.228 OA 
BRANCH  22  25
HETATM   25  N   UNL     1      -9.479  14.254  65.790  1.00  0.00    -0.529 N  
HETATM   26  H   UNL     1      -8.995  15.063  65.400  1.00  0.00     0.000 HD 
BRANCH  25  27
HETATM   27  C   UNL     1     -10.570  13.648  65.136  1.00  0.00    -0.361 A  
HETATM   28  N   UNL     1     -10.238  13.048  63.981  1.00  0.00    -0.346 NA 
HETATM   29  C   UNL     1     -11.231  12.380  63.351  1.00  0.00    -0.422 A  
HETATM   30  C   UNL     1     -12.536  12.316  63.816  1.00  0.00    -0.619 A  
HETATM   31  C   UNL     1     -12.847  12.978  64.999  1.00  0.00    -0.365 A  
HETATM   32  C   UNL     1     -11.842  13.661  65.680  1.00  0.00    -0.387 A  
ENDBRANCH  25  27
ENDBRANCH  22  25
ENDBRANCH  19  22
ENDBRANCH  14  16
ENDBRANCH  12  14
ENDBRANCH   6  12
TORSDOF 6
ENDMDL
MODEL      145
REMARK 921   NORMALIZED FREE ENERGY PREDICTED BY IDOCK:   -5.78 KCAL/MOL
REMARK 922        TOTAL FREE ENERGY PREDICTED BY IDOCK:   -8.33 KCAL/MOL
REMARK 923 INTER-LIGAND FREE ENERGY PREDICTED BY IDOCK:   -7.77 KCAL/MOL
REMARK 924 INTRA-LIGAND FREE ENERGY PREDICTED BY IDOCK:   -0.56 KCAL/MOL
REMARK 927      BINDING AFFINITY PREDICTED BY RF-SCORE:    0.00 PKD
ROOT
HETATM    1  O   UNL     1     -11.453  16.668  63.930  1.00  0.00    -1.186 OA 
HETATM    2  C   UNL     1     -11.632  15.558  64.678  1.00  0.00    -0.281 C  
HETATM    3  C   UNL     1     -10.721  15.449  65.848  1.00  0.00    -0.343 A  
HETATM    4  O   UNL     1     -12.436  14.686  64.388  1.00  0.00    -0.624 OA 
HETATM    5  C   UNL     1     -10.432  14.159  66.330  1.00  0.00    -0.286 A  
HETATM    6  C   UNL     1      -9.610  13.976  67.454  1.00  0.00    -0.227 A  
HETATM    7  C   UNL     1      -9.075  15.114  68.074  1.00  0.00    -0.180 A  
HETATM    8  O   UNL     1     -10.440  17.824  66.028  1.00  0.00    -0.403 OA 
HETATM    9  C   UNL     1     -10.177  16.563  66.495  1.00  0.00    -0.300 A  
HETATM   10  H   UNL     1     -10.071  18.581  66.468  1.00  0.00     0.000 HD 
HETATM   11  C   UNL     1      -9.355  16.402  67.607  1.00  0.00    -0.212 A  
ENDROOT
BRANCH   6  12
HETATM   12  N   UNL     1      -9.275  12.721  68.011  1.00  0.00    -0.203 NA 
HETATM   13  H   UNL     1      -8.451  12.187  67.737  1.00  0.00     0.000 HD 
BRANCH  12  14
HETATM   14  N   UNL     1     -10.091  12.333  68.874  1.00  0.00    -0.427 NA 
HETATM   15  H   UNL     1     -10.629  12.963  69.469  1.00  0.00     0.000 HD 
BRANCH  14  16
HETATM   16  C   UNL     1     -10.186  10.925  68.932  1.00  0.00    -0.198 A  
HETATM   17  C   UNL     1     -10.077   8.819  67.704  1.00  0.00    -0.273 A  
HETATM   18  C   UNL     1      -9.951  10.211  67.749  1.00  0.00    -0.198 A  
HETATM   19  C   UNL     1     -10.401   8.115  68.866  1.00  0.00    -0.211 A  
HETATM   20  C   UNL     1     -10.502  10.198  70.093  1.00  0.00    -0.311 A  
HETATM   21  C   UNL     1     -10.617   8.801  70.064  1.00  0.00    -0.232 A  
BRANCH  19  22
HETATM   22  S   UNL     1     -10.727   6.363  68.757  1.00  0.00    -0.316 S  
HETATM   23  O   UNL     1     -11.280   6.107  67.447  1.00  0.00    -0.288 OA 
HETATM   24  O   UNL     1     -11.464   6.005  69.954  1.00  0.00    -0.388 OA 
BRANCH  22  25
HETATM   25  N   UNL     1      -9.208   5.648  68.922  1.00  0.00    -0.117 N  
HETATM   26  H   UNL     1      -8.855   4.968  68.249  1.00  0.00     0.000 HD 
BRANCH  25  27
HETATM   27  C   UNL     1      -8.458   6.047  70.046  1.00  0.00    -0.131 A  
HETATM   28  N   UNL     1      -8.711   5.321  71.146  1.00  0.00    -0.126 NA 
HETATM   29  C   UNL     1      -7.961   5.608  72.234  1.00  0.00    -0.107 A  
HETATM   30  C   UNL     1      -6.996   6.603  72.267  1.00  0.00    -0.068 A  
HETATM   31  C   UNL     1      -6.786   7.355  71.116  1.00  0.00    -0.047 A  
HETATM   32  C   UNL     1      -7.532   7.073  69.974  1.00  0.00    -0.090 A  
ENDBRANCH  25  27
ENDBRANCH  22  25
ENDBRANCH  19  22
ENDBRANCH  14  16
ENDBRANCH  12  14
ENDBRANCH   6  12
TORSDOF 6
ENDMDL
MODEL      146
REMARK 921   NORMALIZED FREE ENERGY PREDICTED BY IDOCK:   -5.74 KCAL/MOL
REMARK 922        TOTAL FREE ENERGY PREDICTED BY IDOCK:   -8.28 KCAL/MOL
REMARK 923 INTER-LIGAND FREE ENERGY PREDICTED BY IDOCK:   -7.66 KCAL/MOL
REMARK 924 INTRA-LIGAND FREE ENERGY PREDICTED BY IDOCK:   -0.62 KCAL/MOL
REMARK 927      BINDING AFFINITY PREDICTED BY RF-SCORE:    0.00 PKD
ROOT
HETATM    1  O   UNL     1      -9.264   5.089  72.773  1.00  0.00    -0.132 OA 
HETATM    2  C   UNL     1      -9.149   5.446  71.475  1.00  0.00    -0.142 C  
HETATM    3  C   UNL     1      -9.581   6.837  71.177  1.00  0.00    -0.177 A  
HETATM    4  O   UNL     1      -8.777   4.673  70.606  1.00  0.00    -0.096 OA 
HETATM    5  C   UNL     1     -10.028   7.115  69.872  1.00  0.00    -0.184 A  
HETATM    6  C   UNL     1     -10.416   8.412  69.502  1.00  0.00    -0.224 A  
HETATM    7  C   UNL     1     -10.357   9.422  70.474  1.00  0.00    -0.341 A  
HETATM    8  O   UNL     1      -9.105   7.610  73.397  1.00  0.00    -0.190 OA 
HETATM    9  C   UNL     1      -9.527   7.869  72.119  1.00  0.00    -0.177 A  
HETATM   10  H   UNL     1      -9.068   8.311  74.037  1.00  0.00     0.000 HD 
HETATM   11  C   UNL     1      -9.913   9.161  71.774  1.00  0.00    -0.257 A  
ENDROOT
BRANCH   6  12
HETATM   12  N   UNL     1     -10.868   8.783  68.216  1.00  0.00    -0.457 NA 
HETATM   13  H   UNL     1     -11.833   8.670  67.905  1.00  0.00     0.000 HD 
BRANCH  12  14
HETATM   14  N   UNL     1      -9.966   9.264  67.498  1.00  0.00    -0.189 NA 
HETATM   15  H   UNL     1      -9.218   8.711  67.079  1.00  0.00     0.000 HD 
BRANCH  14  16
HETATM   16  C   UNL     1     -10.098  10.661  67.329  1.00  0.00    -0.199 A  
HETATM   17  C   UNL     1     -11.617  12.565  67.188  1.00  0.00    -0.437 A  
HETATM   18  C   UNL     1     -11.389  11.201  67.398  1.00  0.00    -0.329 A  
HETATM   19  C   UNL     1     -10.538  13.419  66.947  1.00  0.00    -0.273 A  
HETATM   20  C   UNL     1      -9.024  11.537  67.094  1.00  0.00    -0.166 A  
HETATM   21  C   UNL     1      -9.238  12.908  66.896  1.00  0.00    -0.234 A  
BRANCH  19  22
HETATM   22  S   UNL     1     -10.857  15.121  66.511  1.00  0.00    -0.312 S  
HETATM   23  O   UNL     1     -11.645  15.699  67.577  1.00  0.00    -0.206 OA 
HETATM   24  O   UNL     1     -11.352  15.112  65.148  1.00  0.00    -0.368 OA 
BRANCH  22  25
HETATM   25  N   UNL     1      -9.326  15.825  66.441  1.00  0.00    -0.273 N  
HETATM   26  H   UNL     1      -8.497  15.290  66.186  1.00  0.00     0.000 HD 
BRANCH  25  27
HETATM   27  C   UNL     1      -9.265  17.197  66.757  1.00  0.00    -0.254 A  
HETATM   28  N   UNL     1      -9.958  17.975  65.911  1.00  0.00    -0.570 NA 
HETATM   29  C   UNL     1     -10.000  19.293  66.213  1.00  0.00    -0.413 A  
HETATM   30  C   UNL     1      -9.358  19.857  67.304  1.00  0.00    -0.470 A  
HETATM   31  C   UNL     1      -8.622  19.022  68.139  1.00  0.00    -0.355 A  
HETATM   32  C   UNL     1      -8.573  17.657  67.864  1.00  0.00    -0.238 A  
ENDBRANCH  25  27
ENDBRANCH  22  25
ENDBRANCH  19  22
ENDBRANCH  14  16
ENDBRANCH  12  14
ENDBRANCH   6  12
TORSDOF 6
ENDMDL
MODEL      147
REMARK 921   NORMALIZED FREE ENERGY PREDICTED BY IDOCK:   -5.72 KCAL/MOL
REMARK 922        TOTAL FREE ENERGY PREDICTED BY IDOCK:   -8.25 KCAL/MOL
REMARK 923 INTER-LIGAND FREE ENERGY PREDICTED BY IDOCK:   -7.56 KCAL/MOL
REMARK 924 INTRA-LIGAND FREE ENERGY PREDICTED BY IDOCK:   -0.70 KCAL/MOL
REMARK 927      BINDING AFFINITY PREDICTED BY RF-SCORE:    0.00 PKD
ROOT
HETATM    1  O   UNL     1      -9.980  17.833  68.832  1.00  0.00    -0.351 OA 
HETATM    2  C   UNL     1     -10.596  16.989  67.976  1.00  0.00    -0.373 C  
HETATM    3  C   UNL     1     -11.151  15.764  68.611  1.00  0.00    -0.327 A  
HETATM    4  O   UNL     1     -10.644  17.185  66.773  1.00  0.00    -0.286 OA 
HETATM    5  C   UNL     1     -11.289  14.618  67.806  1.00  0.00    -0.338 A  
HETATM    6  C   UNL     1     -11.840  13.435  68.321  1.00  0.00    -0.358 A  
HETATM    7  C   UNL     1     -12.237  13.422  69.666  1.00  0.00    -0.279 A  
HETATM    8  O   UNL     1     -11.425  16.824  70.745  1.00  0.00    -0.483 OA 
HETATM    9  C   UNL     1     -11.565  15.719  69.946  1.00  0.00    -0.351 A  
HETATM   10  H   UNL     1     -11.707  16.793  71.652  1.00  0.00     0.000 HD 
HETATM   11  C   UNL     1     -12.108  14.553  70.478  1.00  0.00    -0.395 A  
ENDROOT
BRANCH   6  12
HETATM   12  N   UNL     1     -12.024  12.243  67.584  1.00  0.00    -0.512 NA 
HETATM   13  H   UNL     1     -12.938  11.828  67.406  1.00  0.00     0.000 HD 
BRANCH  12  14
HETATM   14  N   UNL     1     -10.953  11.749  67.173  1.00  0.00    -0.260 NA 
HETATM   15  H   UNL     1     -10.309  12.234  66.547  1.00  0.00     0.000 HD 
BRANCH  14  16
HETATM   16  C   UNL     1     -10.733  10.446  67.670  1.00  0.00    -0.286 A  
HETATM   17  C   UNL     1     -10.209   8.122  67.141  1.00  0.00    -0.366 A  
HETATM   18  C   UNL     1     -10.390   9.450  66.744  1.00  0.00    -0.303 A  
HETATM   19  C   UNL     1     -10.327   7.779  68.490  1.00  0.00    -0.197 A  
HETATM   20  C   UNL     1     -10.839  10.084  69.024  1.00  0.00    -0.253 A  
HETATM   21  C   UNL     1     -10.645   8.758  69.436  1.00  0.00    -0.218 A  
BRANCH  19  22
HETATM   22  S   UNL     1     -10.263   6.057  68.958  1.00  0.00    -0.216 S  
HETATM   23  O   UNL     1     -10.316   5.277  67.743  1.00  0.00    -0.178 OA 
HETATM   24  O   UNL     1     -11.258   5.875  69.998  1.00  0.00    -0.364 OA 
BRANCH  22  25
HETATM   25  N   UNL     1      -8.767   5.890  69.719  1.00  0.00    -0.127 N  
HETATM   26  H   UNL     1      -7.890   5.925  69.201  1.00  0.00     0.000 HD 
BRANCH  25  27
HETATM   27  C   UNL     1      -8.804   5.700  71.115  1.00  0.00    -0.135 A  
HETATM   28  N   UNL     1      -8.756   4.409  71.483  1.00  0.00    -0.115 NA 
HETATM   29  C   UNL     1      -8.707   4.171  72.813  1.00  0.00    -0.103 A  
HETATM   30  C   UNL     1      -8.732   5.167  73.778  1.00  0.00    -0.116 A  
HETATM   31  C   UNL     1      -8.815   6.490  73.357  1.00  0.00    -0.134 A  
HETATM   32  C   UNL     1      -8.851   6.769  71.993  1.00  0.00    -0.134 A  
ENDBRANCH  25  27
ENDBRANCH  22  25
ENDBRANCH  19  22
ENDBRANCH  14  16
ENDBRANCH  12  14
ENDBRANCH   6  12
TORSDOF 6
ENDMDL
MODEL      148
REMARK 921   NORMALIZED FREE ENERGY PREDICTED BY IDOCK:   -5.69 KCAL/MOL
REMARK 922        TOTAL FREE ENERGY PREDICTED BY IDOCK:   -8.20 KCAL/MOL
REMARK 923 INTER-LIGAND FREE ENERGY PREDICTED BY IDOCK:   -7.24 KCAL/MOL
REMARK 924 INTRA-LIGAND FREE ENERGY PREDICTED BY IDOCK:   -0.97 KCAL/MOL
REMARK 927      BINDING AFFINITY PREDICTED BY RF-SCORE:    0.00 PKD
ROOT
HETATM    1  O   UNL     1     -10.013   7.160  71.143  1.00  0.00    -0.184 OA 
HETATM    2  C   UNL     1      -9.718   8.382  70.648  1.00  0.00    -0.178 C  
HETATM    3  C   UNL     1      -9.750   8.470  69.164  1.00  0.00    -0.170 A  
HETATM    4  O   UNL     1      -9.396   9.322  71.356  1.00  0.00    -0.263 OA 
HETATM    5  C   UNL     1      -8.952   9.455  68.553  1.00  0.00    -0.128 A  
HETATM    6  C   UNL     1      -8.956   9.627  67.160  1.00  0.00    -0.134 A  
HETATM    7  C   UNL     1      -9.769   8.780  66.392  1.00  0.00    -0.335 A  
HETATM    8  O   UNL     1     -11.326   6.676  68.950  1.00  0.00    -0.536 OA 
HETATM    9  C   UNL     1     -10.554   7.648  68.369  1.00  0.00    -0.122 A  
HETATM   10  H   UNL     1     -11.874   6.117  68.410  1.00  0.00     0.000 HD 
HETATM   11  C   UNL     1     -10.568   7.798  66.985  1.00  0.00    -0.396 A  
ENDROOT
BRANCH   6  12
HETATM   12  N   UNL     1      -8.196  10.594  66.464  1.00  0.00    -0.133 NA 
HETATM   13  H   UNL     1      -7.178  10.643  66.503  1.00  0.00     0.000 HD 
BRANCH  12  14
HETATM   14  N   UNL     1      -8.898  11.384  65.798  1.00  0.00    -0.342 NA 
HETATM   15  H   UNL     1      -9.233  11.186  64.855  1.00  0.00     0.000 HD 
BRANCH  14  16
HETATM   16  C   UNL     1      -9.175  12.581  66.495  1.00  0.00    -0.210 A  
HETATM   17  C   UNL     1     -10.745  14.413  66.859  1.00  0.00    -0.292 A  
HETATM   18  C   UNL     1     -10.411  13.197  66.254  1.00  0.00    -0.291 A  
HETATM   19  C   UNL     1      -9.855  15.009  67.756  1.00  0.00    -0.220 A  
HETATM   20  C   UNL     1      -8.296  13.191  67.406  1.00  0.00    -0.188 A  
HETATM   21  C   UNL     1      -8.626  14.402  68.031  1.00  0.00    -0.166 A  
BRANCH  19  22
HETATM   22  S   UNL     1     -10.218  16.639  68.386  1.00  0.00    -0.303 S  
HETATM   23  O   UNL     1     -10.955  16.471  69.618  1.00  0.00    -0.325 OA 
HETATM   24  O   UNL     1     -10.784  17.392  67.283  1.00  0.00    -0.315 OA 
BRANCH  22  25
HETATM   25  N   UNL     1      -8.702  17.318  68.677  1.00  0.00    -0.278 N  
HETATM   26  H   UNL     1      -8.188  17.144  69.540  1.00  0.00     0.000 HD 
BRANCH  25  27
HETATM   27  C   UNL     1      -8.189  18.140  67.654  1.00  0.00    -0.242 A  
HETATM   28  N   UNL     1      -8.389  19.451  67.867  1.00  0.00    -0.300 NA 
HETATM   29  C   UNL     1      -7.846  20.291  66.957  1.00  0.00    -0.329 A  
HETATM   30  C   UNL     1      -7.142  19.870  65.839  1.00  0.00    -0.315 A  
HETATM   31  C   UNL     1      -6.984  18.503  65.637  1.00  0.00    -0.244 A  
HETATM   32  C   UNL     1      -7.517  17.612  66.565  1.00  0.00    -0.299 A  
ENDBRANCH  25  27
ENDBRANCH  22  25
ENDBRANCH  19  22
ENDBRANCH  14  16
ENDBRANCH  12  14
ENDBRANCH   6  12
TORSDOF 6
ENDMDL
MODEL      149
REMARK 921   NORMALIZED FREE ENERGY PREDICTED BY IDOCK:   -5.68 KCAL/MOL
REMARK 922        TOTAL FREE ENERGY PREDICTED BY IDOCK:   -8.20 KCAL/MOL
REMARK 923 INTER-LIGAND FREE ENERGY PREDICTED BY IDOCK:   -7.62 KCAL/MOL
REMARK 924 INTRA-LIGAND FREE ENERGY PREDICTED BY IDOCK:   -0.58 KCAL/MOL
REMARK 927      BINDING AFFINITY PREDICTED BY RF-SCORE:    0.00 PKD
ROOT
HETATM    1  O   UNL     1     -10.318   4.800  73.274  1.00  0.00    -0.158 OA 
HETATM    2  C   UNL     1     -11.042   5.597  72.457  1.00  0.00    -0.276 C  
HETATM    3  C   UNL     1     -10.606   5.580  71.035  1.00  0.00    -0.300 A  
HETATM    4  O   UNL     1     -11.942   6.316  72.860  1.00  0.00     0.030 OA 
HETATM    5  C   UNL     1     -10.880   6.720  70.257  1.00  0.00    -0.314 A  
HETATM    6  C   UNL     1     -10.535   6.766  68.897  1.00  0.00    -0.207 A  
HETATM    7  C   UNL     1      -9.897   5.648  68.339  1.00  0.00    -0.178 A  
HETATM    8  O   UNL     1      -9.693   3.368  71.194  1.00  0.00    -0.165 OA 
HETATM    9  C   UNL     1      -9.977   4.479  70.445  1.00  0.00    -0.213 A  
HETATM   10  H   UNL     1      -9.266   2.620  70.793  1.00  0.00     0.000 HD 
HETATM   11  C   UNL     1      -9.621   4.508  69.099  1.00  0.00    -0.251 A  
ENDROOT
BRANCH   6  12
HETATM   12  N   UNL     1     -10.779   7.862  68.040  1.00  0.00    -0.431 NA 
HETATM   13  H   UNL     1     -11.628   7.961  67.482  1.00  0.00     0.000 HD 
BRANCH  12  14
HETATM   14  N   UNL     1      -9.851   8.698  68.034  1.00  0.00    -0.162 NA 
HETATM   15  H   UNL     1      -8.871   8.455  67.888  1.00  0.00     0.000 HD 
BRANCH  14  16
HETATM   16  C   UNL     1     -10.310  10.016  68.252  1.00  0.00    -0.193 A  
HETATM   17  C   UNL     1      -9.769  12.396  68.224  1.00  0.00    -0.218 A  
HETATM   18  C   UNL     1      -9.418  11.063  67.984  1.00  0.00    -0.169 A  
HETATM   19  C   UNL     1     -11.048  12.700  68.698  1.00  0.00    -0.266 A  
HETATM   20  C   UNL     1     -11.594  10.343  68.721  1.00  0.00    -0.188 A  
HETATM   21  C   UNL     1     -11.964  11.675  68.950  1.00  0.00    -0.355 A  
BRANCH  19  22
HETATM   22  S   UNL     1     -11.424  14.383  69.161  1.00  0.00    -0.313 S  
HETATM   23  O   UNL     1     -10.171  15.039  69.461  1.00  0.00    -0.225 OA 
HETATM   24  O   UNL     1     -12.478  14.311  70.155  1.00  0.00    -0.340 OA 
BRANCH  22  25
HETATM   25  N   UNL     1     -12.136  15.043  67.782  1.00  0.00    -0.474 N  
HETATM   26  H   UNL     1     -12.796  15.819  67.833  1.00  0.00     0.000 HD 
BRANCH  25  27
HETATM   27  C   UNL     1     -11.763  14.457  66.556  1.00  0.00    -0.391 A  
HETATM   28  N   UNL     1     -12.677  13.601  66.070  1.00  0.00    -0.377 NA 
HETATM   29  C   UNL     1     -12.408  13.070  64.856  1.00  0.00    -0.459 A  
HETATM   30  C   UNL     1     -11.257  13.341  64.131  1.00  0.00    -0.412 A  
HETATM   31  C   UNL     1     -10.320  14.207  64.684  1.00  0.00    -0.296 A  
HETATM   32  C   UNL     1     -10.575  14.783  65.926  1.00  0.00    -0.322 A  
ENDBRANCH  25  27
ENDBRANCH  22  25
ENDBRANCH  19  22
ENDBRANCH  14  16
ENDBRANCH  12  14
ENDBRANCH   6  12
TORSDOF 6
ENDMDL
MODEL      150
REMARK 921   NORMALIZED FREE ENERGY PREDICTED BY IDOCK:   -5.67 KCAL/MOL
REMARK 922        TOTAL FREE ENERGY PREDICTED BY IDOCK:   -8.18 KCAL/MOL
REMARK 923 INTER-LIGAND FREE ENERGY PREDICTED BY IDOCK:   -7.58 KCAL/MOL
REMARK 924 INTRA-LIGAND FREE ENERGY PREDICTED BY IDOCK:   -0.60 KCAL/MOL
REMARK 927      BINDING AFFINITY PREDICTED BY RF-SCORE:    0.00 PKD
ROOT
HETATM    1  O   UNL     1      -8.740  20.531  67.563  1.00  0.00    -0.316 OA 
HETATM    2  C   UNL     1      -9.479  19.567  68.152  1.00  0.00    -0.359 C  
HETATM    3  C   UNL     1      -9.309  18.212  67.562  1.00  0.00    -0.258 A  
HETATM    4  O   UNL     1     -10.266  19.795  69.057  1.00  0.00    -0.434 OA 
HETATM    5  C   UNL     1     -10.378  17.306  67.693  1.00  0.00    -0.350 A  
HETATM    6  C   UNL     1     -10.280  15.997  67.196  1.00  0.00    -0.278 A  
HETATM    7  C   UNL     1      -9.091  15.621  66.553  1.00  0.00    -0.337 A  
HETATM    8  O   UNL     1      -7.091  18.679  66.777  1.00  0.00    -0.205 OA 
HETATM    9  C   UNL     1      -8.135  17.802  66.922  1.00  0.00    -0.228 A  
HETATM   10  H   UNL     1      -6.293  18.400  66.343  1.00  0.00     0.000 HD 
HETATM   11  C   UNL     1      -8.020  16.510  66.418  1.00  0.00    -0.352 A  
ENDROOT
BRANCH   6  12
HETATM   12  N   UNL     1     -11.296  15.020  67.291  1.00  0.00    -0.344 NA 
HETATM   13  H   UNL     1     -11.748  14.599  66.479  1.00  0.00     0.000 HD 
BRANCH  12  14
HETATM   14  N   UNL     1     -11.585  14.724  68.469  1.00  0.00    -0.307 NA 
HETATM   15  H   UNL     1     -11.967  15.388  69.143  1.00  0.00     0.000 HD 
BRANCH  14  16
HETATM   16  C   UNL     1     -11.324  13.367  68.765  1.00  0.00    -0.292 A  
HETATM   17  C   UNL     1      -9.740  11.516  68.625  1.00  0.00    -0.172 A  
HETATM   18  C   UNL     1     -10.064  12.861  68.419  1.00  0.00    -0.227 A  
HETATM   19  C   UNL     1     -10.670  10.664  69.226  1.00  0.00    -0.238 A  
HETATM   20  C   UNL     1     -12.244  12.497  69.376  1.00  0.00    -0.117 A  
HETATM   21  C   UNL     1     -11.926  11.150  69.601  1.00  0.00    -0.429 A  
BRANCH  19  22
HETATM   22  S   UNL     1     -10.311   8.918  69.325  1.00  0.00    -0.214 S  
HETATM   23  O   UNL     1     -11.061   8.386  70.441  1.00  0.00    -0.245 OA 
HETATM   24  O   UNL     1      -8.867   8.790  69.277  1.00  0.00    -0.137 OA 
BRANCH  22  25
HETATM   25  N   UNL     1     -10.878   8.295  67.864  1.00  0.00    -0.481 N  
HETATM   26  H   UNL     1     -11.852   8.023  67.734  1.00  0.00     0.000 HD 
BRANCH  25  27
HETATM   27  C   UNL     1      -9.924   8.174  66.835  1.00  0.00    -0.273 A  
HETATM   28  N   UNL     1      -9.376   6.951  66.750  1.00  0.00    -0.153 NA 
HETATM   29  C   UNL     1      -8.513   6.755  65.728  1.00  0.00    -0.147 A  
HETATM   30  C   UNL     1      -8.160   7.736  64.814  1.00  0.00    -0.131 A  
HETATM   31  C   UNL     1      -8.723   9.000  64.956  1.00  0.00    -0.217 A  
HETATM   32  C   UNL     1      -9.629   9.230  65.989  1.00  0.00    -0.338 A  
ENDBRANCH  25  27
ENDBRANCH  22  25
ENDBRANCH  19  22
ENDBRANCH  14  16
ENDBRANCH  12  14
ENDBRANCH   6  12
TORSDOF 6
ENDMDL
MODEL      151
REMARK 921   NORMALIZED FREE ENERGY PREDICTED BY IDOCK:   -5.63 KCAL/MOL
REMARK 922        TOTAL FREE ENERGY PREDICTED BY IDOCK:   -8.13 KCAL/MOL
REMARK 923 INTER-LIGAND FREE ENERGY PREDICTED BY IDOCK:   -7.50 KCAL/MOL
REMARK 924 INTRA-LIGAND FREE ENERGY PREDICTED BY IDOCK:   -0.64 KCAL/MOL
REMARK 927      BINDING AFFINITY PREDICTED BY RF-SCORE:    0.00 PKD
ROOT
HETATM    1  O   UNL     1      -8.701   8.119  74.202  1.00  0.00    -0.234 OA 
HETATM    2  C   UNL     1      -8.394   8.165  72.887  1.00  0.00    -0.188 C  
HETATM    3  C   UNL     1      -9.193   7.245  72.035  1.00  0.00    -0.149 A  
HETATM    4  O   UNL     1      -7.496   8.861  72.441  1.00  0.00    -0.342 OA 
HETATM    5  C   UNL     1      -8.614   6.805  70.831  1.00  0.00    -0.137 A  
HETATM    6  C   UNL     1      -9.319   5.966  69.954  1.00  0.00    -0.150 A  
HETATM    7  C   UNL     1     -10.614   5.568  70.319  1.00  0.00    -0.357 A  
HETATM    8  O   UNL     1     -11.060   7.246  73.541  1.00  0.00    -0.569 OA 
HETATM    9  C   UNL     1     -10.489   6.835  72.364  1.00  0.00    -0.204 A  
HETATM   10  H   UNL     1     -11.941   6.968  73.764  1.00  0.00     0.000 HD 
HETATM   11  C   UNL     1     -11.203   5.998  71.512  1.00  0.00    -0.326 A  
ENDROOT
BRANCH   6  12
HETATM   12  N   UNL     1      -8.821   5.485  68.722  1.00  0.00    -0.107 NA 
HETATM   13  H   UNL     1      -7.892   5.078  68.612  1.00  0.00     0.000 HD 
BRANCH  12  14
HETATM   14  N   UNL     1      -9.633   5.609  67.781  1.00  0.00    -0.115 NA 
HETATM   15  H   UNL     1     -10.349   4.917  67.556  1.00  0.00     0.000 HD 
BRANCH  14  16
HETATM   16  C   UNL     1      -9.451   6.812  67.065  1.00  0.00    -0.146 A  
HETATM   17  C   UNL     1     -10.351   9.011  66.507  1.00  0.00    -0.263 A  
HETATM   18  C   UNL     1     -10.423   7.810  67.220  1.00  0.00    -0.392 A  
HETATM   19  C   UNL     1      -9.270   9.246  65.654  1.00  0.00    -0.231 A  
HETATM   20  C   UNL     1      -8.367   7.070  66.209  1.00  0.00    -0.129 A  
HETATM   21  C   UNL     1      -8.276   8.276  65.499  1.00  0.00    -0.138 A  
BRANCH  19  22
HETATM   22  S   UNL     1      -9.279  10.703  64.622  1.00  0.00    -0.243 S  
HETATM   23  O   UNL     1      -8.473  10.413  63.458  1.00  0.00    -0.169 OA 
HETATM   24  O   UNL     1      -8.953  11.823  65.486  1.00  0.00    -0.064 OA 
BRANCH  22  25
HETATM   25  N   UNL     1     -10.899  10.903  64.201  1.00  0.00    -0.399 N  
HETATM   26  H   UNL     1     -11.420  10.185  63.698  1.00  0.00     0.000 HD 
BRANCH  25  27
HETATM   27  C   UNL     1     -11.490  12.123  64.586  1.00  0.00    -0.328 A  
HETATM   28  N   UNL     1     -11.798  12.182  65.892  1.00  0.00    -0.546 NA 
HETATM   29  C   UNL     1     -12.294  13.360  66.334  1.00  0.00    -0.321 A  
HETATM   30  C   UNL     1     -12.515  14.460  65.519  1.00  0.00    -0.356 A  
HETATM   31  C   UNL     1     -12.214  14.348  64.166  1.00  0.00    -0.393 A  
HETATM   32  C   UNL     1     -11.687  13.153  63.683  1.00  0.00    -0.505 A  
ENDBRANCH  25  27
ENDBRANCH  22  25
ENDBRANCH  19  22
ENDBRANCH  14  16
ENDBRANCH  12  14
ENDBRANCH   6  12
TORSDOF 6
ENDMDL
MODEL      152
REMARK 921   NORMALIZED FREE ENERGY PREDICTED BY IDOCK:   -5.63 KCAL/MOL
REMARK 922        TOTAL FREE ENERGY PREDICTED BY IDOCK:   -8.12 KCAL/MOL
REMARK 923 INTER-LIGAND FREE ENERGY PREDICTED BY IDOCK:   -7.32 KCAL/MOL
REMARK 924 INTRA-LIGAND FREE ENERGY PREDICTED BY IDOCK:   -0.81 KCAL/MOL
REMARK 927      BINDING AFFINITY PREDICTED BY RF-SCORE:    0.00 PKD
ROOT
HETATM    1  O   UNL     1     -12.382  16.071  71.201  1.00  0.00    -0.422 OA 
HETATM    2  C   UNL     1     -12.316  15.070  70.297  1.00  0.00    -0.342 C  
HETATM    3  C   UNL     1     -12.615  13.721  70.848  1.00  0.00    -0.428 A  
HETATM    4  O   UNL     1     -11.983  15.247  69.136  1.00  0.00    -0.315 OA 
HETATM    5  C   UNL     1     -12.051  12.611  70.193  1.00  0.00    -0.368 A  
HETATM    6  C   UNL     1     -12.316  11.304  70.629  1.00  0.00    -0.383 A  
HETATM    7  C   UNL     1     -13.149  11.135  71.745  1.00  0.00    -0.536 A  
HETATM    8  O   UNL     1     -13.993  14.591  72.608  1.00  0.00    -0.511 OA 
HETATM    9  C   UNL     1     -13.448  13.517  71.953  1.00  0.00    -0.442 A  
HETATM   10  H   UNL     1     -14.560  14.452  73.358  1.00  0.00     0.000 HD 
HETATM   11  C   UNL     1     -13.719  12.229  72.405  1.00  0.00    -0.089 A  
ENDROOT
BRANCH   6  12
HETATM   12  N   UNL     1     -11.802  10.133  70.028  1.00  0.00    -0.413 NA 
HETATM   13  H   UNL     1     -12.390   9.398  69.636  1.00  0.00     0.000 HD 
BRANCH  12  14
HETATM   14  N   UNL     1     -10.554  10.089  70.025  1.00  0.00    -0.276 NA 
HETATM   15  H   UNL     1      -9.974  10.405  70.803  1.00  0.00     0.000 HD 
BRANCH  14  16
HETATM   16  C   UNL     1     -10.035   9.553  68.826  1.00  0.00    -0.174 A  
HETATM   17  C   UNL     1      -8.176   8.402  67.741  1.00  0.00    -0.126 A  
HETATM   18  C   UNL     1      -8.790   8.913  68.890  1.00  0.00    -0.137 A  
HETATM   19  C   UNL     1      -8.830   8.490  66.509  1.00  0.00    -0.140 A  
HETATM   20  C   UNL     1     -10.680   9.625  67.579  1.00  0.00    -0.321 A  
HETATM   21  C   UNL     1     -10.082   9.104  66.423  1.00  0.00    -0.345 A  
BRANCH  19  22
HETATM   22  S   UNL     1      -7.964   7.992  65.029  1.00  0.00    -0.130 S  
HETATM   23  O   UNL     1      -6.570   7.836  65.376  1.00  0.00    -0.044 OA 
HETATM   24  O   UNL     1      -8.368   8.914  63.985  1.00  0.00    -0.170 OA 
BRANCH  22  25
HETATM   25  N   UNL     1      -8.655   6.507  64.625  1.00  0.00    -0.347 N  
HETATM   26  H   UNL     1      -8.961   6.294  63.677  1.00  0.00     0.000 HD 
BRANCH  25  27
HETATM   27  C   UNL     1      -8.784   5.581  65.679  1.00  0.00    -0.153 A  
HETATM   28  N   UNL     1      -7.640   4.943  65.977  1.00  0.00    -0.089 NA 
HETATM   29  C   UNL     1      -7.686   4.101  67.034  1.00  0.00    -0.092 A  
HETATM   30  C   UNL     1      -8.829   3.856  67.779  1.00  0.00    -0.135 A  
HETATM   31  C   UNL     1     -10.002   4.512  67.419  1.00  0.00    -0.171 A  
HETATM   32  C   UNL     1      -9.984   5.398  66.345  1.00  0.00    -0.218 A  
ENDBRANCH  25  27
ENDBRANCH  22  25
ENDBRANCH  19  22
ENDBRANCH  14  16
ENDBRANCH  12  14
ENDBRANCH   6  12
TORSDOF 6
ENDMDL
MODEL      153
REMARK 921   NORMALIZED FREE ENERGY PREDICTED BY IDOCK:   -5.61 KCAL/MOL
REMARK 922        TOTAL FREE ENERGY PREDICTED BY IDOCK:   -8.10 KCAL/MOL
REMARK 923 INTER-LIGAND FREE ENERGY PREDICTED BY IDOCK:   -7.78 KCAL/MOL
REMARK 924 INTRA-LIGAND FREE ENERGY PREDICTED BY IDOCK:   -0.33 KCAL/MOL
REMARK 927      BINDING AFFINITY PREDICTED BY RF-SCORE:    0.00 PKD
ROOT
HETATM    1  O   UNL     1      -9.690   2.785  64.843  1.00  0.00    -0.103 OA 
HETATM    2  C   UNL     1     -10.224   4.019  64.966  1.00  0.00    -0.181 C  
HETATM    3  C   UNL     1      -9.361   4.996  65.683  1.00  0.00    -0.163 A  
HETATM    4  O   UNL     1     -11.345   4.299  64.573  1.00  0.00    -0.270 OA 
HETATM    5  C   UNL     1      -9.995   6.066  66.339  1.00  0.00    -0.145 A  
HETATM    6  C   UNL     1      -9.247   7.050  67.005  1.00  0.00    -0.147 A  
HETATM    7  C   UNL     1      -7.850   6.928  67.009  1.00  0.00    -0.111 A  
HETATM    8  O   UNL     1      -7.335   3.864  65.075  1.00  0.00    -0.066 OA 
HETATM    9  C   UNL     1      -7.965   4.909  65.700  1.00  0.00    -0.103 A  
HETATM   10  H   UNL     1      -6.387   3.805  65.086  1.00  0.00     0.000 HD 
HETATM   11  C   UNL     1      -7.205   5.871  66.360  1.00  0.00    -0.077 A  
ENDROOT
BRANCH   6  12
HETATM   12  N   UNL     1      -9.798   8.162  67.681  1.00  0.00    -0.159 NA 
HETATM   13  H   UNL     1      -9.481   8.475  68.599  1.00  0.00     0.000 HD 
BRANCH  12  14
HETATM   14  N   UNL     1     -10.712   8.723  67.041  1.00  0.00    -0.332 NA 
HETATM   15  H   UNL     1     -11.266   8.259  66.320  1.00  0.00     0.000 HD 
BRANCH  14  16
HETATM   16  C   UNL     1     -10.894  10.069  67.427  1.00  0.00    -0.249 A  
HETATM   17  C   UNL     1     -10.974  12.403  66.717  1.00  0.00    -0.305 A  
HETATM   18  C   UNL     1     -10.858  11.041  66.418  1.00  0.00    -0.253 A  
HETATM   19  C   UNL     1     -11.173  12.807  68.040  1.00  0.00    -0.270 A  
HETATM   20  C   UNL     1     -11.103  10.494  68.751  1.00  0.00    -0.315 A  
HETATM   21  C   UNL     1     -11.236  11.855  69.061  1.00  0.00    -0.316 A  
BRANCH  19  22
HETATM   22  S   UNL     1     -11.147  14.549  68.428  1.00  0.00    -0.268 S  
HETATM   23  O   UNL     1     -11.074  15.270  67.178  1.00  0.00    -0.333 OA 
HETATM   24  O   UNL     1     -10.130  14.730  69.446  1.00  0.00    -0.195 OA 
BRANCH  22  25
HETATM   25  N   UNL     1     -12.623  14.824  69.198  1.00  0.00    -0.531 N  
HETATM   26  H   UNL     1     -13.492  14.936  68.677  1.00  0.00     0.000 HD 
BRANCH  25  27
HETATM   27  C   UNL     1     -12.580  14.889  70.605  1.00  0.00    -0.363 A  
HETATM   28  N   UNL     1     -12.004  16.007  71.075  1.00  0.00    -0.402 NA 
HETATM   29  C   UNL     1     -12.008  16.160  72.418  1.00  0.00    -0.554 A  
HETATM   30  C   UNL     1     -12.539  15.231  73.300  1.00  0.00    -0.617 A  
HETATM   31  C   UNL     1     -13.098  14.070  72.776  1.00  0.00    -0.537 A  
HETATM   32  C   UNL     1     -13.123  13.891  71.395  1.00  0.00    -0.413 A  
ENDBRANCH  25  27
ENDBRANCH  22  25
ENDBRANCH  19  22
ENDBRANCH  14  16
ENDBRANCH  12  14
ENDBRANCH   6  12
TORSDOF 6
ENDMDL
MODEL      154
REMARK 921   NORMALIZED FREE ENERGY PREDICTED BY IDOCK:   -5.61 KCAL/MOL
REMARK 922        TOTAL FREE ENERGY PREDICTED BY IDOCK:   -8.10 KCAL/MOL
REMARK 923 INTER-LIGAND FREE ENERGY PREDICTED BY IDOCK:   -7.54 KCAL/MOL
REMARK 924 INTRA-LIGAND FREE ENERGY PREDICTED BY IDOCK:   -0.56 KCAL/MOL
REMARK 927      BINDING AFFINITY PREDICTED BY RF-SCORE:    0.00 PKD
ROOT
HETATM    1  O   UNL     1      -8.808   3.608  73.047  1.00  0.00    -0.092 OA 
HETATM    2  C   UNL     1      -8.704   4.263  71.870  1.00  0.00    -0.111 C  
HETATM    3  C   UNL     1      -9.838   5.177  71.571  1.00  0.00    -0.234 A  
HETATM    4  O   UNL     1      -7.785   4.078  71.088  1.00  0.00    -0.056 OA 
HETATM    5  C   UNL     1     -10.115   5.450  70.219  1.00  0.00    -0.318 A  
HETATM    6  C   UNL     1     -11.144   6.332  69.856  1.00  0.00    -0.401 A  
HETATM    7  C   UNL     1     -11.898   6.925  70.880  1.00  0.00    -0.424 A  
HETATM    8  O   UNL     1     -10.353   5.525  73.888  1.00  0.00    -0.218 OA 
HETATM    9  C   UNL     1     -10.604   5.792  72.567  1.00  0.00    -0.221 A  
HETATM   10  H   UNL     1     -10.872   5.943  74.564  1.00  0.00     0.000 HD 
HETATM   11  C   UNL     1     -11.633   6.665  72.228  1.00  0.00    -0.313 A  
ENDROOT
BRANCH   6  12
HETATM   12  N   UNL     1     -11.486   6.671  68.527  1.00  0.00    -0.559 NA 
HETATM   13  H   UNL     1     -12.447   6.791  68.207  1.00  0.00     0.000 HD 
BRANCH  12  14
HETATM   14  N   UNL     1     -10.492   6.808  67.784  1.00  0.00    -0.197 NA 
HETATM   15  H   UNL     1      -9.833   6.057  67.574  1.00  0.00     0.000 HD 
BRANCH  14  16
HETATM   16  C   UNL     1     -10.381   8.118  67.266  1.00  0.00    -0.303 A  
HETATM   17  C   UNL     1     -10.875  10.486  67.585  1.00  0.00    -0.355 A  
HETATM   18  C   UNL     1     -10.893   9.165  68.044  1.00  0.00    -0.135 A  
HETATM   19  C   UNL     1     -10.298  10.781  66.347  1.00  0.00    -0.248 A  
HETATM   20  C   UNL     1      -9.797   8.435  66.028  1.00  0.00    -0.082 A  
HETATM   21  C   UNL     1      -9.760   9.757  65.563  1.00  0.00    -0.382 A  
BRANCH  19  22
HETATM   22  S   UNL     1     -10.436  12.439  65.698  1.00  0.00    -0.269 S  
HETATM   23  O   UNL     1     -11.732  12.948  66.085  1.00  0.00    -0.355 OA 
HETATM   24  O   UNL     1     -10.057  12.368  64.299  1.00  0.00    -0.315 OA 
BRANCH  22  25
HETATM   25  N   UNL     1      -9.199  13.289  66.467  1.00  0.00    -0.401 N  
HETATM   26  H   UNL     1      -8.218  13.030  66.362  1.00  0.00     0.000 HD 
BRANCH  25  27
HETATM   27  C   UNL     1      -9.603  14.379  67.263  1.00  0.00    -0.227 A  
HETATM   28  N   UNL     1     -10.077  15.416  66.553  1.00  0.00    -0.261 NA 
HETATM   29  C   UNL     1     -10.555  16.459  67.269  1.00  0.00    -0.293 A  
HETATM   30  C   UNL     1     -10.550  16.512  68.655  1.00  0.00    -0.316 A  
HETATM   31  C   UNL     1     -10.021  15.432  69.353  1.00  0.00    -0.272 A  
HETATM   32  C   UNL     1      -9.536  14.335  68.645  1.00  0.00    -0.178 A  
ENDBRANCH  25  27
ENDBRANCH  22  25
ENDBRANCH  19  22
ENDBRANCH  14  16
ENDBRANCH  12  14
ENDBRANCH   6  12
TORSDOF 6
ENDMDL
MODEL      155
REMARK 921   NORMALIZED FREE ENERGY PREDICTED BY IDOCK:   -5.59 KCAL/MOL
REMARK 922        TOTAL FREE ENERGY PREDICTED BY IDOCK:   -8.07 KCAL/MOL
REMARK 923 INTER-LIGAND FREE ENERGY PREDICTED BY IDOCK:   -7.31 KCAL/MOL
REMARK 924 INTRA-LIGAND FREE ENERGY PREDICTED BY IDOCK:   -0.76 KCAL/MOL
REMARK 927      BINDING AFFINITY PREDICTED BY RF-SCORE:    0.00 PKD
ROOT
HETATM    1  O   UNL     1     -10.425  12.052  62.815  1.00  0.00    -0.000 OA 
HETATM    2  C   UNL     1     -10.565  11.413  63.997  1.00  0.00    -0.383 C  
HETATM    3  C   UNL     1     -11.200  12.227  65.067  1.00  0.00    -0.367 A  
HETATM    4  O   UNL     1     -10.152  10.280  64.190  1.00  0.00    -0.287 OA 
HETATM    5  C   UNL     1     -10.892  11.902  66.401  1.00  0.00    -0.318 A  
HETATM    6  C   UNL     1     -11.480  12.599  67.468  1.00  0.00    -0.340 A  
HETATM    7  C   UNL     1     -12.374  13.637  67.167  1.00  0.00    -0.234 A  
HETATM    8  O   UNL     1     -12.400  13.597  63.507  1.00  0.00    -0.830 OA 
HETATM    9  C   UNL     1     -12.101  13.263  64.802  1.00  0.00    -0.409 A  
HETATM   10  H   UNL     1     -13.013  14.301  63.327  1.00  0.00     0.000 HD 
HETATM   11  C   UNL     1     -12.691  13.970  65.846  1.00  0.00    -0.436 A  
ENDROOT
BRANCH   6  12
HETATM   12  N   UNL     1     -11.237  12.335  68.835  1.00  0.00    -0.256 NA 
HETATM   13  H   UNL     1     -11.971  12.322  69.544  1.00  0.00     0.000 HD 
BRANCH  12  14
HETATM   14  N   UNL     1     -10.033  12.120  69.088  1.00  0.00    -0.391 NA 
HETATM   15  H   UNL     1      -9.319  12.848  69.106  1.00  0.00     0.000 HD 
BRANCH  14  16
HETATM   16  C   UNL     1      -9.771  10.756  69.346  1.00  0.00    -0.061 A  
HETATM   17  C   UNL     1      -8.148   8.936  69.250  1.00  0.00    -0.109 A  
HETATM   18  C   UNL     1      -8.480  10.284  69.076  1.00  0.00    -0.150 A  
HETATM   19  C   UNL     1      -9.105   8.046  69.744  1.00  0.00    -0.149 A  
HETATM   20  C   UNL     1     -10.718   9.847  69.850  1.00  0.00    -0.318 A  
HETATM   21  C   UNL     1     -10.394   8.497  70.043  1.00  0.00    -0.213 A  
BRANCH  19  22
HETATM   22  S   UNL     1      -8.723   6.302  69.798  1.00  0.00    -0.138 S  
HETATM   23  O   UNL     1      -7.773   6.102  70.869  1.00  0.00    -0.094 OA 
HETATM   24  O   UNL     1      -8.400   5.908  68.440  1.00  0.00    -0.111 OA 
BRANCH  22  25
HETATM   25  N   UNL     1     -10.198   5.566  70.153  1.00  0.00    -0.240 N  
HETATM   26  H   UNL     1     -10.982   5.584  69.501  1.00  0.00     0.000 HD 
BRANCH  25  27
HETATM   27  C   UNL     1     -10.280   4.924  71.405  1.00  0.00    -0.187 A  
HETATM   28  N   UNL     1     -10.800   5.697  72.372  1.00  0.00    -0.236 NA 
HETATM   29  C   UNL     1     -10.977   5.106  73.575  1.00  0.00    -0.310 A  
HETATM   30  C   UNL     1     -10.632   3.792  73.850  1.00  0.00    -0.292 A  
HETATM   31  C   UNL     1     -10.066   3.033  72.830  1.00  0.00    -0.220 A  
HETATM   32  C   UNL     1      -9.885   3.609  71.574  1.00  0.00    -0.227 A  
ENDBRANCH  25  27
ENDBRANCH  22  25
ENDBRANCH  19  22
ENDBRANCH  14  16
ENDBRANCH  12  14
ENDBRANCH   6  12
TORSDOF 6
ENDMDL
MODEL      156
REMARK 921   NORMALIZED FREE ENERGY PREDICTED BY IDOCK:   -5.58 KCAL/MOL
REMARK 922        TOTAL FREE ENERGY PREDICTED BY IDOCK:   -8.07 KCAL/MOL
REMARK 923 INTER-LIGAND FREE ENERGY PREDICTED BY IDOCK:   -7.10 KCAL/MOL
REMARK 924 INTRA-LIGAND FREE ENERGY PREDICTED BY IDOCK:   -0.97 KCAL/MOL
REMARK 927      BINDING AFFINITY PREDICTED BY RF-SCORE:    0.00 PKD
ROOT
HETATM    1  O   UNL     1      -8.497   6.957  69.849  1.00  0.00    -0.137 OA 
HETATM    2  C   UNL     1      -9.694   7.539  69.622  1.00  0.00    -0.167 C  
HETATM    3  C   UNL     1      -9.725   8.450  68.447  1.00  0.00    -0.168 A  
HETATM    4  O   UNL     1     -10.658   7.377  70.354  1.00  0.00    -0.218 OA 
HETATM    5  C   UNL     1     -10.676   9.486  68.452  1.00  0.00    -0.230 A  
HETATM    6  C   UNL     1     -10.793  10.364  67.363  1.00  0.00    -0.286 A  
HETATM    7  C   UNL     1      -9.926  10.186  66.274  1.00  0.00    -0.304 A  
HETATM    8  O   UNL     1      -7.943   7.297  67.330  1.00  0.00    -0.108 OA 
HETATM    9  C   UNL     1      -8.882   8.295  67.342  1.00  0.00    -0.131 A  
HETATM   10  H   UNL     1      -7.370   7.192  66.579  1.00  0.00     0.000 HD 
HETATM   11  C   UNL     1      -8.978   9.158  66.254  1.00  0.00    -0.194 A  
ENDROOT
BRANCH   6  12
HETATM   12  N   UNL     1     -11.723  11.425  67.278  1.00  0.00    -0.583 NA 
HETATM   13  H   UNL     1     -12.373  11.541  66.500  1.00  0.00     0.000 HD 
BRANCH  12  14
HETATM   14  N   UNL     1     -11.669  12.205  68.251  1.00  0.00    -0.331 NA 
HETATM   15  H   UNL     1     -12.289  12.147  69.059  1.00  0.00     0.000 HD 
BRANCH  14  16
HETATM   16  C   UNL     1     -10.653  13.176  68.109  1.00  0.00    -0.245 A  
HETATM   17  C   UNL     1      -9.906  15.195  66.960  1.00  0.00    -0.233 A  
HETATM   18  C   UNL     1     -10.880  14.222  67.204  1.00  0.00    -0.296 A  
HETATM   19  C   UNL     1      -8.697  15.157  67.661  1.00  0.00    -0.170 A  
HETATM   20  C   UNL     1      -9.434  13.158  68.810  1.00  0.00     0.100 A  
HETATM   21  C   UNL     1      -8.456  14.137  68.586  1.00  0.00    -0.120 A  
BRANCH  19  22
HETATM   22  S   UNL     1      -7.400  16.300  67.217  1.00  0.00    -0.203 S  
HETATM   23  O   UNL     1      -7.756  16.885  65.944  1.00  0.00    -0.343 OA 
HETATM   24  O   UNL     1      -6.148  15.586  67.378  1.00  0.00    -0.278 OA 
BRANCH  22  25
HETATM   25  N   UNL     1      -7.431  17.458  68.443  1.00  0.00    -0.224 N  
HETATM   26  H   UNL     1      -6.914  17.338  69.313  1.00  0.00     0.000 HD 
BRANCH  25  27
HETATM   27  C   UNL     1      -8.215  18.601  68.190  1.00  0.00    -0.303 A  
HETATM   28  N   UNL     1      -7.539  19.596  67.593  1.00  0.00    -0.268 NA 
HETATM   29  C   UNL     1      -8.262  20.687  67.253  1.00  0.00    -0.239 A  
HETATM   30  C   UNL     1      -9.617  20.828  67.512  1.00  0.00    -0.439 A  
HETATM   31  C   UNL     1     -10.275  19.789  68.162  1.00  0.00    -0.577 A  
HETATM   32  C   UNL     1      -9.561  18.645  68.510  1.00  0.00    -0.399 A  
ENDBRANCH  25  27
ENDBRANCH  22  25
ENDBRANCH  19  22
ENDBRANCH  14  16
ENDBRANCH  12  14
ENDBRANCH   6  12
TORSDOF 6
ENDMDL
MODEL      157
REMARK 921   NORMALIZED FREE ENERGY PREDICTED BY IDOCK:   -5.58 KCAL/MOL
REMARK 922        TOTAL FREE ENERGY PREDICTED BY IDOCK:   -8.06 KCAL/MOL
REMARK 923 INTER-LIGAND FREE ENERGY PREDICTED BY IDOCK:   -7.22 KCAL/MOL
REMARK 924 INTRA-LIGAND FREE ENERGY PREDICTED BY IDOCK:   -0.83 KCAL/MOL
REMARK 927      BINDING AFFINITY PREDICTED BY RF-SCORE:    0.00 PKD
ROOT
HETATM    1  O   UNL     1     -10.817  15.910  64.640  1.00  0.00    -0.557 OA 
HETATM    2  C   UNL     1     -11.638  14.909  65.026  1.00  0.00    -0.357 C  
HETATM    3  C   UNL     1     -11.569  14.578  66.474  1.00  0.00    -0.379 A  
HETATM    4  O   UNL     1     -12.338  14.287  64.243  1.00  0.00    -0.608 OA 
HETATM    5  C   UNL     1     -11.914  13.270  66.860  1.00  0.00    -0.430 A  
HETATM    6  C   UNL     1     -11.911  12.891  68.212  1.00  0.00    -0.330 A  
HETATM    7  C   UNL     1     -11.541  13.850  69.166  1.00  0.00    -0.359 A  
HETATM    8  O   UNL     1     -10.864  16.786  67.089  1.00  0.00    -0.236 OA 
HETATM    9  C   UNL     1     -11.214  15.512  67.453  1.00  0.00    -0.248 A  
HETATM   10  H   UNL     1     -10.622  17.421  67.754  1.00  0.00     0.000 HD 
HETATM   11  C   UNL     1     -11.198  15.154  68.798  1.00  0.00    -0.293 A  
ENDROOT
BRANCH   6  12
HETATM   12  N   UNL     1     -12.251  11.605  68.690  1.00  0.00    -0.418 NA 
HETATM   13  H   UNL     1     -12.822  11.447  69.520  1.00  0.00     0.000 HD 
BRANCH  12  14
HETATM   14  N   UNL     1     -11.782  10.681  67.992  1.00  0.00    -0.747 NA 
HETATM   15  H   UNL     1     -12.249  10.299  67.170  1.00  0.00     0.000 HD 
BRANCH  14  16
HETATM   16  C   UNL     1     -10.533  10.226  68.469  1.00  0.00    -0.192 A  
HETATM   17  C   UNL     1      -8.303   9.415  67.898  1.00  0.00    -0.115 A  
HETATM   18  C   UNL     1      -9.549   9.924  67.518  1.00  0.00    -0.183 A  
HETATM   19  C   UNL     1      -8.010   9.241  69.253  1.00  0.00    -0.098 A  
HETATM   20  C   UNL     1     -10.217  10.052  69.828  1.00  0.00    -0.286 A  
HETATM   21  C   UNL     1      -8.966   9.557  70.223  1.00  0.00    -0.288 A  
BRANCH  19  22
HETATM   22  S   UNL     1      -6.487   8.432  69.716  1.00  0.00    -0.036 S  
HETATM   23  O   UNL     1      -5.920   9.177  70.817  1.00  0.00    -0.036 OA 
HETATM   24  O   UNL     1      -5.735   8.236  68.491  1.00  0.00    -0.035 OA 
BRANCH  22  25
HETATM   25  N   UNL     1      -6.969   6.894  70.211  1.00  0.00    -0.064 N  
HETATM   26  H   UNL     1      -6.583   6.448  71.042  1.00  0.00     0.000 HD 
BRANCH  25  27
HETATM   27  C   UNL     1      -7.939   6.264  69.406  1.00  0.00    -0.109 A  
HETATM   28  N   UNL     1      -7.466   5.849  68.220  1.00  0.00    -0.084 NA 
HETATM   29  C   UNL     1      -8.334   5.165  67.440  1.00  0.00    -0.106 A  
HETATM   30  C   UNL     1      -9.651   4.909  67.788  1.00  0.00    -0.184 A  
HETATM   31  C   UNL     1     -10.113   5.384  69.011  1.00  0.00    -0.283 A  
HETATM   32  C   UNL     1      -9.239   6.078  69.845  1.00  0.00    -0.159 A  
ENDBRANCH  25  27
ENDBRANCH  22  25
ENDBRANCH  19  22
ENDBRANCH  14  16
ENDBRANCH  12  14
ENDBRANCH   6  12
TORSDOF 6
ENDMDL
MODEL      158
REMARK 921   NORMALIZED FREE ENERGY PREDICTED BY IDOCK:   -5.57 KCAL/MOL
REMARK 922        TOTAL FREE ENERGY PREDICTED BY IDOCK:   -8.05 KCAL/MOL
REMARK 923 INTER-LIGAND FREE ENERGY PREDICTED BY IDOCK:   -7.77 KCAL/MOL
REMARK 924 INTRA-LIGAND FREE ENERGY PREDICTED BY IDOCK:   -0.28 KCAL/MOL
REMARK 927      BINDING AFFINITY PREDICTED BY RF-SCORE:    0.00 PKD
ROOT
HETATM    1  O   UNL     1      -9.861   3.485  70.652  1.00  0.00    -0.165 OA 
HETATM    2  C   UNL     1     -10.029   4.693  70.072  1.00  0.00    -0.232 C  
HETATM    3  C   UNL     1     -10.502   5.760  70.994  1.00  0.00    -0.307 A  
HETATM    4  O   UNL     1      -9.862   4.883  68.878  1.00  0.00    -0.162 OA 
HETATM    5  C   UNL     1     -11.220   6.832  70.434  1.00  0.00    -0.378 A  
HETATM    6  C   UNL     1     -11.668   7.896  71.233  1.00  0.00    -0.287 A  
HETATM    7  C   UNL     1     -11.390   7.854  72.607  1.00  0.00    -0.468 A  
HETATM    8  O   UNL     1      -9.548   4.708  72.927  1.00  0.00    -0.129 OA 
HETATM    9  C   UNL     1     -10.235   5.753  72.367  1.00  0.00    -0.190 A  
HETATM   10  H   UNL     1      -9.366   4.703  73.859  1.00  0.00     0.000 HD 
HETATM   11  C   UNL     1     -10.676   6.796  73.177  1.00  0.00    -0.326 A  
ENDROOT
BRANCH   6  12
HETATM   12  N   UNL     1     -12.386   9.016  70.756  1.00  0.00    -0.490 NA 
HETATM   13  H   UNL     1     -13.300   8.948  70.309  1.00  0.00     0.000 HD 
BRANCH  12  14
HETATM   14  N   UNL     1     -11.788  10.097  70.937  1.00  0.00    -0.345 NA 
HETATM   15  H   UNL     1     -11.458  10.417  71.848  1.00  0.00     0.000 HD 
BRANCH  14  16
HETATM   16  C   UNL     1     -11.618  10.828  69.740  1.00  0.00    -0.317 A  
HETATM   17  C   UNL     1     -11.796  12.993  68.629  1.00  0.00    -0.353 A  
HETATM   18  C   UNL     1     -11.885  12.203  69.779  1.00  0.00    -0.397 A  
HETATM   19  C   UNL     1     -11.392  12.416  67.422  1.00  0.00    -0.321 A  
HETATM   20  C   UNL     1     -11.206  10.267  68.519  1.00  0.00    -0.271 A  
HETATM   21  C   UNL     1     -11.099  11.051  67.362  1.00  0.00    -0.370 A  
BRANCH  19  22
HETATM   22  S   UNL     1     -11.449  13.394  65.929  1.00  0.00    -0.332 S  
HETATM   23  O   UNL     1     -12.368  14.485  66.163  1.00  0.00    -0.338 OA 
HETATM   24  O   UNL     1     -11.666  12.467  64.836  1.00  0.00    -0.340 OA 
BRANCH  22  25
HETATM   25  N   UNL     1      -9.872  13.962  65.746  1.00  0.00    -0.451 N  
HETATM   26  H   UNL     1      -9.582  14.498  64.929  1.00  0.00     0.000 HD 
BRANCH  25  27
HETATM   27  C   UNL     1      -8.980  13.651  66.791  1.00  0.00    -0.181 A  
HETATM   28  N   UNL     1      -8.421  12.435  66.677  1.00  0.00    -0.095 NA 
HETATM   29  C   UNL     1      -7.495  12.116  67.609  1.00  0.00    -0.129 A  
HETATM   30  C   UNL     1      -7.133  12.949  68.657  1.00  0.00    -0.103 A  
HETATM   31  C   UNL     1      -7.759  14.187  68.760  1.00  0.00    -0.121 A  
HETATM   32  C   UNL     1      -8.706  14.552  67.805  1.00  0.00    -0.174 A  
ENDBRANCH  25  27
ENDBRANCH  22  25
ENDBRANCH  19  22
ENDBRANCH  14  16
ENDBRANCH  12  14
ENDBRANCH   6  12
TORSDOF 6
ENDMDL
MODEL      159
REMARK 921   NORMALIZED FREE ENERGY PREDICTED BY IDOCK:   -5.57 KCAL/MOL
REMARK 922        TOTAL FREE ENERGY PREDICTED BY IDOCK:   -8.04 KCAL/MOL
REMARK 923 INTER-LIGAND FREE ENERGY PREDICTED BY IDOCK:   -7.26 KCAL/MOL
REMARK 924 INTRA-LIGAND FREE ENERGY PREDICTED BY IDOCK:   -0.78 KCAL/MOL
REMARK 927      BINDING AFFINITY PREDICTED BY RF-SCORE:    0.00 PKD
ROOT
HETATM    1  O   UNL     1      -5.758   7.336  72.374  1.00  0.00    -0.037 OA 
HETATM    2  C   UNL     1      -6.753   7.933  73.065  1.00  0.00    -0.081 C  
HETATM    3  C   UNL     1      -8.043   7.192  73.052  1.00  0.00    -0.121 A  
HETATM    4  O   UNL     1      -6.624   9.018  73.608  1.00  0.00    -0.333 OA 
HETATM    5  C   UNL     1      -9.223   7.938  73.228  1.00  0.00    -0.346 A  
HETATM    6  C   UNL     1     -10.476   7.307  73.266  1.00  0.00    -0.370 A  
HETATM    7  C   UNL     1     -10.520   5.914  73.111  1.00  0.00    -0.250 A  
HETATM    8  O   UNL     1      -6.981   5.067  72.724  1.00  0.00    -0.075 OA 
HETATM    9  C   UNL     1      -8.122   5.803  72.908  1.00  0.00    -0.115 A  
HETATM   10  H   UNL     1      -7.034   4.123  72.627  1.00  0.00     0.000 HD 
HETATM   11  C   UNL     1      -9.355   5.159  72.937  1.00  0.00    -0.145 A  
ENDROOT
BRANCH   6  12
HETATM   12  N   UNL     1     -11.709   7.973  73.448  1.00  0.00    -0.295 NA 
HETATM   13  H   UNL     1     -11.963   8.463  74.306  1.00  0.00     0.000 HD 
BRANCH  12  14
HETATM   14  N   UNL     1     -12.458   7.902  72.450  1.00  0.00    -0.538 NA 
HETATM   15  H   UNL     1     -13.124   7.145  72.294  1.00  0.00     0.000 HD 
BRANCH  14  16
HETATM   16  C   UNL     1     -12.280   8.987  71.563  1.00  0.00    -0.335 A  
HETATM   17  C   UNL     1     -11.263   9.784  69.493  1.00  0.00    -0.181 A  
HETATM   18  C   UNL     1     -11.535   8.754  70.399  1.00  0.00    -0.163 A  
HETATM   19  C   UNL     1     -11.776  11.063  69.723  1.00  0.00    -0.335 A  
HETATM   20  C   UNL     1     -12.795  10.278  71.774  1.00  0.00    -0.565 A  
HETATM   21  C   UNL     1     -12.541  11.315  70.865  1.00  0.00    -0.467 A  
BRANCH  19  22
HETATM   22  S   UNL     1     -11.280  12.404  68.654  1.00  0.00    -0.293 S  
HETATM   23  O   UNL     1      -9.952  12.808  69.056  1.00  0.00     0.039 OA 
HETATM   24  O   UNL     1     -12.374  13.356  68.651  1.00  0.00    -0.203 OA 
BRANCH  22  25
HETATM   25  N   UNL     1     -11.262  11.719  67.113  1.00  0.00    -0.298 N  
HETATM   26  H   UNL     1     -11.225  10.711  66.969  1.00  0.00     0.000 HD 
BRANCH  25  27
HETATM   27  C   UNL     1     -11.300  12.627  66.035  1.00  0.00    -0.327 A  
HETATM   28  N   UNL     1     -12.500  12.701  65.437  1.00  0.00    -0.655 NA 
HETATM   29  C   UNL     1     -12.617  13.616  64.449  1.00  0.00    -0.166 A  
HETATM   30  C   UNL     1     -11.580  14.431  64.023  1.00  0.00    -0.052 A  
HETATM   31  C   UNL     1     -10.343  14.301  64.645  1.00  0.00    -0.256 A  
HETATM   32  C   UNL     1     -10.194  13.379  65.679  1.00  0.00    -0.300 A  
ENDBRANCH  25  27
ENDBRANCH  22  25
ENDBRANCH  19  22
ENDBRANCH  14  16
ENDBRANCH  12  14
ENDBRANCH   6  12
TORSDOF 6
ENDMDL
MODEL      160
REMARK 921   NORMALIZED FREE ENERGY PREDICTED BY IDOCK:   -5.56 KCAL/MOL
REMARK 922        TOTAL FREE ENERGY PREDICTED BY IDOCK:   -8.04 KCAL/MOL
REMARK 923 INTER-LIGAND FREE ENERGY PREDICTED BY IDOCK:   -7.47 KCAL/MOL
REMARK 924 INTRA-LIGAND FREE ENERGY PREDICTED BY IDOCK:   -0.57 KCAL/MOL
REMARK 927      BINDING AFFINITY PREDICTED BY RF-SCORE:    0.00 PKD
ROOT
HETATM    1  O   UNL     1     -12.379  15.941  69.471  1.00  0.00    -0.236 OA 
HETATM    2  C   UNL     1     -11.572  14.859  69.509  1.00  0.00    -0.303 C  
HETATM    3  C   UNL     1     -10.360  14.962  68.653  1.00  0.00    -0.237 A  
HETATM    4  O   UNL     1     -11.842  13.854  70.147  1.00  0.00    -0.290 OA 
HETATM    5  C   UNL     1      -9.788  13.764  68.188  1.00  0.00    -0.239 A  
HETATM    6  C   UNL     1      -8.621  13.776  67.407  1.00  0.00    -0.203 A  
HETATM    7  C   UNL     1      -8.050  15.018  67.093  1.00  0.00    -0.245 A  
HETATM    8  O   UNL     1     -10.314  17.358  68.765  1.00  0.00    -0.337 OA 
HETATM    9  C   UNL     1      -9.759  16.183  68.328  1.00  0.00    -0.220 A  
HETATM   10  H   UNL     1      -9.906  18.187  68.544  1.00  0.00     0.000 HD 
HETATM   11  C   UNL     1      -8.606  16.217  67.550  1.00  0.00    -0.189 A  
ENDROOT
BRANCH   6  12
HETATM   12  N   UNL     1      -7.974  12.625  66.905  1.00  0.00    -0.387 NA 
HETATM   13  H   UNL     1      -6.986  12.423  67.061  1.00  0.00     0.000 HD 
BRANCH  12  14
HETATM   14  N   UNL     1      -8.734  11.879  66.253  1.00  0.00    -0.365 NA 
HETATM   15  H   UNL     1      -9.062  12.089  65.310  1.00  0.00     0.000 HD 
BRANCH  14  16
HETATM   16  C   UNL     1      -9.089  10.712  66.966  1.00  0.00    -0.144 A  
HETATM   17  C   UNL     1      -8.424   9.058  68.632  1.00  0.00    -0.128 A  
HETATM   18  C   UNL     1      -8.179  10.236  67.920  1.00  0.00    -0.109 A  
HETATM   19  C   UNL     1      -9.616   8.359  68.426  1.00  0.00    -0.148 A  
HETATM   20  C   UNL     1     -10.286  10.000  66.777  1.00  0.00    -0.295 A  
HETATM   21  C   UNL     1     -10.550   8.825  67.496  1.00  0.00    -0.298 A  
BRANCH  19  22
HETATM   22  S   UNL     1      -9.839   6.771  69.211  1.00  0.00    -0.157 S  
HETATM   23  O   UNL     1      -8.629   6.010  68.997  1.00  0.00    -0.118 OA 
HETATM   24  O   UNL     1     -11.121   6.263  68.760  1.00  0.00    -0.337 OA 
BRANCH  22  25
HETATM   25  N   UNL     1     -10.039   7.141  70.844  1.00  0.00    -0.193 N  
HETATM   26  H   UNL     1      -9.296   6.994  71.527  1.00  0.00     0.000 HD 
BRANCH  25  27
HETATM   27  C   UNL     1     -11.295   7.666  71.207  1.00  0.00    -0.264 A  
HETATM   28  N   UNL     1     -11.301   9.002  71.343  1.00  0.00    -0.295 NA 
HETATM   29  C   UNL     1     -12.499   9.568  71.612  1.00  0.00    -0.391 A  
HETATM   30  C   UNL     1     -13.674   8.850  71.775  1.00  0.00    -0.471 A  
HETATM   31  C   UNL     1     -13.621   7.465  71.659  1.00  0.00    -0.449 A  
HETATM   32  C   UNL     1     -12.404   6.853  71.366  1.00  0.00    -0.421 A  
ENDBRANCH  25  27
ENDBRANCH  22  25
ENDBRANCH  19  22
ENDBRANCH  14  16
ENDBRANCH  12  14
ENDBRANCH   6  12
TORSDOF 6
ENDMDL
MODEL      161
REMARK 921   NORMALIZED FREE ENERGY PREDICTED BY IDOCK:   -5.55 KCAL/MOL
REMARK 922        TOTAL FREE ENERGY PREDICTED BY IDOCK:   -8.02 KCAL/MOL
REMARK 923 INTER-LIGAND FREE ENERGY PREDICTED BY IDOCK:   -7.35 KCAL/MOL
REMARK 924 INTRA-LIGAND FREE ENERGY PREDICTED BY IDOCK:   -0.67 KCAL/MOL
REMARK 927      BINDING AFFINITY PREDICTED BY RF-SCORE:    0.00 PKD
ROOT
HETATM    1  O   UNL     1      -8.692   5.326  67.029  1.00  0.00    -0.109 OA 
HETATM    2  C   UNL     1      -9.747   6.143  66.821  1.00  0.00    -0.158 C  
HETATM    3  C   UNL     1      -9.401   7.453  66.206  1.00  0.00    -0.166 A  
HETATM    4  O   UNL     1     -10.883   5.857  67.161  1.00  0.00    -0.296 OA 
HETATM    5  C   UNL     1     -10.261   8.537  66.459  1.00  0.00    -0.286 A  
HETATM    6  C   UNL     1     -10.024   9.796  65.884  1.00  0.00    -0.275 A  
HETATM    7  C   UNL     1      -8.898   9.945  65.061  1.00  0.00    -0.220 A  
HETATM    8  O   UNL     1      -7.440   6.589  65.130  1.00  0.00    -0.074 OA 
HETATM    9  C   UNL     1      -8.292   7.634  65.374  1.00  0.00    -0.128 A  
HETATM   10  H   UNL     1      -6.686   6.712  64.564  1.00  0.00     0.000 HD 
HETATM   11  C   UNL     1      -8.036   8.876  64.799  1.00  0.00    -0.144 A  
ENDROOT
BRANCH   6  12
HETATM   12  N   UNL     1     -10.838  10.936  66.074  1.00  0.00    -0.146 NA 
HETATM   13  H   UNL     1     -11.457  11.056  66.876  1.00  0.00     0.000 HD 
BRANCH  12  14
HETATM   14  N   UNL     1     -10.721  11.781  65.162  1.00  0.00    -0.282 NA 
HETATM   15  H   UNL     1     -10.721  11.547  64.169  1.00  0.00     0.000 HD 
BRANCH  14  16
HETATM   16  C   UNL     1     -10.590  13.097  65.659  1.00  0.00    -0.277 A  
HETATM   17  C   UNL     1     -10.570  15.481  65.139  1.00  0.00    -0.455 A  
HETATM   18  C   UNL     1     -10.738  14.150  64.746  1.00  0.00    -0.436 A  
HETATM   19  C   UNL     1     -10.292  15.779  66.476  1.00  0.00    -0.294 A  
HETATM   20  C   UNL     1     -10.318  13.416  67.000  1.00  0.00    -0.247 A  
HETATM   21  C   UNL     1     -10.162  14.747  67.411  1.00  0.00    -0.236 A  
BRANCH  19  22
HETATM   22  S   UNL     1      -9.911  17.463  66.930  1.00  0.00    -0.302 S  
HETATM   23  O   UNL     1     -10.640  17.758  68.142  1.00  0.00    -0.378 OA 
HETATM   24  O   UNL     1     -10.103  18.265  65.737  1.00  0.00    -0.560 OA 
BRANCH  22  25
HETATM   25  N   UNL     1      -8.248  17.449  67.213  1.00  0.00    -0.202 N  
HETATM   26  H   UNL     1      -7.773  16.635  67.602  1.00  0.00     0.000 HD 
BRANCH  25  27
HETATM   27  C   UNL     1      -7.557  18.631  66.880  1.00  0.00    -0.221 A  
HETATM   28  N   UNL     1      -7.814  19.656  67.709  1.00  0.00    -0.283 NA 
HETATM   29  C   UNL     1      -7.116  20.792  67.484  1.00  0.00    -0.346 A  
HETATM   30  C   UNL     1      -6.201  20.946  66.455  1.00  0.00    -0.312 A  
HETATM   31  C   UNL     1      -5.987  19.872  65.597  1.00  0.00    -0.209 A  
HETATM   32  C   UNL     1      -6.678  18.682  65.812  1.00  0.00    -0.311 A  
ENDBRANCH  25  27
ENDBRANCH  22  25
ENDBRANCH  19  22
ENDBRANCH  14  16
ENDBRANCH  12  14
ENDBRANCH   6  12
TORSDOF 6
ENDMDL
MODEL      162
REMARK 921   NORMALIZED FREE ENERGY PREDICTED BY IDOCK:   -5.55 KCAL/MOL
REMARK 922        TOTAL FREE ENERGY PREDICTED BY IDOCK:   -8.01 KCAL/MOL
REMARK 923 INTER-LIGAND FREE ENERGY PREDICTED BY IDOCK:   -7.33 KCAL/MOL
REMARK 924 INTRA-LIGAND FREE ENERGY PREDICTED BY IDOCK:   -0.68 KCAL/MOL
REMARK 927      BINDING AFFINITY PREDICTED BY RF-SCORE:    0.00 PKD
ROOT
HETATM    1  O   UNL     1      -6.823   4.171  65.053  1.00  0.00    -0.047 OA 
HETATM    2  C   UNL     1      -6.984   5.254  65.843  1.00  0.00    -0.066 C  
HETATM    3  C   UNL     1      -8.400   5.595  66.141  1.00  0.00    -0.120 A  
HETATM    4  O   UNL     1      -6.048   5.933  66.235  1.00  0.00    -0.027 OA 
HETATM    5  C   UNL     1      -8.697   6.937  66.445  1.00  0.00    -0.147 A  
HETATM    6  C   UNL     1     -10.003   7.330  66.775  1.00  0.00    -0.217 A  
HETATM    7  C   UNL     1     -11.007   6.351  66.780  1.00  0.00    -0.321 A  
HETATM    8  O   UNL     1      -9.151   3.335  65.857  1.00  0.00    -0.142 OA 
HETATM    9  C   UNL     1      -9.424   4.643  66.164  1.00  0.00    -0.169 A  
HETATM   10  H   UNL     1      -9.846   2.688  65.873  1.00  0.00     0.000 HD 
HETATM   11  C   UNL     1     -10.727   5.014  66.483  1.00  0.00    -0.205 A  
ENDROOT
BRANCH   6  12
HETATM   12  N   UNL     1     -10.389   8.650  67.102  1.00  0.00    -0.284 NA 
HETATM   13  H   UNL     1     -11.166   8.870  67.726  1.00  0.00     0.000 HD 
BRANCH  12  14
HETATM   14  N   UNL     1      -9.683   9.520  66.550  1.00  0.00    -0.204 NA 
HETATM   15  H   UNL     1      -8.949   9.309  65.875  1.00  0.00     0.000 HD 
BRANCH  14  16
HETATM   16  C   UNL     1     -10.016  10.828  66.965  1.00  0.00    -0.197 A  
HETATM   17  C   UNL     1      -9.201  13.052  67.554  1.00  0.00    -0.195 A  
HETATM   18  C   UNL     1      -8.969  11.751  67.095  1.00  0.00    -0.177 A  
HETATM   19  C   UNL     1     -10.504  13.461  67.848  1.00  0.00    -0.240 A  
HETATM   20  C   UNL     1     -11.321  11.261  67.258  1.00  0.00    -0.329 A  
HETATM   21  C   UNL     1     -11.568  12.567  67.704  1.00  0.00    -0.416 A  
BRANCH  19  22
HETATM   22  S   UNL     1     -10.764  15.063  68.593  1.00  0.00    -0.253 S  
HETATM   23  O   UNL     1     -12.121  15.462  68.295  1.00  0.00    -0.191 OA 
HETATM   24  O   UNL     1      -9.644  15.892  68.190  1.00  0.00    -0.206 OA 
BRANCH  22  25
HETATM   25  N   UNL     1     -10.564  14.789  70.245  1.00  0.00    -0.483 N  
HETATM   26  H   UNL     1      -9.643  14.663  70.664  1.00  0.00     0.000 HD 
BRANCH  25  27
HETATM   27  C   UNL     1     -11.746  14.745  71.009  1.00  0.00    -0.306 A  
HETATM   28  N   UNL     1     -12.290  13.520  71.090  1.00  0.00    -0.340 NA 
HETATM   29  C   UNL     1     -13.382  13.404  71.879  1.00  0.00    -0.451 A  
HETATM   30  C   UNL     1     -13.960  14.464  72.560  1.00  0.00    -0.508 A  
HETATM   31  C   UNL     1     -13.387  15.724  72.425  1.00  0.00    -0.545 A  
HETATM   32  C   UNL     1     -12.251  15.873  71.632  1.00  0.00    -0.544 A  
ENDBRANCH  25  27
ENDBRANCH  22  25
ENDBRANCH  19  22
ENDBRANCH  14  16
ENDBRANCH  12  14
ENDBRANCH   6  12
TORSDOF 6
ENDMDL
MODEL      163
REMARK 921   NORMALIZED FREE ENERGY PREDICTED BY IDOCK:   -5.54 KCAL/MOL
REMARK 922        TOTAL FREE ENERGY PREDICTED BY IDOCK:   -8.01 KCAL/MOL
REMARK 923 INTER-LIGAND FREE ENERGY PREDICTED BY IDOCK:   -7.39 KCAL/MOL
REMARK 924 INTRA-LIGAND FREE ENERGY PREDICTED BY IDOCK:   -0.61 KCAL/MOL
REMARK 927      BINDING AFFINITY PREDICTED BY RF-SCORE:    0.00 PKD
ROOT
HETATM    1  O   UNL     1      -9.397   3.062  66.711  1.00  0.00    -0.161 OA 
HETATM    2  C   UNL     1      -9.812   4.347  66.683  1.00  0.00    -0.226 C  
HETATM    3  C   UNL     1      -9.049   5.261  67.575  1.00  0.00    -0.110 A  
HETATM    4  O   UNL     1     -10.770   4.719  66.026  1.00  0.00    -0.319 OA 
HETATM    5  C   UNL     1      -9.706   6.413  68.042  1.00  0.00    -0.122 A  
HETATM    6  C   UNL     1      -9.042   7.344  68.856  1.00  0.00    -0.136 A  
HETATM    7  C   UNL     1      -7.707   7.085  69.202  1.00  0.00    -0.105 A  
HETATM    8  O   UNL     1      -7.067   3.913  67.494  1.00  0.00    -0.054 OA 
HETATM    9  C   UNL     1      -7.715   5.038  67.932  1.00  0.00    -0.084 A  
HETATM   10  H   UNL     1      -6.160   3.761  67.735  1.00  0.00     0.000 HD 
HETATM   11  C   UNL     1      -7.040   5.945  68.743  1.00  0.00    -0.081 A  
ENDROOT
BRANCH   6  12
HETATM   12  N   UNL     1      -9.619   8.530  69.362  1.00  0.00    -0.169 NA 
HETATM   13  H   UNL     1      -9.128   9.174  69.983  1.00  0.00     0.000 HD 
BRANCH  12  14
HETATM   14  N   UNL     1     -10.792   8.711  68.972  1.00  0.00    -0.429 NA 
HETATM   15  H   UNL     1     -11.575   8.112  69.234  1.00  0.00     0.000 HD 
BRANCH  14  16
HETATM   16  C   UNL     1     -10.913   9.839  68.130  1.00  0.00    -0.175 A  
HETATM   17  C   UNL     1     -11.758  12.114  67.874  1.00  0.00    -0.403 A  
HETATM   18  C   UNL     1     -11.546  10.973  68.655  1.00  0.00    -0.385 A  
HETATM   19  C   UNL     1     -11.293  12.147  66.556  1.00  0.00    -0.350 A  
HETATM   20  C   UNL     1     -10.445   9.894  66.805  1.00  0.00    -0.261 A  
HETATM   21  C   UNL     1     -10.638  11.037  66.017  1.00  0.00    -0.275 A  
BRANCH  19  22
HETATM   22  S   UNL     1     -11.720  13.536  65.520  1.00  0.00    -0.358 S  
HETATM   23  O   UNL     1     -12.379  14.513  66.357  1.00  0.00    -0.350 OA 
HETATM   24  O   UNL     1     -12.388  12.992  64.353  1.00  0.00    -0.445 OA 
BRANCH  22  25
HETATM   25  N   UNL     1     -10.234  14.115  64.971  1.00  0.00    -0.512 N  
HETATM   26  H   UNL     1      -9.713  13.650  64.228  1.00  0.00     0.000 HD 
BRANCH  25  27
HETATM   27  C   UNL     1      -9.757  15.282  65.602  1.00  0.00    -0.325 A  
HETATM   28  N   UNL     1     -10.377  16.403  65.200  1.00  0.00    -0.620 NA 
HETATM   29  C   UNL     1     -10.015  17.542  65.831  1.00  0.00    -0.139 A  
HETATM   30  C   UNL     1      -9.045  17.604  66.820  1.00  0.00    -0.273 A  
HETATM   31  C   UNL     1      -8.402  16.426  67.185  1.00  0.00    -0.214 A  
HETATM   32  C   UNL     1      -8.764  15.233  66.565  1.00  0.00    -0.314 A  
ENDBRANCH  25  27
ENDBRANCH  22  25
ENDBRANCH  19  22
ENDBRANCH  14  16
ENDBRANCH  12  14
ENDBRANCH   6  12
TORSDOF 6
ENDMDL
MODEL      164
REMARK 921   NORMALIZED FREE ENERGY PREDICTED BY IDOCK:   -5.52 KCAL/MOL
REMARK 922        TOTAL FREE ENERGY PREDICTED BY IDOCK:   -7.98 KCAL/MOL
REMARK 923 INTER-LIGAND FREE ENERGY PREDICTED BY IDOCK:   -7.25 KCAL/MOL
REMARK 924 INTRA-LIGAND FREE ENERGY PREDICTED BY IDOCK:   -0.73 KCAL/MOL
REMARK 927      BINDING AFFINITY PREDICTED BY RF-SCORE:    0.00 PKD
ROOT
HETATM    1  O   UNL     1      -6.663  20.868  67.850  1.00  0.00    -0.322 OA 
HETATM    2  C   UNL     1      -6.965  19.649  68.348  1.00  0.00    -0.302 C  
HETATM    3  C   UNL     1      -8.301  19.134  67.948  1.00  0.00    -0.333 A  
HETATM    4  O   UNL     1      -6.228  19.044  69.110  1.00  0.00    -0.246 OA 
HETATM    5  C   UNL     1      -8.927  18.211  68.806  1.00  0.00    -0.231 A  
HETATM    6  C   UNL     1     -10.171  17.650  68.480  1.00  0.00    -0.386 A  
HETATM    7  C   UNL     1     -10.780  18.045  67.280  1.00  0.00    -0.305 A  
HETATM    8  O   UNL     1      -8.341  20.408  65.916  1.00  0.00    -0.550 OA 
HETATM    9  C   UNL     1      -8.933  19.500  66.755  1.00  0.00    -0.335 A  
HETATM   10  H   UNL     1      -8.769  20.656  65.105  1.00  0.00     0.000 HD 
HETATM   11  C   UNL     1     -10.170  18.960  66.416  1.00  0.00    -0.481 A  
ENDROOT
BRANCH   6  12
HETATM   12  N   UNL     1     -10.866  16.711  69.276  1.00  0.00    -0.327 NA 
HETATM   13  H   UNL     1     -10.734  16.622  70.283  1.00  0.00     0.000 HD 
BRANCH  12  14
HETATM   14  N   UNL     1     -11.659  16.002  68.620  1.00  0.00    -0.384 NA 
HETATM   15  H   UNL     1     -12.480  16.368  68.138  1.00  0.00     0.000 HD 
BRANCH  14  16
HETATM   16  C   UNL     1     -11.291  14.638  68.622  1.00  0.00    -0.283 A  
HETATM   17  C   UNL     1     -11.852  12.375  69.340  1.00  0.00    -0.365 A  
HETATM   18  C   UNL     1     -12.163  13.735  69.244  1.00  0.00    -0.307 A  
HETATM   19  C   UNL     1     -10.671  11.892  68.769  1.00  0.00    -0.224 A  
HETATM   20  C   UNL     1     -10.112  14.133  68.047  1.00  0.00    -0.233 A  
HETATM   21  C   UNL     1      -9.796  12.770  68.123  1.00  0.00    -0.226 A  
BRANCH  19  22
HETATM   22  S   UNL     1     -10.204  10.192  69.048  1.00  0.00    -0.221 S  
HETATM   23  O   UNL     1     -10.854   9.393  68.033  1.00  0.00    -0.220 OA 
HETATM   24  O   UNL     1     -10.431   9.926  70.456  1.00  0.00    -0.284 OA 
BRANCH  22  25
HETATM   25  N   UNL     1      -8.530  10.183  68.842  1.00  0.00    -0.129 N  
HETATM   26  H   UNL     1      -7.940  10.944  69.177  1.00  0.00     0.000 HD 
BRANCH  25  27
HETATM   27  C   UNL     1      -7.997   9.060  68.179  1.00  0.00    -0.101 A  
HETATM   28  N   UNL     1      -8.124   7.916  68.871  1.00  0.00    -0.123 NA 
HETATM   29  C   UNL     1      -7.702   6.793  68.248  1.00  0.00    -0.106 A  
HETATM   30  C   UNL     1      -7.138   6.777  66.981  1.00  0.00    -0.072 A  
HETATM   31  C   UNL     1      -6.993   7.986  66.310  1.00  0.00    -0.063 A  
HETATM   32  C   UNL     1      -7.433   9.159  66.919  1.00  0.00    -0.091 A  
ENDBRANCH  25  27
ENDBRANCH  22  25
ENDBRANCH  19  22
ENDBRANCH  14  16
ENDBRANCH  12  14
ENDBRANCH   6  12
TORSDOF 6
ENDMDL
MODEL      165
REMARK 921   NORMALIZED FREE ENERGY PREDICTED BY IDOCK:   -5.52 KCAL/MOL
REMARK 922        TOTAL FREE ENERGY PREDICTED BY IDOCK:   -7.98 KCAL/MOL
REMARK 923 INTER-LIGAND FREE ENERGY PREDICTED BY IDOCK:   -7.29 KCAL/MOL
REMARK 924 INTRA-LIGAND FREE ENERGY PREDICTED BY IDOCK:   -0.68 KCAL/MOL
REMARK 927      BINDING AFFINITY PREDICTED BY RF-SCORE:    0.00 PKD
ROOT
HETATM    1  O   UNL     1      -9.656   3.154  73.194  1.00  0.00    -0.096 OA 
HETATM    2  C   UNL     1     -10.257   4.356  73.337  1.00  0.00    -0.165 C  
HETATM    3  C   UNL     1     -10.066   5.281  72.188  1.00  0.00    -0.241 A  
HETATM    4  O   UNL     1     -10.858   4.679  74.348  1.00  0.00    -0.328 OA 
HETATM    5  C   UNL     1     -10.142   6.662  72.445  1.00  0.00    -0.184 A  
HETATM    6  C   UNL     1     -10.011   7.598  71.407  1.00  0.00    -0.181 A  
HETATM    7  C   UNL     1      -9.790   7.118  70.108  1.00  0.00    -0.180 A  
HETATM    8  O   UNL     1      -9.766   3.493  70.617  1.00  0.00    -0.180 OA 
HETATM    9  C   UNL     1      -9.854   4.836  70.879  1.00  0.00    -0.209 A  
HETATM   10  H   UNL     1      -9.622   3.191  69.728  1.00  0.00     0.000 HD 
HETATM   11  C   UNL     1      -9.716   5.748  69.837  1.00  0.00    -0.212 A  
ENDROOT
BRANCH   6  12
HETATM   12  N   UNL     1     -10.082   9.000  71.571  1.00  0.00    -0.329 NA 
HETATM   13  H   UNL     1      -9.314   9.562  71.937  1.00  0.00     0.000 HD 
BRANCH  12  14
HETATM   14  N   UNL     1     -11.181   9.480  71.223  1.00  0.00    -0.358 NA 
HETATM   15  H   UNL     1     -12.079   9.169  71.593  1.00  0.00     0.000 HD 
BRANCH  14  16
HETATM   16  C   UNL     1     -11.041  10.503  70.258  1.00  0.00    -0.285 A  
HETATM   17  C   UNL     1     -12.124  12.316  69.035  1.00  0.00    -0.197 A  
HETATM   18  C   UNL     1     -12.156  11.316  70.012  1.00  0.00    -0.425 A  
HETATM   19  C   UNL     1     -10.948  12.546  68.317  1.00  0.00    -0.240 A  
HETATM   20  C   UNL     1      -9.864  10.754  69.532  1.00  0.00    -0.049 A  
HETATM   21  C   UNL     1      -9.815  11.764  68.561  1.00  0.00    -0.192 A  
BRANCH  19  22
HETATM   22  S   UNL     1     -10.971  13.705  66.959  1.00  0.00    -0.293 S  
HETATM   23  O   UNL     1      -9.598  14.027  66.643  1.00  0.00    -0.270 OA 
HETATM   24  O   UNL     1     -11.910  14.749  67.324  1.00  0.00    -0.378 OA 
BRANCH  22  25
HETATM   25  N   UNL     1     -11.697  12.852  65.699  1.00  0.00    -0.365 N  
HETATM   26  H   UNL     1     -12.682  12.969  65.464  1.00  0.00     0.000 HD 
BRANCH  25  27
HETATM   27  C   UNL     1     -10.859  11.968  64.990  1.00  0.00    -0.304 A  
HETATM   28  N   UNL     1     -10.430  12.459  63.817  1.00  0.00    -0.435 NA 
HETATM   29  C   UNL     1      -9.557  11.686  63.132  1.00  0.00    -0.323 A  
HETATM   30  C   UNL     1      -9.125  10.441  63.561  1.00  0.00    -0.270 A  
HETATM   31  C   UNL     1      -9.618   9.952  64.766  1.00  0.00    -0.339 A  
HETATM   32  C   UNL     1     -10.506  10.732  65.504  1.00  0.00    -0.264 A  
ENDBRANCH  25  27
ENDBRANCH  22  25
ENDBRANCH  19  22
ENDBRANCH  14  16
ENDBRANCH  12  14
ENDBRANCH   6  12
TORSDOF 6
ENDMDL
MODEL      166
REMARK 921   NORMALIZED FREE ENERGY PREDICTED BY IDOCK:   -5.49 KCAL/MOL
REMARK 922        TOTAL FREE ENERGY PREDICTED BY IDOCK:   -7.94 KCAL/MOL
REMARK 923 INTER-LIGAND FREE ENERGY PREDICTED BY IDOCK:   -7.42 KCAL/MOL
REMARK 924 INTRA-LIGAND FREE ENERGY PREDICTED BY IDOCK:   -0.52 KCAL/MOL
REMARK 927      BINDING AFFINITY PREDICTED BY RF-SCORE:    0.00 PKD
ROOT
HETATM    1  O   UNL     1     -12.879  16.005  71.750  1.00  0.00    -0.444 OA 
HETATM    2  C   UNL     1     -12.606  15.201  70.700  1.00  0.00    -0.395 C  
HETATM    3  C   UNL     1     -12.698  13.746  70.997  1.00  0.00    -0.416 A  
HETATM    4  O   UNL     1     -12.258  15.628  69.611  1.00  0.00    -0.352 OA 
HETATM    5  C   UNL     1     -11.927  12.871  70.210  1.00  0.00    -0.359 A  
HETATM    6  C   UNL     1     -11.988  11.482  70.403  1.00  0.00    -0.368 A  
HETATM    7  C   UNL     1     -12.829  10.992  71.413  1.00  0.00    -0.548 A  
HETATM    8  O   UNL     1     -14.278  14.065  72.773  1.00  0.00    -0.583 OA 
HETATM    9  C   UNL     1     -13.532  13.223  71.990  1.00  0.00    -0.507 A  
HETATM   10  H   UNL     1     -14.845  13.709  73.447  1.00  0.00     0.000 HD 
HETATM   11  C   UNL     1     -13.602  11.849  72.202  1.00  0.00    -0.188 A  
ENDROOT
BRANCH   6  12
HETATM   12  N   UNL     1     -11.259  10.531  69.655  1.00  0.00    -0.262 NA 
HETATM   13  H   UNL     1     -10.438  10.766  69.095  1.00  0.00     0.000 HD 
BRANCH  12  14
HETATM   14  N   UNL     1     -11.719   9.374  69.748  1.00  0.00    -0.428 NA 
HETATM   15  H   UNL     1     -12.494   9.026  69.183  1.00  0.00     0.000 HD 
BRANCH  14  16
HETATM   16  C   UNL     1     -11.048   8.602  70.721  1.00  0.00    -0.255 A  
HETATM   17  C   UNL     1      -8.909   8.007  71.735  1.00  0.00    -0.184 A  
HETATM   18  C   UNL     1      -9.661   8.770  70.836  1.00  0.00    -0.277 A  
HETATM   19  C   UNL     1      -9.551   7.088  72.569  1.00  0.00    -0.145 A  
HETATM   20  C   UNL     1     -11.677   7.678  71.574  1.00  0.00    -0.310 A  
HETATM   21  C   UNL     1     -10.936   6.918  72.490  1.00  0.00    -0.294 A  
BRANCH  19  22
HETATM   22  S   UNL     1      -8.564   6.001  73.586  1.00  0.00    -0.124 S  
HETATM   23  O   UNL     1      -9.466   5.069  74.223  1.00  0.00    -0.121 OA 
HETATM   24  O   UNL     1      -7.697   6.852  74.379  1.00  0.00    -0.110 OA 
BRANCH  22  25
HETATM   25  N   UNL     1      -7.555   5.211  72.489  1.00  0.00    -0.095 N  
HETATM   26  H   UNL     1      -6.659   5.602  72.200  1.00  0.00     0.000 HD 
BRANCH  25  27
HETATM   27  C   UNL     1      -8.026   3.978  71.997  1.00  0.00    -0.084 A  
HETATM   28  N   UNL     1      -7.472   2.912  72.598  1.00  0.00    -0.044 NA 
HETATM   29  C   UNL     1      -7.947   1.703  72.222  1.00  0.00    -0.045 A  
HETATM   30  C   UNL     1      -8.925   1.523  71.256  1.00  0.00    -0.117 A  
HETATM   31  C   UNL     1      -9.451   2.650  70.633  1.00  0.00    -0.206 A  
HETATM   32  C   UNL     1      -8.995   3.911  71.011  1.00  0.00    -0.159 A  
ENDBRANCH  25  27
ENDBRANCH  22  25
ENDBRANCH  19  22
ENDBRANCH  14  16
ENDBRANCH  12  14
ENDBRANCH   6  12
TORSDOF 6
ENDMDL
MODEL      167
REMARK 921   NORMALIZED FREE ENERGY PREDICTED BY IDOCK:   -5.49 KCAL/MOL
REMARK 922        TOTAL FREE ENERGY PREDICTED BY IDOCK:   -7.94 KCAL/MOL
REMARK 923 INTER-LIGAND FREE ENERGY PREDICTED BY IDOCK:   -7.31 KCAL/MOL
REMARK 924 INTRA-LIGAND FREE ENERGY PREDICTED BY IDOCK:   -0.63 KCAL/MOL
REMARK 927      BINDING AFFINITY PREDICTED BY RF-SCORE:    0.00 PKD
ROOT
HETATM    1  O   UNL     1      -7.551   4.469  64.415  1.00  0.00    -0.070 OA 
HETATM    2  C   UNL     1      -8.513   5.086  65.135  1.00  0.00    -0.143 C  
HETATM    3  C   UNL     1      -8.395   6.568  65.181  1.00  0.00    -0.101 A  
HETATM    4  O   UNL     1      -9.376   4.477  65.747  1.00  0.00    -0.142 OA 
HETATM    5  C   UNL     1      -8.948   7.231  66.291  1.00  0.00    -0.185 A  
HETATM    6  C   UNL     1      -8.910   8.631  66.389  1.00  0.00    -0.140 A  
HETATM    7  C   UNL     1      -8.294   9.349  65.353  1.00  0.00    -0.143 A  
HETATM    8  O   UNL     1      -7.241   6.681  63.081  1.00  0.00    -0.051 OA 
HETATM    9  C   UNL     1      -7.795   7.315  64.162  1.00  0.00    -0.118 A  
HETATM   10  H   UNL     1      -6.834   7.188  62.389  1.00  0.00     0.000 HD 
HETATM   11  C   UNL     1      -7.742   8.704  64.242  1.00  0.00    -0.128 A  
ENDROOT
BRANCH   6  12
HETATM   12  N   UNL     1      -9.447   9.380  67.460  1.00  0.00    -0.127 NA 
HETATM   13  H   UNL     1      -8.980   9.486  68.361  1.00  0.00     0.000 HD 
BRANCH  12  14
HETATM   14  N   UNL     1     -10.552   9.898  67.192  1.00  0.00    -0.244 NA 
HETATM   15  H   UNL     1     -11.425   9.373  67.135  1.00  0.00     0.000 HD 
BRANCH  14  16
HETATM   16  C   UNL     1     -10.457  11.291  66.980  1.00  0.00    -0.234 A  
HETATM   17  C   UNL     1     -11.211  13.212  65.677  1.00  0.00    -0.306 A  
HETATM   18  C   UNL     1     -11.279  11.851  65.992  1.00  0.00    -0.377 A  
HETATM   19  C   UNL     1     -10.341  14.045  66.386  1.00  0.00    -0.289 A  
HETATM   20  C   UNL     1      -9.594  12.146  67.687  1.00  0.00    -0.190 A  
HETATM   21  C   UNL     1      -9.528  13.514  67.391  1.00  0.00    -0.225 A  
BRANCH  19  22
HETATM   22  S   UNL     1     -10.140  15.739  65.860  1.00  0.00    -0.383 S  
HETATM   23  O   UNL     1     -10.918  15.913  64.655  1.00  0.00    -0.528 OA 
HETATM   24  O   UNL     1      -8.714  16.006  65.864  1.00  0.00    -0.298 OA 
BRANCH  22  25
HETATM   25  N   UNL     1     -10.781  16.646  67.129  1.00  0.00    -0.256 N  
HETATM   26  H   UNL     1     -11.468  16.260  67.776  1.00  0.00     0.000 HD 
BRANCH  25  27
HETATM   27  C   UNL     1     -10.310  17.969  67.241  1.00  0.00    -0.378 A  
HETATM   28  N   UNL     1      -9.627  18.203  68.373  1.00  0.00    -0.322 NA 
HETATM   29  C   UNL     1      -9.082  19.434  68.496  1.00  0.00    -0.375 A  
HETATM   30  C   UNL     1      -9.217  20.437  67.549  1.00  0.00    -0.475 A  
HETATM   31  C   UNL     1      -9.959  20.167  66.404  1.00  0.00    -0.573 A  
HETATM   32  C   UNL     1     -10.520  18.902  66.240  1.00  0.00    -0.510 A  
ENDBRANCH  25  27
ENDBRANCH  22  25
ENDBRANCH  19  22
ENDBRANCH  14  16
ENDBRANCH  12  14
ENDBRANCH   6  12
TORSDOF 6
ENDMDL
MODEL      168
REMARK 921   NORMALIZED FREE ENERGY PREDICTED BY IDOCK:   -5.49 KCAL/MOL
REMARK 922        TOTAL FREE ENERGY PREDICTED BY IDOCK:   -7.94 KCAL/MOL
REMARK 923 INTER-LIGAND FREE ENERGY PREDICTED BY IDOCK:   -7.29 KCAL/MOL
REMARK 924 INTRA-LIGAND FREE ENERGY PREDICTED BY IDOCK:   -0.65 KCAL/MOL
REMARK 927      BINDING AFFINITY PREDICTED BY RF-SCORE:    0.00 PKD
ROOT
HETATM    1  O   UNL     1     -12.492  15.690  71.532  1.00  0.00    -0.375 OA 
HETATM    2  C   UNL     1     -12.307  14.819  70.516  1.00  0.00    -0.337 C  
HETATM    3  C   UNL     1     -12.488  13.390  70.889  1.00  0.00    -0.439 A  
HETATM    4  O   UNL     1     -11.963  15.167  69.398  1.00  0.00    -0.313 OA 
HETATM    5  C   UNL     1     -11.803  12.427  70.126  1.00  0.00    -0.341 A  
HETATM    6  C   UNL     1     -11.952  11.056  70.391  1.00  0.00    -0.368 A  
HETATM    7  C   UNL     1     -12.793  10.675  71.447  1.00  0.00    -0.556 A  
HETATM    8  O   UNL     1     -13.988  13.904  72.688  1.00  0.00    -0.684 OA 
HETATM    9  C   UNL     1     -13.325  12.975  71.930  1.00  0.00    -0.446 A  
HETATM   10  H   UNL     1     -14.558  13.622  73.395  1.00  0.00     0.000 HD 
HETATM   11  C   UNL     1     -13.482  11.621  72.212  1.00  0.00    -0.098 A  
ENDROOT
BRANCH   6  12
HETATM   12  N   UNL     1     -11.312  10.021  69.673  1.00  0.00    -0.357 NA 
HETATM   13  H   UNL     1     -10.577  10.187  68.984  1.00  0.00     0.000 HD 
BRANCH  12  14
HETATM   14  N   UNL     1     -11.736   8.884  69.966  1.00  0.00    -0.444 NA 
HETATM   15  H   UNL     1     -12.721   8.669  70.122  1.00  0.00     0.000 HD 
BRANCH  14  16
HETATM   16  C   UNL     1     -10.700   7.928  70.058  1.00  0.00    -0.244 A  
HETATM   17  C   UNL     1     -10.113   5.570  70.284  1.00  0.00    -0.305 A  
HETATM   18  C   UNL     1     -11.071   6.579  70.136  1.00  0.00    -0.410 A  
HETATM   19  C   UNL     1      -8.756   5.902  70.313  1.00  0.00    -0.142 A  
HETATM   20  C   UNL     1      -9.330   8.242  70.081  1.00  0.00    -0.159 A  
HETATM   21  C   UNL     1      -8.360   7.239  70.215  1.00  0.00    -0.135 A  
BRANCH  19  22
HETATM   22  S   UNL     1      -7.558   4.629  70.675  1.00  0.00    -0.054 S  
HETATM   23  O   UNL     1      -6.295   5.052  70.114  1.00  0.00    -0.024 OA 
HETATM   24  O   UNL     1      -8.159   3.371  70.277  1.00  0.00    -0.046 OA 
BRANCH  22  25
HETATM   25  N   UNL     1      -7.488   4.593  72.360  1.00  0.00    -0.081 N  
HETATM   26  H   UNL     1      -7.384   3.721  72.878  1.00  0.00     0.000 HD 
BRANCH  25  27
HETATM   27  C   UNL     1      -7.583   5.841  73.007  1.00  0.00    -0.100 A  
HETATM   28  N   UNL     1      -8.811   6.111  73.478  1.00  0.00    -0.125 NA 
HETATM   29  C   UNL     1      -8.941   7.260  74.179  1.00  0.00    -0.226 A  
HETATM   30  C   UNL     1      -7.903   8.152  74.400  1.00  0.00    -0.298 A  
HETATM   31  C   UNL     1      -6.653   7.853  73.868  1.00  0.00    -0.115 A  
HETATM   32  C   UNL     1      -6.483   6.669  73.154  1.00  0.00    -0.064 A  
ENDBRANCH  25  27
ENDBRANCH  22  25
ENDBRANCH  19  22
ENDBRANCH  14  16
ENDBRANCH  12  14
ENDBRANCH   6  12
TORSDOF 6
ENDMDL
MODEL      169
REMARK 921   NORMALIZED FREE ENERGY PREDICTED BY IDOCK:   -5.47 KCAL/MOL
REMARK 922        TOTAL FREE ENERGY PREDICTED BY IDOCK:   -7.91 KCAL/MOL
REMARK 923 INTER-LIGAND FREE ENERGY PREDICTED BY IDOCK:   -7.25 KCAL/MOL
REMARK 924 INTRA-LIGAND FREE ENERGY PREDICTED BY IDOCK:   -0.65 KCAL/MOL
REMARK 927      BINDING AFFINITY PREDICTED BY RF-SCORE:    0.00 PKD
ROOT
HETATM    1  O   UNL     1     -12.923  15.552  71.752  1.00  0.00    -0.389 OA 
HETATM    2  C   UNL     1     -12.560  14.819  70.677  1.00  0.00    -0.354 C  
HETATM    3  C   UNL     1     -12.544  13.350  70.909  1.00  0.00    -0.406 A  
HETATM    4  O   UNL     1     -12.218  15.321  69.619  1.00  0.00    -0.316 OA 
HETATM    5  C   UNL     1     -11.686  12.574  70.108  1.00  0.00    -0.255 A  
HETATM    6  C   UNL     1     -11.642  11.178  70.240  1.00  0.00    -0.296 A  
HETATM    7  C   UNL     1     -12.467  10.578  71.203  1.00  0.00    -0.517 A  
HETATM    8  O   UNL     1     -14.190  13.464  72.650  1.00  0.00    -0.747 OA 
HETATM    9  C   UNL     1     -13.360  12.719  71.854  1.00  0.00    -0.413 A  
HETATM   10  H   UNL     1     -14.745  13.036  73.291  1.00  0.00     0.000 HD 
HETATM   11  C   UNL     1     -13.326  11.336  72.005  1.00  0.00    -0.386 A  
ENDROOT
BRANCH   6  12
HETATM   12  N   UNL     1     -10.820  10.321  69.473  1.00  0.00    -0.238 NA 
HETATM   13  H   UNL     1      -9.846  10.528  69.250  1.00  0.00     0.000 HD 
BRANCH  12  14
HETATM   14  N   UNL     1     -11.406   9.284  69.097  1.00  0.00    -0.429 NA 
HETATM   15  H   UNL     1     -12.322   9.283  68.647  1.00  0.00     0.000 HD 
BRANCH  14  16
HETATM   16  C   UNL     1     -10.660   8.115  69.362  1.00  0.00    -0.200 A  
HETATM   17  C   UNL     1      -8.476   7.164  69.892  1.00  0.00    -0.140 A  
HETATM   18  C   UNL     1      -9.302   8.271  69.670  1.00  0.00    -0.158 A  
HETATM   19  C   UNL     1      -9.017   5.877  69.851  1.00  0.00    -0.139 A  
HETATM   20  C   UNL     1     -11.188   6.812  69.334  1.00  0.00    -0.288 A  
HETATM   21  C   UNL     1     -10.374   5.696  69.569  1.00  0.00    -0.345 A  
BRANCH  19  22
HETATM   22  S   UNL     1      -7.923   4.470  69.965  1.00  0.00    -0.063 S  
HETATM   23  O   UNL     1      -6.578   4.950  69.739  1.00  0.00    -0.034 OA 
HETATM   24  O   UNL     1      -8.491   3.436  69.122  1.00  0.00    -0.059 OA 
BRANCH  22  25
HETATM   25  N   UNL     1      -8.111   3.927  71.551  1.00  0.00    -0.068 N  
HETATM   26  H   UNL     1      -7.925   2.960  71.817  1.00  0.00     0.000 HD 
BRANCH  25  27
HETATM   27  C   UNL     1      -8.541   4.890  72.485  1.00  0.00    -0.120 A  
HETATM   28  N   UNL     1      -7.538   5.608  73.017  1.00  0.00    -0.099 NA 
HETATM   29  C   UNL     1      -7.899   6.602  73.860  1.00  0.00    -0.095 A  
HETATM   30  C   UNL     1      -9.212   6.882  74.207  1.00  0.00    -0.255 A  
HETATM   31  C   UNL     1     -10.220   6.095  73.660  1.00  0.00    -0.252 A  
HETATM   32  C   UNL     1      -9.881   5.074  72.776  1.00  0.00    -0.191 A  
ENDBRANCH  25  27
ENDBRANCH  22  25
ENDBRANCH  19  22
ENDBRANCH  14  16
ENDBRANCH  12  14
ENDBRANCH   6  12
TORSDOF 6
ENDMDL
MODEL      170
REMARK 921   NORMALIZED FREE ENERGY PREDICTED BY IDOCK:   -5.44 KCAL/MOL
REMARK 922        TOTAL FREE ENERGY PREDICTED BY IDOCK:   -7.87 KCAL/MOL
REMARK 923 INTER-LIGAND FREE ENERGY PREDICTED BY IDOCK:   -6.92 KCAL/MOL
REMARK 924 INTRA-LIGAND FREE ENERGY PREDICTED BY IDOCK:   -0.95 KCAL/MOL
REMARK 927      BINDING AFFINITY PREDICTED BY RF-SCORE:    0.00 PKD
ROOT
HETATM    1  O   UNL     1     -12.107  11.832  62.986  1.00  0.00    -0.268 OA 
HETATM    2  C   UNL     1     -11.037  11.632  63.786  1.00  0.00    -0.420 C  
HETATM    3  C   UNL     1     -10.951  12.561  64.944  1.00  0.00    -0.335 A  
HETATM    4  O   UNL     1     -10.180  10.796  63.549  1.00  0.00    -0.338 OA 
HETATM    5  C   UNL     1      -9.675  12.818  65.479  1.00  0.00    -0.089 A  
HETATM    6  C   UNL     1      -9.515  13.653  66.596  1.00  0.00    -0.277 A  
HETATM    7  C   UNL     1     -10.662  14.236  67.155  1.00  0.00    -0.282 A  
HETATM    8  O   UNL     1     -13.322  12.920  65.013  1.00  0.00    -0.682 OA 
HETATM    9  C   UNL     1     -12.075  13.152  65.532  1.00  0.00    -0.442 A  
HETATM   10  H   UNL     1     -14.085  13.320  65.412  1.00  0.00     0.000 HD 
HETATM   11  C   UNL     1     -11.936  13.988  66.636  1.00  0.00    -0.473 A  
ENDROOT
BRANCH   6  12
HETATM   12  N   UNL     1      -8.277  13.959  67.203  1.00  0.00    -0.323 NA 
HETATM   13  H   UNL     1      -8.149  14.723  67.866  1.00  0.00     0.000 HD 
BRANCH  12  14
HETATM   14  N   UNL     1      -7.353  13.197  66.847  1.00  0.00    -0.297 NA 
HETATM   15  H   UNL     1      -6.661  13.439  66.138  1.00  0.00     0.000 HD 
BRANCH  14  16
HETATM   16  C   UNL     1      -7.374  11.964  67.536  1.00  0.00    -0.132 A  
HETATM   17  C   UNL     1      -7.251   9.532  67.370  1.00  0.00    -0.087 A  
HETATM   18  C   UNL     1      -7.190  10.798  66.779  1.00  0.00    -0.128 A  
HETATM   19  C   UNL     1      -7.456   9.419  68.748  1.00  0.00    -0.075 A  
HETATM   20  C   UNL     1      -7.572  11.831  68.921  1.00  0.00    -0.063 A  
HETATM   21  C   UNL     1      -7.620  10.568  69.528  1.00  0.00    -0.148 A  
BRANCH  19  22
HETATM   22  S   UNL     1      -7.703   7.801  69.460  1.00  0.00    -0.107 S  
HETATM   23  O   UNL     1      -7.444   7.909  70.878  1.00  0.00    -0.069 OA 
HETATM   24  O   UNL     1      -6.951   6.870  68.640  1.00  0.00    -0.070 OA 
BRANCH  22  25
HETATM   25  N   UNL     1      -9.329   7.463  69.167  1.00  0.00    -0.147 N  
HETATM   26  H   UNL     1      -9.636   6.566  68.793  1.00  0.00     0.000 HD 
BRANCH  25  27
HETATM   27  C   UNL     1     -10.237   8.497  69.471  1.00  0.00    -0.206 A  
HETATM   28  N   UNL     1     -10.623   8.512  70.758  1.00  0.00    -0.201 NA 
HETATM   29  C   UNL     1     -11.431   9.532  71.124  1.00  0.00    -0.360 A  
HETATM   30  C   UNL     1     -11.885  10.511  70.254  1.00  0.00    -0.418 A  
HETATM   31  C   UNL     1     -11.490  10.442  68.922  1.00  0.00    -0.251 A  
HETATM   32  C   UNL     1     -10.644   9.413  68.516  1.00  0.00    -0.234 A  
ENDBRANCH  25  27
ENDBRANCH  22  25
ENDBRANCH  19  22
ENDBRANCH  14  16
ENDBRANCH  12  14
ENDBRANCH   6  12
TORSDOF 6
ENDMDL
MODEL      171
REMARK 921   NORMALIZED FREE ENERGY PREDICTED BY IDOCK:   -5.43 KCAL/MOL
REMARK 922        TOTAL FREE ENERGY PREDICTED BY IDOCK:   -7.86 KCAL/MOL
REMARK 923 INTER-LIGAND FREE ENERGY PREDICTED BY IDOCK:   -7.05 KCAL/MOL
REMARK 924 INTRA-LIGAND FREE ENERGY PREDICTED BY IDOCK:   -0.81 KCAL/MOL
REMARK 927      BINDING AFFINITY PREDICTED BY RF-SCORE:    0.00 PKD
ROOT
HETATM    1  O   UNL     1      -7.034   9.150  64.514  1.00  0.00    -0.088 OA 
HETATM    2  C   UNL     1      -8.231   9.383  65.095  1.00  0.00    -0.135 C  
HETATM    3  C   UNL     1      -8.185   9.502  66.577  1.00  0.00    -0.119 A  
HETATM    4  O   UNL     1      -9.275   9.434  64.464  1.00  0.00    -0.216 OA 
HETATM    5  C   UNL     1      -9.354   9.185  67.292  1.00  0.00    -0.166 A  
HETATM    6  C   UNL     1      -9.401   9.309  68.690  1.00  0.00    -0.139 A  
HETATM    7  C   UNL     1      -8.246   9.746  69.354  1.00  0.00    -0.135 A  
HETATM    8  O   UNL     1      -5.904  10.244  66.586  1.00  0.00    -0.055 OA 
HETATM    9  C   UNL     1      -7.053   9.943  67.270  1.00  0.00    -0.085 A  
HETATM   10  H   UNL     1      -5.135  10.544  67.056  1.00  0.00     0.000 HD 
HETATM   11  C   UNL     1      -7.078  10.068  68.656  1.00  0.00    -0.078 A  
ENDROOT
BRANCH   6  12
HETATM   12  N   UNL     1     -10.532   9.022  69.487  1.00  0.00    -0.216 NA 
HETATM   13  H   UNL     1     -10.485   8.496  70.360  1.00  0.00     0.000 HD 
BRANCH  12  14
HETATM   14  N   UNL     1     -11.595   9.478  69.015  1.00  0.00    -0.293 NA 
HETATM   15  H   UNL     1     -12.250   8.928  68.460  1.00  0.00     0.000 HD 
BRANCH  14  16
HETATM   16  C   UNL     1     -11.788  10.840  69.337  1.00  0.00    -0.298 A  
HETATM   17  C   UNL     1     -11.802  13.144  68.534  1.00  0.00    -0.377 A  
HETATM   18  C   UNL     1     -11.680  11.772  68.295  1.00  0.00    -0.377 A  
HETATM   19  C   UNL     1     -12.079  13.601  69.825  1.00  0.00    -0.334 A  
HETATM   20  C   UNL     1     -12.075  11.318  70.627  1.00  0.00    -0.480 A  
HETATM   21  C   UNL     1     -12.214  12.691  70.877  1.00  0.00    -0.280 A  
BRANCH  19  22
HETATM   22  S   UNL     1     -12.061  15.357  70.147  1.00  0.00    -0.381 S  
HETATM   23  O   UNL     1     -10.921  15.629  70.992  1.00  0.00    -0.334 OA 
HETATM   24  O   UNL     1     -13.401  15.712  70.576  1.00  0.00    -0.426 OA 
BRANCH  22  25
HETATM   25  N   UNL     1     -11.865  16.056  68.625  1.00  0.00    -0.401 N  
HETATM   26  H   UNL     1     -12.627  16.105  67.950  1.00  0.00     0.000 HD 
BRANCH  25  27
HETATM   27  C   UNL     1     -10.583  16.568  68.343  1.00  0.00    -0.323 A  
HETATM   28  N   UNL     1      -9.847  15.771  67.551  1.00  0.00    -0.228 NA 
HETATM   29  C   UNL     1      -8.638  16.251  67.182  1.00  0.00    -0.183 A  
HETATM   30  C   UNL     1      -8.132  17.474  67.596  1.00  0.00    -0.211 A  
HETATM   31  C   UNL     1      -8.911  18.256  68.442  1.00  0.00    -0.321 A  
HETATM   32  C   UNL     1     -10.168  17.797  68.827  1.00  0.00    -0.373 A  
ENDBRANCH  25  27
ENDBRANCH  22  25
ENDBRANCH  19  22
ENDBRANCH  14  16
ENDBRANCH  12  14
ENDBRANCH   6  12
TORSDOF 6
ENDMDL
MODEL      172
REMARK 921   NORMALIZED FREE ENERGY PREDICTED BY IDOCK:   -5.43 KCAL/MOL
REMARK 922        TOTAL FREE ENERGY PREDICTED BY IDOCK:   -7.85 KCAL/MOL
REMARK 923 INTER-LIGAND FREE ENERGY PREDICTED BY IDOCK:   -7.00 KCAL/MOL
REMARK 924 INTRA-LIGAND FREE ENERGY PREDICTED BY IDOCK:   -0.85 KCAL/MOL
REMARK 927      BINDING AFFINITY PREDICTED BY RF-SCORE:    0.00 PKD
ROOT
HETATM    1  O   UNL     1     -12.929  12.906  63.210  1.00  0.00    -0.478 OA 
HETATM    2  C   UNL     1     -11.916  12.303  63.871  1.00  0.00    -0.491 C  
HETATM    3  C   UNL     1     -11.424  13.050  65.059  1.00  0.00    -0.345 A  
HETATM    4  O   UNL     1     -11.406  11.261  63.493  1.00  0.00    -0.314 OA 
HETATM    5  C   UNL     1     -10.091  12.836  65.457  1.00  0.00    -0.278 A  
HETATM    6  C   UNL     1      -9.565  13.475  66.591  1.00  0.00    -0.278 A  
HETATM    7  C   UNL     1     -10.400  14.343  67.308  1.00  0.00    -0.260 A  
HETATM    8  O   UNL     1     -13.528  14.143  65.419  1.00  0.00    -0.648 OA 
HETATM    9  C   UNL     1     -12.233  13.916  65.802  1.00  0.00    -0.460 A  
HETATM   10  H   UNL     1     -14.078  14.731  65.924  1.00  0.00     0.000 HD 
HETATM   11  C   UNL     1     -11.727  14.564  66.926  1.00  0.00    -0.399 A  
ENDROOT
BRANCH   6  12
HETATM   12  N   UNL     1      -8.244  13.312  67.067  1.00  0.00    -0.380 NA 
HETATM   13  H   UNL     1      -7.763  14.007  67.638  1.00  0.00     0.000 HD 
BRANCH  12  14
HETATM   14  N   UNL     1      -7.726  12.230  66.719  1.00  0.00    -0.377 NA 
HETATM   15  H   UNL     1      -7.523  11.985  65.750  1.00  0.00     0.000 HD 
BRANCH  14  16
HETATM   16  C   UNL     1      -7.452  11.385  67.817  1.00  0.00    -0.100 A  
HETATM   17  C   UNL     1      -7.706   9.164  68.796  1.00  0.00    -0.087 A  
HETATM   18  C   UNL     1      -7.886  10.055  67.733  1.00  0.00    -0.094 A  
HETATM   19  C   UNL     1      -7.043   9.587  69.950  1.00  0.00    -0.084 A  
HETATM   20  C   UNL     1      -6.780  11.791  68.984  1.00  0.00    -0.102 A  
HETATM   21  C   UNL     1      -6.580  10.903  70.050  1.00  0.00    -0.151 A  
BRANCH  19  22
HETATM   22  S   UNL     1      -6.972   8.496  71.361  1.00  0.00    -0.085 S  
HETATM   23  O   UNL     1      -7.896   9.006  72.349  1.00  0.00    -0.345 OA 
HETATM   24  O   UNL     1      -5.568   8.325  71.681  1.00  0.00    -0.034 OA 
BRANCH  22  25
HETATM   25  N   UNL     1      -7.491   7.008  70.761  1.00  0.00    -0.080 N  
HETATM   26  H   UNL     1      -7.044   6.562  69.961  1.00  0.00     0.000 HD 
BRANCH  25  27
HETATM   27  C   UNL     1      -8.581   6.419  71.432  1.00  0.00    -0.130 A  
HETATM   28  N   UNL     1      -9.773   6.726  70.895  1.00  0.00    -0.178 NA 
HETATM   29  C   UNL     1     -10.849   6.124  71.450  1.00  0.00    -0.265 A  
HETATM   30  C   UNL     1     -10.778   5.256  72.530  1.00  0.00    -0.290 A  
HETATM   31  C   UNL     1      -9.529   4.989  73.079  1.00  0.00    -0.156 A  
HETATM   32  C   UNL     1      -8.399   5.582  72.519  1.00  0.00    -0.114 A  
ENDBRANCH  25  27
ENDBRANCH  22  25
ENDBRANCH  19  22
ENDBRANCH  14  16
ENDBRANCH  12  14
ENDBRANCH   6  12
TORSDOF 6
ENDMDL
MODEL      173
REMARK 921   NORMALIZED FREE ENERGY PREDICTED BY IDOCK:   -5.41 KCAL/MOL
REMARK 922        TOTAL FREE ENERGY PREDICTED BY IDOCK:   -7.83 KCAL/MOL
REMARK 923 INTER-LIGAND FREE ENERGY PREDICTED BY IDOCK:   -6.95 KCAL/MOL
REMARK 924 INTRA-LIGAND FREE ENERGY PREDICTED BY IDOCK:   -0.88 KCAL/MOL
REMARK 927      BINDING AFFINITY PREDICTED BY RF-SCORE:    0.00 PKD
ROOT
HETATM    1  O   UNL     1      -7.958  18.191  68.529  1.00  0.00    -0.289 OA 
HETATM    2  C   UNL     1      -7.717  16.920  68.140  1.00  0.00    -0.187 C  
HETATM    3  C   UNL     1      -8.788  16.319  67.301  1.00  0.00    -0.204 A  
HETATM    4  O   UNL     1      -6.731  16.295  68.494  1.00  0.00    -0.128 OA 
HETATM    5  C   UNL     1      -8.920  14.918  67.320  1.00  0.00    -0.212 A  
HETATM    6  C   UNL     1      -9.881  14.273  66.526  1.00  0.00    -0.288 A  
HETATM    7  C   UNL     1     -10.715  15.065  65.723  1.00  0.00    -0.351 A  
HETATM    8  O   UNL     1      -9.521  18.444  66.465  1.00  0.00    -0.303 OA 
HETATM    9  C   UNL     1      -9.631  17.078  66.483  1.00  0.00    -0.278 A  
HETATM   10  H   UNL     1     -10.093  18.960  65.909  1.00  0.00     0.000 HD 
HETATM   11  C   UNL     1     -10.594  16.458  65.693  1.00  0.00    -0.337 A  
ENDROOT
BRANCH   6  12
HETATM   12  N   UNL     1     -10.078  12.875  66.474  1.00  0.00    -0.255 NA 
HETATM   13  H   UNL     1      -9.335  12.210  66.257  1.00  0.00     0.000 HD 
BRANCH  12  14
HETATM   14  N   UNL     1     -11.253  12.534  66.723  1.00  0.00    -0.280 NA 
HETATM   15  H   UNL     1     -12.056  12.814  66.158  1.00  0.00     0.000 HD 
BRANCH  14  16
HETATM   16  C   UNL     1     -11.348  11.718  67.872  1.00  0.00    -0.292 A  
HETATM   17  C   UNL     1     -10.972   9.511  68.844  1.00  0.00    -0.116 A  
HETATM   18  C   UNL     1     -10.868  10.405  67.773  1.00  0.00    -0.351 A  
HETATM   19  C   UNL     1     -11.525   9.941  70.053  1.00  0.00    -0.217 A  
HETATM   20  C   UNL     1     -11.894  12.134  69.098  1.00  0.00    -0.361 A  
HETATM   21  C   UNL     1     -11.991  11.252  70.184  1.00  0.00    -0.452 A  
BRANCH  19  22
HETATM   22  S   UNL     1     -11.810   8.748  71.351  1.00  0.00    -0.325 S  
HETATM   23  O   UNL     1     -11.979   7.458  70.721  1.00  0.00    -0.292 OA 
HETATM   24  O   UNL     1     -12.850   9.299  72.198  1.00  0.00    -0.379 OA 
BRANCH  22  25
HETATM   25  N   UNL     1     -10.396   8.790  72.269  1.00  0.00    -0.306 N  
HETATM   26  H   UNL     1     -10.194   9.553  72.916  1.00  0.00     0.000 HD 
BRANCH  25  27
HETATM   27  C   UNL     1      -9.512   7.708  72.090  1.00  0.00    -0.155 A  
HETATM   28  N   UNL     1      -9.741   6.682  72.925  1.00  0.00    -0.153 NA 
HETATM   29  C   UNL     1      -8.974   5.583  72.742  1.00  0.00    -0.121 A  
HETATM   30  C   UNL     1      -7.978   5.486  71.783  1.00  0.00    -0.114 A  
HETATM   31  C   UNL     1      -7.749   6.583  70.959  1.00  0.00    -0.094 A  
HETATM   32  C   UNL     1      -8.533   7.724  71.111  1.00  0.00    -0.115 A  
ENDBRANCH  25  27
ENDBRANCH  22  25
ENDBRANCH  19  22
ENDBRANCH  14  16
ENDBRANCH  12  14
ENDBRANCH   6  12
TORSDOF 6
ENDMDL
MODEL      174
REMARK 921   NORMALIZED FREE ENERGY PREDICTED BY IDOCK:   -5.40 KCAL/MOL
REMARK 922        TOTAL FREE ENERGY PREDICTED BY IDOCK:   -7.81 KCAL/MOL
REMARK 923 INTER-LIGAND FREE ENERGY PREDICTED BY IDOCK:   -7.03 KCAL/MOL
REMARK 924 INTRA-LIGAND FREE ENERGY PREDICTED BY IDOCK:   -0.79 KCAL/MOL
REMARK 927      BINDING AFFINITY PREDICTED BY RF-SCORE:    0.00 PKD
ROOT
HETATM    1  O   UNL     1     -12.399  13.801  70.909  1.00  0.00    -0.349 OA 
HETATM    2  C   UNL     1     -12.134  12.737  70.121  1.00  0.00    -0.298 C  
HETATM    3  C   UNL     1     -12.283  11.419  70.793  1.00  0.00    -0.475 A  
HETATM    4  O   UNL     1     -11.749  12.847  68.968  1.00  0.00    -0.291 OA 
HETATM    5  C   UNL     1     -11.529  10.343  70.291  1.00  0.00    -0.406 A  
HETATM    6  C   UNL     1     -11.642   9.059  70.847  1.00  0.00    -0.290 A  
HETATM    7  C   UNL     1     -12.519   8.882  71.927  1.00  0.00    -0.445 A  
HETATM    8  O   UNL     1     -13.886  12.248  72.374  1.00  0.00    -0.481 OA 
HETATM    9  C   UNL     1     -13.155  11.206  71.866  1.00  0.00    -0.408 A  
HETATM   10  H   UNL     1     -14.478  12.103  73.102  1.00  0.00     0.000 HD 
HETATM   11  C   UNL     1     -13.277   9.942  72.436  1.00  0.00    -0.315 A  
ENDROOT
BRANCH   6  12
HETATM   12  N   UNL     1     -10.932   7.922  70.401  1.00  0.00    -0.249 NA 
HETATM   13  H   UNL     1      -9.918   7.834  70.459  1.00  0.00     0.000 HD 
BRANCH  12  14
HETATM   14  N   UNL     1     -11.673   7.033  69.930  1.00  0.00    -0.587 NA 
HETATM   15  H   UNL     1     -12.633   6.874  70.237  1.00  0.00     0.000 HD 
BRANCH  14  16
HETATM   16  C   UNL     1     -11.034   6.275  68.924  1.00  0.00    -0.368 A  
HETATM   17  C   UNL     1      -9.554   4.404  68.410  1.00  0.00    -0.203 A  
HETATM   18  C   UNL     1     -10.265   5.177  69.333  1.00  0.00    -0.293 A  
HETATM   19  C   UNL     1      -9.641   4.699  67.047  1.00  0.00    -0.180 A  
HETATM   20  C   UNL     1     -11.116   6.551  67.548  1.00  0.00    -0.396 A  
HETATM   21  C   UNL     1     -10.419   5.775  66.611  1.00  0.00    -0.330 A  
BRANCH  19  22
HETATM   22  S   UNL     1      -8.596   3.816  65.899  1.00  0.00    -0.116 S  
HETATM   23  O   UNL     1      -8.971   4.233  64.567  1.00  0.00    -0.135 OA 
HETATM   24  O   UNL     1      -8.653   2.418  66.280  1.00  0.00    -0.100 OA 
BRANCH  22  25
HETATM   25  N   UNL     1      -7.036   4.333  66.277  1.00  0.00    -0.066 N  
HETATM   26  H   UNL     1      -6.432   3.810  66.910  1.00  0.00     0.000 HD 
BRANCH  25  27
HETATM   27  C   UNL     1      -6.619   5.532  65.665  1.00  0.00    -0.041 A  
HETATM   28  N   UNL     1      -6.069   5.354  64.453  1.00  0.00    -0.022 NA 
HETATM   29  C   UNL     1      -5.724   6.478  63.785  1.00  0.00    -0.030 A  
HETATM   30  C   UNL     1      -5.884   7.759  64.292  1.00  0.00    -0.052 A  
HETATM   31  C   UNL     1      -6.428   7.900  65.564  1.00  0.00    -0.042 A  
HETATM   32  C   UNL     1      -6.808   6.762  66.272  1.00  0.00    -0.060 A  
ENDBRANCH  25  27
ENDBRANCH  22  25
ENDBRANCH  19  22
ENDBRANCH  14  16
ENDBRANCH  12  14
ENDBRANCH   6  12
TORSDOF 6
ENDMDL
MODEL      175
REMARK 921   NORMALIZED FREE ENERGY PREDICTED BY IDOCK:   -5.39 KCAL/MOL
REMARK 922        TOTAL FREE ENERGY PREDICTED BY IDOCK:   -7.81 KCAL/MOL
REMARK 923 INTER-LIGAND FREE ENERGY PREDICTED BY IDOCK:   -7.77 KCAL/MOL
REMARK 924 INTRA-LIGAND FREE ENERGY PREDICTED BY IDOCK:   -0.04 KCAL/MOL
REMARK 927      BINDING AFFINITY PREDICTED BY RF-SCORE:    0.00 PKD
ROOT
HETATM    1  O   UNL     1      -8.888   4.529  68.079  1.00  0.00    -0.102 OA 
HETATM    2  C   UNL     1      -9.657   5.277  67.258  1.00  0.00    -0.137 C  
HETATM    3  C   UNL     1      -9.158   6.660  67.035  1.00  0.00    -0.135 A  
HETATM    4  O   UNL     1     -10.707   4.873  66.784  1.00  0.00    -0.187 OA 
HETATM    5  C   UNL     1     -10.103   7.647  66.699  1.00  0.00    -0.278 A  
HETATM    6  C   UNL     1      -9.706   8.967  66.435  1.00  0.00    -0.268 A  
HETATM    7  C   UNL     1      -8.342   9.278  66.530  1.00  0.00    -0.126 A  
HETATM    8  O   UNL     1      -6.875   6.054  67.452  1.00  0.00    -0.059 OA 
HETATM    9  C   UNL     1      -7.804   7.003  67.113  1.00  0.00    -0.109 A  
HETATM   10  H   UNL     1      -5.956   6.287  67.504  1.00  0.00     0.000 HD 
HETATM   11  C   UNL     1      -7.391   8.308  66.861  1.00  0.00    -0.084 A  
ENDROOT
BRANCH   6  12
HETATM   12  N   UNL     1     -10.582  10.018  66.082  1.00  0.00    -0.072 NA 
HETATM   13  H   UNL     1     -11.594   9.973  66.209  1.00  0.00     0.000 HD 
BRANCH  12  14
HETATM   14  N   UNL     1      -9.994  11.008  65.599  1.00  0.00    -0.235 NA 
HETATM   15  H   UNL     1      -9.478  10.986  64.719  1.00  0.00     0.000 HD 
BRANCH  14  16
HETATM   16  C   UNL     1     -10.122  12.160  66.406  1.00  0.00    -0.220 A  
HETATM   17  C   UNL     1     -11.464  13.356  68.056  1.00  0.00    -0.339 A  
HETATM   18  C   UNL     1     -11.229  12.228  67.263  1.00  0.00    -0.358 A  
HETATM   19  C   UNL     1     -10.560  14.421  68.032  1.00  0.00    -0.241 A  
HETATM   20  C   UNL     1      -9.219  13.237  66.401  1.00  0.00    -0.133 A  
HETATM   21  C   UNL     1      -9.436  14.367  67.203  1.00  0.00    -0.225 A  
BRANCH  19  22
HETATM   22  S   UNL     1     -10.960  15.920  68.915  1.00  0.00    -0.313 S  
HETATM   23  O   UNL     1     -10.951  17.001  67.956  1.00  0.00    -0.360 OA 
HETATM   24  O   UNL     1     -10.096  15.957  70.079  1.00  0.00    -0.253 OA 
BRANCH  22  25
HETATM   25  N   UNL     1     -12.516  15.650  69.506  1.00  0.00    -0.558 N  
HETATM   26  H   UNL     1     -13.342  15.734  68.913  1.00  0.00     0.000 HD 
BRANCH  25  27
HETATM   27  C   UNL     1     -12.606  15.301  70.868  1.00  0.00    -0.412 A  
HETATM   28  N   UNL     1     -12.067  16.212  71.693  1.00  0.00    -0.460 NA 
HETATM   29  C   UNL     1     -12.197  15.967  73.017  1.00  0.00    -0.533 A  
HETATM   30  C   UNL     1     -12.816  14.841  73.538  1.00  0.00    -0.533 A  
HETATM   31  C   UNL     1     -13.332  13.904  72.650  1.00  0.00    -0.640 A  
HETATM   32  C   UNL     1     -13.229  14.135  71.280  1.00  0.00    -0.399 A  
ENDBRANCH  25  27
ENDBRANCH  22  25
ENDBRANCH  19  22
ENDBRANCH  14  16
ENDBRANCH  12  14
ENDBRANCH   6  12
TORSDOF 6
ENDMDL
MODEL      176
REMARK 921   NORMALIZED FREE ENERGY PREDICTED BY IDOCK:   -5.39 KCAL/MOL
REMARK 922        TOTAL FREE ENERGY PREDICTED BY IDOCK:   -7.80 KCAL/MOL
REMARK 923 INTER-LIGAND FREE ENERGY PREDICTED BY IDOCK:   -7.08 KCAL/MOL
REMARK 924 INTRA-LIGAND FREE ENERGY PREDICTED BY IDOCK:   -0.72 KCAL/MOL
REMARK 927      BINDING AFFINITY PREDICTED BY RF-SCORE:    0.00 PKD
ROOT
HETATM    1  O   UNL     1     -11.136   6.394  67.067  1.00  0.00    -0.384 OA 
HETATM    2  C   UNL     1      -9.926   6.864  67.440  1.00  0.00    -0.166 C  
HETATM    3  C   UNL     1      -9.937   7.680  68.683  1.00  0.00    -0.181 A  
HETATM    4  O   UNL     1      -8.914   6.684  66.781  1.00  0.00    -0.124 OA 
HETATM    5  C   UNL     1      -8.919   8.638  68.842  1.00  0.00    -0.142 A  
HETATM    6  C   UNL     1      -8.839   9.420  70.005  1.00  0.00    -0.211 A  
HETATM    7  C   UNL     1      -9.810   9.228  70.999  1.00  0.00    -0.355 A  
HETATM    8  O   UNL     1     -11.888   6.587  69.550  1.00  0.00    -0.649 OA 
HETATM    9  C   UNL     1     -10.884   7.508  69.698  1.00  0.00    -0.202 A  
HETATM   10  H   UNL     1     -12.532   6.470  70.239  1.00  0.00     0.000 HD 
HETATM   11  C   UNL     1     -10.826   8.278  70.856  1.00  0.00    -0.261 A  
ENDROOT
BRANCH   6  12
HETATM   12  N   UNL     1      -7.849  10.397  70.253  1.00  0.00    -0.420 NA 
HETATM   13  H   UNL     1      -7.722  10.852  71.158  1.00  0.00     0.000 HD 
BRANCH  12  14
HETATM   14  N   UNL     1      -7.144  10.648  69.253  1.00  0.00    -0.094 NA 
HETATM   15  H   UNL     1      -6.694   9.931  68.684  1.00  0.00     0.000 HD 
BRANCH  14  16
HETATM   16  C   UNL     1      -7.040  12.033  68.999  1.00  0.00    -0.077 A  
HETATM   17  C   UNL     1      -7.849  13.936  67.703  1.00  0.00    -0.187 A  
HETATM   18  C   UNL     1      -7.918  12.585  68.056  1.00  0.00    -0.153 A  
HETATM   19  C   UNL     1      -6.918  14.769  68.329  1.00  0.00    -0.119 A  
HETATM   20  C   UNL     1      -6.116  12.888  69.624  1.00  0.00    -0.124 A  
HETATM   21  C   UNL     1      -6.047  14.248  69.290  1.00  0.00    -0.099 A  
BRANCH  19  22
HETATM   22  S   UNL     1      -6.723  16.446  67.748  1.00  0.00    -0.149 S  
HETATM   23  O   UNL     1      -7.181  16.484  66.377  1.00  0.00    -0.213 OA 
HETATM   24  O   UNL     1      -5.371  16.847  68.087  1.00  0.00    -0.111 OA 
BRANCH  22  25
HETATM   25  N   UNL     1      -7.737  17.351  68.747  1.00  0.00    -0.270 N  
HETATM   26  H   UNL     1      -7.696  17.281  69.764  1.00  0.00     0.000 HD 
BRANCH  25  27
HETATM   27  C   UNL     1      -8.642  18.209  68.092  1.00  0.00    -0.274 A  
HETATM   28  N   UNL     1      -9.852  17.661  67.890  1.00  0.00    -0.288 NA 
HETATM   29  C   UNL     1     -10.786  18.468  67.338  1.00  0.00    -0.381 A  
HETATM   30  C   UNL     1     -10.547  19.780  66.958  1.00  0.00    -0.586 A  
HETATM   31  C   UNL     1      -9.272  20.300  67.153  1.00  0.00    -0.519 A  
HETATM   32  C   UNL     1      -8.292  19.500  67.735  1.00  0.00    -0.345 A  
ENDBRANCH  25  27
ENDBRANCH  22  25
ENDBRANCH  19  22
ENDBRANCH  14  16
ENDBRANCH  12  14
ENDBRANCH   6  12
TORSDOF 6
ENDMDL
MODEL      177
REMARK 921   NORMALIZED FREE ENERGY PREDICTED BY IDOCK:   -5.39 KCAL/MOL
REMARK 922        TOTAL FREE ENERGY PREDICTED BY IDOCK:   -7.80 KCAL/MOL
REMARK 923 INTER-LIGAND FREE ENERGY PREDICTED BY IDOCK:   -7.29 KCAL/MOL
REMARK 924 INTRA-LIGAND FREE ENERGY PREDICTED BY IDOCK:   -0.51 KCAL/MOL
REMARK 927      BINDING AFFINITY PREDICTED BY RF-SCORE:    0.00 PKD
ROOT
HETATM    1  O   UNL     1     -10.693   5.397  68.276  1.00  0.00    -0.134 OA 
HETATM    2  C   UNL     1      -9.562   6.107  68.480  1.00  0.00    -0.119 C  
HETATM    3  C   UNL     1      -9.782   7.483  68.997  1.00  0.00    -0.162 A  
HETATM    4  O   UNL     1      -8.452   5.677  68.208  1.00  0.00    -0.105 OA 
HETATM    5  C   UNL     1      -8.799   8.449  68.717  1.00  0.00    -0.140 A  
HETATM    6  C   UNL     1      -8.916   9.761  69.203  1.00  0.00    -0.161 A  
HETATM    7  C   UNL     1     -10.048  10.085  69.965  1.00  0.00    -0.289 A  
HETATM    8  O   UNL     1     -11.866   6.910  70.037  1.00  0.00    -0.589 OA 
HETATM    9  C   UNL     1     -10.895   7.838  69.767  1.00  0.00    -0.209 A  
HETATM   10  H   UNL     1     -12.622   7.150  70.560  1.00  0.00     0.000 HD 
HETATM   11  C   UNL     1     -11.033   9.135  70.253  1.00  0.00    -0.279 A  
ENDROOT
BRANCH   6  12
HETATM   12  N   UNL     1      -7.974  10.791  68.979  1.00  0.00    -0.135 NA 
HETATM   13  H   UNL     1      -7.460  11.255  69.729  1.00  0.00     0.000 HD 
BRANCH  12  14
HETATM   14  N   UNL     1      -7.836  11.076  67.771  1.00  0.00    -0.108 NA 
HETATM   15  H   UNL     1      -7.453  10.434  67.078  1.00  0.00     0.000 HD 
BRANCH  14  16
HETATM   16  C   UNL     1      -8.268  12.388  67.473  1.00  0.00    -0.173 A  
HETATM   17  C   UNL     1      -9.873  13.785  66.279  1.00  0.00    -0.314 A  
HETATM   18  C   UNL     1      -9.407  12.525  66.669  1.00  0.00    -0.236 A  
HETATM   19  C   UNL     1      -9.221  14.935  66.731  1.00  0.00    -0.259 A  
HETATM   20  C   UNL     1      -7.630  13.556  67.925  1.00  0.00    -0.151 A  
HETATM   21  C   UNL     1      -8.096  14.825  67.553  1.00  0.00    -0.199 A  
BRANCH  19  22
HETATM   22  S   UNL     1      -9.718  16.525  66.089  1.00  0.00    -0.313 S  
HETATM   23  O   UNL     1     -10.577  16.282  64.952  1.00  0.00    -0.650 OA 
HETATM   24  O   UNL     1      -8.507  17.310  65.947  1.00  0.00    -0.533 OA 
BRANCH  22  25
HETATM   25  N   UNL     1     -10.579  17.232  67.355  1.00  0.00    -0.332 N  
HETATM   26  H   UNL     1     -10.799  18.227  67.370  1.00  0.00     0.000 HD 
BRANCH  25  27
HETATM   27  C   UNL     1     -10.976  16.363  68.391  1.00  0.00    -0.353 A  
HETATM   28  N   UNL     1     -11.902  15.466  68.015  1.00  0.00    -0.218 NA 
HETATM   29  C   UNL     1     -12.260  14.554  68.947  1.00  0.00    -0.159 A  
HETATM   30  C   UNL     1     -11.751  14.525  70.236  1.00  0.00    -0.356 A  
HETATM   31  C   UNL     1     -10.818  15.492  70.598  1.00  0.00    -0.333 A  
HETATM   32  C   UNL     1     -10.416  16.435  69.655  1.00  0.00    -0.278 A  
ENDBRANCH  25  27
ENDBRANCH  22  25
ENDBRANCH  19  22
ENDBRANCH  14  16
ENDBRANCH  12  14
ENDBRANCH   6  12
TORSDOF 6
ENDMDL
MODEL      178
REMARK 921   NORMALIZED FREE ENERGY PREDICTED BY IDOCK:   -5.37 KCAL/MOL
REMARK 922        TOTAL FREE ENERGY PREDICTED BY IDOCK:   -7.78 KCAL/MOL
REMARK 923 INTER-LIGAND FREE ENERGY PREDICTED BY IDOCK:   -7.01 KCAL/MOL
REMARK 924 INTRA-LIGAND FREE ENERGY PREDICTED BY IDOCK:   -0.77 KCAL/MOL
REMARK 927      BINDING AFFINITY PREDICTED BY RF-SCORE:    0.00 PKD
ROOT
HETATM    1  O   UNL     1      -9.703   3.129  73.488  1.00  0.00    -0.101 OA 
HETATM    2  C   UNL     1      -9.338   3.737  72.339  1.00  0.00    -0.119 C  
HETATM    3  C   UNL     1     -10.272   4.801  71.881  1.00  0.00    -0.261 A  
HETATM    4  O   UNL     1      -8.355   3.405  71.696  1.00  0.00    -0.064 OA 
HETATM    5  C   UNL     1     -10.312   5.083  70.503  1.00  0.00    -0.285 A  
HETATM    6  C   UNL     1     -11.138   6.099  69.997  1.00  0.00    -0.392 A  
HETATM    7  C   UNL     1     -11.934   6.815  70.903  1.00  0.00    -0.437 A  
HETATM    8  O   UNL     1     -11.053   5.267  74.100  1.00  0.00    -0.423 OA 
HETATM    9  C   UNL     1     -11.072   5.540  72.757  1.00  0.00    -0.291 A  
HETATM   10  H   UNL     1     -11.596   5.769  74.696  1.00  0.00     0.000 HD 
HETATM   11  C   UNL     1     -11.904   6.547  72.275  1.00  0.00    -0.299 A  
ENDROOT
BRANCH   6  12
HETATM   12  N   UNL     1     -11.235   6.456  68.634  1.00  0.00    -0.539 NA 
HETATM   13  H   UNL     1     -12.089   6.814  68.206  1.00  0.00     0.000 HD 
BRANCH  12  14
HETATM   14  N   UNL     1     -10.168   6.290  68.006  1.00  0.00    -0.155 NA 
HETATM   15  H   UNL     1      -9.802   5.375  67.741  1.00  0.00     0.000 HD 
BRANCH  14  16
HETATM   16  C   UNL     1      -9.525   7.511  67.702  1.00  0.00    -0.138 A  
HETATM   17  C   UNL     1      -8.416   9.505  68.568  1.00  0.00    -0.119 A  
HETATM   18  C   UNL     1      -9.019   8.259  68.773  1.00  0.00    -0.144 A  
HETATM   19  C   UNL     1      -8.273  10.000  67.270  1.00  0.00    -0.117 A  
HETATM   20  C   UNL     1      -9.365   8.022  66.402  1.00  0.00    -0.259 A  
HETATM   21  C   UNL     1      -8.750   9.262  66.182  1.00  0.00    -0.169 A  
BRANCH  19  22
HETATM   22  S   UNL     1      -7.662  11.661  67.036  1.00  0.00    -0.149 S  
HETATM   23  O   UNL     1      -6.349  11.558  66.439  1.00  0.00    -0.104 OA 
HETATM   24  O   UNL     1      -7.847  12.351  68.299  1.00  0.00    -0.136 OA 
BRANCH  22  25
HETATM   25  N   UNL     1      -8.760  12.360  65.964  1.00  0.00    -0.387 N  
HETATM   26  H   UNL     1      -8.654  12.280  64.953  1.00  0.00     0.000 HD 
BRANCH  25  27
HETATM   27  C   UNL     1      -9.832  13.061  66.551  1.00  0.00    -0.263 A  
HETATM   28  N   UNL     1      -9.655  14.392  66.575  1.00  0.00    -0.281 NA 
HETATM   29  C   UNL     1     -10.689  15.121  67.054  1.00  0.00    -0.307 A  
HETATM   30  C   UNL     1     -11.869  14.570  67.530  1.00  0.00    -0.404 A  
HETATM   31  C   UNL     1     -12.000  13.186  67.519  1.00  0.00    -0.367 A  
HETATM   32  C   UNL     1     -10.960  12.407  67.017  1.00  0.00    -0.303 A  
ENDBRANCH  25  27
ENDBRANCH  22  25
ENDBRANCH  19  22
ENDBRANCH  14  16
ENDBRANCH  12  14
ENDBRANCH   6  12
TORSDOF 6
ENDMDL
MODEL      179
REMARK 921   NORMALIZED FREE ENERGY PREDICTED BY IDOCK:   -5.35 KCAL/MOL
REMARK 922        TOTAL FREE ENERGY PREDICTED BY IDOCK:   -7.74 KCAL/MOL
REMARK 923 INTER-LIGAND FREE ENERGY PREDICTED BY IDOCK:   -6.78 KCAL/MOL
REMARK 924 INTRA-LIGAND FREE ENERGY PREDICTED BY IDOCK:   -0.97 KCAL/MOL
REMARK 927      BINDING AFFINITY PREDICTED BY RF-SCORE:    0.00 PKD
ROOT
HETATM    1  O   UNL     1     -11.992  12.956  69.657  1.00  0.00    -0.313 OA 
HETATM    2  C   UNL     1     -12.046  11.684  69.205  1.00  0.00    -0.251 C  
HETATM    3  C   UNL     1     -12.210  10.658  70.269  1.00  0.00    -0.417 A  
HETATM    4  O   UNL     1     -11.915  11.393  68.027  1.00  0.00    -0.613 OA 
HETATM    5  C   UNL     1     -11.729   9.362  70.004  1.00  0.00     0.028 A  
HETATM    6  C   UNL     1     -11.880   8.330  70.942  1.00  0.00    -0.216 A  
HETATM    7  C   UNL     1     -12.513   8.629  72.158  1.00  0.00    -0.453 A  
HETATM    8  O   UNL     1     -13.304  12.181  71.765  1.00  0.00    -0.407 OA 
HETATM    9  C   UNL     1     -12.843  10.920  71.489  1.00  0.00    -0.454 A  
HETATM   10  H   UNL     1     -13.735  12.359  72.593  1.00  0.00     0.000 HD 
HETATM   11  C   UNL     1     -12.997   9.911  72.435  1.00  0.00    -0.263 A  
ENDROOT
BRANCH   6  12
HETATM   12  N   UNL     1     -11.438   7.000  70.757  1.00  0.00    -0.301 NA 
HETATM   13  H   UNL     1     -10.808   6.523  71.402  1.00  0.00     0.000 HD 
BRANCH  12  14
HETATM   14  N   UNL     1     -11.897   6.469  69.724  1.00  0.00    -0.615 NA 
HETATM   15  H   UNL     1     -12.863   6.154  69.631  1.00  0.00     0.000 HD 
BRANCH  14  16
HETATM   16  C   UNL     1     -10.931   6.354  68.701  1.00  0.00    -0.330 A  
HETATM   17  C   UNL     1      -8.558   6.269  68.135  1.00  0.00    -0.116 A  
HETATM   18  C   UNL     1      -9.583   6.326  69.085  1.00  0.00    -0.148 A  
HETATM   19  C   UNL     1      -8.877   6.195  66.776  1.00  0.00    -0.122 A  
HETATM   20  C   UNL     1     -11.231   6.271  67.330  1.00  0.00    -0.242 A  
HETATM   21  C   UNL     1     -10.214   6.199  66.369  1.00  0.00    -0.107 A  
BRANCH  19  22
HETATM   22  S   UNL     1      -7.564   6.297  65.570  1.00  0.00    -0.091 S  
HETATM   23  O   UNL     1      -8.163   6.130  64.265  1.00  0.00    -0.117 OA 
HETATM   24  O   UNL     1      -6.517   5.402  66.023  1.00  0.00    -0.041 OA 
BRANCH  22  25
HETATM   25  N   UNL     1      -6.950   7.857  65.757  1.00  0.00    -0.056 N  
HETATM   26  H   UNL     1      -5.963   8.030  65.943  1.00  0.00     0.000 HD 
BRANCH  25  27
HETATM   27  C   UNL     1      -7.884   8.905  65.640  1.00  0.00    -0.096 A  
HETATM   28  N   UNL     1      -8.450   8.987  64.425  1.00  0.00    -0.181 NA 
HETATM   29  C   UNL     1      -9.414   9.925  64.280  1.00  0.00    -0.216 A  
HETATM   30  C   UNL     1      -9.808  10.791  65.288  1.00  0.00    -0.329 A  
HETATM   31  C   UNL     1      -9.176  10.696  66.523  1.00  0.00    -0.187 A  
HETATM   32  C   UNL     1      -8.190   9.729  66.709  1.00  0.00    -0.120 A  
ENDBRANCH  25  27
ENDBRANCH  22  25
ENDBRANCH  19  22
ENDBRANCH  14  16
ENDBRANCH  12  14
ENDBRANCH   6  12
TORSDOF 6
ENDMDL
MODEL      180
REMARK 921   NORMALIZED FREE ENERGY PREDICTED BY IDOCK:   -5.35 KCAL/MOL
REMARK 922        TOTAL FREE ENERGY PREDICTED BY IDOCK:   -7.74 KCAL/MOL
REMARK 923 INTER-LIGAND FREE ENERGY PREDICTED BY IDOCK:   -7.88 KCAL/MOL
REMARK 924 INTRA-LIGAND FREE ENERGY PREDICTED BY IDOCK:    0.13 KCAL/MOL
REMARK 927      BINDING AFFINITY PREDICTED BY RF-SCORE:    0.00 PKD
ROOT
HETATM    1  O   UNL     1     -11.184  11.144  63.785  1.00  0.00    -0.275 OA 
HETATM    2  C   UNL     1     -10.505  12.169  64.344  1.00  0.00    -0.317 C  
HETATM    3  C   UNL     1     -10.155  11.969  65.776  1.00  0.00    -0.267 A  
HETATM    4  O   UNL     1     -10.247  13.200  63.743  1.00  0.00    -0.307 OA 
HETATM    5  C   UNL     1      -9.977  13.117  66.569  1.00  0.00    -0.268 A  
HETATM    6  C   UNL     1      -9.609  13.012  67.920  1.00  0.00    -0.215 A  
HETATM    7  C   UNL     1      -9.437  11.729  68.460  1.00  0.00    -0.165 A  
HETATM    8  O   UNL     1     -10.150   9.578  65.586  1.00  0.00    -0.328 OA 
HETATM    9  C   UNL     1      -9.967  10.705  66.344  1.00  0.00    -0.222 A  
HETATM   10  H   UNL     1     -10.021   8.719  65.972  1.00  0.00     0.000 HD 
HETATM   11  C   UNL     1      -9.608  10.579  67.683  1.00  0.00    -0.175 A  
ENDROOT
BRANCH   6  12
HETATM   12  N   UNL     1      -9.400  14.109  68.786  1.00  0.00    -0.354 NA 
HETATM   13  H   UNL     1     -10.159  14.628  69.228  1.00  0.00     0.000 HD 
BRANCH  12  14
HETATM   14  N   UNL     1      -8.193  14.377  68.957  1.00  0.00    -0.316 NA 
HETATM   15  H   UNL     1      -7.560  13.809  69.521  1.00  0.00     0.000 HD 
BRANCH  14  16
HETATM   16  C   UNL     1      -7.800  15.554  68.282  1.00  0.00    -0.127 A  
HETATM   17  C   UNL     1      -7.553  16.690  66.136  1.00  0.00    -0.090 A  
HETATM   18  C   UNL     1      -7.965  15.587  66.890  1.00  0.00    -0.264 A  
HETATM   19  C   UNL     1      -7.005  17.803  66.779  1.00  0.00    -0.193 A  
HETATM   20  C   UNL     1      -7.255  16.686  68.912  1.00  0.00    -0.219 A  
HETATM   21  C   UNL     1      -6.851  17.804  68.168  1.00  0.00    -0.206 A  
BRANCH  19  22
HETATM   22  S   UNL     1      -6.327  19.128  65.793  1.00  0.00    -0.247 S  
HETATM   23  O   UNL     1      -6.089  18.603  64.468  1.00  0.00    -0.391 OA 
HETATM   24  O   UNL     1      -5.242  19.704  66.566  1.00  0.00    -0.163 OA 
BRANCH  22  25
HETATM   25  N   UNL     1      -7.546  20.294  65.772  1.00  0.00    -0.520 N  
HETATM   26  H   UNL     1      -7.429  21.189  65.299  1.00  0.00     0.000 HD 
BRANCH  25  27
HETATM   27  C   UNL     1      -8.735  19.953  66.446  1.00  0.00    -0.345 A  
HETATM   28  N   UNL     1      -9.509  19.089  65.770  1.00  0.00    -0.333 NA 
HETATM   29  C   UNL     1     -10.624  18.665  66.406  1.00  0.00    -0.349 A  
HETATM   30  C   UNL     1     -11.003  19.091  67.669  1.00  0.00    -0.330 A  
HETATM   31  C   UNL     1     -10.192  20.012  68.324  1.00  0.00    -0.527 A  
HETATM   32  C   UNL     1      -9.028  20.456  67.702  1.00  0.00    -0.364 A  
ENDBRANCH  25  27
ENDBRANCH  22  25
ENDBRANCH  19  22
ENDBRANCH  14  16
ENDBRANCH  12  14
ENDBRANCH   6  12
TORSDOF 6
ENDMDL
MODEL      181
REMARK 921   NORMALIZED FREE ENERGY PREDICTED BY IDOCK:   -5.34 KCAL/MOL
REMARK 922        TOTAL FREE ENERGY PREDICTED BY IDOCK:   -7.73 KCAL/MOL
REMARK 923 INTER-LIGAND FREE ENERGY PREDICTED BY IDOCK:   -7.11 KCAL/MOL
REMARK 924 INTRA-LIGAND FREE ENERGY PREDICTED BY IDOCK:   -0.63 KCAL/MOL
REMARK 927      BINDING AFFINITY PREDICTED BY RF-SCORE:    0.00 PKD
ROOT
HETATM    1  O   UNL     1     -13.192  15.835  71.494  1.00  0.00    -0.490 OA 
HETATM    2  C   UNL     1     -12.844  14.557  71.229  1.00  0.00    -0.332 C  
HETATM    3  C   UNL     1     -12.091  14.373  69.960  1.00  0.00    -0.401 A  
HETATM    4  O   UNL     1     -13.170  13.621  71.941  1.00  0.00    -0.360 OA 
HETATM    5  C   UNL     1     -12.176  13.119  69.329  1.00  0.00    -0.165 A  
HETATM    6  C   UNL     1     -11.464  12.854  68.148  1.00  0.00    -0.315 A  
HETATM    7  C   UNL     1     -10.675  13.881  67.608  1.00  0.00    -0.255 A  
HETATM    8  O   UNL     1     -11.207  16.602  69.997  1.00  0.00    -0.430 OA 
HETATM    9  C   UNL     1     -11.289  15.372  69.399  1.00  0.00    -0.307 A  
HETATM   10  H   UNL     1     -10.662  17.281  69.617  1.00  0.00     0.000 HD 
HETATM   11  C   UNL     1     -10.580  15.132  68.226  1.00  0.00    -0.243 A  
ENDROOT
BRANCH   6  12
HETATM   12  N   UNL     1     -11.483  11.624  67.453  1.00  0.00    -0.453 NA 
HETATM   13  H   UNL     1     -11.115  11.507  66.509  1.00  0.00     0.000 HD 
BRANCH  12  14
HETATM   14  N   UNL     1     -11.995  10.695  68.112  1.00  0.00    -0.783 NA 
HETATM   15  H   UNL     1     -13.000  10.533  68.175  1.00  0.00     0.000 HD 
BRANCH  14  16
HETATM   16  C   UNL     1     -11.027   9.894  68.758  1.00  0.00    -0.179 A  
HETATM   17  C   UNL     1      -9.432   8.058  68.556  1.00  0.00    -0.143 A  
HETATM   18  C   UNL     1     -10.365   8.931  67.986  1.00  0.00    -0.271 A  
HETATM   19  C   UNL     1      -9.118   8.171  69.913  1.00  0.00    -0.151 A  
HETATM   20  C   UNL     1     -10.692   9.998  70.120  1.00  0.00    -0.361 A  
HETATM   21  C   UNL     1      -9.748   9.139  70.700  1.00  0.00    -0.314 A  
BRANCH  19  22
HETATM   22  S   UNL     1      -8.059   6.945  70.664  1.00  0.00    -0.119 S  
HETATM   23  O   UNL     1      -7.674   7.445  71.964  1.00  0.00    -0.086 OA 
HETATM   24  O   UNL     1      -7.054   6.606  69.675  1.00  0.00    -0.064 OA 
BRANCH  22  25
HETATM   25  N   UNL     1      -9.042   5.582  70.808  1.00  0.00    -0.144 N  
HETATM   26  H   UNL     1      -9.734   5.490  71.550  1.00  0.00     0.000 HD 
BRANCH  25  27
HETATM   27  C   UNL     1      -8.847   4.578  69.838  1.00  0.00    -0.086 A  
HETATM   28  N   UNL     1      -7.894   3.691  70.167  1.00  0.00    -0.047 NA 
HETATM   29  C   UNL     1      -7.720   2.659  69.311  1.00  0.00    -0.043 A  
HETATM   30  C   UNL     1      -8.440   2.499  68.136  1.00  0.00    -0.097 A  
HETATM   31  C   UNL     1      -9.396   3.457  67.815  1.00  0.00    -0.243 A  
HETATM   32  C   UNL     1      -9.610   4.523  68.685  1.00  0.00    -0.222 A  
ENDBRANCH  25  27
ENDBRANCH  22  25
ENDBRANCH  19  22
ENDBRANCH  14  16
ENDBRANCH  12  14
ENDBRANCH   6  12
TORSDOF 6
ENDMDL
MODEL      182
REMARK 921   NORMALIZED FREE ENERGY PREDICTED BY IDOCK:   -5.33 KCAL/MOL
REMARK 922        TOTAL FREE ENERGY PREDICTED BY IDOCK:   -7.73 KCAL/MOL
REMARK 923 INTER-LIGAND FREE ENERGY PREDICTED BY IDOCK:   -7.32 KCAL/MOL
REMARK 924 INTRA-LIGAND FREE ENERGY PREDICTED BY IDOCK:   -0.41 KCAL/MOL
REMARK 927      BINDING AFFINITY PREDICTED BY RF-SCORE:    0.00 PKD
ROOT
HETATM    1  O   UNL     1     -13.447  14.116  65.333  1.00  0.00    -0.648 OA 
HETATM    2  C   UNL     1     -12.295  13.685  65.892  1.00  0.00    -0.471 C  
HETATM    3  C   UNL     1     -11.504  12.759  65.039  1.00  0.00    -0.356 A  
HETATM    4  O   UNL     1     -11.958  13.984  67.026  1.00  0.00    -0.403 OA 
HETATM    5  C   UNL     1     -10.646  11.851  65.686  1.00  0.00    -0.311 A  
HETATM    6  C   UNL     1      -9.838  10.970  64.950  1.00  0.00    -0.274 A  
HETATM    7  C   UNL     1      -9.920  11.012  63.550  1.00  0.00    -0.421 A  
HETATM    8  O   UNL     1     -12.396  13.650  62.999  1.00  0.00    -1.041 OA 
HETATM    9  C   UNL     1     -11.555  12.780  63.641  1.00  0.00    -0.506 A  
HETATM   10  H   UNL     1     -12.430  13.665  62.049  1.00  0.00     0.000 HD 
HETATM   11  C   UNL     1     -10.767  11.911  62.893  1.00  0.00     0.106 A  
ENDROOT
BRANCH   6  12
HETATM   12  N   UNL     1      -8.943  10.034  65.514  1.00  0.00    -0.163 NA 
HETATM   13  H   UNL     1      -8.157  10.296  66.109  1.00  0.00     0.000 HD 
BRANCH  12  14
HETATM   14  N   UNL     1      -9.211   8.852  65.211  1.00  0.00    -0.420 NA 
HETATM   15  H   UNL     1      -9.340   8.529  64.252  1.00  0.00     0.000 HD 
BRANCH  14  16
HETATM   16  C   UNL     1      -9.316   8.014  66.343  1.00  0.00    -0.200 A  
HETATM   17  C   UNL     1     -10.638   7.371  68.290  1.00  0.00    -0.204 A  
HETATM   18  C   UNL     1     -10.475   8.122  67.122  1.00  0.00    -0.396 A  
HETATM   19  C   UNL     1      -9.648   6.461  68.672  1.00  0.00    -0.120 A  
HETATM   20  C   UNL     1      -8.335   7.088  66.738  1.00  0.00    -0.116 A  
HETATM   21  C   UNL     1      -8.493   6.318  67.899  1.00  0.00    -0.117 A  
BRANCH  19  22
HETATM   22  S   UNL     1      -9.788   5.637  70.250  1.00  0.00    -0.208 S  
HETATM   23  O   UNL     1      -9.015   4.418  70.170  1.00  0.00    -0.080 OA 
HETATM   24  O   UNL     1     -11.201   5.596  70.571  1.00  0.00    -0.216 OA 
BRANCH  22  25
HETATM   25  N   UNL     1      -9.097   6.718  71.344  1.00  0.00    -0.143 N  
HETATM   26  H   UNL     1      -9.292   6.674  72.344  1.00  0.00     0.000 HD 
BRANCH  25  27
HETATM   27  C   UNL     1      -8.236   7.687  70.792  1.00  0.00    -0.109 A  
HETATM   28  N   UNL     1      -8.852   8.838  70.477  1.00  0.00    -0.160 NA 
HETATM   29  C   UNL     1      -8.058   9.832  70.018  1.00  0.00    -0.189 A  
HETATM   30  C   UNL     1      -6.688   9.708  69.839  1.00  0.00    -0.069 A  
HETATM   31  C   UNL     1      -6.092   8.489  70.146  1.00  0.00    -0.034 A  
HETATM   32  C   UNL     1      -6.881   7.450  70.636  1.00  0.00    -0.048 A  
ENDBRANCH  25  27
ENDBRANCH  22  25
ENDBRANCH  19  22
ENDBRANCH  14  16
ENDBRANCH  12  14
ENDBRANCH   6  12
TORSDOF 6
ENDMDL
MODEL      183
REMARK 921   NORMALIZED FREE ENERGY PREDICTED BY IDOCK:   -5.33 KCAL/MOL
REMARK 922        TOTAL FREE ENERGY PREDICTED BY IDOCK:   -7.72 KCAL/MOL
REMARK 923 INTER-LIGAND FREE ENERGY PREDICTED BY IDOCK:   -7.01 KCAL/MOL
REMARK 924 INTRA-LIGAND FREE ENERGY PREDICTED BY IDOCK:   -0.71 KCAL/MOL
REMARK 927      BINDING AFFINITY PREDICTED BY RF-SCORE:    0.00 PKD
ROOT
HETATM    1  O   UNL     1      -9.643  19.924  65.911  1.00  0.00    -0.380 OA 
HETATM    2  C   UNL     1     -10.310  19.089  66.736  1.00  0.00    -0.412 C  
HETATM    3  C   UNL     1      -9.871  17.670  66.664  1.00  0.00    -0.309 A  
HETATM    4  O   UNL     1     -11.235  19.455  67.442  1.00  0.00    -0.348 OA 
HETATM    5  C   UNL     1     -10.807  16.680  67.015  1.00  0.00    -0.091 A  
HETATM    6  C   UNL     1     -10.457  15.321  67.009  1.00  0.00    -0.292 A  
HETATM    7  C   UNL     1      -9.151  14.976  66.630  1.00  0.00    -0.309 A  
HETATM    8  O   UNL     1      -7.656  18.245  65.943  1.00  0.00    -0.460 OA 
HETATM    9  C   UNL     1      -8.574  17.292  66.299  1.00  0.00    -0.229 A  
HETATM   10  H   UNL     1      -6.775  17.988  65.696  1.00  0.00     0.000 HD 
HETATM   11  C   UNL     1      -8.209  15.949  66.281  1.00  0.00    -0.147 A  
ENDROOT
BRANCH   6  12
HETATM   12  N   UNL     1     -11.328  14.263  67.354  1.00  0.00    -0.316 NA 
HETATM   13  H   UNL     1     -11.788  14.187  68.262  1.00  0.00     0.000 HD 
BRANCH  12  14
HETATM   14  N   UNL     1     -11.476  13.428  66.437  1.00  0.00    -0.317 NA 
HETATM   15  H   UNL     1     -11.788  13.670  65.496  1.00  0.00     0.000 HD 
BRANCH  14  16
HETATM   16  C   UNL     1     -11.164  12.113  66.846  1.00  0.00    -0.320 A  
HETATM   17  C   UNL     1     -10.216   9.952  66.223  1.00  0.00    -0.282 A  
HETATM   18  C   UNL     1     -10.514  11.285  65.921  1.00  0.00    -0.314 A  
HETATM   19  C   UNL     1     -10.530   9.441  67.484  1.00  0.00    -0.280 A  
HETATM   20  C   UNL     1     -11.465  11.584  68.113  1.00  0.00    -0.385 A  
HETATM   21  C   UNL     1     -11.158  10.253  68.433  1.00  0.00    -0.302 A  
BRANCH  19  22
HETATM   22  S   UNL     1     -10.303   7.698  67.796  1.00  0.00    -0.219 S  
HETATM   23  O   UNL     1     -11.250   6.984  66.970  1.00  0.00    -0.328 OA 
HETATM   24  O   UNL     1     -10.308   7.532  69.237  1.00  0.00    -0.200 OA 
BRANCH  22  25
HETATM   25  N   UNL     1      -8.720   7.392  67.302  1.00  0.00    -0.120 N  
HETATM   26  H   UNL     1      -7.930   7.933  67.652  1.00  0.00     0.000 HD 
BRANCH  25  27
HETATM   27  C   UNL     1      -8.556   6.341  66.377  1.00  0.00    -0.133 A  
HETATM   28  N   UNL     1      -8.694   5.121  66.920  1.00  0.00    -0.108 NA 
HETATM   29  C   UNL     1      -8.626   4.077  66.063  1.00  0.00    -0.110 A  
HETATM   30  C   UNL     1      -8.401   4.208  64.701  1.00  0.00    -0.104 A  
HETATM   31  C   UNL     1      -8.230   5.488  64.182  1.00  0.00    -0.120 A  
HETATM   32  C   UNL     1      -8.310   6.585  65.037  1.00  0.00    -0.076 A  
ENDBRANCH  25  27
ENDBRANCH  22  25
ENDBRANCH  19  22
ENDBRANCH  14  16
ENDBRANCH  12  14
ENDBRANCH   6  12
TORSDOF 6
ENDMDL
MODEL      184
REMARK 921   NORMALIZED FREE ENERGY PREDICTED BY IDOCK:   -5.31 KCAL/MOL
REMARK 922        TOTAL FREE ENERGY PREDICTED BY IDOCK:   -7.70 KCAL/MOL
REMARK 923 INTER-LIGAND FREE ENERGY PREDICTED BY IDOCK:   -6.96 KCAL/MOL
REMARK 924 INTRA-LIGAND FREE ENERGY PREDICTED BY IDOCK:   -0.74 KCAL/MOL
REMARK 927      BINDING AFFINITY PREDICTED BY RF-SCORE:    0.00 PKD
ROOT
HETATM    1  O   UNL     1     -10.536  17.313  69.470  1.00  0.00    -0.276 OA 
HETATM    2  C   UNL     1     -11.018  16.329  68.680  1.00  0.00    -0.340 C  
HETATM    3  C   UNL     1     -11.506  15.132  69.415  1.00  0.00    -0.322 A  
HETATM    4  O   UNL     1     -11.003  16.391  67.461  1.00  0.00    -0.285 OA 
HETATM    5  C   UNL     1     -11.491  13.900  68.735  1.00  0.00    -0.327 A  
HETATM    6  C   UNL     1     -11.971  12.731  69.348  1.00  0.00    -0.263 A  
HETATM    7  C   UNL     1     -12.454  12.824  70.661  1.00  0.00    -0.328 A  
HETATM    8  O   UNL     1     -12.012  16.381  71.399  1.00  0.00    -0.638 OA 
HETATM    9  C   UNL     1     -12.003  15.190  70.721  1.00  0.00    -0.327 A  
HETATM   10  H   UNL     1     -12.350  16.421  72.286  1.00  0.00     0.000 HD 
HETATM   11  C   UNL     1     -12.477  14.041  71.348  1.00  0.00    -0.438 A  
ENDROOT
BRANCH   6  12
HETATM   12  N   UNL     1     -12.002  11.456  68.739  1.00  0.00    -0.487 NA 
HETATM   13  H   UNL     1     -12.105  10.586  69.262  1.00  0.00     0.000 HD 
BRANCH  12  14
HETATM   14  N   UNL     1     -11.890  11.502  67.496  1.00  0.00    -0.631 NA 
HETATM   15  H   UNL     1     -12.414  12.146  66.903  1.00  0.00     0.000 HD 
BRANCH  14  16
HETATM   16  C   UNL     1     -10.956  10.564  67.002  1.00  0.00    -0.180 A  
HETATM   17  C   UNL     1      -9.317  10.031  65.274  1.00  0.00    -0.294 A  
HETATM   18  C   UNL     1     -10.223  10.921  65.862  1.00  0.00    -0.314 A  
HETATM   19  C   UNL     1      -9.101   8.778  65.854  1.00  0.00    -0.218 A  
HETATM   20  C   UNL     1     -10.719   9.303  67.576  1.00  0.00    -0.272 A  
HETATM   21  C   UNL     1      -9.803   8.408  67.004  1.00  0.00    -0.296 A  
BRANCH  19  22
HETATM   22  S   UNL     1      -8.076   7.592  65.000  1.00  0.00    -0.104 S  
HETATM   23  O   UNL     1      -8.147   7.896  63.589  1.00  0.00    -0.141 OA 
HETATM   24  O   UNL     1      -8.460   6.283  65.494  1.00  0.00    -0.147 OA 
BRANCH  22  25
HETATM   25  N   UNL     1      -6.526   7.875  65.602  1.00  0.00    -0.042 N  
HETATM   26  H   UNL     1      -5.700   7.834  65.007  1.00  0.00     0.000 HD 
BRANCH  25  27
HETATM   27  C   UNL     1      -6.444   8.171  66.977  1.00  0.00    -0.057 A  
HETATM   28  N   UNL     1      -6.480   7.084  67.764  1.00  0.00    -0.049 NA 
HETATM   29  C   UNL     1      -6.323   7.304  69.089  1.00  0.00    -0.036 A  
HETATM   30  C   UNL     1      -6.162   8.561  69.651  1.00  0.00    -0.039 A  
HETATM   31  C   UNL     1      -6.164   9.665  68.805  1.00  0.00    -0.042 A  
HETATM   32  C   UNL     1      -6.306   9.471  67.433  1.00  0.00    -0.065 A  
ENDBRANCH  25  27
ENDBRANCH  22  25
ENDBRANCH  19  22
ENDBRANCH  14  16
ENDBRANCH  12  14
ENDBRANCH   6  12
TORSDOF 6
ENDMDL
MODEL      185
REMARK 921   NORMALIZED FREE ENERGY PREDICTED BY IDOCK:   -5.30 KCAL/MOL
REMARK 922        TOTAL FREE ENERGY PREDICTED BY IDOCK:   -7.68 KCAL/MOL
REMARK 923 INTER-LIGAND FREE ENERGY PREDICTED BY IDOCK:   -7.35 KCAL/MOL
REMARK 924 INTRA-LIGAND FREE ENERGY PREDICTED BY IDOCK:   -0.33 KCAL/MOL
REMARK 927      BINDING AFFINITY PREDICTED BY RF-SCORE:    0.00 PKD
ROOT
HETATM    1  O   UNL     1      -9.535  19.651  65.729  1.00  0.00    -0.384 OA 
HETATM    2  C   UNL     1     -10.041  19.076  66.841  1.00  0.00    -0.371 C  
HETATM    3  C   UNL     1      -9.805  17.611  66.941  1.00  0.00    -0.306 A  
HETATM    4  O   UNL     1     -10.689  19.695  67.670  1.00  0.00    -0.445 OA 
HETATM    5  C   UNL     1     -10.717  16.855  67.701  1.00  0.00    -0.290 A  
HETATM    6  C   UNL     1     -10.541  15.473  67.874  1.00  0.00    -0.274 A  
HETATM    7  C   UNL     1      -9.438  14.865  67.257  1.00  0.00    -0.216 A  
HETATM    8  O   UNL     1      -7.823  17.696  65.593  1.00  0.00    -0.533 OA 
HETATM    9  C   UNL     1      -8.711  16.974  66.346  1.00  0.00    -0.273 A  
HETATM   10  H   UNL     1      -7.080  17.264  65.190  1.00  0.00     0.000 HD 
HETATM   11  C   UNL     1      -8.523  15.604  66.501  1.00  0.00    -0.311 A  
ENDROOT
BRANCH   6  12
HETATM   12  N   UNL     1     -11.399  14.639  68.625  1.00  0.00    -0.269 NA 
HETATM   13  H   UNL     1     -11.459  14.666  69.643  1.00  0.00     0.000 HD 
BRANCH  12  14
HETATM   14  N   UNL     1     -12.077  13.865  67.917  1.00  0.00    -0.470 NA 
HETATM   15  H   UNL     1     -12.829  14.174  67.300  1.00  0.00     0.000 HD 
BRANCH  14  16
HETATM   16  C   UNL     1     -11.687  12.516  68.065  1.00  0.00    -0.355 A  
HETATM   17  C   UNL     1     -11.171  10.698  69.610  1.00  0.00    -0.351 A  
HETATM   18  C   UNL     1     -11.603  12.007  69.368  1.00  0.00    -0.393 A  
HETATM   19  C   UNL     1     -10.858   9.863  68.536  1.00  0.00    -0.217 A  
HETATM   20  C   UNL     1     -11.374  11.658  66.997  1.00  0.00    -0.373 A  
HETATM   21  C   UNL     1     -10.955  10.340  67.226  1.00  0.00    -0.277 A  
BRANCH  19  22
HETATM   22  S   UNL     1     -10.146   8.258  68.862  1.00  0.00    -0.202 S  
HETATM   23  O   UNL     1     -10.821   7.305  68.011  1.00  0.00    -0.178 OA 
HETATM   24  O   UNL     1     -10.146   8.092  70.303  1.00  0.00    -0.189 OA 
BRANCH  22  25
HETATM   25  N   UNL     1      -8.528   8.424  68.418  1.00  0.00    -0.134 N  
HETATM   26  H   UNL     1      -7.911   7.620  68.312  1.00  0.00     0.000 HD 
BRANCH  25  27
HETATM   27  C   UNL     1      -8.081   9.743  68.201  1.00  0.00    -0.108 A  
HETATM   28  N   UNL     1      -7.983  10.469  69.326  1.00  0.00    -0.154 NA 
HETATM   29  C   UNL     1      -7.482  11.718  69.187  1.00  0.00     0.035 A  
HETATM   30  C   UNL     1      -7.106  12.269  67.972  1.00  0.00    -0.099 A  
HETATM   31  C   UNL     1      -7.254  11.496  66.824  1.00  0.00    -0.111 A  
HETATM   32  C   UNL     1      -7.752  10.200  66.937  1.00  0.00    -0.103 A  
ENDBRANCH  25  27
ENDBRANCH  22  25
ENDBRANCH  19  22
ENDBRANCH  14  16
ENDBRANCH  12  14
ENDBRANCH   6  12
TORSDOF 6
ENDMDL
MODEL      186
REMARK 921   NORMALIZED FREE ENERGY PREDICTED BY IDOCK:   -5.30 KCAL/MOL
REMARK 922        TOTAL FREE ENERGY PREDICTED BY IDOCK:   -7.68 KCAL/MOL
REMARK 923 INTER-LIGAND FREE ENERGY PREDICTED BY IDOCK:   -7.06 KCAL/MOL
REMARK 924 INTRA-LIGAND FREE ENERGY PREDICTED BY IDOCK:   -0.62 KCAL/MOL
REMARK 927      BINDING AFFINITY PREDICTED BY RF-SCORE:    0.00 PKD
ROOT
HETATM    1  O   UNL     1      -7.435  14.082  67.088  1.00  0.00    -0.104 OA 
HETATM    2  C   UNL     1      -8.243  13.644  68.078  1.00  0.00    -0.162 C  
HETATM    3  C   UNL     1      -9.050  12.445  67.730  1.00  0.00    -0.193 A  
HETATM    4  O   UNL     1      -8.347  14.217  69.151  1.00  0.00    -0.029 OA 
HETATM    5  C   UNL     1     -10.266  12.257  68.413  1.00  0.00    -0.220 A  
HETATM    6  C   UNL     1     -11.065  11.130  68.168  1.00  0.00    -0.264 A  
HETATM    7  C   UNL     1     -10.625  10.202  67.213  1.00  0.00    -0.321 A  
HETATM    8  O   UNL     1      -7.462  11.673  66.107  1.00  0.00    -0.366 OA 
HETATM    9  C   UNL     1      -8.637  11.496  66.789  1.00  0.00    -0.170 A  
HETATM   10  H   UNL     1      -7.181  11.028  65.468  1.00  0.00     0.000 HD 
HETATM   11  C   UNL     1      -9.419  10.374  66.527  1.00  0.00    -0.204 A  
ENDROOT
BRANCH   6  12
HETATM   12  N   UNL     1     -12.293  10.856  68.813  1.00  0.00    -0.772 NA 
HETATM   13  H   UNL     1     -13.109  10.480  68.331  1.00  0.00     0.000 HD 
BRANCH  12  14
HETATM   14  N   UNL     1     -12.276  11.121  70.034  1.00  0.00    -0.326 NA 
HETATM   15  H   UNL     1     -12.497  12.040  70.417  1.00  0.00     0.000 HD 
BRANCH  14  16
HETATM   16  C   UNL     1     -11.918  10.006  70.824  1.00  0.00    -0.335 A  
HETATM   17  C   UNL     1     -10.120   8.780  71.927  1.00  0.00    -0.409 A  
HETATM   18  C   UNL     1     -10.572   9.881  71.193  1.00  0.00    -0.066 A  
HETATM   19  C   UNL     1     -11.029   7.803  72.342  1.00  0.00    -0.311 A  
HETATM   20  C   UNL     1     -12.819   9.018  71.256  1.00  0.00    -0.296 A  
HETATM   21  C   UNL     1     -12.381   7.917  72.006  1.00  0.00    -0.346 A  
BRANCH  19  22
HETATM   22  S   UNL     1     -10.414   6.322  73.127  1.00  0.00    -0.255 S  
HETATM   23  O   UNL     1     -11.496   5.363  73.146  1.00  0.00    -0.292 OA 
HETATM   24  O   UNL     1      -9.776   6.742  74.360  1.00  0.00    -0.267 OA 
BRANCH  22  25
HETATM   25  N   UNL     1      -9.167   5.805  72.116  1.00  0.00    -0.146 N  
HETATM   26  H   UNL     1      -8.332   5.346  72.479  1.00  0.00     0.000 HD 
BRANCH  25  27
HETATM   27  C   UNL     1      -9.350   6.046  70.740  1.00  0.00    -0.154 A  
HETATM   28  N   UNL     1      -8.345   6.736  70.176  1.00  0.00    -0.133 NA 
HETATM   29  C   UNL     1      -8.429   6.926  68.840  1.00  0.00    -0.125 A  
HETATM   30  C   UNL     1      -9.484   6.479  68.061  1.00  0.00    -0.120 A  
HETATM   31  C   UNL     1     -10.523   5.797  68.687  1.00  0.00    -0.298 A  
HETATM   32  C   UNL     1     -10.458   5.571  70.059  1.00  0.00    -0.373 A  
ENDBRANCH  25  27
ENDBRANCH  22  25
ENDBRANCH  19  22
ENDBRANCH  14  16
ENDBRANCH  12  14
ENDBRANCH   6  12
TORSDOF 6
ENDMDL
MODEL      187
REMARK 921   NORMALIZED FREE ENERGY PREDICTED BY IDOCK:   -5.29 KCAL/MOL
REMARK 922        TOTAL FREE ENERGY PREDICTED BY IDOCK:   -7.66 KCAL/MOL
REMARK 923 INTER-LIGAND FREE ENERGY PREDICTED BY IDOCK:   -7.26 KCAL/MOL
REMARK 924 INTRA-LIGAND FREE ENERGY PREDICTED BY IDOCK:   -0.40 KCAL/MOL
REMARK 927      BINDING AFFINITY PREDICTED BY RF-SCORE:    0.00 PKD
ROOT
HETATM    1  O   UNL     1     -14.381  13.603  72.873  1.00  0.00    -0.452 OA 
HETATM    2  C   UNL     1     -13.393  13.111  72.094  1.00  0.00    -0.524 C  
HETATM    3  C   UNL     1     -12.553  14.147  71.437  1.00  0.00    -0.445 A  
HETATM    4  O   UNL     1     -13.237  11.917  71.898  1.00  0.00    -0.482 OA 
HETATM    5  C   UNL     1     -11.913  13.799  70.233  1.00  0.00    -0.397 A  
HETATM    6  C   UNL     1     -11.072  14.708  69.573  1.00  0.00    -0.266 A  
HETATM    7  C   UNL     1     -10.898  15.980  70.140  1.00  0.00    -0.349 A  
HETATM    8  O   UNL     1     -12.979  15.777  73.144  1.00  0.00    -0.448 OA 
HETATM    9  C   UNL     1     -12.351  15.421  71.979  1.00  0.00    -0.373 A  
HETATM   10  H   UNL     1     -12.841  16.642  73.513  1.00  0.00     0.000 HD 
HETATM   11  C   UNL     1     -11.526  16.339  71.337  1.00  0.00    -0.361 A  
ENDROOT
BRANCH   6  12
HETATM   12  N   UNL     1     -10.383  14.442  68.368  1.00  0.00    -0.238 NA 
HETATM   13  H   UNL     1      -9.513  14.905  68.104  1.00  0.00     0.000 HD 
BRANCH  12  14
HETATM   14  N   UNL     1     -10.947  13.581  67.660  1.00  0.00    -0.259 NA 
HETATM   15  H   UNL     1     -11.647  13.801  66.951  1.00  0.00     0.000 HD 
BRANCH  14  16
HETATM   16  C   UNL     1     -10.507  12.271  67.949  1.00  0.00    -0.213 A  
HETATM   17  C   UNL     1      -8.609  10.815  68.433  1.00  0.00    -0.141 A  
HETATM   18  C   UNL     1      -9.139  12.087  68.193  1.00  0.00    -0.191 A  
HETATM   19  C   UNL     1      -9.458   9.707  68.475  1.00  0.00    -0.141 A  
HETATM   20  C   UNL     1     -11.347  11.145  68.004  1.00  0.00    -0.380 A  
HETATM   21  C   UNL     1     -10.830   9.867  68.259  1.00  0.00    -0.275 A  
BRANCH  19  22
HETATM   22  S   UNL     1      -8.750   8.074  68.611  1.00  0.00    -0.130 S  
HETATM   23  O   UNL     1      -9.596   7.308  69.497  1.00  0.00    -0.155 OA 
HETATM   24  O   UNL     1      -7.342   8.258  68.908  1.00  0.00    -0.085 OA 
BRANCH  22  25
HETATM   25  N   UNL     1      -8.812   7.464  67.039  1.00  0.00    -0.125 N  
HETATM   26  H   UNL     1      -9.160   6.528  66.836  1.00  0.00     0.000 HD 
BRANCH  25  27
HETATM   27  C   UNL     1      -8.355   8.328  66.025  1.00  0.00    -0.128 A  
HETATM   28  N   UNL     1      -7.017   8.369  65.916  1.00  0.00    -0.067 NA 
HETATM   29  C   UNL     1      -6.524   9.120  64.905  1.00  0.00    -0.067 A  
HETATM   30  C   UNL     1      -7.313   9.846  64.026  1.00  0.00    -0.132 A  
HETATM   31  C   UNL     1      -8.694   9.805  64.192  1.00  0.00    -0.233 A  
HETATM   32  C   UNL     1      -9.233   9.027  65.214  1.00  0.00    -0.205 A  
ENDBRANCH  25  27
ENDBRANCH  22  25
ENDBRANCH  19  22
ENDBRANCH  14  16
ENDBRANCH  12  14
ENDBRANCH   6  12
TORSDOF 6
ENDMDL
MODEL      188
REMARK 921   NORMALIZED FREE ENERGY PREDICTED BY IDOCK:   -5.28 KCAL/MOL
REMARK 922        TOTAL FREE ENERGY PREDICTED BY IDOCK:   -7.66 KCAL/MOL
REMARK 923 INTER-LIGAND FREE ENERGY PREDICTED BY IDOCK:   -6.97 KCAL/MOL
REMARK 924 INTRA-LIGAND FREE ENERGY PREDICTED BY IDOCK:   -0.68 KCAL/MOL
REMARK 927      BINDING AFFINITY PREDICTED BY RF-SCORE:    0.00 PKD
ROOT
HETATM    1  O   UNL     1      -9.593   2.904  64.597  1.00  0.00    -0.153 OA 
HETATM    2  C   UNL     1     -10.196   4.077  64.893  1.00  0.00    -0.200 C  
HETATM    3  C   UNL     1      -9.433   4.943  65.830  1.00  0.00    -0.171 A  
HETATM    4  O   UNL     1     -11.301   4.377  64.473  1.00  0.00    -0.197 OA 
HETATM    5  C   UNL     1     -10.163   5.855  66.614  1.00  0.00    -0.258 A  
HETATM    6  C   UNL     1      -9.512   6.734  67.494  1.00  0.00    -0.127 A  
HETATM    7  C   UNL     1      -8.113   6.667  67.580  1.00  0.00    -0.119 A  
HETATM    8  O   UNL     1      -7.316   4.016  65.186  1.00  0.00    -0.070 OA 
HETATM    9  C   UNL     1      -8.038   4.909  65.935  1.00  0.00    -0.108 A  
HETATM   10  H   UNL     1      -6.369   3.993  65.257  1.00  0.00     0.000 HD 
HETATM   11  C   UNL     1      -7.374   5.767  66.806  1.00  0.00    -0.079 A  
ENDROOT
BRANCH   6  12
HETATM   12  N   UNL     1     -10.162   7.687  68.310  1.00  0.00    -0.190 NA 
HETATM   13  H   UNL     1     -10.026   7.748  69.320  1.00  0.00     0.000 HD 
BRANCH  12  14
HETATM   14  N   UNL     1     -10.920   8.446  67.671  1.00  0.00    -0.483 NA 
HETATM   15  H   UNL     1     -11.756   8.130  67.180  1.00  0.00     0.000 HD 
BRANCH  14  16
HETATM   16  C   UNL     1     -10.490   9.791  67.705  1.00  0.00    -0.246 A  
HETATM   17  C   UNL     1     -10.913  12.048  68.532  1.00  0.00    -0.280 A  
HETATM   18  C   UNL     1     -11.234  10.688  68.485  1.00  0.00    -0.342 A  
HETATM   19  C   UNL     1      -9.805  12.524  67.826  1.00  0.00    -0.204 A  
HETATM   20  C   UNL     1      -9.374  10.287  67.009  1.00  0.00    -0.177 A  
HETATM   21  C   UNL     1      -9.034  11.646  67.060  1.00  0.00    -0.182 A  
BRANCH  19  22
HETATM   22  S   UNL     1      -9.509  14.283  67.756  1.00  0.00    -0.223 S  
HETATM   23  O   UNL     1      -8.277  14.485  67.028  1.00  0.00    -0.200 OA 
HETATM   24  O   UNL     1      -9.658  14.781  69.111  1.00  0.00    -0.199 OA 
BRANCH  22  25
HETATM   25  N   UNL     1     -10.826  14.890  66.895  1.00  0.00    -0.313 N  
HETATM   26  H   UNL     1     -11.272  15.773  67.141  1.00  0.00     0.000 HD 
BRANCH  25  27
HETATM   27  C   UNL     1     -11.271  14.103  65.815  1.00  0.00    -0.312 A  
HETATM   28  N   UNL     1     -10.334  13.900  64.875  1.00  0.00    -0.413 NA 
HETATM   29  C   UNL     1     -10.682  13.084  63.854  1.00  0.00    -0.284 A  
HETATM   30  C   UNL     1     -11.929  12.492  63.727  1.00  0.00    -0.598 A  
HETATM   31  C   UNL     1     -12.884  12.753  64.705  1.00  0.00    -0.355 A  
HETATM   32  C   UNL     1     -12.551  13.577  65.778  1.00  0.00    -0.490 A  
ENDBRANCH  25  27
ENDBRANCH  22  25
ENDBRANCH  19  22
ENDBRANCH  14  16
ENDBRANCH  12  14
ENDBRANCH   6  12
TORSDOF 6
ENDMDL
MODEL      189
REMARK 921   NORMALIZED FREE ENERGY PREDICTED BY IDOCK:   -5.26 KCAL/MOL
REMARK 922        TOTAL FREE ENERGY PREDICTED BY IDOCK:   -7.62 KCAL/MOL
REMARK 923 INTER-LIGAND FREE ENERGY PREDICTED BY IDOCK:   -6.88 KCAL/MOL
REMARK 924 INTRA-LIGAND FREE ENERGY PREDICTED BY IDOCK:   -0.75 KCAL/MOL
REMARK 927      BINDING AFFINITY PREDICTED BY RF-SCORE:    0.00 PKD
ROOT
HETATM    1  O   UNL     1     -13.103  15.875  72.023  1.00  0.00    -0.457 OA 
HETATM    2  C   UNL     1     -12.846  15.293  70.831  1.00  0.00    -0.449 C  
HETATM    3  C   UNL     1     -12.700  13.814  70.885  1.00  0.00    -0.394 A  
HETATM    4  O   UNL     1     -12.689  15.932  69.802  1.00  0.00    -0.134 OA 
HETATM    5  C   UNL     1     -11.913  13.201  69.892  1.00  0.00    -0.387 A  
HETATM    6  C   UNL     1     -11.759  11.806  69.853  1.00  0.00    -0.323 A  
HETATM    7  C   UNL     1     -12.400  11.042  70.839  1.00  0.00    -0.503 A  
HETATM    8  O   UNL     1     -14.091  13.607  72.828  1.00  0.00    -0.711 OA 
HETATM    9  C   UNL     1     -13.332  13.022  71.848  1.00  0.00    -0.446 A  
HETATM   10  H   UNL     1     -14.521  13.069  73.482  1.00  0.00     0.000 HD 
HETATM   11  C   UNL     1     -13.186  11.638  71.830  1.00  0.00    -0.475 A  
ENDROOT
BRANCH   6  12
HETATM   12  N   UNL     1     -10.997  11.106  68.890  1.00  0.00    -0.208 NA 
HETATM   13  H   UNL     1     -10.173  11.497  68.433  1.00  0.00     0.000 HD 
BRANCH  12  14
HETATM   14  N   UNL     1     -11.435   9.960  68.656  1.00  0.00    -0.505 NA 
HETATM   15  H   UNL     1     -12.428   9.731  68.612  1.00  0.00     0.000 HD 
BRANCH  14  16
HETATM   16  C   UNL     1     -10.401   9.017  68.460  1.00  0.00    -0.203 A  
HETATM   17  C   UNL     1      -8.238   8.545  67.434  1.00  0.00    -0.109 A  
HETATM   18  C   UNL     1      -9.282   9.430  67.724  1.00  0.00    -0.141 A  
HETATM   19  C   UNL     1      -8.283   7.236  67.921  1.00  0.00    -0.119 A  
HETATM   20  C   UNL     1     -10.426   7.700  68.948  1.00  0.00    -0.211 A  
HETATM   21  C   UNL     1      -9.378   6.808  68.677  1.00  0.00    -0.131 A  
BRANCH  19  22
HETATM   22  S   UNL     1      -7.033   6.073  67.402  1.00  0.00    -0.070 S  
HETATM   23  O   UNL     1      -7.300   4.822  68.076  1.00  0.00    -0.068 OA 
HETATM   24  O   UNL     1      -5.755   6.740  67.563  1.00  0.00    -0.015 OA 
BRANCH  22  25
HETATM   25  N   UNL     1      -7.269   5.925  65.739  1.00  0.00    -0.073 N  
HETATM   26  H   UNL     1      -6.893   6.604  65.077  1.00  0.00     0.000 HD 
BRANCH  25  27
HETATM   27  C   UNL     1      -8.017   4.807  65.320  1.00  0.00    -0.096 A  
HETATM   28  N   UNL     1      -9.345   5.004  65.357  1.00  0.00    -0.145 NA 
HETATM   29  C   UNL     1     -10.110   3.992  64.889  1.00  0.00    -0.205 A  
HETATM   30  C   UNL     1      -9.600   2.792  64.416  1.00  0.00    -0.147 A  
HETATM   31  C   UNL     1      -8.221   2.614  64.425  1.00  0.00    -0.083 A  
HETATM   32  C   UNL     1      -7.405   3.644  64.886  1.00  0.00    -0.072 A  
ENDBRANCH  25  27
ENDBRANCH  22  25
ENDBRANCH  19  22
ENDBRANCH  14  16
ENDBRANCH  12  14
ENDBRANCH   6  12
TORSDOF 6
ENDMDL
MODEL      190
REMARK 921   NORMALIZED FREE ENERGY PREDICTED BY IDOCK:   -5.25 KCAL/MOL
REMARK 922        TOTAL FREE ENERGY PREDICTED BY IDOCK:   -7.62 KCAL/MOL
REMARK 923 INTER-LIGAND FREE ENERGY PREDICTED BY IDOCK:   -7.14 KCAL/MOL
REMARK 924 INTRA-LIGAND FREE ENERGY PREDICTED BY IDOCK:   -0.47 KCAL/MOL
REMARK 927      BINDING AFFINITY PREDICTED BY RF-SCORE:    0.00 PKD
ROOT
HETATM    1  O   UNL     1      -7.041   5.685  64.508  1.00  0.00    -0.050 OA 
HETATM    2  C   UNL     1      -7.004   6.304  65.708  1.00  0.00    -0.057 C  
HETATM    3  C   UNL     1      -8.311   6.359  66.415  1.00  0.00    -0.119 A  
HETATM    4  O   UNL     1      -5.994   6.826  66.153  1.00  0.00    -0.031 OA 
HETATM    5  C   UNL     1      -8.512   7.408  67.331  1.00  0.00    -0.119 A  
HETATM    6  C   UNL     1      -9.705   7.507  68.065  1.00  0.00    -0.146 A  
HETATM    7  C   UNL     1     -10.696   6.538  67.850  1.00  0.00    -0.357 A  
HETATM    8  O   UNL     1      -9.139   4.386  65.331  1.00  0.00    -0.130 OA 
HETATM    9  C   UNL     1      -9.317   5.405  66.230  1.00  0.00    -0.154 A  
HETATM   10  H   UNL     1      -9.823   3.738  65.206  1.00  0.00     0.000 HD 
HETATM   11  C   UNL     1     -10.509   5.489  66.944  1.00  0.00    -0.348 A  
ENDROOT
BRANCH   6  12
HETATM   12  N   UNL     1      -9.988   8.518  69.011  1.00  0.00    -0.187 NA 
HETATM   13  H   UNL     1      -9.323   8.825  69.721  1.00  0.00     0.000 HD 
BRANCH  12  14
HETATM   14  N   UNL     1     -11.135   8.997  68.889  1.00  0.00    -0.437 NA 
HETATM   15  H   UNL     1     -11.991   8.456  69.008  1.00  0.00     0.000 HD 
BRANCH  14  16
HETATM   16  C   UNL     1     -11.113  10.373  68.569  1.00  0.00    -0.266 A  
HETATM   17  C   UNL     1     -11.491  12.655  69.347  1.00  0.00    -0.330 A  
HETATM   18  C   UNL     1     -11.434  11.279  69.590  1.00  0.00    -0.380 A  
HETATM   19  C   UNL     1     -11.182  13.148  68.077  1.00  0.00    -0.277 A  
HETATM   20  C   UNL     1     -10.797  10.888  67.300  1.00  0.00    -0.342 A  
HETATM   21  C   UNL     1     -10.837  12.267  67.048  1.00  0.00    -0.288 A  
BRANCH  19  22
HETATM   22  S   UNL     1     -11.425  14.884  67.736  1.00  0.00    -0.336 S  
HETATM   23  O   UNL     1     -12.064  15.466  68.894  1.00  0.00    -0.300 OA 
HETATM   24  O   UNL     1     -12.049  14.964  66.429  1.00  0.00    -0.178 OA 
BRANCH  22  25
HETATM   25  N   UNL     1      -9.864  15.490  67.539  1.00  0.00    -0.220 N  
HETATM   26  H   UNL     1      -9.075  14.887  67.310  1.00  0.00     0.000 HD 
BRANCH  25  27
HETATM   27  C   UNL     1      -9.718  16.881  67.710  1.00  0.00    -0.250 A  
HETATM   28  N   UNL     1     -10.638  17.604  67.051  1.00  0.00    -0.300 NA 
HETATM   29  C   UNL     1     -10.594  18.941  67.244  1.00  0.00    -0.456 A  
HETATM   30  C   UNL     1      -9.657  19.577  68.043  1.00  0.00    -0.450 A  
HETATM   31  C   UNL     1      -8.700  18.797  68.683  1.00  0.00    -0.360 A  
HETATM   32  C   UNL     1      -8.728  17.414  68.517  1.00  0.00    -0.277 A  
ENDBRANCH  25  27
ENDBRANCH  22  25
ENDBRANCH  19  22
ENDBRANCH  14  16
ENDBRANCH  12  14
ENDBRANCH   6  12
TORSDOF 6
ENDMDL
MODEL      191
REMARK 921   NORMALIZED FREE ENERGY PREDICTED BY IDOCK:   -5.25 KCAL/MOL
REMARK 922        TOTAL FREE ENERGY PREDICTED BY IDOCK:   -7.62 KCAL/MOL
REMARK 923 INTER-LIGAND FREE ENERGY PREDICTED BY IDOCK:   -6.91 KCAL/MOL
REMARK 924 INTRA-LIGAND FREE ENERGY PREDICTED BY IDOCK:   -0.71 KCAL/MOL
REMARK 927      BINDING AFFINITY PREDICTED BY RF-SCORE:    0.00 PKD
ROOT
HETATM    1  O   UNL     1      -8.680   2.218  71.718  1.00  0.00    -0.065 OA 
HETATM    2  C   UNL     1      -8.872   3.357  71.017  1.00  0.00    -0.083 C  
HETATM    3  C   UNL     1      -9.737   4.360  71.694  1.00  0.00    -0.238 A  
HETATM    4  O   UNL     1      -8.422   3.528  69.895  1.00  0.00    -0.051 OA 
HETATM    5  C   UNL     1     -10.436   5.271  70.881  1.00  0.00    -0.285 A  
HETATM    6  C   UNL     1     -11.243   6.271  71.447  1.00  0.00    -0.293 A  
HETATM    7  C   UNL     1     -11.342   6.329  72.844  1.00  0.00    -0.187 A  
HETATM    8  O   UNL     1      -9.185   3.562  73.887  1.00  0.00    -0.089 OA 
HETATM    9  C   UNL     1      -9.851   4.451  73.085  1.00  0.00    -0.137 A  
HETATM   10  H   UNL     1      -9.262   3.624  74.832  1.00  0.00     0.000 HD 
HETATM   11  C   UNL     1     -10.650   5.432  73.665  1.00  0.00    -0.318 A  
ENDROOT
BRANCH   6  12
HETATM   12  N   UNL     1     -11.972   7.231  70.710  1.00  0.00    -0.460 NA 
HETATM   13  H   UNL     1     -12.204   7.124  69.722  1.00  0.00     0.000 HD 
BRANCH  12  14
HETATM   14  N   UNL     1     -12.304   8.224  71.390  1.00  0.00    -0.305 NA 
HETATM   15  H   UNL     1     -12.798   8.162  72.281  1.00  0.00     0.000 HD 
BRANCH  14  16
HETATM   16  C   UNL     1     -11.920   9.444  70.789  1.00  0.00    -0.231 A  
HETATM   17  C   UNL     1     -12.387  11.825  70.525  1.00  0.00    -0.387 A  
HETATM   18  C   UNL     1     -12.662  10.587  71.115  1.00  0.00    -0.518 A  
HETATM   19  C   UNL     1     -11.324  11.942  69.625  1.00  0.00    -0.195 A  
HETATM   20  C   UNL     1     -10.850   9.583  69.888  1.00  0.00    -0.272 A  
HETATM   21  C   UNL     1     -10.554  10.821  69.301  1.00  0.00    -0.261 A  
BRANCH  19  22
HETATM   22  S   UNL     1     -11.092  13.481  68.751  1.00  0.00    -0.274 S  
HETATM   23  O   UNL     1     -10.072  14.226  69.454  1.00  0.00    -0.047 OA 
HETATM   24  O   UNL     1     -12.413  14.045  68.549  1.00  0.00    -0.134 OA 
BRANCH  22  25
HETATM   25  N   UNL     1     -10.552  13.012  67.224  1.00  0.00    -0.241 N  
HETATM   26  H   UNL     1      -9.992  12.173  67.082  1.00  0.00     0.000 HD 
BRANCH  25  27
HETATM   27  C   UNL     1     -10.924  13.853  66.155  1.00  0.00    -0.293 A  
HETATM   28  N   UNL     1     -10.334  15.058  66.189  1.00  0.00    -0.285 NA 
HETATM   29  C   UNL     1     -10.592  15.877  65.144  1.00  0.00    -0.397 A  
HETATM   30  C   UNL     1     -11.431  15.546  64.091  1.00  0.00    -0.063 A  
HETATM   31  C   UNL     1     -12.049  14.300  64.109  1.00  0.00    -0.423 A  
HETATM   32  C   UNL     1     -11.791  13.427  65.164  1.00  0.00    -0.375 A  
ENDBRANCH  25  27
ENDBRANCH  22  25
ENDBRANCH  19  22
ENDBRANCH  14  16
ENDBRANCH  12  14
ENDBRANCH   6  12
TORSDOF 6
ENDMDL
MODEL      192
REMARK 921   NORMALIZED FREE ENERGY PREDICTED BY IDOCK:   -5.24 KCAL/MOL
REMARK 922        TOTAL FREE ENERGY PREDICTED BY IDOCK:   -7.60 KCAL/MOL
REMARK 923 INTER-LIGAND FREE ENERGY PREDICTED BY IDOCK:   -7.00 KCAL/MOL
REMARK 924 INTRA-LIGAND FREE ENERGY PREDICTED BY IDOCK:   -0.61 KCAL/MOL
REMARK 927      BINDING AFFINITY PREDICTED BY RF-SCORE:    0.00 PKD
ROOT
HETATM    1  O   UNL     1     -11.210  12.136  63.531  1.00  0.00    -0.423 OA 
HETATM    2  C   UNL     1     -10.872  11.526  64.689  1.00  0.00    -0.310 C  
HETATM    3  C   UNL     1      -9.771  10.534  64.565  1.00  0.00    -0.375 A  
HETATM    4  O   UNL     1     -11.459  11.729  65.739  1.00  0.00    -0.300 OA 
HETATM    5  C   UNL     1      -9.727   9.490  65.507  1.00  0.00    -0.344 A  
HETATM    6  C   UNL     1      -8.697   8.536  65.480  1.00  0.00    -0.174 A  
HETATM    7  C   UNL     1      -7.721   8.646  64.480  1.00  0.00    -0.124 A  
HETATM    8  O   UNL     1      -8.815  11.624  62.654  1.00  0.00    -0.611 OA 
HETATM    9  C   UNL     1      -8.776  10.619  63.585  1.00  0.00    -0.145 A  
HETATM   10  H   UNL     1      -8.139  11.681  61.989  1.00  0.00     0.000 HD 
HETATM   11  C   UNL     1      -7.750   9.680  63.538  1.00  0.00    -0.130 A  
ENDROOT
BRANCH   6  12
HETATM   12  N   UNL     1      -8.569   7.462  66.390  1.00  0.00    -0.127 NA 
HETATM   13  H   UNL     1      -7.673   7.138  66.754  1.00  0.00     0.000 HD 
BRANCH  12  14
HETATM   14  N   UNL     1      -9.664   6.950  66.703  1.00  0.00    -0.244 NA 
HETATM   15  H   UNL     1     -10.300   6.518  66.033  1.00  0.00     0.000 HD 
BRANCH  14  16
HETATM   16  C   UNL     1      -9.923   7.035  68.089  1.00  0.00    -0.151 A  
HETATM   17  C   UNL     1     -11.513   6.632  69.897  1.00  0.00    -0.414 A  
HETATM   18  C   UNL     1     -11.151   6.539  68.549  1.00  0.00    -0.347 A  
HETATM   19  C   UNL     1     -10.621   7.190  70.816  1.00  0.00    -0.222 A  
HETATM   20  C   UNL     1      -9.035   7.584  69.031  1.00  0.00    -0.131 A  
HETATM   21  C   UNL     1      -9.380   7.670  70.387  1.00  0.00    -0.160 A  
BRANCH  19  22
HETATM   22  S   UNL     1     -11.161   7.459  72.497  1.00  0.00    -0.330 S  
HETATM   23  O   UNL     1     -12.429   8.150  72.437  1.00  0.00    -0.322 OA 
HETATM   24  O   UNL     1     -10.036   8.039  73.204  1.00  0.00    -0.293 OA 
BRANCH  22  25
HETATM   25  N   UNL     1     -11.349   5.905  73.125  1.00  0.00    -0.484 N  
HETATM   26  H   UNL     1     -12.222   5.597  73.552  1.00  0.00     0.000 HD 
BRANCH  25  27
HETATM   27  C   UNL     1     -10.227   5.060  73.024  1.00  0.00    -0.176 A  
HETATM   28  N   UNL     1      -9.197   5.438  73.799  1.00  0.00    -0.126 NA 
HETATM   29  C   UNL     1      -8.122   4.618  73.803  1.00  0.00    -0.105 A  
HETATM   30  C   UNL     1      -8.031   3.460  73.046  1.00  0.00    -0.069 A  
HETATM   31  C   UNL     1      -9.105   3.119  72.231  1.00  0.00    -0.142 A  
HETATM   32  C   UNL     1     -10.234   3.935  72.217  1.00  0.00    -0.216 A  
ENDBRANCH  25  27
ENDBRANCH  22  25
ENDBRANCH  19  22
ENDBRANCH  14  16
ENDBRANCH  12  14
ENDBRANCH   6  12
TORSDOF 6
ENDMDL
MODEL      193
REMARK 921   NORMALIZED FREE ENERGY PREDICTED BY IDOCK:   -5.23 KCAL/MOL
REMARK 922        TOTAL FREE ENERGY PREDICTED BY IDOCK:   -7.59 KCAL/MOL
REMARK 923 INTER-LIGAND FREE ENERGY PREDICTED BY IDOCK:   -7.45 KCAL/MOL
REMARK 924 INTRA-LIGAND FREE ENERGY PREDICTED BY IDOCK:   -0.14 KCAL/MOL
REMARK 927      BINDING AFFINITY PREDICTED BY RF-SCORE:    0.00 PKD
ROOT
HETATM    1  O   UNL     1      -7.073  15.100  66.891  1.00  0.00    -0.148 OA 
HETATM    2  C   UNL     1      -7.660  13.934  67.238  1.00  0.00    -0.057 C  
HETATM    3  C   UNL     1      -9.146  13.951  67.183  1.00  0.00    -0.245 A  
HETATM    4  O   UNL     1      -7.027  12.963  67.621  1.00  0.00    -0.122 OA 
HETATM    5  C   UNL     1      -9.838  13.054  68.018  1.00  0.00    -0.224 A  
HETATM    6  C   UNL     1     -11.240  12.983  67.995  1.00  0.00    -0.278 A  
HETATM    7  C   UNL     1     -11.932  13.840  67.127  1.00  0.00    -0.442 A  
HETATM    8  O   UNL     1      -9.205  15.672  65.513  1.00  0.00    -0.265 OA 
HETATM    9  C   UNL     1      -9.866  14.785  66.323  1.00  0.00    -0.296 A  
HETATM   10  H   UNL     1      -9.694  16.238  64.928  1.00  0.00     0.000 HD 
HETATM   11  C   UNL     1     -11.257  14.734  66.290  1.00  0.00    -0.343 A  
ENDROOT
BRANCH   6  12
HETATM   12  N   UNL     1     -12.016  12.109  68.790  1.00  0.00    -0.288 NA 
HETATM   13  H   UNL     1     -12.697  12.431  69.478  1.00  0.00     0.000 HD 
BRANCH  12  14
HETATM   14  N   UNL     1     -11.783  10.903  68.565  1.00  0.00    -0.560 NA 
HETATM   15  H   UNL     1     -11.954  10.451  67.666  1.00  0.00     0.000 HD 
BRANCH  14  16
HETATM   16  C   UNL     1     -11.256  10.235  69.692  1.00  0.00    -0.269 A  
HETATM   17  C   UNL     1      -9.270   9.331  70.785  1.00  0.00    -0.316 A  
HETATM   18  C   UNL     1      -9.870  10.031  69.734  1.00  0.00    -0.270 A  
HETATM   19  C   UNL     1     -10.055   8.859  71.840  1.00  0.00    -0.322 A  
HETATM   20  C   UNL     1     -12.028   9.760  70.767  1.00  0.00    -0.382 A  
HETATM   21  C   UNL     1     -11.436   9.070  71.834  1.00  0.00    -0.440 A  
BRANCH  19  22
HETATM   22  S   UNL     1      -9.305   7.822  73.085  1.00  0.00    -0.279 S  
HETATM   23  O   UNL     1     -10.371   7.117  73.760  1.00  0.00    -0.351 OA 
HETATM   24  O   UNL     1      -8.389   8.665  73.829  1.00  0.00    -0.363 OA 
BRANCH  22  25
HETATM   25  N   UNL     1      -8.337   6.755  72.207  1.00  0.00    -0.107 N  
HETATM   26  H   UNL     1      -7.440   6.424  72.559  1.00  0.00     0.000 HD 
BRANCH  25  27
HETATM   27  C   UNL     1      -8.846   6.350  70.956  1.00  0.00    -0.139 A  
HETATM   28  N   UNL     1      -8.008   6.583  69.934  1.00  0.00    -0.114 NA 
HETATM   29  C   UNL     1      -8.410   6.140  68.721  1.00  0.00    -0.111 A  
HETATM   30  C   UNL     1      -9.621   5.505  68.493  1.00  0.00    -0.162 A  
HETATM   31  C   UNL     1     -10.477   5.311  69.573  1.00  0.00    -0.304 A  
HETATM   32  C   UNL     1     -10.084   5.741  70.838  1.00  0.00    -0.256 A  
ENDBRANCH  25  27
ENDBRANCH  22  25
ENDBRANCH  19  22
ENDBRANCH  14  16
ENDBRANCH  12  14
ENDBRANCH   6  12
TORSDOF 6
ENDMDL
MODEL      194
REMARK 921   NORMALIZED FREE ENERGY PREDICTED BY IDOCK:   -5.22 KCAL/MOL
REMARK 922        TOTAL FREE ENERGY PREDICTED BY IDOCK:   -7.58 KCAL/MOL
REMARK 923 INTER-LIGAND FREE ENERGY PREDICTED BY IDOCK:   -6.90 KCAL/MOL
REMARK 924 INTRA-LIGAND FREE ENERGY PREDICTED BY IDOCK:   -0.68 KCAL/MOL
REMARK 927      BINDING AFFINITY PREDICTED BY RF-SCORE:    0.00 PKD
ROOT
HETATM    1  O   UNL     1      -9.467   4.560  74.111  1.00  0.00    -0.115 OA 
HETATM    2  C   UNL     1     -10.492   4.940  73.317  1.00  0.00    -0.207 C  
HETATM    3  C   UNL     1     -10.100   5.819  72.183  1.00  0.00    -0.219 A  
HETATM    4  O   UNL     1     -11.652   4.637  73.543  1.00  0.00    -0.285 OA 
HETATM    5  C   UNL     1     -11.077   6.691  71.668  1.00  0.00    -0.290 A  
HETATM    6  C   UNL     1     -10.796   7.524  70.573  1.00  0.00    -0.240 A  
HETATM    7  C   UNL     1      -9.510   7.472  70.016  1.00  0.00    -0.161 A  
HETATM    8  O   UNL     1      -7.866   4.951  72.098  1.00  0.00    -0.103 OA 
HETATM    9  C   UNL     1      -8.830   5.787  71.598  1.00  0.00    -0.136 A  
HETATM   10  H   UNL     1      -7.003   4.929  71.701  1.00  0.00     0.000 HD 
HETATM   11  C   UNL     1      -8.529   6.609  70.516  1.00  0.00    -0.138 A  
ENDROOT
BRANCH   6  12
HETATM   12  N   UNL     1     -11.716   8.422  69.986  1.00  0.00    -0.402 NA 
HETATM   13  H   UNL     1     -12.032   8.349  69.019  1.00  0.00     0.000 HD 
BRANCH  12  14
HETATM   14  N   UNL     1     -12.103   9.313  70.771  1.00  0.00    -0.443 NA 
HETATM   15  H   UNL     1     -12.488   9.124  71.697  1.00  0.00     0.000 HD 
BRANCH  14  16
HETATM   16  C   UNL     1     -11.947  10.610  70.234  1.00  0.00    -0.339 A  
HETATM   17  C   UNL     1     -10.984  11.983  68.461  1.00  0.00    -0.280 A  
HETATM   18  C   UNL     1     -11.233  10.732  69.034  1.00  0.00    -0.322 A  
HETATM   19  C   UNL     1     -11.490  13.136  69.068  1.00  0.00    -0.296 A  
HETATM   20  C   UNL     1     -12.455  11.780  70.825  1.00  0.00    -0.405 A  
HETATM   21  C   UNL     1     -12.224  13.039  70.253  1.00  0.00    -0.368 A  
BRANCH  19  22
HETATM   22  S   UNL     1     -11.020  14.733  68.424  1.00  0.00    -0.263 S  
HETATM   23  O   UNL     1     -12.047  15.674  68.812  1.00  0.00    -0.301 OA 
HETATM   24  O   UNL     1     -10.691  14.534  67.025  1.00  0.00    -0.283 OA 
BRANCH  22  25
HETATM   25  N   UNL     1      -9.561  15.079  69.195  1.00  0.00    -0.260 N  
HETATM   26  H   UNL     1      -9.387  14.817  70.165  1.00  0.00     0.000 HD 
BRANCH  25  27
HETATM   27  C   UNL     1      -8.597  15.751  68.418  1.00  0.00    -0.171 A  
HETATM   28  N   UNL     1      -7.571  14.970  68.041  1.00  0.00    -0.110 NA 
HETATM   29  C   UNL     1      -6.657  15.542  67.225  1.00  0.00    -0.054 A  
HETATM   30  C   UNL     1      -6.717  16.860  66.799  1.00  0.00    -0.262 A  
HETATM   31  C   UNL     1      -7.778  17.646  67.238  1.00  0.00    -0.222 A  
HETATM   32  C   UNL     1      -8.746  17.081  68.066  1.00  0.00    -0.218 A  
ENDBRANCH  25  27
ENDBRANCH  22  25
ENDBRANCH  19  22
ENDBRANCH  14  16
ENDBRANCH  12  14
ENDBRANCH   6  12
TORSDOF 6
ENDMDL
MODEL      195
REMARK 921   NORMALIZED FREE ENERGY PREDICTED BY IDOCK:   -5.21 KCAL/MOL
REMARK 922        TOTAL FREE ENERGY PREDICTED BY IDOCK:   -7.56 KCAL/MOL
REMARK 923 INTER-LIGAND FREE ENERGY PREDICTED BY IDOCK:   -6.80 KCAL/MOL
REMARK 924 INTRA-LIGAND FREE ENERGY PREDICTED BY IDOCK:   -0.76 KCAL/MOL
REMARK 927      BINDING AFFINITY PREDICTED BY RF-SCORE:    0.00 PKD
ROOT
HETATM    1  O   UNL     1      -5.283  14.017  70.360  1.00  0.00    -0.095 OA 
HETATM    2  C   UNL     1      -6.040  13.740  69.277  1.00  0.00    -0.100 C  
HETATM    3  C   UNL     1      -6.089  12.299  68.911  1.00  0.00    -0.073 A  
HETATM    4  O   UNL     1      -6.592  14.604  68.615  1.00  0.00    -0.080 OA 
HETATM    5  C   UNL     1      -6.345  11.977  67.565  1.00  0.00    -0.118 A  
HETATM    6  C   UNL     1      -6.445  10.640  67.149  1.00  0.00    -0.075 A  
HETATM    7  C   UNL     1      -6.270   9.634  68.110  1.00  0.00    -0.055 A  
HETATM    8  O   UNL     1      -5.666  11.570  71.157  1.00  0.00    -0.364 OA 
HETATM    9  C   UNL     1      -5.928  11.270  69.845  1.00  0.00    -0.117 A  
HETATM   10  H   UNL     1      -5.557  10.872  71.792  1.00  0.00     0.000 HD 
HETATM   11  C   UNL     1      -6.018   9.938  69.452  1.00  0.00    -0.037 A  
ENDROOT
BRANCH   6  12
HETATM   12  N   UNL     1      -6.708  10.226  65.824  1.00  0.00    -0.113 NA 
HETATM   13  H   UNL     1      -6.087  10.426  65.039  1.00  0.00     0.000 HD 
BRANCH  12  14
HETATM   14  N   UNL     1      -7.776   9.589  65.711  1.00  0.00    -0.099 NA 
HETATM   15  H   UNL     1      -7.859   8.587  65.884  1.00  0.00     0.000 HD 
BRANCH  14  16
HETATM   16  C   UNL     1      -8.855  10.410  65.316  1.00  0.00    -0.186 A  
HETATM   17  C   UNL     1     -11.031  11.343  65.907  1.00  0.00    -0.268 A  
HETATM   18  C   UNL     1      -9.898  10.591  66.234  1.00  0.00    -0.269 A  
HETATM   19  C   UNL     1     -11.113  11.964  64.658  1.00  0.00    -0.317 A  
HETATM   20  C   UNL     1      -8.952  11.049  64.068  1.00  0.00    -0.050 A  
HETATM   21  C   UNL     1     -10.076  11.818  63.733  1.00  0.00    -0.421 A  
BRANCH  19  22
HETATM   22  S   UNL     1     -12.634  12.775  64.189  1.00  0.00    -0.263 S  
HETATM   23  O   UNL     1     -13.649  11.753  64.072  1.00  0.00    -0.392 OA 
HETATM   24  O   UNL     1     -12.314  13.631  63.063  1.00  0.00    -0.672 OA 
BRANCH  22  25
HETATM   25  N   UNL     1     -12.965  13.811  65.477  1.00  0.00    -0.672 N  
HETATM   26  H   UNL     1     -13.904  13.915  65.860  1.00  0.00     0.000 HD 
BRANCH  25  27
HETATM   27  C   UNL     1     -11.864  14.525  65.991  1.00  0.00    -0.334 A  
HETATM   28  N   UNL     1     -11.633  14.291  67.293  1.00  0.00    -0.358 NA 
HETATM   29  C   UNL     1     -10.540  14.888  67.820  1.00  0.00    -0.262 A  
HETATM   30  C   UNL     1      -9.695  15.723  67.105  1.00  0.00    -0.227 A  
HETATM   31  C   UNL     1      -9.987  15.967  65.767  1.00  0.00    -0.382 A  
HETATM   32  C   UNL     1     -11.097  15.354  65.191  1.00  0.00    -0.402 A  
ENDBRANCH  25  27
ENDBRANCH  22  25
ENDBRANCH  19  22
ENDBRANCH  14  16
ENDBRANCH  12  14
ENDBRANCH   6  12
TORSDOF 6
ENDMDL
MODEL      196
REMARK 921   NORMALIZED FREE ENERGY PREDICTED BY IDOCK:   -5.20 KCAL/MOL
REMARK 922        TOTAL FREE ENERGY PREDICTED BY IDOCK:   -7.55 KCAL/MOL
REMARK 923 INTER-LIGAND FREE ENERGY PREDICTED BY IDOCK:   -6.95 KCAL/MOL
REMARK 924 INTRA-LIGAND FREE ENERGY PREDICTED BY IDOCK:   -0.60 KCAL/MOL
REMARK 927      BINDING AFFINITY PREDICTED BY RF-SCORE:    0.00 PKD
ROOT
HETATM    1  O   UNL     1     -14.411  14.696  71.967  1.00  0.00    -0.485 OA 
HETATM    2  C   UNL     1     -13.547  13.670  71.808  1.00  0.00    -0.363 C  
HETATM    3  C   UNL     1     -12.616  13.820  70.657  1.00  0.00    -0.386 A  
HETATM    4  O   UNL     1     -13.564  12.675  72.514  1.00  0.00    -0.499 OA 
HETATM    5  C   UNL     1     -12.103  12.646  70.078  1.00  0.00    -0.339 A  
HETATM    6  C   UNL     1     -11.190  12.705  69.014  1.00  0.00    -0.269 A  
HETATM    7  C   UNL     1     -10.814  13.968  68.535  1.00  0.00    -0.268 A  
HETATM    8  O   UNL     1     -12.716  16.216  70.708  1.00  0.00    -0.543 OA 
HETATM    9  C   UNL     1     -12.214  15.065  70.161  1.00  0.00    -0.343 A  
HETATM   10  H   UNL     1     -12.442  17.062  70.372  1.00  0.00     0.000 HD 
HETATM   11  C   UNL     1     -11.314  15.145  69.102  1.00  0.00    -0.311 A  
ENDROOT
BRANCH   6  12
HETATM   12  N   UNL     1     -10.617  11.580  68.379  1.00  0.00    -0.192 NA 
HETATM   13  H   UNL     1      -9.633  11.522  68.118  1.00  0.00     0.000 HD 
BRANCH  12  14
HETATM   14  N   UNL     1     -11.439  10.662  68.169  1.00  0.00    -0.552 NA 
HETATM   15  H   UNL     1     -12.439  10.816  68.043  1.00  0.00     0.000 HD 
BRANCH  14  16
HETATM   16  C   UNL     1     -10.828   9.390  68.127  1.00  0.00    -0.119 A  
HETATM   17  C   UNL     1     -10.192   7.476  66.753  1.00  0.00    -0.324 A  
HETATM   18  C   UNL     1     -10.732   8.760  66.879  1.00  0.00    -0.151 A  
HETATM   19  C   UNL     1      -9.696   6.819  67.882  1.00  0.00    -0.127 A  
HETATM   20  C   UNL     1     -10.317   8.716  69.251  1.00  0.00    -0.228 A  
HETATM   21  C   UNL     1      -9.760   7.435  69.135  1.00  0.00    -0.165 A  
BRANCH  19  22
HETATM   22  S   UNL     1      -9.170   5.119  67.737  1.00  0.00    -0.119 S  
HETATM   23  O   UNL     1      -9.551   4.443  68.957  1.00  0.00    -0.159 OA 
HETATM   24  O   UNL     1      -7.784   5.151  67.312  1.00  0.00    -0.091 OA 
BRANCH  22  25
HETATM   25  N   UNL     1     -10.042   4.526  66.421  1.00  0.00    -0.244 N  
HETATM   26  H   UNL     1     -11.053   4.632  66.350  1.00  0.00     0.000 HD 
BRANCH  25  27
HETATM   27  C   UNL     1      -9.286   3.877  65.424  1.00  0.00    -0.159 A  
HETATM   28  N   UNL     1      -8.956   4.673  64.395  1.00  0.00    -0.152 NA 
HETATM   29  C   UNL     1      -8.162   4.124  63.448  1.00  0.00    -0.092 A  
HETATM   30  C   UNL     1      -7.715   2.812  63.480  1.00  0.00    -0.068 A  
HETATM   31  C   UNL     1      -8.106   2.009  64.546  1.00  0.00    -0.074 A  
HETATM   32  C   UNL     1      -8.910   2.550  65.546  1.00  0.00    -0.127 A  
ENDBRANCH  25  27
ENDBRANCH  22  25
ENDBRANCH  19  22
ENDBRANCH  14  16
ENDBRANCH  12  14
ENDBRANCH   6  12
TORSDOF 6
ENDMDL
MODEL      197
REMARK 921   NORMALIZED FREE ENERGY PREDICTED BY IDOCK:   -5.20 KCAL/MOL
REMARK 922        TOTAL FREE ENERGY PREDICTED BY IDOCK:   -7.54 KCAL/MOL
REMARK 923 INTER-LIGAND FREE ENERGY PREDICTED BY IDOCK:   -6.96 KCAL/MOL
REMARK 924 INTRA-LIGAND FREE ENERGY PREDICTED BY IDOCK:   -0.58 KCAL/MOL
REMARK 927      BINDING AFFINITY PREDICTED BY RF-SCORE:    0.00 PKD
ROOT
HETATM    1  O   UNL     1      -9.546  20.294  65.898  1.00  0.00    -0.323 OA 
HETATM    2  C   UNL     1     -10.114  19.579  66.894  1.00  0.00    -0.401 C  
HETATM    3  C   UNL     1      -9.790  18.127  66.873  1.00  0.00    -0.331 A  
HETATM    4  O   UNL     1     -10.877  20.070  67.710  1.00  0.00    -0.256 OA 
HETATM    5  C   UNL     1     -10.715  17.245  67.460  1.00  0.00    -0.278 A  
HETATM    6  C   UNL     1     -10.463  15.865  67.514  1.00  0.00    -0.298 A  
HETATM    7  C   UNL     1      -9.269  15.389  66.954  1.00  0.00    -0.254 A  
HETATM    8  O   UNL     1      -7.701  18.467  65.745  1.00  0.00    -0.509 OA 
HETATM    9  C   UNL     1      -8.605  17.620  66.331  1.00  0.00    -0.238 A  
HETATM   10  H   UNL     1      -6.895  18.122  65.377  1.00  0.00     0.000 HD 
HETATM   11  C   UNL     1      -8.339  16.254  66.369  1.00  0.00    -0.365 A  
ENDROOT
BRANCH   6  12
HETATM   12  N   UNL     1     -11.329  14.910  68.092  1.00  0.00    -0.299 NA 
HETATM   13  H   UNL     1     -11.597  14.916  69.076  1.00  0.00     0.000 HD 
BRANCH  12  14
HETATM   14  N   UNL     1     -11.735  14.056  67.275  1.00  0.00    -0.368 NA 
HETATM   15  H   UNL     1     -12.198  14.289  66.396  1.00  0.00     0.000 HD 
BRANCH  14  16
HETATM   16  C   UNL     1     -11.479  12.735  67.702  1.00  0.00    -0.334 A  
HETATM   17  C   UNL     1     -11.286  11.203  69.592  1.00  0.00    -0.366 A  
HETATM   18  C   UNL     1     -11.576  12.469  69.075  1.00  0.00    -0.365 A  
HETATM   19  C   UNL     1     -10.935  10.165  68.725  1.00  0.00    -0.223 A  
HETATM   20  C   UNL     1     -11.132  11.676  66.845  1.00  0.00    -0.365 A  
HETATM   21  C   UNL     1     -10.853  10.398  67.350  1.00  0.00    -0.344 A  
BRANCH  19  22
HETATM   22  S   UNL     1     -10.401   8.604  69.410  1.00  0.00    -0.218 S  
HETATM   23  O   UNL     1     -11.100   7.559  68.697  1.00  0.00     0.026 OA 
HETATM   24  O   UNL     1     -10.520   8.724  70.851  1.00  0.00    -0.199 OA 
BRANCH  22  25
HETATM   25  N   UNL     1      -8.747   8.554  69.087  1.00  0.00    -0.133 N  
HETATM   26  H   UNL     1      -8.230   9.378  68.781  1.00  0.00     0.000 HD 
BRANCH  25  27
HETATM   27  C   UNL     1      -8.123   7.303  69.265  1.00  0.00    -0.124 A  
HETATM   28  N   UNL     1      -7.600   7.133  70.490  1.00  0.00    -0.088 NA 
HETATM   29  C   UNL     1      -7.059   5.919  70.743  1.00  0.00    -0.071 A  
HETATM   30  C   UNL     1      -6.999   4.891  69.815  1.00  0.00    -0.053 A  
HETATM   31  C   UNL     1      -7.522   5.117  68.546  1.00  0.00    -0.074 A  
HETATM   32  C   UNL     1      -8.101   6.352  68.260  1.00  0.00    -0.113 A  
ENDBRANCH  25  27
ENDBRANCH  22  25
ENDBRANCH  19  22
ENDBRANCH  14  16
ENDBRANCH  12  14
ENDBRANCH   6  12
TORSDOF 6
ENDMDL
MODEL      198
REMARK 921   NORMALIZED FREE ENERGY PREDICTED BY IDOCK:   -5.19 KCAL/MOL
REMARK 922        TOTAL FREE ENERGY PREDICTED BY IDOCK:   -7.54 KCAL/MOL
REMARK 923 INTER-LIGAND FREE ENERGY PREDICTED BY IDOCK:   -7.52 KCAL/MOL
REMARK 924 INTRA-LIGAND FREE ENERGY PREDICTED BY IDOCK:   -0.02 KCAL/MOL
REMARK 927      BINDING AFFINITY PREDICTED BY RF-SCORE:    0.00 PKD
ROOT
HETATM    1  O   UNL     1      -5.767  11.841  67.665  1.00  0.00    -0.051 OA 
HETATM    2  C   UNL     1      -6.870  11.313  68.238  1.00  0.00    -0.064 C  
HETATM    3  C   UNL     1      -8.003  11.086  67.301  1.00  0.00    -0.126 A  
HETATM    4  O   UNL     1      -6.954  11.093  69.435  1.00  0.00    -0.112 OA 
HETATM    5  C   UNL     1      -9.303  11.089  67.839  1.00  0.00    -0.160 A  
HETATM    6  C   UNL     1     -10.421  10.845  67.026  1.00  0.00    -0.244 A  
HETATM    7  C   UNL     1     -10.207  10.610  65.660  1.00  0.00    -0.319 A  
HETATM    8  O   UNL     1      -6.564  10.846  65.397  1.00  0.00    -0.352 OA 
HETATM    9  C   UNL     1      -7.824  10.840  65.936  1.00  0.00    -0.131 A  
HETATM   10  H   UNL     1      -6.442  10.679  64.470  1.00  0.00     0.000 HD 
HETATM   11  C   UNL     1      -8.920  10.601  65.112  1.00  0.00    -0.217 A  
ENDROOT
BRANCH   6  12
HETATM   12  N   UNL     1     -11.759  10.820  67.481  1.00  0.00    -0.564 NA 
HETATM   13  H   UNL     1     -12.460  10.167  67.130  1.00  0.00     0.000 HD 
BRANCH  12  14
HETATM   14  N   UNL     1     -11.996  11.678  68.356  1.00  0.00    -0.533 NA 
HETATM   15  H   UNL     1     -12.357  11.456  69.284  1.00  0.00     0.000 HD 
BRANCH  14  16
HETATM   16  C   UNL     1     -11.709  12.990  67.919  1.00  0.00    -0.357 A  
HETATM   17  C   UNL     1     -11.483  14.504  66.018  1.00  0.00    -0.348 A  
HETATM   18  C   UNL     1     -11.804  13.248  66.544  1.00  0.00    -0.450 A  
HETATM   19  C   UNL     1     -11.103  15.539  66.876  1.00  0.00    -0.221 A  
HETATM   20  C   UNL     1     -11.332  14.045  68.767  1.00  0.00    -0.309 A  
HETATM   21  C   UNL     1     -11.023  15.313  68.253  1.00  0.00    -0.276 A  
BRANCH  19  22
HETATM   22  S   UNL     1     -10.533  17.080  66.179  1.00  0.00    -0.212 S  
HETATM   23  O   UNL     1     -10.733  18.106  67.178  1.00  0.00    -0.375 OA 
HETATM   24  O   UNL     1     -11.147  17.193  64.870  1.00  0.00    -0.737 OA 
BRANCH  22  25
HETATM   25  N   UNL     1      -8.890  16.824  65.896  1.00  0.00    -0.161 N  
HETATM   26  H   UNL     1      -8.493  16.848  64.958  1.00  0.00     0.000 HD 
BRANCH  25  27
HETATM   27  C   UNL     1      -8.101  16.576  67.037  1.00  0.00    -0.201 A  
HETATM   28  N   UNL     1      -7.803  17.683  67.736  1.00  0.00    -0.206 NA 
HETATM   29  C   UNL     1      -7.115  17.494  68.885  1.00  0.00    -0.253 A  
HETATM   30  C   UNL     1      -6.695  16.254  69.340  1.00  0.00    -0.209 A  
HETATM   31  C   UNL     1      -6.995  15.135  68.571  1.00  0.00    -0.105 A  
HETATM   32  C   UNL     1      -7.716  15.294  67.390  1.00  0.00    -0.225 A  
ENDBRANCH  25  27
ENDBRANCH  22  25
ENDBRANCH  19  22
ENDBRANCH  14  16
ENDBRANCH  12  14
ENDBRANCH   6  12
TORSDOF 6
ENDMDL
MODEL      199
REMARK 921   NORMALIZED FREE ENERGY PREDICTED BY IDOCK:   -5.19 KCAL/MOL
REMARK 922        TOTAL FREE ENERGY PREDICTED BY IDOCK:   -7.53 KCAL/MOL
REMARK 923 INTER-LIGAND FREE ENERGY PREDICTED BY IDOCK:   -7.28 KCAL/MOL
REMARK 924 INTRA-LIGAND FREE ENERGY PREDICTED BY IDOCK:   -0.25 KCAL/MOL
REMARK 927      BINDING AFFINITY PREDICTED BY RF-SCORE:    0.00 PKD
ROOT
HETATM    1  O   UNL     1      -6.600  19.951  69.597  1.00  0.00    -0.345 OA 
HETATM    2  C   UNL     1      -7.823  19.464  69.296  1.00  0.00    -0.129 C  
HETATM    3  C   UNL     1      -7.856  18.571  68.107  1.00  0.00    -0.308 A  
HETATM    4  O   UNL     1      -8.830  19.775  69.912  1.00  0.00     0.393 OA 
HETATM    5  C   UNL     1      -9.067  18.476  67.397  1.00  0.00    -0.283 A  
HETATM    6  C   UNL     1      -9.189  17.626  66.287  1.00  0.00    -0.190 A  
HETATM    7  C   UNL     1      -8.065  16.882  65.898  1.00  0.00     0.043 A  
HETATM    8  O   UNL     1      -5.568  17.902  68.372  1.00  0.00    -0.160 OA 
HETATM    9  C   UNL     1      -6.757  17.809  67.697  1.00  0.00    -0.183 A  
HETATM   10  H   UNL     1      -4.822  17.384  68.093  1.00  0.00     0.000 HD 
HETATM   11  C   UNL     1      -6.856  16.964  66.595  1.00  0.00    -0.271 A  
ENDROOT
BRANCH   6  12
HETATM   12  N   UNL     1     -10.366  17.461  65.522  1.00  0.00    -0.644 NA 
HETATM   13  H   UNL     1     -11.057  18.200  65.389  1.00  0.00     0.000 HD 
BRANCH  12  14
HETATM   14  N   UNL     1     -10.474  16.320  65.027  1.00  0.00    -0.634 NA 
HETATM   15  H   UNL     1     -10.406  16.127  64.027  1.00  0.00     0.000 HD 
BRANCH  14  16
HETATM   16  C   UNL     1     -10.702  15.326  66.004  1.00  0.00    -0.320 A  
HETATM   17  C   UNL     1     -10.429  12.985  66.636  1.00  0.00    -0.271 A  
HETATM   18  C   UNL     1     -10.202  14.042  65.749  1.00  0.00    -0.343 A  
HETATM   19  C   UNL     1     -11.130  13.214  67.823  1.00  0.00    -0.262 A  
HETATM   20  C   UNL     1     -11.398  15.540  67.207  1.00  0.00    -0.167 A  
HETATM   21  C   UNL     1     -11.620  14.491  68.111  1.00  0.00    -0.359 A  
BRANCH  19  22
HETATM   22  S   UNL     1     -11.561  11.826  68.860  1.00  0.00    -0.335 S  
HETATM   23  O   UNL     1     -12.207  10.844  68.019  1.00  0.00    -0.422 OA 
HETATM   24  O   UNL     1     -12.243  12.372  70.018  1.00  0.00    -0.272 OA 
BRANCH  22  25
HETATM   25  N   UNL     1     -10.078  11.256  69.425  1.00  0.00    -0.434 N  
HETATM   26  H   UNL     1      -9.245  11.843  69.445  1.00  0.00     0.000 HD 
BRANCH  25  27
HETATM   27  C   UNL     1     -10.061   9.918  69.868  1.00  0.00    -0.257 A  
HETATM   28  N   UNL     1      -9.588   9.055  68.955  1.00  0.00    -0.158 NA 
HETATM   29  C   UNL     1      -9.474   7.768  69.355  1.00  0.00    -0.156 A  
HETATM   30  C   UNL     1      -9.838   7.315  70.614  1.00  0.00    -0.179 A  
HETATM   31  C   UNL     1     -10.355   8.234  71.521  1.00  0.00    -0.276 A  
HETATM   32  C   UNL     1     -10.470   9.570  71.144  1.00  0.00    -0.358 A  
ENDBRANCH  25  27
ENDBRANCH  22  25
ENDBRANCH  19  22
ENDBRANCH  14  16
ENDBRANCH  12  14
ENDBRANCH   6  12
TORSDOF 6
ENDMDL
MODEL      200
REMARK 921   NORMALIZED FREE ENERGY PREDICTED BY IDOCK:   -5.18 KCAL/MOL
REMARK 922        TOTAL FREE ENERGY PREDICTED BY IDOCK:   -7.52 KCAL/MOL
REMARK 923 INTER-LIGAND FREE ENERGY PREDICTED BY IDOCK:   -6.61 KCAL/MOL
REMARK 924 INTRA-LIGAND FREE ENERGY PREDICTED BY IDOCK:   -0.91 KCAL/MOL
REMARK 927      BINDING AFFINITY PREDICTED BY RF-SCORE:    0.00 PKD
ROOT
HETATM    1  O   UNL     1      -7.467   3.293  69.550  1.00  0.00    -0.045 OA 
HETATM    2  C   UNL     1      -7.123   4.348  68.780  1.00  0.00    -0.052 C  
HETATM    3  C   UNL     1      -8.273   5.064  68.166  1.00  0.00    -0.096 A  
HETATM    4  O   UNL     1      -5.963   4.655  68.559  1.00  0.00    -0.024 OA 
HETATM    5  C   UNL     1      -8.038   5.764  66.968  1.00  0.00    -0.102 A  
HETATM    6  C   UNL     1      -9.063   6.495  66.347  1.00  0.00    -0.155 A  
HETATM    7  C   UNL     1     -10.330   6.499  66.948  1.00  0.00    -0.311 A  
HETATM    8  O   UNL     1      -9.791   4.408  69.902  1.00  0.00    -0.210 OA 
HETATM    9  C   UNL     1      -9.546   5.095  68.742  1.00  0.00    -0.143 A  
HETATM   10  H   UNL     1     -10.656   4.429  70.295  1.00  0.00     0.000 HD 
HETATM   11  C   UNL     1     -10.577   5.810  68.139  1.00  0.00    -0.286 A  
ENDROOT
BRANCH   6  12
HETATM   12  N   UNL     1      -8.916   7.233  65.151  1.00  0.00    -0.320 NA 
HETATM   13  H   UNL     1      -9.475   7.065  64.314  1.00  0.00     0.000 HD 
BRANCH  12  14
HETATM   14  N   UNL     1      -8.032   8.113  65.221  1.00  0.00    -0.118 NA 
HETATM   15  H   UNL     1      -7.032   7.912  65.231  1.00  0.00     0.000 HD 
BRANCH  14  16
HETATM   16  C   UNL     1      -8.572   9.417  65.285  1.00  0.00    -0.162 A  
HETATM   17  C   UNL     1      -8.769  11.483  66.568  1.00  0.00    -0.183 A  
HETATM   18  C   UNL     1      -8.236  10.202  66.397  1.00  0.00    -0.122 A  
HETATM   19  C   UNL     1      -9.619  12.016  65.596  1.00  0.00    -0.189 A  
HETATM   20  C   UNL     1      -9.422   9.973  64.314  1.00  0.00    -0.336 A  
HETATM   21  C   UNL     1      -9.951  11.262  64.467  1.00  0.00    -0.334 A  
BRANCH  19  22
HETATM   22  S   UNL     1     -10.426  13.577  65.909  1.00  0.00    -0.297 S  
HETATM   23  O   UNL     1     -10.587  14.243  64.636  1.00  0.00    -0.421 OA 
HETATM   24  O   UNL     1      -9.693  14.212  66.988  1.00  0.00    -0.243 OA 
BRANCH  22  25
HETATM   25  N   UNL     1     -11.922  13.147  66.559  1.00  0.00    -0.402 N  
HETATM   26  H   UNL     1     -12.745  13.005  65.975  1.00  0.00     0.000 HD 
BRANCH  25  27
HETATM   27  C   UNL     1     -11.964  12.996  67.960  1.00  0.00    -0.290 A  
HETATM   28  N   UNL     1     -12.166  14.148  68.619  1.00  0.00    -0.269 NA 
HETATM   29  C   UNL     1     -12.296  14.051  69.961  1.00  0.00    -0.337 A  
HETATM   30  C   UNL     1     -12.205  12.858  70.663  1.00  0.00    -0.386 A  
HETATM   31  C   UNL     1     -11.962  11.691  69.947  1.00  0.00    -0.414 A  
HETATM   32  C   UNL     1     -11.840  11.755  68.561  1.00  0.00    -0.365 A  
ENDBRANCH  25  27
ENDBRANCH  22  25
ENDBRANCH  19  22
ENDBRANCH  14  16
ENDBRANCH  12  14
ENDBRANCH   6  12
TORSDOF 6
ENDMDL
MODEL      201
REMARK 921   NORMALIZED FREE ENERGY PREDICTED BY IDOCK:   -5.17 KCAL/MOL
REMARK 922        TOTAL FREE ENERGY PREDICTED BY IDOCK:   -7.51 KCAL/MOL
REMARK 923 INTER-LIGAND FREE ENERGY PREDICTED BY IDOCK:   -6.68 KCAL/MOL
REMARK 924 INTRA-LIGAND FREE ENERGY PREDICTED BY IDOCK:   -0.83 KCAL/MOL
REMARK 927      BINDING AFFINITY PREDICTED BY RF-SCORE:    0.00 PKD
ROOT
HETATM    1  O   UNL     1     -13.296  15.514  72.477  1.00  0.00    -0.412 OA 
HETATM    2  C   UNL     1     -13.001  15.124  71.218  1.00  0.00    -0.407 C  
HETATM    3  C   UNL     1     -12.814  13.657  71.056  1.00  0.00    -0.360 A  
HETATM    4  O   UNL     1     -12.844  15.912  70.300  1.00  0.00    -0.335 OA 
HETATM    5  C   UNL     1     -11.993  13.219  70.001  1.00  0.00    -0.399 A  
HETATM    6  C   UNL     1     -11.798  11.850  69.759  1.00  0.00    -0.340 A  
HETATM    7  C   UNL     1     -12.435  10.931  70.606  1.00  0.00    -0.460 A  
HETATM    8  O   UNL     1     -14.234  13.128  72.915  1.00  0.00    -0.610 OA 
HETATM    9  C   UNL     1     -13.441  12.714  71.877  1.00  0.00    -0.329 A  
HETATM   10  H   UNL     1     -14.661  12.487  73.472  1.00  0.00     0.000 HD 
HETATM   11  C   UNL     1     -13.256  11.352  71.657  1.00  0.00    -0.413 A  
ENDROOT
BRANCH   6  12
HETATM   12  N   UNL     1     -10.999  11.320  68.720  1.00  0.00    -0.203 NA 
HETATM   13  H   UNL     1     -10.134  11.755  68.399  1.00  0.00     0.000 HD 
BRANCH  12  14
HETATM   14  N   UNL     1     -11.460  10.266  68.235  1.00  0.00    -0.604 NA 
HETATM   15  H   UNL     1     -12.456  10.093  68.097  1.00  0.00     0.000 HD 
BRANCH  14  16
HETATM   16  C   UNL     1     -10.448   9.340  67.897  1.00  0.00    -0.236 A  
HETATM   17  C   UNL     1      -9.345   8.080  66.121  1.00  0.00    -0.212 A  
HETATM   18  C   UNL     1     -10.285   9.027  66.540  1.00  0.00    -0.318 A  
HETATM   19  C   UNL     1      -8.520   7.460  67.063  1.00  0.00    -0.118 A  
HETATM   20  C   UNL     1      -9.603   8.712  68.828  1.00  0.00    -0.157 A  
HETATM   21  C   UNL     1      -8.647   7.772  68.419  1.00  0.00    -0.128 A  
BRANCH  19  22
HETATM   22  S   UNL     1      -7.448   6.132  66.538  1.00  0.00    -0.087 S  
HETATM   23  O   UNL     1      -7.904   5.697  65.237  1.00  0.00    -0.091 OA 
HETATM   24  O   UNL     1      -7.373   5.199  67.645  1.00  0.00    -0.073 OA 
BRANCH  22  25
HETATM   25  N   UNL     1      -5.924   6.847  66.434  1.00  0.00    -0.033 N  
HETATM   26  H   UNL     1      -5.076   6.356  66.719  1.00  0.00     0.000 HD 
BRANCH  25  27
HETATM   27  C   UNL     1      -5.893   8.162  65.931  1.00  0.00    -0.037 A  
HETATM   28  N   UNL     1      -6.061   8.233  64.601  1.00  0.00    -0.059 NA 
HETATM   29  C   UNL     1      -6.122   9.477  64.073  1.00  0.00    -0.095 A  
HETATM   30  C   UNL     1      -5.993  10.639  64.818  1.00  0.00    -0.010 A  
HETATM   31  C   UNL     1      -5.787  10.524  66.189  1.00  0.00    -0.099 A  
HETATM   32  C   UNL     1      -5.737   9.256  66.765  1.00  0.00    -0.051 A  
ENDBRANCH  25  27
ENDBRANCH  22  25
ENDBRANCH  19  22
ENDBRANCH  14  16
ENDBRANCH  12  14
ENDBRANCH   6  12
TORSDOF 6
ENDMDL
MODEL      202
REMARK 921   NORMALIZED FREE ENERGY PREDICTED BY IDOCK:   -5.17 KCAL/MOL
REMARK 922        TOTAL FREE ENERGY PREDICTED BY IDOCK:   -7.50 KCAL/MOL
REMARK 923 INTER-LIGAND FREE ENERGY PREDICTED BY IDOCK:   -6.91 KCAL/MOL
REMARK 924 INTRA-LIGAND FREE ENERGY PREDICTED BY IDOCK:   -0.60 KCAL/MOL
REMARK 927      BINDING AFFINITY PREDICTED BY RF-SCORE:    0.00 PKD
ROOT
HETATM    1  O   UNL     1     -12.715  13.660  63.188  1.00  0.00    -0.737 OA 
HETATM    2  C   UNL     1     -11.921  12.791  63.849  1.00  0.00    -0.480 C  
HETATM    3  C   UNL     1     -11.688  13.131  65.278  1.00  0.00    -0.375 A  
HETATM    4  O   UNL     1     -11.389  11.835  63.307  1.00  0.00    -0.359 OA 
HETATM    5  C   UNL     1     -10.501  12.667  65.873  1.00  0.00    -0.295 A  
HETATM    6  C   UNL     1     -10.228  12.914  67.228  1.00  0.00    -0.234 A  
HETATM    7  C   UNL     1     -11.165  13.649  67.968  1.00  0.00    -0.295 A  
HETATM    8  O   UNL     1     -13.760  14.324  65.476  1.00  0.00    -0.543 OA 
HETATM    9  C   UNL     1     -12.606  13.855  66.047  1.00  0.00    -0.423 A  
HETATM   10  H   UNL     1     -14.384  14.815  65.999  1.00  0.00     0.000 HD 
HETATM   11  C   UNL     1     -12.351  14.116  67.390  1.00  0.00    -0.136 A  
ENDROOT
BRANCH   6  12
HETATM   12  N   UNL     1      -9.069  12.479  67.909  1.00  0.00    -0.191 NA 
HETATM   13  H   UNL     1      -8.123  12.751  67.640  1.00  0.00     0.000 HD 
BRANCH  12  14
HETATM   14  N   UNL     1      -9.320  11.728  68.875  1.00  0.00    -0.406 NA 
HETATM   15  H   UNL     1      -9.676  12.058  69.772  1.00  0.00     0.000 HD 
BRANCH  14  16
HETATM   16  C   UNL     1      -9.055  10.370  68.586  1.00  0.00    -0.157 A  
HETATM   17  C   UNL     1      -9.981   8.190  68.003  1.00  0.00    -0.222 A  
HETATM   18  C   UNL     1     -10.145   9.557  68.250  1.00  0.00    -0.210 A  
HETATM   19  C   UNL     1      -8.704   7.625  68.048  1.00  0.00    -0.125 A  
HETATM   20  C   UNL     1      -7.776   9.787  68.619  1.00  0.00    -0.080 A  
HETATM   21  C   UNL     1      -7.598   8.421  68.359  1.00  0.00    -0.097 A  
BRANCH  19  22
HETATM   22  S   UNL     1      -8.531   5.854  67.902  1.00  0.00    -0.106 S  
HETATM   23  O   UNL     1      -7.572   5.599  66.852  1.00  0.00    -0.093 OA 
HETATM   24  O   UNL     1      -9.875   5.313  67.824  1.00  0.00    -0.137 OA 
BRANCH  22  25
HETATM   25  N   UNL     1      -7.927   5.372  69.401  1.00  0.00    -0.088 N  
HETATM   26  H   UNL     1      -7.008   4.943  69.501  1.00  0.00     0.000 HD 
BRANCH  25  27
HETATM   27  C   UNL     1      -8.771   5.598  70.507  1.00  0.00    -0.137 A  
HETATM   28  N   UNL     1      -8.489   6.727  71.177  1.00  0.00    -0.124 NA 
HETATM   29  C   UNL     1      -9.318   7.036  72.199  1.00  0.00    -0.134 A  
HETATM   30  C   UNL     1     -10.392   6.250  72.588  1.00  0.00    -0.219 A  
HETATM   31  C   UNL     1     -10.632   5.071  71.890  1.00  0.00    -0.224 A  
HETATM   32  C   UNL     1      -9.805   4.733  70.821  1.00  0.00    -0.280 A  
ENDBRANCH  25  27
ENDBRANCH  22  25
ENDBRANCH  19  22
ENDBRANCH  14  16
ENDBRANCH  12  14
ENDBRANCH   6  12
TORSDOF 6
ENDMDL
MODEL      203
REMARK 921   NORMALIZED FREE ENERGY PREDICTED BY IDOCK:   -5.16 KCAL/MOL
REMARK 922        TOTAL FREE ENERGY PREDICTED BY IDOCK:   -7.49 KCAL/MOL
REMARK 923 INTER-LIGAND FREE ENERGY PREDICTED BY IDOCK:   -6.70 KCAL/MOL
REMARK 924 INTRA-LIGAND FREE ENERGY PREDICTED BY IDOCK:   -0.79 KCAL/MOL
REMARK 927      BINDING AFFINITY PREDICTED BY RF-SCORE:    0.00 PKD
ROOT
HETATM    1  O   UNL     1     -12.951  14.447  71.911  1.00  0.00    -0.319 OA 
HETATM    2  C   UNL     1     -12.586  13.875  70.743  1.00  0.00    -0.354 C  
HETATM    3  C   UNL     1     -12.326  12.413  70.826  1.00  0.00    -0.377 A  
HETATM    4  O   UNL     1     -12.426  14.513  69.715  1.00  0.00    -0.303 OA 
HETATM    5  C   UNL     1     -11.441  11.855  69.886  1.00  0.00    -0.264 A  
HETATM    6  C   UNL     1     -11.174  10.477  69.875  1.00  0.00    -0.307 A  
HETATM    7  C   UNL     1     -11.804   9.674  70.837  1.00  0.00    -0.403 A  
HETATM    8  O   UNL     1     -13.797  12.116  72.697  1.00  0.00    -0.410 OA 
HETATM    9  C   UNL     1     -12.943  11.583  71.767  1.00  0.00    -0.394 A  
HETATM   10  H   UNL     1     -14.217  11.551  73.336  1.00  0.00     0.000 HD 
HETATM   11  C   UNL     1     -12.687  10.215  71.777  1.00  0.00    -0.534 A  
ENDROOT
BRANCH   6  12
HETATM   12  N   UNL     1     -10.309   9.830  68.963  1.00  0.00    -0.199 NA 
HETATM   13  H   UNL     1      -9.292   9.872  69.027  1.00  0.00     0.000 HD 
BRANCH  12  14
HETATM   14  N   UNL     1     -10.916   9.201  68.071  1.00  0.00    -0.493 NA 
HETATM   15  H   UNL     1     -11.729   9.566  67.574  1.00  0.00     0.000 HD 
BRANCH  14  16
HETATM   16  C   UNL     1     -10.352   7.929  67.828  1.00  0.00    -0.226 A  
HETATM   17  C   UNL     1      -8.393   6.491  68.043  1.00  0.00    -0.116 A  
HETATM   18  C   UNL     1      -9.048   7.701  68.289  1.00  0.00    -0.136 A  
HETATM   19  C   UNL     1      -9.059   5.467  67.365  1.00  0.00    -0.110 A  
HETATM   20  C   UNL     1     -11.010   6.885  67.155  1.00  0.00    -0.427 A  
HETATM   21  C   UNL     1     -10.368   5.661  66.915  1.00  0.00    -0.312 A  
BRANCH  19  22
HETATM   22  S   UNL     1      -8.156   3.996  66.908  1.00  0.00    -0.097 S  
HETATM   23  O   UNL     1      -6.816   4.131  67.433  1.00  0.00    -0.050 OA 
HETATM   24  O   UNL     1      -8.377   3.800  65.488  1.00  0.00    -0.104 OA 
BRANCH  22  25
HETATM   25  N   UNL     1      -8.984   2.746  67.680  1.00  0.00    -0.144 N  
HETATM   26  H   UNL     1      -9.622   2.129  67.178  1.00  0.00     0.000 HD 
BRANCH  25  27
HETATM   27  C   UNL     1      -8.740   2.606  69.061  1.00  0.00    -0.084 A  
HETATM   28  N   UNL     1      -7.692   1.816  69.344  1.00  0.00    -0.042 NA 
HETATM   29  C   UNL     1      -7.362   1.711  70.652  1.00  0.00    -0.033 A  
HETATM   30  C   UNL     1      -8.052   2.340  71.676  1.00  0.00    -0.052 A  
HETATM   31  C   UNL     1      -9.153   3.124  71.345  1.00  0.00    -0.174 A  
HETATM   32  C   UNL     1      -9.508   3.265  70.005  1.00  0.00    -0.231 A  
ENDBRANCH  25  27
ENDBRANCH  22  25
ENDBRANCH  19  22
ENDBRANCH  14  16
ENDBRANCH  12  14
ENDBRANCH   6  12
TORSDOF 6
ENDMDL
MODEL      204
REMARK 921   NORMALIZED FREE ENERGY PREDICTED BY IDOCK:   -5.15 KCAL/MOL
REMARK 922        TOTAL FREE ENERGY PREDICTED BY IDOCK:   -7.48 KCAL/MOL
REMARK 923 INTER-LIGAND FREE ENERGY PREDICTED BY IDOCK:   -7.81 KCAL/MOL
REMARK 924 INTRA-LIGAND FREE ENERGY PREDICTED BY IDOCK:    0.33 KCAL/MOL
REMARK 927      BINDING AFFINITY PREDICTED BY RF-SCORE:    0.00 PKD
ROOT
HETATM    1  O   UNL     1      -6.874   8.619  72.455  1.00  0.00    -0.174 OA 
HETATM    2  C   UNL     1      -7.382   9.334  71.427  1.00  0.00     0.104 C  
HETATM    3  C   UNL     1      -8.798   9.020  71.099  1.00  0.00    -0.282 A  
HETATM    4  O   UNL     1      -6.719  10.131  70.783  1.00  0.00    -0.298 OA 
HETATM    5  C   UNL     1      -9.228   9.255  69.780  1.00  0.00    -0.191 A  
HETATM    6  C   UNL     1     -10.559   9.020  69.401  1.00  0.00    -0.221 A  
HETATM    7  C   UNL     1     -11.446   8.531  70.372  1.00  0.00    -0.135 A  
HETATM    8  O   UNL     1      -9.302   8.295  73.329  1.00  0.00    -0.252 OA 
HETATM    9  C   UNL     1      -9.711   8.540  72.044  1.00  0.00    -0.307 A  
HETATM   10  H   UNL     1      -9.922   7.970  73.972  1.00  0.00     0.000 HD 
HETATM   11  C   UNL     1     -11.034   8.295  71.687  1.00  0.00    -0.327 A  
ENDROOT
BRANCH   6  12
HETATM   12  N   UNL     1     -11.079   9.236  68.105  1.00  0.00    -0.497 NA 
HETATM   13  H   UNL     1     -11.970   8.854  67.786  1.00  0.00     0.000 HD 
BRANCH  12  14
HETATM   14  N   UNL     1     -10.338   9.942  67.390  1.00  0.00    -0.229 NA 
HETATM   15  H   UNL     1      -9.874   9.604  66.547  1.00  0.00     0.000 HD 
BRANCH  14  16
HETATM   16  C   UNL     1     -10.215  11.262  67.878  1.00  0.00    -0.181 A  
HETATM   17  C   UNL     1     -11.359  13.217  68.786  1.00  0.00    -0.331 A  
HETATM   18  C   UNL     1     -11.379  11.893  68.337  1.00  0.00    -0.331 A  
HETATM   19  C   UNL     1     -10.151  13.919  68.820  1.00  0.00    -0.157 A  
HETATM   20  C   UNL     1      -9.008  11.981  67.927  1.00  0.00    -0.182 A  
HETATM   21  C   UNL     1      -8.972  13.305  68.388  1.00  0.00    -0.124 A  
BRANCH  19  22
HETATM   22  S   UNL     1     -10.167  15.657  69.230  1.00  0.00    -0.269 S  
HETATM   23  O   UNL     1      -8.795  16.109  69.245  1.00  0.00    -0.247 OA 
HETATM   24  O   UNL     1     -11.006  15.796  70.405  1.00  0.00    -0.311 OA 
BRANCH  22  25
HETATM   25  N   UNL     1     -11.024  16.372  67.965  1.00  0.00    -0.346 N  
HETATM   26  H   UNL     1     -11.804  15.902  67.507  1.00  0.00     0.000 HD 
BRANCH  25  27
HETATM   27  C   UNL     1     -10.597  17.659  67.583  1.00  0.00    -0.362 A  
HETATM   28  N   UNL     1     -10.568  17.843  66.253  1.00  0.00    -0.298 NA 
HETATM   29  C   UNL     1     -10.243  19.086  65.831  1.00  0.00    -0.311 A  
HETATM   30  C   UNL     1      -9.922  20.132  66.682  1.00  0.00    -0.595 A  
HETATM   31  C   UNL     1      -9.932  19.893  68.052  1.00  0.00    -0.556 A  
HETATM   32  C   UNL     1     -10.279  18.628  68.519  1.00  0.00    -0.398 A  
ENDBRANCH  25  27
ENDBRANCH  22  25
ENDBRANCH  19  22
ENDBRANCH  14  16
ENDBRANCH  12  14
ENDBRANCH   6  12
TORSDOF 6
ENDMDL
MODEL      205
REMARK 921   NORMALIZED FREE ENERGY PREDICTED BY IDOCK:   -5.15 KCAL/MOL
REMARK 922        TOTAL FREE ENERGY PREDICTED BY IDOCK:   -7.47 KCAL/MOL
REMARK 923 INTER-LIGAND FREE ENERGY PREDICTED BY IDOCK:   -6.78 KCAL/MOL
REMARK 924 INTRA-LIGAND FREE ENERGY PREDICTED BY IDOCK:   -0.69 KCAL/MOL
REMARK 927      BINDING AFFINITY PREDICTED BY RF-SCORE:    0.00 PKD
ROOT
HETATM    1  O   UNL     1     -10.576   4.735  66.238  1.00  0.00    -0.301 OA 
HETATM    2  C   UNL     1     -10.458   5.823  67.030  1.00  0.00    -0.280 C  
HETATM    3  C   UNL     1      -9.204   6.597  66.832  1.00  0.00    -0.158 A  
HETATM    4  O   UNL     1     -11.283   6.116  67.880  1.00  0.00    -0.304 OA 
HETATM    5  C   UNL     1      -8.728   7.355  67.917  1.00  0.00    -0.123 A  
HETATM    6  C   UNL     1      -7.572   8.143  67.797  1.00  0.00    -0.098 A  
HETATM    7  C   UNL     1      -6.897   8.142  66.567  1.00  0.00    -0.067 A  
HETATM    8  O   UNL     1      -8.956   5.881  64.556  1.00  0.00    -0.354 OA 
HETATM    9  C   UNL     1      -8.511   6.625  65.617  1.00  0.00    -0.144 A  
HETATM   10  H   UNL     1      -8.486   5.901  63.731  1.00  0.00     0.000 HD 
HETATM   11  C   UNL     1      -7.359   7.395  65.479  1.00  0.00    -0.074 A  
ENDROOT
BRANCH   6  12
HETATM   12  N   UNL     1      -7.029   8.941  68.828  1.00  0.00    -0.062 NA 
HETATM   13  H   UNL     1      -6.036   9.162  68.904  1.00  0.00     0.000 HD 
BRANCH  12  14
HETATM   14  N   UNL     1      -7.888   9.349  69.638  1.00  0.00    -0.094 NA 
HETATM   15  H   UNL     1      -8.041   8.936  70.559  1.00  0.00     0.000 HD 
BRANCH  14  16
HETATM   16  C   UNL     1      -8.625  10.446  69.138  1.00  0.00    -0.164 A  
HETATM   17  C   UNL     1      -8.547  12.661  68.118  1.00  0.00    -0.188 A  
HETATM   18  C   UNL     1      -7.902  11.512  68.586  1.00  0.00    -0.137 A  
HETATM   19  C   UNL     1      -9.941  12.738  68.158  1.00  0.00    -0.229 A  
HETATM   20  C   UNL     1     -10.027  10.538  69.163  1.00  0.00    -0.236 A  
HETATM   21  C   UNL     1     -10.686  11.678  68.683  1.00  0.00    -0.246 A  
BRANCH  19  22
HETATM   22  S   UNL     1     -10.739  14.273  67.719  1.00  0.00    -0.253 S  
HETATM   23  O   UNL     1     -10.235  15.293  68.610  1.00  0.00    -0.213 OA 
HETATM   24  O   UNL     1     -12.161  13.993  67.645  1.00  0.00    -0.382 OA 
BRANCH  22  25
HETATM   25  N   UNL     1     -10.243  14.559  66.132  1.00  0.00    -0.293 N  
HETATM   26  H   UNL     1      -9.524  15.246  65.906  1.00  0.00     0.000 HD 
BRANCH  25  27
HETATM   27  C   UNL     1     -10.883  13.791  65.139  1.00  0.00    -0.345 A  
HETATM   28  N   UNL     1     -10.416  12.535  65.048  1.00  0.00    -0.290 NA 
HETATM   29  C   UNL     1     -11.049  11.728  64.167  1.00  0.00    -0.374 A  
HETATM   30  C   UNL     1     -12.102  12.136  63.362  1.00  0.00    -0.608 A  
HETATM   31  C   UNL     1     -12.534  13.454  63.462  1.00  0.00    -0.287 A  
HETATM   32  C   UNL     1     -11.914  14.306  64.373  1.00  0.00    -0.476 A  
ENDBRANCH  25  27
ENDBRANCH  22  25
ENDBRANCH  19  22
ENDBRANCH  14  16
ENDBRANCH  12  14
ENDBRANCH   6  12
TORSDOF 6
ENDMDL
MODEL      206
REMARK 921   NORMALIZED FREE ENERGY PREDICTED BY IDOCK:   -5.14 KCAL/MOL
REMARK 922        TOTAL FREE ENERGY PREDICTED BY IDOCK:   -7.46 KCAL/MOL
REMARK 923 INTER-LIGAND FREE ENERGY PREDICTED BY IDOCK:   -6.79 KCAL/MOL
REMARK 924 INTRA-LIGAND FREE ENERGY PREDICTED BY IDOCK:   -0.67 KCAL/MOL
REMARK 927      BINDING AFFINITY PREDICTED BY RF-SCORE:    0.00 PKD
ROOT
HETATM    1  O   UNL     1      -8.480  17.554  67.793  1.00  0.00    -0.219 OA 
HETATM    2  C   UNL     1      -8.990  16.420  67.265  1.00  0.00    -0.195 C  
HETATM    3  C   UNL     1     -10.041  15.772  68.094  1.00  0.00    -0.220 A  
HETATM    4  O   UNL     1      -8.583  15.934  66.222  1.00  0.00    -0.312 OA 
HETATM    5  C   UNL     1     -10.219  14.384  67.950  1.00  0.00    -0.232 A  
HETATM    6  C   UNL     1     -11.216  13.706  68.669  1.00  0.00    -0.277 A  
HETATM    7  C   UNL     1     -12.020  14.449  69.546  1.00  0.00    -0.376 A  
HETATM    8  O   UNL     1     -10.694  17.835  69.130  1.00  0.00    -0.351 OA 
HETATM    9  C   UNL     1     -10.866  16.484  68.971  1.00  0.00    -0.329 A  
HETATM   10  H   UNL     1     -11.255  18.319  69.725  1.00  0.00     0.000 HD 
HETATM   11  C   UNL     1     -11.856  15.829  69.697  1.00  0.00    -0.352 A  
ENDROOT
BRANCH   6  12
HETATM   12  N   UNL     1     -11.472  12.319  68.581  1.00  0.00    -0.281 NA 
HETATM   13  H   UNL     1     -12.066  11.902  67.864  1.00  0.00     0.000 HD 
BRANCH  12  14
HETATM   14  N   UNL     1     -10.897  11.655  69.469  1.00  0.00    -0.454 NA 
HETATM   15  H   UNL     1     -10.882  11.920  70.454  1.00  0.00     0.000 HD 
BRANCH  14  16
HETATM   16  C   UNL     1     -10.272  10.496  68.958  1.00  0.00    -0.216 A  
HETATM   17  C   UNL     1     -10.356   8.683  67.327  1.00  0.00    -0.366 A  
HETATM   18  C   UNL     1     -10.876   9.866  67.862  1.00  0.00    -0.312 A  
HETATM   19  C   UNL     1      -9.187   8.136  67.861  1.00  0.00    -0.131 A  
HETATM   20  C   UNL     1      -9.092   9.936  69.477  1.00  0.00    -0.237 A  
HETATM   21  C   UNL     1      -8.552   8.759  68.940  1.00  0.00    -0.136 A  
BRANCH  19  22
HETATM   22  S   UNL     1      -8.631   6.541  67.285  1.00  0.00    -0.110 S  
HETATM   23  O   UNL     1      -7.350   6.281  67.901  1.00  0.00    -0.084 OA 
HETATM   24  O   UNL     1      -8.767   6.553  65.841  1.00  0.00    -0.149 OA 
BRANCH  22  25
HETATM   25  N   UNL     1      -9.801   5.466  67.849  1.00  0.00    -0.136 N  
HETATM   26  H   UNL     1     -10.088   4.648  67.312  1.00  0.00     0.000 HD 
BRANCH  25  27
HETATM   27  C   UNL     1     -10.359   5.767  69.107  1.00  0.00    -0.248 A  
HETATM   28  N   UNL     1      -9.541   5.494  70.137  1.00  0.00    -0.162 NA 
HETATM   29  C   UNL     1      -9.993   5.839  71.364  1.00  0.00    -0.185 A  
HETATM   30  C   UNL     1     -11.232   6.416  71.597  1.00  0.00    -0.327 A  
HETATM   31  C   UNL     1     -12.064   6.653  70.508  1.00  0.00    -0.302 A  
HETATM   32  C   UNL     1     -11.620   6.324  69.229  1.00  0.00    -0.090 A  
ENDBRANCH  25  27
ENDBRANCH  22  25
ENDBRANCH  19  22
ENDBRANCH  14  16
ENDBRANCH  12  14
ENDBRANCH   6  12
TORSDOF 6
ENDMDL
MODEL      207
REMARK 921   NORMALIZED FREE ENERGY PREDICTED BY IDOCK:   -5.10 KCAL/MOL
REMARK 922        TOTAL FREE ENERGY PREDICTED BY IDOCK:   -7.41 KCAL/MOL
REMARK 923 INTER-LIGAND FREE ENERGY PREDICTED BY IDOCK:   -6.75 KCAL/MOL
REMARK 924 INTRA-LIGAND FREE ENERGY PREDICTED BY IDOCK:   -0.66 KCAL/MOL
REMARK 927      BINDING AFFINITY PREDICTED BY RF-SCORE:    0.00 PKD
ROOT
HETATM    1  O   UNL     1      -6.432   4.825  62.518  1.00  0.00    -0.024 OA 
HETATM    2  C   UNL     1      -6.432   5.891  63.348  1.00  0.00    -0.029 C  
HETATM    3  C   UNL     1      -7.396   5.795  64.476  1.00  0.00    -0.069 A  
HETATM    4  O   UNL     1      -5.740   6.878  63.157  1.00  0.00    -0.034 OA 
HETATM    5  C   UNL     1      -7.872   6.997  65.030  1.00  0.00    -0.125 A  
HETATM    6  C   UNL     1      -8.754   6.990  66.122  1.00  0.00    -0.145 A  
HETATM    7  C   UNL     1      -9.158   5.750  66.637  1.00  0.00    -0.133 A  
HETATM    8  O   UNL     1      -7.366   3.397  64.482  1.00  0.00    -0.067 OA 
HETATM    9  C   UNL     1      -7.812   4.575  65.020  1.00  0.00    -0.090 A  
HETATM   10  H   UNL     1      -7.648   2.568  64.851  1.00  0.00     0.000 HD 
HETATM   11  C   UNL     1      -8.691   4.547  66.099  1.00  0.00    -0.114 A  
ENDROOT
BRANCH   6  12
HETATM   12  N   UNL     1      -9.274   8.147  66.746  1.00  0.00    -0.154 NA 
HETATM   13  H   UNL     1      -8.796   8.642  67.499  1.00  0.00     0.000 HD 
BRANCH  12  14
HETATM   14  N   UNL     1     -10.378   8.501  66.283  1.00  0.00    -0.351 NA 
HETATM   15  H   UNL     1     -11.134   7.852  66.059  1.00  0.00     0.000 HD 
BRANCH  14  16
HETATM   16  C   UNL     1     -10.466   9.899  66.103  1.00  0.00    -0.074 A  
HETATM   17  C   UNL     1     -11.110  12.045  67.070  1.00  0.00    -0.351 A  
HETATM   18  C   UNL     1     -10.939  10.661  67.180  1.00  0.00    -0.312 A  
HETATM   19  C   UNL     1     -10.763  12.694  65.883  1.00  0.00    -0.266 A  
HETATM   20  C   UNL     1     -10.114  10.571  64.919  1.00  0.00    -0.403 A  
HETATM   21  C   UNL     1     -10.266  11.960  64.802  1.00  0.00    -0.314 A  
BRANCH  19  22
HETATM   22  S   UNL     1     -11.145  14.428  65.697  1.00  0.00    -0.333 S  
HETATM   23  O   UNL     1     -11.916  14.826  66.853  1.00  0.00    -0.334 OA 
HETATM   24  O   UNL     1     -11.680  14.592  64.359  1.00  0.00    -0.404 OA 
BRANCH  22  25
HETATM   25  N   UNL     1      -9.638  15.186  65.687  1.00  0.00    -0.409 N  
HETATM   26  H   UNL     1      -8.813  14.742  65.285  1.00  0.00     0.000 HD 
BRANCH  25  27
HETATM   27  C   UNL     1      -9.591  16.469  66.266  1.00  0.00    -0.306 A  
HETATM   28  N   UNL     1     -10.274  17.397  65.576  1.00  0.00    -0.618 NA 
HETATM   29  C   UNL     1     -10.329  18.629  66.129  1.00  0.00    -0.443 A  
HETATM   30  C   UNL     1      -9.709  18.971  67.321  1.00  0.00    -0.368 A  
HETATM   31  C   UNL     1      -8.983  17.991  67.989  1.00  0.00    -0.274 A  
HETATM   32  C   UNL     1      -8.921  16.706  67.454  1.00  0.00    -0.204 A  
ENDBRANCH  25  27
ENDBRANCH  22  25
ENDBRANCH  19  22
ENDBRANCH  14  16
ENDBRANCH  12  14
ENDBRANCH   6  12
TORSDOF 6
ENDMDL
MODEL      208
REMARK 921   NORMALIZED FREE ENERGY PREDICTED BY IDOCK:   -5.10 KCAL/MOL
REMARK 922        TOTAL FREE ENERGY PREDICTED BY IDOCK:   -7.41 KCAL/MOL
REMARK 923 INTER-LIGAND FREE ENERGY PREDICTED BY IDOCK:   -7.52 KCAL/MOL
REMARK 924 INTRA-LIGAND FREE ENERGY PREDICTED BY IDOCK:    0.11 KCAL/MOL
REMARK 927      BINDING AFFINITY PREDICTED BY RF-SCORE:    0.00 PKD
ROOT
HETATM    1  O   UNL     1     -12.575  15.723  70.304  1.00  0.00    -0.384 OA 
HETATM    2  C   UNL     1     -12.127  14.711  69.529  1.00  0.00    -0.295 C  
HETATM    3  C   UNL     1     -11.515  15.142  68.245  1.00  0.00    -0.350 A  
HETATM    4  O   UNL     1     -12.264  13.536  69.831  1.00  0.00    -0.322 OA 
HETATM    5  C   UNL     1     -11.540  14.230  67.174  1.00  0.00    -0.402 A  
HETATM    6  C   UNL     1     -10.948  14.547  65.941  1.00  0.00    -0.320 A  
HETATM    7  C   UNL     1     -10.343  15.805  65.802  1.00  0.00    -0.390 A  
HETATM    8  O   UNL     1     -10.875  17.287  69.106  1.00  0.00    -0.324 OA 
HETATM    9  C   UNL     1     -10.896  16.385  68.075  1.00  0.00    -0.342 A  
HETATM   10  H   UNL     1     -10.454  18.131  68.991  1.00  0.00     0.000 HD 
HETATM   11  C   UNL     1     -10.309  16.721  66.859  1.00  0.00    -0.294 A  
ENDROOT
BRANCH   6  12
HETATM   12  N   UNL     1     -10.918  13.692  64.817  1.00  0.00    -0.357 NA 
HETATM   13  H   UNL     1     -10.466  13.937  63.935  1.00  0.00     0.000 HD 
BRANCH  12  14
HETATM   14  N   UNL     1     -11.500  12.604  65.011  1.00  0.00    -0.317 NA 
HETATM   15  H   UNL     1     -12.508  12.476  64.920  1.00  0.00     0.000 HD 
BRANCH  14  16
HETATM   16  C   UNL     1     -10.606  11.570  65.370  1.00  0.00    -0.282 A  
HETATM   17  C   UNL     1      -9.212   9.720  64.604  1.00  0.00    -0.312 A  
HETATM   18  C   UNL     1     -10.062  10.798  64.336  1.00  0.00    -0.419 A  
HETATM   19  C   UNL     1      -8.861   9.427  65.924  1.00  0.00    -0.162 A  
HETATM   20  C   UNL     1     -10.235  11.266  66.692  1.00  0.00    -0.268 A  
HETATM   21  C   UNL     1      -9.372  10.197  66.973  1.00  0.00    -0.178 A  
BRANCH  19  22
HETATM   22  S   UNL     1      -7.918   7.949  66.265  1.00  0.00    -0.107 S  
HETATM   23  O   UNL     1      -6.585   8.159  65.749  1.00  0.00    -0.051 OA 
HETATM   24  O   UNL     1      -8.722   6.832  65.806  1.00  0.00    -0.153 OA 
BRANCH  22  25
HETATM   25  N   UNL     1      -7.905   7.846  67.948  1.00  0.00    -0.124 N  
HETATM   26  H   UNL     1      -7.238   8.367  68.517  1.00  0.00     0.000 HD 
BRANCH  25  27
HETATM   27  C   UNL     1      -8.872   6.995  68.521  1.00  0.00    -0.124 A  
HETATM   28  N   UNL     1      -8.358   6.092  69.370  1.00  0.00    -0.114 NA 
HETATM   29  C   UNL     1      -9.250   5.302  70.010  1.00  0.00    -0.138 A  
HETATM   30  C   UNL     1     -10.620   5.365  69.812  1.00  0.00    -0.347 A  
HETATM   31  C   UNL     1     -11.111   6.292  68.899  1.00  0.00    -0.434 A  
HETATM   32  C   UNL     1     -10.220   7.132  68.236  1.00  0.00    -0.210 A  
ENDBRANCH  25  27
ENDBRANCH  22  25
ENDBRANCH  19  22
ENDBRANCH  14  16
ENDBRANCH  12  14
ENDBRANCH   6  12
TORSDOF 6
ENDMDL
MODEL      209
REMARK 921   NORMALIZED FREE ENERGY PREDICTED BY IDOCK:   -5.08 KCAL/MOL
REMARK 922        TOTAL FREE ENERGY PREDICTED BY IDOCK:   -7.39 KCAL/MOL
REMARK 923 INTER-LIGAND FREE ENERGY PREDICTED BY IDOCK:   -6.73 KCAL/MOL
REMARK 924 INTRA-LIGAND FREE ENERGY PREDICTED BY IDOCK:   -0.66 KCAL/MOL
REMARK 927      BINDING AFFINITY PREDICTED BY RF-SCORE:    0.00 PKD
ROOT
HETATM    1  O   UNL     1     -14.342  15.440  71.369  1.00  0.00    -0.502 OA 
HETATM    2  C   UNL     1     -13.542  14.403  71.700  1.00  0.00    -0.384 C  
HETATM    3  C   UNL     1     -12.676  13.914  70.594  1.00  0.00    -0.351 A  
HETATM    4  O   UNL     1     -13.567  13.872  72.799  1.00  0.00    -0.654 OA 
HETATM    5  C   UNL     1     -12.258  12.571  70.640  1.00  0.00    -0.365 A  
HETATM    6  C   UNL     1     -11.409  12.046  69.654  1.00  0.00    -0.179 A  
HETATM    7  C   UNL     1     -10.999  12.893  68.614  1.00  0.00    -0.295 A  
HETATM    8  O   UNL     1     -12.651  16.041  69.486  1.00  0.00    -0.437 OA 
HETATM    9  C   UNL     1     -12.242  14.734  69.548  1.00  0.00    -0.243 A  
HETATM   10  H   UNL     1     -12.356  16.598  68.775  1.00  0.00     0.000 HD 
HETATM   11  C   UNL     1     -11.404  14.231  68.557  1.00  0.00    -0.309 A  
ENDROOT
BRANCH   6  12
HETATM   12  N   UNL     1     -10.933  10.715  69.624  1.00  0.00    -0.261 NA 
HETATM   13  H   UNL     1     -10.027  10.451  69.238  1.00  0.00     0.000 HD 
BRANCH  12  14
HETATM   14  N   UNL     1     -11.735   9.896  70.120  1.00  0.00    -0.398 NA 
HETATM   15  H   UNL     1     -12.712  10.108  70.319  1.00  0.00     0.000 HD 
BRANCH  14  16
HETATM   16  C   UNL     1     -11.136   8.642  70.376  1.00  0.00    -0.230 A  
HETATM   17  C   UNL     1      -9.264   7.441  71.380  1.00  0.00    -0.148 A  
HETATM   18  C   UNL     1      -9.953   8.632  71.127  1.00  0.00    -0.289 A  
HETATM   19  C   UNL     1      -9.781   6.229  70.915  1.00  0.00    -0.176 A  
HETATM   20  C   UNL     1     -11.645   7.412  69.923  1.00  0.00     0.053 A  
HETATM   21  C   UNL     1     -10.972   6.210  70.183  1.00  0.00    -0.426 A  
BRANCH  19  22
HETATM   22  S   UNL     1      -8.808   4.743  71.095  1.00  0.00    -0.121 S  
HETATM   23  O   UNL     1      -9.682   3.621  70.841  1.00  0.00    -0.173 OA 
HETATM   24  O   UNL     1      -8.104   4.861  72.358  1.00  0.00    -0.107 OA 
BRANCH  22  25
HETATM   25  N   UNL     1      -7.628   4.873  69.897  1.00  0.00    -0.055 N  
HETATM   26  H   UNL     1      -6.634   4.800  70.107  1.00  0.00     0.000 HD 
BRANCH  25  27
HETATM   27  C   UNL     1      -8.102   5.089  68.587  1.00  0.00    -0.085 A  
HETATM   28  N   UNL     1      -7.984   6.361  68.176  1.00  0.00    -0.108 NA 
HETATM   29  C   UNL     1      -8.348   6.609  66.897  1.00  0.00    -0.114 A  
HETATM   30  C   UNL     1      -8.848   5.646  66.034  1.00  0.00    -0.147 A  
HETATM   31  C   UNL     1      -8.986   4.345  66.509  1.00  0.00    -0.117 A  
HETATM   32  C   UNL     1      -8.604   4.054  67.816  1.00  0.00    -0.108 A  
ENDBRANCH  25  27
ENDBRANCH  22  25
ENDBRANCH  19  22
ENDBRANCH  14  16
ENDBRANCH  12  14
ENDBRANCH   6  12
TORSDOF 6
ENDMDL
MODEL      210
REMARK 921   NORMALIZED FREE ENERGY PREDICTED BY IDOCK:   -5.04 KCAL/MOL
REMARK 922        TOTAL FREE ENERGY PREDICTED BY IDOCK:   -7.34 KCAL/MOL
REMARK 923 INTER-LIGAND FREE ENERGY PREDICTED BY IDOCK:   -7.17 KCAL/MOL
REMARK 924 INTRA-LIGAND FREE ENERGY PREDICTED BY IDOCK:   -0.17 KCAL/MOL
REMARK 927      BINDING AFFINITY PREDICTED BY RF-SCORE:    0.00 PKD
ROOT
HETATM    1  O   UNL     1      -5.130  12.368  73.407  1.00  0.00    -0.359 OA 
HETATM    2  C   UNL     1      -5.630  13.381  72.666  1.00  0.00     0.324 C  
HETATM    3  C   UNL     1      -5.432  13.229  71.200  1.00  0.00    -0.197 A  
HETATM    4  O   UNL     1      -6.151  14.368  73.160  1.00  0.00    -0.059 OA 
HETATM    5  C   UNL     1      -5.389  14.402  70.424  1.00  0.00    -0.109 A  
HETATM    6  C   UNL     1      -5.243  14.340  69.029  1.00  0.00    -0.081 A  
HETATM    7  C   UNL     1      -5.128  13.076  68.432  1.00  0.00    -0.071 A  
HETATM    8  O   UNL     1      -5.351  10.835  71.317  1.00  0.00    -0.159 OA 
HETATM    9  C   UNL     1      -5.323  11.984  70.572  1.00  0.00    -0.143 A  
HETATM   10  H   UNL     1      -5.277   9.989  70.890  1.00  0.00     0.000 HD 
HETATM   11  C   UNL     1      -5.172  11.902  69.190  1.00  0.00    -0.051 A  
ENDROOT
BRANCH   6  12
HETATM   12  N   UNL     1      -5.199  15.463  68.173  1.00  0.00    -0.114 NA 
HETATM   13  H   UNL     1      -4.588  16.265  68.328  1.00  0.00     0.000 HD 
BRANCH  12  14
HETATM   14  N   UNL     1      -5.984  15.374  67.205  1.00  0.00    -0.314 NA 
HETATM   15  H   UNL     1      -5.695  15.469  66.231  1.00  0.00     0.000 HD 
BRANCH  14  16
HETATM   16  C   UNL     1      -7.314  15.126  67.610  1.00  0.00    -0.183 A  
HETATM   17  C   UNL     1      -9.225  13.611  67.524  1.00  0.00    -0.218 A  
HETATM   18  C   UNL     1      -7.895  13.914  67.214  1.00  0.00    -0.134 A  
HETATM   19  C   UNL     1      -9.983  14.509  68.279  1.00  0.00    -0.229 A  
HETATM   20  C   UNL     1      -8.089  16.014  68.376  1.00  0.00    -0.159 A  
HETATM   21  C   UNL     1      -9.419  15.715  68.705  1.00  0.00    -0.214 A  
BRANCH  19  22
HETATM   22  S   UNL     1     -11.723  14.191  68.519  1.00  0.00    -0.356 S  
HETATM   23  O   UNL     1     -11.835  13.047  69.395  1.00  0.00    -0.306 OA 
HETATM   24  O   UNL     1     -12.325  14.174  67.200  1.00  0.00    -0.370 OA 
BRANCH  22  25
HETATM   25  N   UNL     1     -12.299  15.586  69.271  1.00  0.00    -0.606 N  
HETATM   26  H   UNL     1     -12.465  16.449  68.754  1.00  0.00     0.000 HD 
BRANCH  25  27
HETATM   27  C   UNL     1     -12.538  15.485  70.656  1.00  0.00    -0.443 A  
HETATM   28  N   UNL     1     -13.785  15.088  70.959  1.00  0.00    -0.390 NA 
HETATM   29  C   UNL     1     -14.046  14.896  72.272  1.00  0.00    -0.499 A  
HETATM   30  C   UNL     1     -13.122  15.112  73.283  1.00  0.00    -0.622 A  
HETATM   31  C   UNL     1     -11.851  15.554  72.931  1.00  0.00    -0.565 A  
HETATM   32  C   UNL     1     -11.546  15.745  71.585  1.00  0.00    -0.537 A  
ENDBRANCH  25  27
ENDBRANCH  22  25
ENDBRANCH  19  22
ENDBRANCH  14  16
ENDBRANCH  12  14
ENDBRANCH   6  12
TORSDOF 6
ENDMDL
MODEL      211
REMARK 921   NORMALIZED FREE ENERGY PREDICTED BY IDOCK:   -5.04 KCAL/MOL
REMARK 922        TOTAL FREE ENERGY PREDICTED BY IDOCK:   -7.33 KCAL/MOL
REMARK 923 INTER-LIGAND FREE ENERGY PREDICTED BY IDOCK:   -6.38 KCAL/MOL
REMARK 924 INTRA-LIGAND FREE ENERGY PREDICTED BY IDOCK:   -0.95 KCAL/MOL
REMARK 927      BINDING AFFINITY PREDICTED BY RF-SCORE:    0.00 PKD
ROOT
HETATM    1  O   UNL     1     -12.485  12.473  65.814  1.00  0.00    -0.626 OA 
HETATM    2  C   UNL     1     -11.161  12.485  65.547  1.00  0.00    -0.301 C  
HETATM    3  C   UNL     1     -10.296  12.130  66.704  1.00  0.00    -0.233 A  
HETATM    4  O   UNL     1     -10.706  12.816  64.464  1.00  0.00    -0.316 OA 
HETATM    5  C   UNL     1      -8.983  12.637  66.715  1.00  0.00    -0.197 A  
HETATM    6  C   UNL     1      -8.094  12.315  67.753  1.00  0.00    -0.155 A  
HETATM    7  C   UNL     1      -8.555  11.485  68.785  1.00  0.00    -0.055 A  
HETATM    8  O   UNL     1     -12.000  10.808  67.752  1.00  0.00    -0.692 OA 
HETATM    9  C   UNL     1     -10.720  11.298  67.745  1.00  0.00    -0.220 A  
HETATM   10  H   UNL     1     -12.288  10.242  68.459  1.00  0.00     0.000 HD 
HETATM   11  C   UNL     1      -9.856  10.972  68.786  1.00  0.00    -0.206 A  
ENDROOT
BRANCH   6  12
HETATM   12  N   UNL     1      -6.759  12.770  67.840  1.00  0.00    -0.100 NA 
HETATM   13  H   UNL     1      -6.038  12.533  67.158  1.00  0.00     0.000 HD 
BRANCH  12  14
HETATM   14  N   UNL     1      -6.550  13.493  68.837  1.00  0.00    -0.101 NA 
HETATM   15  H   UNL     1      -6.423  13.131  69.783  1.00  0.00     0.000 HD 
BRANCH  14  16
HETATM   16  C   UNL     1      -6.509  14.866  68.510  1.00  0.00    -0.091 A  
HETATM   17  C   UNL     1      -7.603  17.041  68.690  1.00  0.00    -0.238 A  
HETATM   18  C   UNL     1      -7.535  15.681  69.010  1.00  0.00    -0.181 A  
HETATM   19  C   UNL     1      -6.610  17.616  67.893  1.00  0.00    -0.187 A  
HETATM   20  C   UNL     1      -5.515  15.464  67.717  1.00  0.00    -0.116 A  
HETATM   21  C   UNL     1      -5.564  16.830  67.401  1.00  0.00    -0.180 A  
BRANCH  19  22
HETATM   22  S   UNL     1      -6.801  19.306  67.352  1.00  0.00    -0.202 S  
HETATM   23  O   UNL     1      -5.483  19.899  67.314  1.00  0.00    -0.166 OA 
HETATM   24  O   UNL     1      -7.849  19.886  68.171  1.00  0.00    -0.306 OA 
BRANCH  22  25
HETATM   25  N   UNL     1      -7.449  19.174  65.801  1.00  0.00    -0.241 N  
HETATM   26  H   UNL     1      -8.367  18.764  65.631  1.00  0.00     0.000 HD 
BRANCH  25  27
HETATM   27  C   UNL     1      -6.644  19.665  64.754  1.00  0.00    -0.078 A  
HETATM   28  N   UNL     1      -5.878  18.724  64.177  1.00  0.00    -0.334 NA 
HETATM   29  C   UNL     1      -5.145  19.123  63.113  1.00  0.00    -0.281 A  
HETATM   30  C   UNL     1      -5.130  20.421  62.628  1.00  0.00    -0.212 A  
HETATM   31  C   UNL     1      -5.911  21.375  63.272  1.00  0.00    -0.335 A  
HETATM   32  C   UNL     1      -6.690  20.992  64.362  1.00  0.00    -0.032 A  
ENDBRANCH  25  27
ENDBRANCH  22  25
ENDBRANCH  19  22
ENDBRANCH  14  16
ENDBRANCH  12  14
ENDBRANCH   6  12
TORSDOF 6
ENDMDL
MODEL      212
REMARK 921   NORMALIZED FREE ENERGY PREDICTED BY IDOCK:   -5.04 KCAL/MOL
REMARK 922        TOTAL FREE ENERGY PREDICTED BY IDOCK:   -7.33 KCAL/MOL
REMARK 923 INTER-LIGAND FREE ENERGY PREDICTED BY IDOCK:   -6.66 KCAL/MOL
REMARK 924 INTRA-LIGAND FREE ENERGY PREDICTED BY IDOCK:   -0.67 KCAL/MOL
REMARK 927      BINDING AFFINITY PREDICTED BY RF-SCORE:    0.00 PKD
ROOT
HETATM    1  O   UNL     1     -11.024  19.688  67.563  1.00  0.00    -0.419 OA 
HETATM    2  C   UNL     1      -9.857  19.084  67.876  1.00  0.00    -0.337 C  
HETATM    3  C   UNL     1      -9.684  17.731  67.283  1.00  0.00    -0.285 A  
HETATM    4  O   UNL     1      -9.036  19.581  68.630  1.00  0.00    -0.360 OA 
HETATM    5  C   UNL     1      -8.838  16.829  67.956  1.00  0.00    -0.216 A  
HETATM    6  C   UNL     1      -8.594  15.547  67.439  1.00  0.00    -0.178 A  
HETATM    7  C   UNL     1      -9.226  15.186  66.240  1.00  0.00    -0.336 A  
HETATM    8  O   UNL     1     -11.127  18.206  65.427  1.00  0.00    -0.314 OA 
HETATM    9  C   UNL     1     -10.291  17.341  66.086  1.00  0.00    -0.317 A  
HETATM   10  H   UNL     1     -11.539  17.941  64.613  1.00  0.00     0.000 HD 
HETATM   11  C   UNL     1     -10.066  16.072  65.560  1.00  0.00    -0.336 A  
ENDROOT
BRANCH   6  12
HETATM   12  N   UNL     1      -7.755  14.582  68.040  1.00  0.00    -0.122 NA 
HETATM   13  H   UNL     1      -6.782  14.437  67.770  1.00  0.00     0.000 HD 
BRANCH  12  14
HETATM   14  N   UNL     1      -8.324  13.925  68.937  1.00  0.00    -0.346 NA 
HETATM   15  H   UNL     1      -8.619  14.322  69.829  1.00  0.00     0.000 HD 
BRANCH  14  16
HETATM   16  C   UNL     1      -8.516  12.573  68.577  1.00  0.00    -0.061 A  
HETATM   17  C   UNL     1     -10.117  10.800  68.082  1.00  0.00    -0.183 A  
HETATM   18  C   UNL     1      -9.833  12.135  68.386  1.00  0.00    -0.200 A  
HETATM   19  C   UNL     1      -9.071   9.888  67.921  1.00  0.00    -0.131 A  
HETATM   20  C   UNL     1      -7.476  11.643  68.403  1.00  0.00    -0.107 A  
HETATM   21  C   UNL     1      -7.747  10.305  68.084  1.00  0.00    -0.092 A  
BRANCH  19  22
HETATM   22  S   UNL     1      -9.453   8.157  67.705  1.00  0.00    -0.149 S  
HETATM   23  O   UNL     1      -8.492   7.617  66.769  1.00  0.00    -0.120 OA 
HETATM   24  O   UNL     1     -10.875   8.079  67.432  1.00  0.00    -0.231 OA 
BRANCH  22  25
HETATM   25  N   UNL     1      -9.241   7.491  69.240  1.00  0.00    -0.145 N  
HETATM   26  H   UNL     1      -8.349   7.101  69.542  1.00  0.00     0.000 HD 
BRANCH  25  27
HETATM   27  C   UNL     1     -10.373   7.508  70.079  1.00  0.00    -0.221 A  
HETATM   28  N   UNL     1     -10.495   8.637  70.795  1.00  0.00    -0.197 NA 
HETATM   29  C   UNL     1     -11.607   8.741  71.558  1.00  0.00    -0.303 A  
HETATM   30  C   UNL     1     -12.576   7.754  71.650  1.00  0.00    -0.357 A  
HETATM   31  C   UNL     1     -12.396   6.585  70.919  1.00  0.00    -0.142 A  
HETATM   32  C   UNL     1     -11.270   6.454  70.111  1.00  0.00    -0.454 A  
ENDBRANCH  25  27
ENDBRANCH  22  25
ENDBRANCH  19  22
ENDBRANCH  14  16
ENDBRANCH  12  14
ENDBRANCH   6  12
TORSDOF 6
ENDMDL
MODEL      213
REMARK 921   NORMALIZED FREE ENERGY PREDICTED BY IDOCK:   -5.03 KCAL/MOL
REMARK 922        TOTAL FREE ENERGY PREDICTED BY IDOCK:   -7.32 KCAL/MOL
REMARK 923 INTER-LIGAND FREE ENERGY PREDICTED BY IDOCK:   -6.69 KCAL/MOL
REMARK 924 INTRA-LIGAND FREE ENERGY PREDICTED BY IDOCK:   -0.63 KCAL/MOL
REMARK 927      BINDING AFFINITY PREDICTED BY RF-SCORE:    0.00 PKD
ROOT
HETATM    1  O   UNL     1     -12.521  13.493  63.109  1.00  0.00    -0.759 OA 
HETATM    2  C   UNL     1     -11.942  12.509  63.830  1.00  0.00    -0.517 C  
HETATM    3  C   UNL     1     -11.649  12.869  65.243  1.00  0.00    -0.376 A  
HETATM    4  O   UNL     1     -11.630  11.431  63.348  1.00  0.00    -0.294 OA 
HETATM    5  C   UNL     1     -10.597  12.188  65.883  1.00  0.00    -0.293 A  
HETATM    6  C   UNL     1     -10.284  12.445  67.227  1.00  0.00    -0.215 A  
HETATM    7  C   UNL     1     -11.040  13.408  67.910  1.00  0.00    -0.289 A  
HETATM    8  O   UNL     1     -13.408  14.497  65.340  1.00  0.00    -0.481 OA 
HETATM    9  C   UNL     1     -12.389  13.818  65.956  1.00  0.00    -0.457 A  
HETATM   10  H   UNL     1     -13.911  15.141  65.824  1.00  0.00     0.000 HD 
HETATM   11  C   UNL     1     -12.090  14.091  67.288  1.00  0.00    -0.405 A  
ENDROOT
BRANCH   6  12
HETATM   12  N   UNL     1      -9.253  11.804  67.952  1.00  0.00    -0.174 NA 
HETATM   13  H   UNL     1      -8.310  11.669  67.587  1.00  0.00     0.000 HD 
BRANCH  12  14
HETATM   14  N   UNL     1      -9.614  11.420  69.084  1.00  0.00    -0.410 NA 
HETATM   15  H   UNL     1      -9.975  12.044  69.806  1.00  0.00     0.000 HD 
BRANCH  14  16
HETATM   16  C   UNL     1      -9.466  10.025  69.254  1.00  0.00    -0.217 A  
HETATM   17  C   UNL     1      -7.951   8.180  69.761  1.00  0.00    -0.111 A  
HETATM   18  C   UNL     1      -8.201   9.550  69.625  1.00  0.00    -0.143 A  
HETATM   19  C   UNL     1      -8.988   7.264  69.568  1.00  0.00    -0.144 A  
HETATM   20  C   UNL     1     -10.499   9.089  69.071  1.00  0.00    -0.235 A  
HETATM   21  C   UNL     1     -10.265   7.715  69.219  1.00  0.00    -0.210 A  
BRANCH  19  22
HETATM   22  S   UNL     1      -8.618   5.518  69.575  1.00  0.00    -0.105 S  
HETATM   23  O   UNL     1      -9.446   4.905  70.588  1.00  0.00    -0.151 OA 
HETATM   24  O   UNL     1      -7.173   5.403  69.632  1.00  0.00    -0.061 OA 
BRANCH  22  25
HETATM   25  N   UNL     1      -9.060   4.994  68.034  1.00  0.00    -0.112 N  
HETATM   26  H   UNL     1      -9.854   4.372  67.882  1.00  0.00     0.000 HD 
BRANCH  25  27
HETATM   27  C   UNL     1      -8.267   5.469  66.971  1.00  0.00    -0.105 A  
HETATM   28  N   UNL     1      -8.805   6.516  66.325  1.00  0.00    -0.143 NA 
HETATM   29  C   UNL     1      -8.049   7.064  65.346  1.00  0.00    -0.133 A  
HETATM   30  C   UNL     1      -6.800   6.589  64.977  1.00  0.00    -0.047 A  
HETATM   31  C   UNL     1      -6.291   5.482  65.649  1.00  0.00    -0.039 A  
HETATM   32  C   UNL     1      -7.038   4.905  66.673  1.00  0.00    -0.068 A  
ENDBRANCH  25  27
ENDBRANCH  22  25
ENDBRANCH  19  22
ENDBRANCH  14  16
ENDBRANCH  12  14
ENDBRANCH   6  12
TORSDOF 6
ENDMDL
MODEL      214
REMARK 921   NORMALIZED FREE ENERGY PREDICTED BY IDOCK:   -5.01 KCAL/MOL
REMARK 922        TOTAL FREE ENERGY PREDICTED BY IDOCK:   -7.29 KCAL/MOL
REMARK 923 INTER-LIGAND FREE ENERGY PREDICTED BY IDOCK:   -6.55 KCAL/MOL
REMARK 924 INTRA-LIGAND FREE ENERGY PREDICTED BY IDOCK:   -0.74 KCAL/MOL
REMARK 927      BINDING AFFINITY PREDICTED BY RF-SCORE:    0.00 PKD
ROOT
HETATM    1  O   UNL     1      -9.656   6.656  72.631  1.00  0.00    -0.147 OA 
HETATM    2  C   UNL     1      -9.516   7.879  72.073  1.00  0.00    -0.174 C  
HETATM    3  C   UNL     1     -10.797   8.582  71.799  1.00  0.00    -0.374 A  
HETATM    4  O   UNL     1      -8.431   8.346  71.766  1.00  0.00    -0.136 OA 
HETATM    5  C   UNL     1     -10.807   9.536  70.765  1.00  0.00    -0.386 A  
HETATM    6  C   UNL     1     -11.967  10.270  70.470  1.00  0.00    -0.323 A  
HETATM    7  C   UNL     1     -13.120  10.015  71.228  1.00  0.00    -0.493 A  
HETATM    8  O   UNL     1     -11.969   7.424  73.542  1.00  0.00    -0.010 OA 
HETATM    9  C   UNL     1     -11.962   8.359  72.540  1.00  0.00    -0.350 A  
HETATM   10  H   UNL     1     -12.760   7.273  74.046  1.00  0.00     0.000 HD 
HETATM   11  C   UNL     1     -13.124   9.072  72.260  1.00  0.00    -0.508 A  
ENDROOT
BRANCH   6  12
HETATM   12  N   UNL     1     -12.066  11.251  69.458  1.00  0.00    -0.328 NA 
HETATM   13  H   UNL     1     -12.611  12.108  69.558  1.00  0.00     0.000 HD 
BRANCH  12  14
HETATM   14  N   UNL     1     -11.418  10.964  68.430  1.00  0.00    -0.330 NA 
HETATM   15  H   UNL     1     -11.566  10.113  67.886  1.00  0.00     0.000 HD 
BRANCH  14  16
HETATM   16  C   UNL     1     -10.459  11.948  68.103  1.00  0.00    -0.207 A  
HETATM   17  C   UNL     1      -8.116  12.433  67.622  1.00  0.00    -0.168 A  
HETATM   18  C   UNL     1      -9.140  11.521  67.895  1.00  0.00    -0.167 A  
HETATM   19  C   UNL     1      -8.413  13.794  67.510  1.00  0.00    -0.196 A  
HETATM   20  C   UNL     1     -10.739  13.319  67.978  1.00  0.00    -0.254 A  
HETATM   21  C   UNL     1      -9.724  14.242  67.690  1.00  0.00    -0.220 A  
BRANCH  19  22
HETATM   22  S   UNL     1      -7.075  14.963  67.333  1.00  0.00    -0.082 S  
HETATM   23  O   UNL     1      -7.505  15.973  66.393  1.00  0.00    -0.118 OA 
HETATM   24  O   UNL     1      -5.876  14.184  67.085  1.00  0.00    -0.195 OA 
BRANCH  22  25
HETATM   25  N   UNL     1      -6.888  15.615  68.877  1.00  0.00    -0.119 N  
HETATM   26  H   UNL     1      -6.694  15.032  69.690  1.00  0.00     0.000 HD 
BRANCH  25  27
HETATM   27  C   UNL     1      -7.015  17.015  68.973  1.00  0.00    -0.229 A  
HETATM   28  N   UNL     1      -5.838  17.659  69.033  1.00  0.00    -0.185 NA 
HETATM   29  C   UNL     1      -5.899  19.010  69.045  1.00  0.00    -0.218 A  
HETATM   30  C   UNL     1      -7.083  19.731  69.027  1.00  0.00    -0.358 A  
HETATM   31  C   UNL     1      -8.282  19.027  68.997  1.00  0.00    -0.223 A  
HETATM   32  C   UNL     1      -8.253  17.635  68.968  1.00  0.00    -0.051 A  
ENDBRANCH  25  27
ENDBRANCH  22  25
ENDBRANCH  19  22
ENDBRANCH  14  16
ENDBRANCH  12  14
ENDBRANCH   6  12
TORSDOF 6
ENDMDL
MODEL      215
REMARK 921   NORMALIZED FREE ENERGY PREDICTED BY IDOCK:   -5.00 KCAL/MOL
REMARK 922        TOTAL FREE ENERGY PREDICTED BY IDOCK:   -7.27 KCAL/MOL
REMARK 923 INTER-LIGAND FREE ENERGY PREDICTED BY IDOCK:   -6.86 KCAL/MOL
REMARK 924 INTRA-LIGAND FREE ENERGY PREDICTED BY IDOCK:   -0.41 KCAL/MOL
REMARK 927      BINDING AFFINITY PREDICTED BY RF-SCORE:    0.00 PKD
ROOT
HETATM    1  O   UNL     1     -13.240  13.999  65.536  1.00  0.00    -0.710 OA 
HETATM    2  C   UNL     1     -12.330  13.002  65.592  1.00  0.00    -0.446 C  
HETATM    3  C   UNL     1     -11.166  13.278  66.476  1.00  0.00    -0.329 A  
HETATM    4  O   UNL     1     -12.423  11.982  64.928  1.00  0.00    -0.400 OA 
HETATM    5  C   UNL     1      -9.958  12.618  66.187  1.00  0.00    -0.269 A  
HETATM    6  C   UNL     1      -8.826  12.796  66.997  1.00  0.00    -0.213 A  
HETATM    7  C   UNL     1      -8.929  13.661  68.097  1.00  0.00    -0.191 A  
HETATM    8  O   UNL     1     -12.405  14.786  67.871  1.00  0.00    -0.582 OA 
HETATM    9  C   UNL     1     -11.237  14.127  67.585  1.00  0.00    -0.297 A  
HETATM   10  H   UNL     1     -12.454  15.362  68.624  1.00  0.00     0.000 HD 
HETATM   11  C   UNL     1     -10.124  14.322  68.398  1.00  0.00    -0.243 A  
ENDROOT
BRANCH   6  12
HETATM   12  N   UNL     1      -7.577  12.169  66.788  1.00  0.00    -0.371 NA 
HETATM   13  H   UNL     1      -7.145  12.070  65.869  1.00  0.00     0.000 HD 
BRANCH  12  14
HETATM   14  N   UNL     1      -7.056  11.747  67.842  1.00  0.00    -0.081 NA 
HETATM   15  H   UNL     1      -6.388  12.282  68.398  1.00  0.00     0.000 HD 
BRANCH  14  16
HETATM   16  C   UNL     1      -7.495  10.447  68.179  1.00  0.00    -0.090 A  
HETATM   17  C   UNL     1      -8.352   8.970  69.922  1.00  0.00    -0.134 A  
HETATM   18  C   UNL     1      -7.951  10.238  69.487  1.00  0.00    -0.171 A  
HETATM   19  C   UNL     1      -8.342   7.896  69.029  1.00  0.00    -0.130 A  
HETATM   20  C   UNL     1      -7.499   9.356  67.292  1.00  0.00    -0.091 A  
HETATM   21  C   UNL     1      -7.913   8.084  67.712  1.00  0.00    -0.127 A  
BRANCH  19  22
HETATM   22  S   UNL     1      -8.690   6.255  69.641  1.00  0.00    -0.137 S  
HETATM   23  O   UNL     1      -7.519   5.804  70.357  1.00  0.00    -0.083 OA 
HETATM   24  O   UNL     1      -9.207   5.497  68.517  1.00  0.00    -0.115 OA 
BRANCH  22  25
HETATM   25  N   UNL     1      -9.993   6.471  70.689  1.00  0.00    -0.184 N  
HETATM   26  H   UNL     1     -10.592   7.295  70.644  1.00  0.00     0.000 HD 
BRANCH  25  27
HETATM   27  C   UNL     1     -10.203   5.444  71.631  1.00  0.00    -0.209 A  
HETATM   28  N   UNL     1     -10.887   5.841  72.716  1.00  0.00    -0.238 NA 
HETATM   29  C   UNL     1     -11.187   4.878  73.616  1.00  0.00    -0.223 A  
HETATM   30  C   UNL     1     -10.808   3.551  73.483  1.00  0.00    -0.321 A  
HETATM   31  C   UNL     1     -10.072   3.185  72.361  1.00  0.00    -0.227 A  
HETATM   32  C   UNL     1      -9.761   4.152  71.407  1.00  0.00    -0.251 A  
ENDBRANCH  25  27
ENDBRANCH  22  25
ENDBRANCH  19  22
ENDBRANCH  14  16
ENDBRANCH  12  14
ENDBRANCH   6  12
TORSDOF 6
ENDMDL
MODEL      216
REMARK 921   NORMALIZED FREE ENERGY PREDICTED BY IDOCK:   -4.99 KCAL/MOL
REMARK 922        TOTAL FREE ENERGY PREDICTED BY IDOCK:   -7.27 KCAL/MOL
REMARK 923 INTER-LIGAND FREE ENERGY PREDICTED BY IDOCK:   -6.77 KCAL/MOL
REMARK 924 INTRA-LIGAND FREE ENERGY PREDICTED BY IDOCK:   -0.50 KCAL/MOL
REMARK 927      BINDING AFFINITY PREDICTED BY RF-SCORE:    0.00 PKD
ROOT
HETATM    1  O   UNL     1      -7.823   3.702  70.527  1.00  0.00    -0.047 OA 
HETATM    2  C   UNL     1      -8.735   4.637  70.183  1.00  0.00    -0.081 C  
HETATM    3  C   UNL     1      -8.355   5.465  69.007  1.00  0.00    -0.100 A  
HETATM    4  O   UNL     1      -9.760   4.828  70.818  1.00  0.00    -0.168 OA 
HETATM    5  C   UNL     1      -8.905   6.757  68.916  1.00  0.00    -0.128 A  
HETATM    6  C   UNL     1      -8.626   7.585  67.817  1.00  0.00    -0.120 A  
HETATM    7  C   UNL     1      -7.772   7.093  66.819  1.00  0.00    -0.098 A  
HETATM    8  O   UNL     1      -6.962   3.751  68.073  1.00  0.00    -0.050 OA 
HETATM    9  C   UNL     1      -7.514   5.003  67.990  1.00  0.00    -0.075 A  
HETATM   10  H   UNL     1      -6.391   3.436  67.382  1.00  0.00     0.000 HD 
HETATM   11  C   UNL     1      -7.220   5.810  66.896  1.00  0.00    -0.075 A  
ENDROOT
BRANCH   6  12
HETATM   12  N   UNL     1      -9.140   8.889  67.639  1.00  0.00    -0.134 NA 
HETATM   13  H   UNL     1      -9.283   9.546  68.406  1.00  0.00     0.000 HD 
BRANCH  12  14
HETATM   14  N   UNL     1      -9.400   9.156  66.447  1.00  0.00    -0.187 NA 
HETATM   15  H   UNL     1      -9.352   8.473  65.690  1.00  0.00     0.000 HD 
BRANCH  14  16
HETATM   16  C   UNL     1      -9.770  10.507  66.264  1.00  0.00    -0.205 A  
HETATM   17  C   UNL     1     -10.417  12.607  67.325  1.00  0.00    -0.237 A  
HETATM   18  C   UNL     1      -9.994  11.277  67.413  1.00  0.00    -0.206 A  
HETATM   19  C   UNL     1     -10.578  13.201  66.070  1.00  0.00    -0.281 A  
HETATM   20  C   UNL     1      -9.930  11.124  65.011  1.00  0.00    -0.325 A  
HETATM   21  C   UNL     1     -10.338  12.461  64.909  1.00  0.00    -0.319 A  
BRANCH  19  22
HETATM   22  S   UNL     1     -11.280  14.839  65.969  1.00  0.00    -0.329 S  
HETATM   23  O   UNL     1     -11.997  15.079  67.201  1.00  0.00    -0.234 OA 
HETATM   24  O   UNL     1     -11.961  14.918  64.690  1.00  0.00    -0.428 OA 
BRANCH  22  25
HETATM   25  N   UNL     1      -9.941  15.857  65.841  1.00  0.00    -0.324 N  
HETATM   26  H   UNL     1      -9.080  15.562  65.382  1.00  0.00     0.000 HD 
BRANCH  25  27
HETATM   27  C   UNL     1     -10.086  17.139  66.407  1.00  0.00    -0.320 A  
HETATM   28  N   UNL     1     -10.458  18.078  65.522  1.00  0.00    -0.608 NA 
HETATM   29  C   UNL     1     -10.690  19.311  66.026  1.00  0.00    -0.386 A  
HETATM   30  C   UNL     1     -10.539  19.641  67.364  1.00  0.00    -0.589 A  
HETATM   31  C   UNL     1     -10.121  18.648  68.244  1.00  0.00    -0.431 A  
HETATM   32  C   UNL     1      -9.889  17.363  67.759  1.00  0.00    -0.283 A  
ENDBRANCH  25  27
ENDBRANCH  22  25
ENDBRANCH  19  22
ENDBRANCH  14  16
ENDBRANCH  12  14
ENDBRANCH   6  12
TORSDOF 6
ENDMDL
MODEL      217
REMARK 921   NORMALIZED FREE ENERGY PREDICTED BY IDOCK:   -4.99 KCAL/MOL
REMARK 922        TOTAL FREE ENERGY PREDICTED BY IDOCK:   -7.27 KCAL/MOL
REMARK 923 INTER-LIGAND FREE ENERGY PREDICTED BY IDOCK:   -6.47 KCAL/MOL
REMARK 924 INTRA-LIGAND FREE ENERGY PREDICTED BY IDOCK:   -0.79 KCAL/MOL
REMARK 927      BINDING AFFINITY PREDICTED BY RF-SCORE:    0.00 PKD
ROOT
HETATM    1  O   UNL     1      -8.273  17.713  67.732  1.00  0.00    -0.218 OA 
HETATM    2  C   UNL     1      -8.879  16.610  67.242  1.00  0.00    -0.192 C  
HETATM    3  C   UNL     1      -9.839  15.966  68.178  1.00  0.00    -0.214 A  
HETATM    4  O   UNL     1      -8.620  16.144  66.144  1.00  0.00    -0.326 OA 
HETATM    5  C   UNL     1     -10.077  14.588  68.020  1.00  0.00    -0.226 A  
HETATM    6  C   UNL     1     -10.998  13.917  68.840  1.00  0.00    -0.263 A  
HETATM    7  C   UNL     1     -11.664  14.655  69.828  1.00  0.00    -0.361 A  
HETATM    8  O   UNL     1     -10.295  18.014  69.340  1.00  0.00    -0.397 OA 
HETATM    9  C   UNL     1     -10.527  16.674  69.168  1.00  0.00    -0.333 A  
HETATM   10  H   UNL     1     -10.763  18.495  70.013  1.00  0.00     0.000 HD 
HETATM   11  C   UNL     1     -11.440  16.025  69.995  1.00  0.00    -0.334 A  
ENDROOT
BRANCH   6  12
HETATM   12  N   UNL     1     -11.306  12.541  68.747  1.00  0.00    -0.271 NA 
HETATM   13  H   UNL     1     -12.071  12.173  68.181  1.00  0.00     0.000 HD 
BRANCH  12  14
HETATM   14  N   UNL     1     -10.546  11.820  69.428  1.00  0.00    -0.440 NA 
HETATM   15  H   UNL     1     -10.388  11.949  70.428  1.00  0.00     0.000 HD 
BRANCH  14  16
HETATM   16  C   UNL     1      -9.931  10.806  68.660  1.00  0.00    -0.182 A  
HETATM   17  C   UNL     1     -10.070   9.369  66.693  1.00  0.00    -0.332 A  
HETATM   18  C   UNL     1     -10.579  10.403  67.484  1.00  0.00    -0.312 A  
HETATM   19  C   UNL     1      -8.870   8.749  67.051  1.00  0.00    -0.127 A  
HETATM   20  C   UNL     1      -8.721  10.177  69.000  1.00  0.00    -0.161 A  
HETATM   21  C   UNL     1      -8.193   9.149  68.206  1.00  0.00    -0.116 A  
BRANCH  19  22
HETATM   22  S   UNL     1      -8.322   7.320  66.131  1.00  0.00    -0.139 S  
HETATM   23  O   UNL     1      -7.292   6.673  66.912  1.00  0.00    -0.078 OA 
HETATM   24  O   UNL     1      -8.049   7.777  64.782  1.00  0.00    -0.141 OA 
BRANCH  22  25
HETATM   25  N   UNL     1      -9.696   6.348  66.019  1.00  0.00    -0.391 N  
HETATM   26  H   UNL     1     -10.621   6.738  65.842  1.00  0.00     0.000 HD 
BRANCH  25  27
HETATM   27  C   UNL     1      -9.486   4.965  66.184  1.00  0.00    -0.161 A  
HETATM   28  N   UNL     1      -8.982   4.364  65.094  1.00  0.00    -0.137 NA 
HETATM   29  C   UNL     1      -8.685   3.051  65.222  1.00  0.00    -0.116 A  
HETATM   30  C   UNL     1      -8.898   2.319  66.380  1.00  0.00    -0.126 A  
HETATM   31  C   UNL     1      -9.453   2.970  67.477  1.00  0.00    -0.170 A  
HETATM   32  C   UNL     1      -9.754   4.327  67.382  1.00  0.00    -0.210 A  
ENDBRANCH  25  27
ENDBRANCH  22  25
ENDBRANCH  19  22
ENDBRANCH  14  16
ENDBRANCH  12  14
ENDBRANCH   6  12
TORSDOF 6
ENDMDL
MODEL      218
REMARK 921   NORMALIZED FREE ENERGY PREDICTED BY IDOCK:   -4.96 KCAL/MOL
REMARK 922        TOTAL FREE ENERGY PREDICTED BY IDOCK:   -7.22 KCAL/MOL
REMARK 923 INTER-LIGAND FREE ENERGY PREDICTED BY IDOCK:   -6.36 KCAL/MOL
REMARK 924 INTRA-LIGAND FREE ENERGY PREDICTED BY IDOCK:   -0.86 KCAL/MOL
REMARK 927      BINDING AFFINITY PREDICTED BY RF-SCORE:    0.00 PKD
ROOT
HETATM    1  O   UNL     1      -7.296   4.296  69.342  1.00  0.00    -0.050 OA 
HETATM    2  C   UNL     1      -7.035   5.401  68.610  1.00  0.00    -0.060 C  
HETATM    3  C   UNL     1      -8.244   6.125  68.135  1.00  0.00    -0.114 A  
HETATM    4  O   UNL     1      -5.903   5.747  68.314  1.00  0.00    -0.014 OA 
HETATM    5  C   UNL     1      -8.122   6.897  66.965  1.00  0.00    -0.117 A  
HETATM    6  C   UNL     1      -9.207   7.639  66.473  1.00  0.00    -0.176 A  
HETATM    7  C   UNL     1     -10.421   7.580  67.174  1.00  0.00    -0.407 A  
HETATM    8  O   UNL     1      -9.602   5.336  69.948  1.00  0.00    -0.153 OA 
HETATM    9  C   UNL     1      -9.466   6.094  68.814  1.00  0.00    -0.121 A  
HETATM   10  H   UNL     1     -10.432   5.316  70.410  1.00  0.00     0.000 HD 
HETATM   11  C   UNL     1     -10.556   6.819  68.340  1.00  0.00    -0.270 A  
ENDROOT
BRANCH   6  12
HETATM   12  N   UNL     1      -9.173   8.447  65.314  1.00  0.00    -0.410 NA 
HETATM   13  H   UNL     1      -9.676   8.221  64.456  1.00  0.00     0.000 HD 
BRANCH  12  14
HETATM   14  N   UNL     1      -8.465   9.467  65.447  1.00  0.00    -0.140 NA 
HETATM   15  H   UNL     1      -7.497   9.531  65.129  1.00  0.00     0.000 HD 
BRANCH  14  16
HETATM   16  C   UNL     1      -9.152  10.523  66.086  1.00  0.00    -0.162 A  
HETATM   17  C   UNL     1      -9.205  12.084  67.961  1.00  0.00    -0.192 A  
HETATM   18  C   UNL     1      -8.567  11.074  67.234  1.00  0.00    -0.130 A  
HETATM   19  C   UNL     1     -10.429  12.590  67.517  1.00  0.00    -0.219 A  
HETATM   20  C   UNL     1     -10.380  11.049  65.650  1.00  0.00    -0.311 A  
HETATM   21  C   UNL     1     -11.023  12.073  66.362  1.00  0.00    -0.337 A  
BRANCH  19  22
HETATM   22  S   UNL     1     -11.313  13.753  68.543  1.00  0.00    -0.308 S  
HETATM   23  O   UNL     1     -12.035  12.991  69.536  1.00  0.00    -0.309 OA 
HETATM   24  O   UNL     1     -12.015  14.648  67.643  1.00  0.00    -0.362 OA 
BRANCH  22  25
HETATM   25  N   UNL     1     -10.099  14.679  69.258  1.00  0.00    -0.377 N  
HETATM   26  H   UNL     1      -9.583  14.356  70.076  1.00  0.00     0.000 HD 
BRANCH  25  27
HETATM   27  C   UNL     1      -9.840  15.927  68.656  1.00  0.00    -0.212 A  
HETATM   28  N   UNL     1     -10.406  16.961  69.299  1.00  0.00    -0.314 NA 
HETATM   29  C   UNL     1     -10.125  18.191  68.811  1.00  0.00    -0.376 A  
HETATM   30  C   UNL     1      -9.328  18.418  67.699  1.00  0.00    -0.274 A  
HETATM   31  C   UNL     1      -8.787  17.318  67.042  1.00  0.00    -0.243 A  
HETATM   32  C   UNL     1      -9.045  16.039  67.529  1.00  0.00    -0.203 A  
ENDBRANCH  25  27
ENDBRANCH  22  25
ENDBRANCH  19  22
ENDBRANCH  14  16
ENDBRANCH  12  14
ENDBRANCH   6  12
TORSDOF 6
ENDMDL
MODEL      219
REMARK 921   NORMALIZED FREE ENERGY PREDICTED BY IDOCK:   -4.90 KCAL/MOL
REMARK 922        TOTAL FREE ENERGY PREDICTED BY IDOCK:   -7.14 KCAL/MOL
REMARK 923 INTER-LIGAND FREE ENERGY PREDICTED BY IDOCK:   -6.31 KCAL/MOL
REMARK 924 INTRA-LIGAND FREE ENERGY PREDICTED BY IDOCK:   -0.83 KCAL/MOL
REMARK 927      BINDING AFFINITY PREDICTED BY RF-SCORE:    0.00 PKD
ROOT
HETATM    1  O   UNL     1     -12.221  12.128  66.942  1.00  0.00    -0.537 OA 
HETATM    2  C   UNL     1     -11.033  11.588  66.596  1.00  0.00    -0.296 C  
HETATM    3  C   UNL     1     -10.291  10.959  67.721  1.00  0.00    -0.218 A  
HETATM    4  O   UNL     1     -10.576  11.660  65.467  1.00  0.00    -0.264 OA 
HETATM    5  C   UNL     1      -8.889  10.886  67.617  1.00  0.00    -0.133 A  
HETATM    6  C   UNL     1      -8.121  10.272  68.619  1.00  0.00    -0.114 A  
HETATM    7  C   UNL     1      -8.790   9.746  69.734  1.00  0.00    -0.241 A  
HETATM    8  O   UNL     1     -12.289  10.491  68.963  1.00  0.00    -0.759 OA 
HETATM    9  C   UNL     1     -10.926  10.416  68.843  1.00  0.00    -0.245 A  
HETATM   10  H   UNL     1     -12.720  10.122  69.725  1.00  0.00     0.000 HD 
HETATM   11  C   UNL     1     -10.182   9.809  69.851  1.00  0.00    -0.291 A  
ENDROOT
BRANCH   6  12
HETATM   12  N   UNL     1      -6.714  10.146  68.593  1.00  0.00    -0.056 NA 
HETATM   13  H   UNL     1      -6.218   9.525  67.954  1.00  0.00     0.000 HD 
BRANCH  12  14
HETATM   14  N   UNL     1      -6.140  10.872  69.432  1.00  0.00    -0.050 NA 
HETATM   15  H   UNL     1      -5.740  10.523  70.303  1.00  0.00     0.000 HD 
BRANCH  14  16
HETATM   16  C   UNL     1      -6.105  12.228  69.039  1.00  0.00    -0.076 A  
HETATM   17  C   UNL     1      -6.776  14.518  69.549  1.00  0.00    -0.151 A  
HETATM   18  C   UNL     1      -6.715  13.163  69.887  1.00  0.00     0.220 A  
HETATM   19  C   UNL     1      -6.182  14.965  68.366  1.00  0.00    -0.104 A  
HETATM   20  C   UNL     1      -5.506  12.697  67.857  1.00  0.00    -0.099 A  
HETATM   21  C   UNL     1      -5.548  14.056  67.514  1.00  0.00     0.149 A  
BRANCH  19  22
HETATM   22  S   UNL     1      -6.415  16.662  67.863  1.00  0.00    -0.145 S  
HETATM   23  O   UNL     1      -5.181  17.106  67.255  1.00  0.00    -0.122 OA 
HETATM   24  O   UNL     1      -6.968  17.360  69.009  1.00  0.00    -0.232 OA 
BRANCH  22  25
HETATM   25  N   UNL     1      -7.658  16.590  66.725  1.00  0.00    -0.235 N  
HETATM   26  H   UNL     1      -7.664  15.900  65.974  1.00  0.00     0.000 HD 
BRANCH  25  27
HETATM   27  C   UNL     1      -8.686  17.541  66.876  1.00  0.00    -0.251 A  
HETATM   28  N   UNL     1      -8.551  18.610  66.074  1.00  0.00    -0.490 NA 
HETATM   29  C   UNL     1      -9.553  19.517  66.118  1.00  0.00    -0.362 A  
HETATM   30  C   UNL     1     -10.660  19.408  66.947  1.00  0.00    -0.581 A  
HETATM   31  C   UNL     1     -10.747  18.302  67.786  1.00  0.00    -0.358 A  
HETATM   32  C   UNL     1      -9.739  17.341  67.752  1.00  0.00    -0.270 A  
ENDBRANCH  25  27
ENDBRANCH  22  25
ENDBRANCH  19  22
ENDBRANCH  14  16
ENDBRANCH  12  14
ENDBRANCH   6  12
TORSDOF 6
ENDMDL
MODEL      220
REMARK 921   NORMALIZED FREE ENERGY PREDICTED BY IDOCK:   -4.90 KCAL/MOL
REMARK 922        TOTAL FREE ENERGY PREDICTED BY IDOCK:   -7.14 KCAL/MOL
REMARK 923 INTER-LIGAND FREE ENERGY PREDICTED BY IDOCK:   -6.92 KCAL/MOL
REMARK 924 INTRA-LIGAND FREE ENERGY PREDICTED BY IDOCK:   -0.21 KCAL/MOL
REMARK 927      BINDING AFFINITY PREDICTED BY RF-SCORE:    0.00 PKD
ROOT
HETATM    1  O   UNL     1      -6.565   8.248  64.359  1.00  0.00    -0.065 OA 
HETATM    2  C   UNL     1      -7.324   9.081  65.105  1.00  0.00    -0.096 C  
HETATM    3  C   UNL     1      -7.982   8.437  66.272  1.00  0.00    -0.099 A  
HETATM    4  O   UNL     1      -7.502  10.253  64.814  1.00  0.00    -0.143 OA 
HETATM    5  C   UNL     1      -9.172   9.016  66.750  1.00  0.00    -0.198 A  
HETATM    6  C   UNL     1      -9.832   8.489  67.871  1.00  0.00    -0.170 A  
HETATM    7  C   UNL     1      -9.279   7.361  68.494  1.00  0.00    -0.142 A  
HETATM    8  O   UNL     1      -6.302   6.735  66.459  1.00  0.00    -0.042 OA 
HETATM    9  C   UNL     1      -7.453   7.317  66.922  1.00  0.00    -0.097 A  
HETATM   10  H   UNL     1      -5.942   5.975  66.901  1.00  0.00     0.000 HD 
HETATM   11  C   UNL     1      -8.096   6.776  68.032  1.00  0.00    -0.114 A  
ENDROOT
BRANCH   6  12
HETATM   12  N   UNL     1     -11.023   9.010  68.425  1.00  0.00    -0.462 NA 
HETATM   13  H   UNL     1     -11.434   8.672  69.295  1.00  0.00     0.000 HD 
BRANCH  12  14
HETATM   14  N   UNL     1     -11.523   9.928  67.740  1.00  0.00    -0.519 NA 
HETATM   15  H   UNL     1     -11.781   9.827  66.759  1.00  0.00     0.000 HD 
BRANCH  14  16
HETATM   16  C   UNL     1     -11.691  11.121  68.477  1.00  0.00    -0.298 A  
HETATM   17  C   UNL     1     -12.086  12.131  70.663  1.00  0.00    -0.344 A  
HETATM   18  C   UNL     1     -11.858  11.006  69.864  1.00  0.00    -0.431 A  
HETATM   19  C   UNL     1     -12.105  13.402  70.083  1.00  0.00    -0.344 A  
HETATM   20  C   UNL     1     -11.705  12.408  67.912  1.00  0.00    -0.421 A  
HETATM   21  C   UNL     1     -11.917  13.545  68.705  1.00  0.00    -0.378 A  
BRANCH  19  22
HETATM   22  S   UNL     1     -12.566  14.807  71.082  1.00  0.00    -0.368 S  
HETATM   23  O   UNL     1     -12.972  14.303  72.375  1.00  0.00    -0.360 OA 
HETATM   24  O   UNL     1     -13.474  15.604  70.280  1.00  0.00    -0.173 OA 
BRANCH  22  25
HETATM   25  N   UNL     1     -11.147  15.711  71.206  1.00  0.00    -0.316 N  
HETATM   26  H   UNL     1     -10.827  16.096  72.094  1.00  0.00     0.000 HD 
BRANCH  25  27
HETATM   27  C   UNL     1     -10.432  15.901  70.006  1.00  0.00    -0.291 A  
HETATM   28  N   UNL     1     -11.029  16.748  69.153  1.00  0.00    -0.274 NA 
HETATM   29  C   UNL     1     -10.348  17.030  68.020  1.00  0.00    -0.341 A  
HETATM   30  C   UNL     1      -9.116  16.480  67.701  1.00  0.00    -0.199 A  
HETATM   31  C   UNL     1      -8.545  15.581  68.596  1.00  0.00    -0.179 A  
HETATM   32  C   UNL     1      -9.215  15.282  69.780  1.00  0.00    -0.060 A  
ENDBRANCH  25  27
ENDBRANCH  22  25
ENDBRANCH  19  22
ENDBRANCH  14  16
ENDBRANCH  12  14
ENDBRANCH   6  12
TORSDOF 6
ENDMDL
MODEL      221
REMARK 921   NORMALIZED FREE ENERGY PREDICTED BY IDOCK:   -4.88 KCAL/MOL
REMARK 922        TOTAL FREE ENERGY PREDICTED BY IDOCK:   -7.12 KCAL/MOL
REMARK 923 INTER-LIGAND FREE ENERGY PREDICTED BY IDOCK:   -6.87 KCAL/MOL
REMARK 924 INTRA-LIGAND FREE ENERGY PREDICTED BY IDOCK:   -0.24 KCAL/MOL
REMARK 927      BINDING AFFINITY PREDICTED BY RF-SCORE:    0.00 PKD
ROOT
HETATM    1  O   UNL     1     -12.770  16.040  69.922  1.00  0.00    -0.155 OA 
HETATM    2  C   UNL     1     -11.946  14.980  69.772  1.00  0.00    -0.328 C  
HETATM    3  C   UNL     1     -10.751  15.243  68.927  1.00  0.00    -0.245 A  
HETATM    4  O   UNL     1     -12.190  13.880  70.242  1.00  0.00    -0.318 OA 
HETATM    5  C   UNL     1     -10.168  14.147  68.265  1.00  0.00    -0.243 A  
HETATM    6  C   UNL     1      -9.015  14.307  67.480  1.00  0.00    -0.196 A  
HETATM    7  C   UNL     1      -8.468  15.593  67.364  1.00  0.00    -0.191 A  
HETATM    8  O   UNL     1     -10.739  17.589  69.427  1.00  0.00    -0.383 OA 
HETATM    9  C   UNL     1     -10.174  16.511  68.797  1.00  0.00    -0.267 A  
HETATM   10  H   UNL     1     -10.348  18.450  69.339  1.00  0.00     0.000 HD 
HETATM   11  C   UNL     1      -9.035  16.692  68.019  1.00  0.00    -0.211 A  
ENDROOT
BRANCH   6  12
HETATM   12  N   UNL     1      -8.359  13.264  66.788  1.00  0.00    -0.419 NA 
HETATM   13  H   UNL     1      -7.345  13.198  66.703  1.00  0.00     0.000 HD 
BRANCH  12  14
HETATM   14  N   UNL     1      -9.147  12.432  66.292  1.00  0.00    -0.393 NA 
HETATM   15  H   UNL     1      -9.534  12.509  65.351  1.00  0.00     0.000 HD 
BRANCH  14  16
HETATM   16  C   UNL     1      -9.442  11.372  67.178  1.00  0.00    -0.175 A  
HETATM   17  C   UNL     1     -11.148   9.870  68.066  1.00  0.00    -0.220 A  
HETATM   18  C   UNL     1     -10.754  10.880  67.182  1.00  0.00    -0.320 A  
HETATM   19  C   UNL     1     -10.211   9.305  68.935  1.00  0.00    -0.202 A  
HETATM   20  C   UNL     1      -8.511  10.786  68.053  1.00  0.00    -0.124 A  
HETATM   21  C   UNL     1      -8.890   9.763  68.933  1.00  0.00    -0.140 A  
BRANCH  19  22
HETATM   22  S   UNL     1     -10.763   8.143  70.172  1.00  0.00    -0.240 S  
HETATM   23  O   UNL     1     -11.709   8.832  71.020  1.00  0.00    -0.280 OA 
HETATM   24  O   UNL     1      -9.569   7.539  70.733  1.00  0.00    -0.167 OA 
BRANCH  22  25
HETATM   25  N   UNL     1     -11.522   6.925  69.287  1.00  0.00    -0.566 N  
HETATM   26  H   UNL     1     -12.515   6.962  69.057  1.00  0.00     0.000 HD 
BRANCH  25  27
HETATM   27  C   UNL     1     -10.700   5.854  68.883  1.00  0.00    -0.300 A  
HETATM   28  N   UNL     1     -10.220   5.985  67.636  1.00  0.00    -0.160 NA 
HETATM   29  C   UNL     1      -9.360   5.025  67.226  1.00  0.00    -0.126 A  
HETATM   30  C   UNL     1      -8.989   3.936  68.000  1.00  0.00    -0.155 A  
HETATM   31  C   UNL     1      -9.534   3.819  69.274  1.00  0.00    -0.252 A  
HETATM   32  C   UNL     1     -10.410   4.800  69.733  1.00  0.00    -0.096 A  
ENDBRANCH  25  27
ENDBRANCH  22  25
ENDBRANCH  19  22
ENDBRANCH  14  16
ENDBRANCH  12  14
ENDBRANCH   6  12
TORSDOF 6
ENDMDL
MODEL      222
REMARK 921   NORMALIZED FREE ENERGY PREDICTED BY IDOCK:   -4.87 KCAL/MOL
REMARK 922        TOTAL FREE ENERGY PREDICTED BY IDOCK:   -7.11 KCAL/MOL
REMARK 923 INTER-LIGAND FREE ENERGY PREDICTED BY IDOCK:   -6.33 KCAL/MOL
REMARK 924 INTRA-LIGAND FREE ENERGY PREDICTED BY IDOCK:   -0.78 KCAL/MOL
REMARK 927      BINDING AFFINITY PREDICTED BY RF-SCORE:    0.00 PKD
ROOT
HETATM    1  O   UNL     1     -11.817  13.107  70.248  1.00  0.00    -0.306 OA 
HETATM    2  C   UNL     1     -11.835  11.920  69.603  1.00  0.00    -0.337 C  
HETATM    3  C   UNL     1     -12.144  10.752  70.470  1.00  0.00    -0.459 A  
HETATM    4  O   UNL     1     -11.566  11.806  68.418  1.00  0.00    -0.272 OA 
HETATM    5  C   UNL     1     -11.654   9.496  70.068  1.00  0.00    -0.091 A  
HETATM    6  C   UNL     1     -11.935   8.339  70.813  1.00  0.00    -0.109 A  
HETATM    7  C   UNL     1     -12.706   8.473  71.976  1.00  0.00    -0.421 A  
HETATM    8  O   UNL     1     -13.389  12.069  72.042  1.00  0.00    -0.495 OA 
HETATM    9  C   UNL     1     -12.917  10.849  71.632  1.00  0.00    -0.464 A  
HETATM   10  H   UNL     1     -13.914  12.135  72.830  1.00  0.00     0.000 HD 
HETATM   11  C   UNL     1     -13.201   9.715  72.387  1.00  0.00    -0.413 A  
ENDROOT
BRANCH   6  12
HETATM   12  N   UNL     1     -11.494   7.039  70.479  1.00  0.00    -0.309 NA 
HETATM   13  H   UNL     1     -10.910   6.469  71.092  1.00  0.00     0.000 HD 
BRANCH  12  14
HETATM   14  N   UNL     1     -11.893   6.657  69.359  1.00  0.00    -0.602 NA 
HETATM   15  H   UNL     1     -12.874   6.502  69.129  1.00  0.00     0.000 HD 
BRANCH  14  16
HETATM   16  C   UNL     1     -10.832   6.463  68.446  1.00  0.00    -0.311 A  
HETATM   17  C   UNL     1      -8.833   5.181  67.882  1.00  0.00    -0.104 A  
HETATM   18  C   UNL     1      -9.942   5.411  68.703  1.00  0.00    -0.232 A  
HETATM   19  C   UNL     1      -8.625   5.984  66.758  1.00  0.00    -0.110 A  
HETATM   20  C   UNL     1     -10.611   7.255  67.306  1.00  0.00    -0.395 A  
HETATM   21  C   UNL     1      -9.511   7.025  66.467  1.00  0.00    -0.199 A  
BRANCH  19  22
HETATM   22  S   UNL     1      -7.119   5.792  65.820  1.00  0.00    -0.071 S  
HETATM   23  O   UNL     1      -6.299   4.824  66.514  1.00  0.00    -0.037 OA 
HETATM   24  O   UNL     1      -6.622   7.129  65.557  1.00  0.00    -0.046 OA 
BRANCH  22  25
HETATM   25  N   UNL     1      -7.632   5.190  64.330  1.00  0.00    -0.075 N  
HETATM   26  H   UNL     1      -7.355   5.621  63.449  1.00  0.00     0.000 HD 
BRANCH  25  27
HETATM   27  C   UNL     1      -8.467   4.056  64.379  1.00  0.00    -0.105 A  
HETATM   28  N   UNL     1      -9.731   4.302  63.998  1.00  0.00    -0.122 NA 
HETATM   29  C   UNL     1     -10.556   3.232  63.947  1.00  0.00    -0.215 A  
HETATM   30  C   UNL     1     -10.174   1.944  64.287  1.00  0.00     0.167 A  
HETATM   31  C   UNL     1      -8.864   1.735  64.709  1.00  0.00    -0.112 A  
HETATM   32  C   UNL     1      -7.985   2.815  64.756  1.00  0.00    -0.082 A  
ENDBRANCH  25  27
ENDBRANCH  22  25
ENDBRANCH  19  22
ENDBRANCH  14  16
ENDBRANCH  12  14
ENDBRANCH   6  12
TORSDOF 6
ENDMDL
MODEL      223
REMARK 921   NORMALIZED FREE ENERGY PREDICTED BY IDOCK:   -4.85 KCAL/MOL
REMARK 922        TOTAL FREE ENERGY PREDICTED BY IDOCK:   -7.08 KCAL/MOL
REMARK 923 INTER-LIGAND FREE ENERGY PREDICTED BY IDOCK:   -5.99 KCAL/MOL
REMARK 924 INTRA-LIGAND FREE ENERGY PREDICTED BY IDOCK:   -1.09 KCAL/MOL
REMARK 927      BINDING AFFINITY PREDICTED BY RF-SCORE:    0.00 PKD
ROOT
HETATM    1  O   UNL     1      -8.906   8.319  74.121  1.00  0.00    -0.130 OA 
HETATM    2  C   UNL     1      -8.453   8.162  72.858  1.00  0.00    -0.196 C  
HETATM    3  C   UNL     1      -9.220   7.182  72.045  1.00  0.00    -0.146 A  
HETATM    4  O   UNL     1      -7.460   8.734  72.435  1.00  0.00    -0.324 OA 
HETATM    5  C   UNL     1      -8.545   6.544  70.987  1.00  0.00    -0.134 A  
HETATM    6  C   UNL     1      -9.210   5.635  70.150  1.00  0.00    -0.142 A  
HETATM    7  C   UNL     1     -10.564   5.370  70.406  1.00  0.00    -0.322 A  
HETATM    8  O   UNL     1     -11.237   7.505  73.301  1.00  0.00    -0.567 OA 
HETATM    9  C   UNL     1     -10.572   6.901  72.267  1.00  0.00    -0.216 A  
HETATM   10  H   UNL     1     -12.156   7.315  73.451  1.00  0.00     0.000 HD 
HETATM   11  C   UNL     1     -11.248   5.997  71.452  1.00  0.00    -0.325 A  
ENDROOT
BRANCH   6  12
HETATM   12  N   UNL     1      -8.616   4.957  69.062  1.00  0.00    -0.085 NA 
HETATM   13  H   UNL     1      -7.743   4.436  69.134  1.00  0.00     0.000 HD 
BRANCH  12  14
HETATM   14  N   UNL     1      -9.270   5.061  68.003  1.00  0.00    -0.115 NA 
HETATM   15  H   UNL     1      -9.804   4.296  67.589  1.00  0.00     0.000 HD 
BRANCH  14  16
HETATM   16  C   UNL     1      -9.187   6.354  67.441  1.00  0.00    -0.117 A  
HETATM   17  C   UNL     1     -10.397   8.244  66.481  1.00  0.00    -0.175 A  
HETATM   18  C   UNL     1     -10.389   6.986  67.093  1.00  0.00    -0.351 A  
HETATM   19  C   UNL     1      -9.191   8.909  66.249  1.00  0.00    -0.207 A  
HETATM   20  C   UNL     1      -7.984   7.043  67.207  1.00  0.00    -0.111 A  
HETATM   21  C   UNL     1      -7.980   8.310  66.608  1.00  0.00    -0.098 A  
BRANCH  19  22
HETATM   22  S   UNL     1      -9.204  10.431  65.315  1.00  0.00    -0.218 S  
HETATM   23  O   UNL     1     -10.324  10.368  64.404  1.00  0.00    -0.304 OA 
HETATM   24  O   UNL     1      -7.855  10.621  64.817  1.00  0.00    -0.071 OA 
BRANCH  22  25
HETATM   25  N   UNL     1      -9.438  11.629  66.479  1.00  0.00    -0.200 N  
HETATM   26  H   UNL     1      -9.261  12.614  66.285  1.00  0.00     0.000 HD 
BRANCH  25  27
HETATM   27  C   UNL     1      -9.895  11.185  67.736  1.00  0.00    -0.171 A  
HETATM   28  N   UNL     1     -11.227  11.266  67.884  1.00  0.00    -0.266 NA 
HETATM   29  C   UNL     1     -11.729  10.778  69.041  1.00  0.00    -0.286 A  
HETATM   30  C   UNL     1     -10.951  10.243  70.056  1.00  0.00    -0.371 A  
HETATM   31  C   UNL     1      -9.572  10.206  69.879  1.00  0.00    -0.172 A  
HETATM   32  C   UNL     1      -9.026  10.687  68.691  1.00  0.00    -0.170 A  
ENDBRANCH  25  27
ENDBRANCH  22  25
ENDBRANCH  19  22
ENDBRANCH  14  16
ENDBRANCH  12  14
ENDBRANCH   6  12
TORSDOF 6
ENDMDL
MODEL      224
REMARK 921   NORMALIZED FREE ENERGY PREDICTED BY IDOCK:   -4.84 KCAL/MOL
REMARK 922        TOTAL FREE ENERGY PREDICTED BY IDOCK:   -7.05 KCAL/MOL
REMARK 923 INTER-LIGAND FREE ENERGY PREDICTED BY IDOCK:   -7.27 KCAL/MOL
REMARK 924 INTRA-LIGAND FREE ENERGY PREDICTED BY IDOCK:    0.22 KCAL/MOL
REMARK 927      BINDING AFFINITY PREDICTED BY RF-SCORE:    0.00 PKD
ROOT
HETATM    1  O   UNL     1      -5.125   7.836  68.202  1.00  0.00    -0.028 OA 
HETATM    2  C   UNL     1      -6.251   7.977  68.935  1.00  0.00    -0.040 C  
HETATM    3  C   UNL     1      -7.506   7.655  68.204  1.00  0.00    -0.108 A  
HETATM    4  O   UNL     1      -6.247   8.390  70.083  1.00  0.00    -0.031 OA 
HETATM    5  C   UNL     1      -8.691   8.277  68.640  1.00  0.00    -0.133 A  
HETATM    6  C   UNL     1      -9.922   7.995  68.027  1.00  0.00    -0.179 A  
HETATM    7  C   UNL     1      -9.936   7.087  66.959  1.00  0.00    -0.273 A  
HETATM    8  O   UNL     1      -6.409   6.145  66.699  1.00  0.00    -0.041 OA 
HETATM    9  C   UNL     1      -7.557   6.748  67.141  1.00  0.00    -0.099 A  
HETATM   10  H   UNL     1      -6.443   5.528  65.977  1.00  0.00     0.000 HD 
HETATM   11  C   UNL     1      -8.767   6.460  66.516  1.00  0.00    -0.133 A  
ENDROOT
BRANCH   6  12
HETATM   12  N   UNL     1     -11.159   8.564  68.404  1.00  0.00    -0.353 NA 
HETATM   13  H   UNL     1     -12.051   8.074  68.324  1.00  0.00     0.000 HD 
BRANCH  12  14
HETATM   14  N   UNL     1     -11.051   9.727  68.846  1.00  0.00    -0.421 NA 
HETATM   15  H   UNL     1     -10.777   9.946  69.804  1.00  0.00     0.000 HD 
BRANCH  14  16
HETATM   16  C   UNL     1     -11.351  10.705  67.872  1.00  0.00    -0.268 A  
HETATM   17  C   UNL     1     -11.238  11.343  65.519  1.00  0.00    -0.140 A  
HETATM   18  C   UNL     1     -11.028  10.411  66.540  1.00  0.00    -0.016 A  
HETATM   19  C   UNL     1     -11.821  12.577  65.817  1.00  0.00    -0.437 A  
HETATM   20  C   UNL     1     -11.944  11.949  68.151  1.00  0.00    -0.222 A  
HETATM   21  C   UNL     1     -12.174  12.886  67.134  1.00  0.00    -0.131 A  
BRANCH  19  22
HETATM   22  S   UNL     1     -11.926  13.820  64.540  1.00  0.00    -0.443 S  
HETATM   23  O   UNL     1     -13.026  14.694  64.876  1.00  0.00    -0.481 OA 
HETATM   24  O   UNL     1     -11.903  13.113  63.273  1.00  0.00    -0.504 OA 
BRANCH  22  25
HETATM   25  N   UNL     1     -10.454  14.638  64.636  1.00  0.00    -0.560 N  
HETATM   26  H   UNL     1      -9.689  14.453  63.988  1.00  0.00     0.000 HD 
BRANCH  25  27
HETATM   27  C   UNL     1     -10.347  15.592  65.667  1.00  0.00    -0.385 A  
HETATM   28  N   UNL     1     -10.242  16.855  65.222  1.00  0.00    -0.603 NA 
HETATM   29  C   UNL     1     -10.217  17.820  66.169  1.00  0.00    -0.339 A  
HETATM   30  C   UNL     1     -10.265  17.567  67.532  1.00  0.00    -0.340 A  
HETATM   31  C   UNL     1     -10.340  16.244  67.954  1.00  0.00    -0.285 A  
HETATM   32  C   UNL     1     -10.384  15.228  67.002  1.00  0.00    -0.277 A  
ENDBRANCH  25  27
ENDBRANCH  22  25
ENDBRANCH  19  22
ENDBRANCH  14  16
ENDBRANCH  12  14
ENDBRANCH   6  12
TORSDOF 6
ENDMDL
MODEL      225
REMARK 921   NORMALIZED FREE ENERGY PREDICTED BY IDOCK:   -4.82 KCAL/MOL
REMARK 922        TOTAL FREE ENERGY PREDICTED BY IDOCK:   -7.04 KCAL/MOL
REMARK 923 INTER-LIGAND FREE ENERGY PREDICTED BY IDOCK:   -6.30 KCAL/MOL
REMARK 924 INTRA-LIGAND FREE ENERGY PREDICTED BY IDOCK:   -0.74 KCAL/MOL
REMARK 927      BINDING AFFINITY PREDICTED BY RF-SCORE:    0.00 PKD
ROOT
HETATM    1  O   UNL     1      -6.190   8.273  63.752  1.00  0.00    -0.070 OA 
HETATM    2  C   UNL     1      -6.811   9.351  64.279  1.00  0.00    -0.095 C  
HETATM    3  C   UNL     1      -7.777   9.036  65.365  1.00  0.00    -0.095 A  
HETATM    4  O   UNL     1      -6.640  10.484  63.860  1.00  0.00    -0.055 OA 
HETATM    5  C   UNL     1      -8.836   9.938  65.576  1.00  0.00    -0.186 A  
HETATM    6  C   UNL     1      -9.767   9.731  66.606  1.00  0.00    -0.201 A  
HETATM    7  C   UNL     1      -9.619   8.592  67.411  1.00  0.00    -0.204 A  
HETATM    8  O   UNL     1      -6.634   7.022  65.989  1.00  0.00    -0.049 OA 
HETATM    9  C   UNL     1      -7.654   7.915  66.192  1.00  0.00    -0.083 A  
HETATM   10  H   UNL     1      -6.550   6.260  66.551  1.00  0.00     0.000 HD 
HETATM   11  C   UNL     1      -8.570   7.688  67.215  1.00  0.00    -0.121 A  
ENDROOT
BRANCH   6  12
HETATM   12  N   UNL     1     -10.853  10.587  66.895  1.00  0.00    -0.226 NA 
HETATM   13  H   UNL     1     -11.457  10.472  67.710  1.00  0.00     0.000 HD 
BRANCH  12  14
HETATM   14  N   UNL     1     -10.999  11.498  66.054  1.00  0.00    -0.284 NA 
HETATM   15  H   UNL     1     -11.266  11.335  65.083  1.00  0.00     0.000 HD 
BRANCH  14  16
HETATM   16  C   UNL     1     -10.755  12.779  66.596  1.00  0.00    -0.261 A  
HETATM   17  C   UNL     1     -10.604  14.146  68.612  1.00  0.00    -0.253 A  
HETATM   18  C   UNL     1     -10.781  12.905  67.992  1.00  0.00    -0.244 A  
HETATM   19  C   UNL     1     -10.353  15.280  67.835  1.00  0.00    -0.246 A  
HETATM   20  C   UNL     1     -10.493  13.929  65.831  1.00  0.00    -0.309 A  
HETATM   21  C   UNL     1     -10.300  15.176  66.442  1.00  0.00    -0.292 A  
BRANCH  19  22
HETATM   22  S   UNL     1     -10.302  16.880  68.624  1.00  0.00    -0.353 S  
HETATM   23  O   UNL     1     -10.954  16.750  69.907  1.00  0.00    -0.293 OA 
HETATM   24  O   UNL     1     -10.779  17.839  67.645  1.00  0.00    -0.386 OA 
BRANCH  22  25
HETATM   25  N   UNL     1      -8.656  17.196  68.813  1.00  0.00    -0.261 N  
HETATM   26  H   UNL     1      -8.089  16.714  69.510  1.00  0.00     0.000 HD 
BRANCH  25  27
HETATM   27  C   UNL     1      -8.111  18.165  67.947  1.00  0.00    -0.247 A  
HETATM   28  N   UNL     1      -7.977  19.376  68.512  1.00  0.00    -0.351 NA 
HETATM   29  C   UNL     1      -7.384  20.325  67.752  1.00  0.00    -0.290 A  
HETATM   30  C   UNL     1      -6.952  20.115  66.451  1.00  0.00    -0.273 A  
HETATM   31  C   UNL     1      -7.139  18.857  65.890  1.00  0.00    -0.294 A  
HETATM   32  C   UNL     1      -7.732  17.853  66.653  1.00  0.00    -0.275 A  
ENDBRANCH  25  27
ENDBRANCH  22  25
ENDBRANCH  19  22
ENDBRANCH  14  16
ENDBRANCH  12  14
ENDBRANCH   6  12
TORSDOF 6
ENDMDL
MODEL      226
REMARK 921   NORMALIZED FREE ENERGY PREDICTED BY IDOCK:   -4.78 KCAL/MOL
REMARK 922        TOTAL FREE ENERGY PREDICTED BY IDOCK:   -6.98 KCAL/MOL
REMARK 923 INTER-LIGAND FREE ENERGY PREDICTED BY IDOCK:   -6.12 KCAL/MOL
REMARK 924 INTRA-LIGAND FREE ENERGY PREDICTED BY IDOCK:   -0.87 KCAL/MOL
REMARK 927      BINDING AFFINITY PREDICTED BY RF-SCORE:    0.00 PKD
ROOT
HETATM    1  O   UNL     1      -8.901   3.517  65.092  1.00  0.00    -0.114 OA 
HETATM    2  C   UNL     1      -9.388   4.603  65.731  1.00  0.00    -0.158 C  
HETATM    3  C   UNL     1      -8.358   5.603  66.120  1.00  0.00    -0.120 A  
HETATM    4  O   UNL     1     -10.568   4.730  66.017  1.00  0.00    -0.311 OA 
HETATM    5  C   UNL     1      -8.640   6.433  67.220  1.00  0.00    -0.110 A  
HETATM    6  C   UNL     1      -7.735   7.427  67.626  1.00  0.00    -0.112 A  
HETATM    7  C   UNL     1      -6.536   7.560  66.910  1.00  0.00    -0.056 A  
HETATM    8  O   UNL     1      -6.864   4.959  64.357  1.00  0.00    -0.046 OA 
HETATM    9  C   UNL     1      -7.156   5.769  65.423  1.00  0.00    -0.069 A  
HETATM   10  H   UNL     1      -6.048   5.071  63.884  1.00  0.00     0.000 HD 
HETATM   11  C   UNL     1      -6.243   6.744  65.813  1.00  0.00    -0.039 A  
ENDROOT
BRANCH   6  12
HETATM   12  N   UNL     1      -7.938   8.309  68.710  1.00  0.00    -0.112 NA 
HETATM   13  H   UNL     1      -7.191   8.616  69.333  1.00  0.00     0.000 HD 
BRANCH  12  14
HETATM   14  N   UNL     1      -9.126   8.676  68.829  1.00  0.00    -0.142 NA 
HETATM   15  H   UNL     1      -9.833   8.149  69.343  1.00  0.00     0.000 HD 
BRANCH  14  16
HETATM   16  C   UNL     1      -9.382   9.901  68.174  1.00  0.00    -0.131 A  
HETATM   17  C   UNL     1      -8.836  12.273  67.997  1.00  0.00    -0.182 A  
HETATM   18  C   UNL     1      -8.613  11.009  68.554  1.00  0.00    -0.158 A  
HETATM   19  C   UNL     1      -9.813  12.433  67.011  1.00  0.00    -0.211 A  
HETATM   20  C   UNL     1     -10.355  10.079  67.176  1.00  0.00    -0.300 A  
HETATM   21  C   UNL     1     -10.578  11.338  66.599  1.00  0.00    -0.309 A  
BRANCH  19  22
HETATM   22  S   UNL     1     -10.205  14.076  66.435  1.00  0.00    -0.299 S  
HETATM   23  O   UNL     1     -10.236  14.031  64.991  1.00  0.00    -0.386 OA 
HETATM   24  O   UNL     1      -9.307  14.981  67.127  1.00  0.00    -0.203 OA 
BRANCH  22  25
HETATM   25  N   UNL     1     -11.740  14.380  67.063  1.00  0.00    -0.385 N  
HETATM   26  H   UNL     1     -12.561  14.467  66.465  1.00  0.00     0.000 HD 
BRANCH  25  27
HETATM   27  C   UNL     1     -11.818  14.508  68.464  1.00  0.00    -0.320 A  
HETATM   28  N   UNL     1     -11.817  15.781  68.889  1.00  0.00    -0.389 NA 
HETATM   29  C   UNL     1     -11.972  15.964  70.220  1.00  0.00    -0.305 A  
HETATM   30  C   UNL     1     -12.099  14.929  71.133  1.00  0.00    -0.384 A  
HETATM   31  C   UNL     1     -12.062  13.623  70.657  1.00  0.00    -0.398 A  
HETATM   32  C   UNL     1     -11.921  13.401  69.289  1.00  0.00    -0.367 A  
ENDBRANCH  25  27
ENDBRANCH  22  25
ENDBRANCH  19  22
ENDBRANCH  14  16
ENDBRANCH  12  14
ENDBRANCH   6  12
TORSDOF 6
ENDMDL
MODEL      227
REMARK 921   NORMALIZED FREE ENERGY PREDICTED BY IDOCK:   -4.77 KCAL/MOL
REMARK 922        TOTAL FREE ENERGY PREDICTED BY IDOCK:   -6.96 KCAL/MOL
REMARK 923 INTER-LIGAND FREE ENERGY PREDICTED BY IDOCK:   -6.71 KCAL/MOL
REMARK 924 INTRA-LIGAND FREE ENERGY PREDICTED BY IDOCK:   -0.25 KCAL/MOL
REMARK 927      BINDING AFFINITY PREDICTED BY RF-SCORE:    0.00 PKD
ROOT
HETATM    1  O   UNL     1      -6.760  14.445  67.220  1.00  0.00    -0.269 OA 
HETATM    2  C   UNL     1      -7.734  14.112  68.094  1.00  0.00    -0.140 C  
HETATM    3  C   UNL     1      -8.561  12.947  67.682  1.00  0.00    -0.182 A  
HETATM    4  O   UNL     1      -7.956  14.748  69.112  1.00  0.00    -0.156 OA 
HETATM    5  C   UNL     1      -9.874  12.871  68.182  1.00  0.00    -0.227 A  
HETATM    6  C   UNL     1     -10.704  11.783  67.869  1.00  0.00    -0.204 A  
HETATM    7  C   UNL     1     -10.192  10.780  67.033  1.00  0.00    -0.261 A  
HETATM    8  O   UNL     1      -6.807  11.993  66.353  1.00  0.00    -0.344 OA 
HETATM    9  C   UNL     1      -8.079  11.925  66.857  1.00  0.00    -0.146 A  
HETATM   10  H   UNL     1      -6.479  11.298  65.794  1.00  0.00     0.000 HD 
HETATM   11  C   UNL     1      -8.889  10.841  66.531  1.00  0.00    -0.162 A  
ENDROOT
BRANCH   6  12
HETATM   12  N   UNL     1     -12.029  11.620  68.333  1.00  0.00    -0.533 NA 
HETATM   13  H   UNL     1     -12.805  11.346  67.731  1.00  0.00     0.000 HD 
BRANCH  12  14
HETATM   14  N   UNL     1     -12.153  11.845  69.555  1.00  0.00    -0.262 NA 
HETATM   15  H   UNL     1     -12.339  12.770  69.945  1.00  0.00     0.000 HD 
BRANCH  14  16
HETATM   16  C   UNL     1     -12.009  10.678  70.337  1.00  0.00    -0.346 A  
HETATM   17  C   UNL     1     -10.580   8.797  70.950  1.00  0.00    -0.276 A  
HETATM   18  C   UNL     1     -10.789   9.991  70.254  1.00  0.00    -0.370 A  
HETATM   19  C   UNL     1     -11.584   8.294  71.781  1.00  0.00    -0.299 A  
HETATM   20  C   UNL     1     -13.004  10.161  71.184  1.00  0.00    -0.488 A  
HETATM   21  C   UNL     1     -12.801   8.972  71.899  1.00  0.00    -0.451 A  
BRANCH  19  22
HETATM   22  S   UNL     1     -11.371   6.686  72.527  1.00  0.00    -0.227 S  
HETATM   23  O   UNL     1     -12.656   6.024  72.501  1.00  0.00    -0.066 OA 
HETATM   24  O   UNL     1     -10.675   6.901  73.781  1.00  0.00    -0.347 OA 
BRANCH  22  25
HETATM   25  N   UNL     1     -10.269   5.904  71.517  1.00  0.00    -0.199 N  
HETATM   26  H   UNL     1     -10.138   6.178  70.544  1.00  0.00     0.000 HD 
BRANCH  25  27
HETATM   27  C   UNL     1      -9.539   4.850  72.102  1.00  0.00    -0.152 A  
HETATM   28  N   UNL     1      -8.245   5.141  72.307  1.00  0.00    -0.119 NA 
HETATM   29  C   UNL     1      -7.515   4.195  72.940  1.00  0.00    -0.074 A  
HETATM   30  C   UNL     1      -8.021   2.970  73.345  1.00  0.00    -0.065 A  
HETATM   31  C   UNL     1      -9.359   2.692  73.084  1.00  0.00    -0.115 A  
HETATM   32  C   UNL     1     -10.142   3.653  72.449  1.00  0.00    -0.233 A  
ENDBRANCH  25  27
ENDBRANCH  22  25
ENDBRANCH  19  22
ENDBRANCH  14  16
ENDBRANCH  12  14
ENDBRANCH   6  12
TORSDOF 6
ENDMDL
MODEL      228
REMARK 921   NORMALIZED FREE ENERGY PREDICTED BY IDOCK:   -4.75 KCAL/MOL
REMARK 922        TOTAL FREE ENERGY PREDICTED BY IDOCK:   -6.93 KCAL/MOL
REMARK 923 INTER-LIGAND FREE ENERGY PREDICTED BY IDOCK:   -6.14 KCAL/MOL
REMARK 924 INTRA-LIGAND FREE ENERGY PREDICTED BY IDOCK:   -0.80 KCAL/MOL
REMARK 927      BINDING AFFINITY PREDICTED BY RF-SCORE:    0.00 PKD
ROOT
HETATM    1  O   UNL     1     -13.518  12.646  71.518  1.00  0.00    -0.220 OA 
HETATM    2  C   UNL     1     -12.654  11.678  71.143  1.00  0.00    -0.335 C  
HETATM    3  C   UNL     1     -11.895  11.976  69.900  1.00  0.00    -0.405 A  
HETATM    4  O   UNL     1     -12.545  10.620  71.742  1.00  0.00    -0.390 OA 
HETATM    5  C   UNL     1     -11.431  10.885  69.143  1.00  0.00    -0.373 A  
HETATM    6  C   UNL     1     -10.674  11.085  67.977  1.00  0.00    -0.217 A  
HETATM    7  C   UNL     1     -10.405  12.403  67.581  1.00  0.00    -0.223 A  
HETATM    8  O   UNL     1     -12.058  14.350  70.202  1.00  0.00    -0.294 OA 
HETATM    9  C   UNL     1     -11.601  13.278  69.481  1.00  0.00    -0.286 A  
HETATM   10  H   UNL     1     -11.858  15.235  69.918  1.00  0.00     0.000 HD 
HETATM   11  C   UNL     1     -10.857  13.497  68.325  1.00  0.00    -0.277 A  
ENDROOT
BRANCH   6  12
HETATM   12  N   UNL     1     -10.160  10.051  67.162  1.00  0.00    -0.201 NA 
HETATM   13  H   UNL     1      -9.217  10.057  66.775  1.00  0.00     0.000 HD 
BRANCH  12  14
HETATM   14  N   UNL     1     -10.979   9.128  66.965  1.00  0.00    -0.226 NA 
HETATM   15  H   UNL     1     -11.937   9.279  66.651  1.00  0.00     0.000 HD 
BRANCH  14  16
HETATM   16  C   UNL     1     -10.428   7.853  67.224  1.00  0.00    -0.320 A  
HETATM   17  C   UNL     1      -8.422   6.563  67.740  1.00  0.00    -0.118 A  
HETATM   18  C   UNL     1      -9.061   7.789  67.524  1.00  0.00    -0.136 A  
HETATM   19  C   UNL     1      -9.163   5.379  67.700  1.00  0.00    -0.112 A  
HETATM   20  C   UNL     1     -11.158   6.652  67.196  1.00  0.00    -0.427 A  
HETATM   21  C   UNL     1     -10.532   5.419  67.425  1.00  0.00    -0.253 A  
BRANCH  19  22
HETATM   22  S   UNL     1      -8.307   3.815  67.805  1.00  0.00    -0.094 S  
HETATM   23  O   UNL     1      -7.273   3.820  66.795  1.00  0.00    -0.065 OA 
HETATM   24  O   UNL     1      -9.329   2.786  67.813  1.00  0.00    -0.194 OA 
BRANCH  22  25
HETATM   25  N   UNL     1      -7.639   3.812  69.354  1.00  0.00    -0.052 N  
HETATM   26  H   UNL     1      -6.641   3.948  69.512  1.00  0.00     0.000 HD 
BRANCH  25  27
HETATM   27  C   UNL     1      -8.545   3.610  70.414  1.00  0.00    -0.066 A  
HETATM   28  N   UNL     1      -8.639   2.329  70.804  1.00  0.00    -0.050 NA 
HETATM   29  C   UNL     1      -9.433   2.089  71.872  1.00  0.00    -0.110 A  
HETATM   30  C   UNL     1     -10.149   3.070  72.540  1.00  0.00    -0.232 A  
HETATM   31  C   UNL     1     -10.051   4.381  72.085  1.00  0.00    -0.262 A  
HETATM   32  C   UNL     1      -9.229   4.664  70.997  1.00  0.00    -0.195 A  
ENDBRANCH  25  27
ENDBRANCH  22  25
ENDBRANCH  19  22
ENDBRANCH  14  16
ENDBRANCH  12  14
ENDBRANCH   6  12
TORSDOF 6
ENDMDL
MODEL      229
REMARK 921   NORMALIZED FREE ENERGY PREDICTED BY IDOCK:   -4.74 KCAL/MOL
REMARK 922        TOTAL FREE ENERGY PREDICTED BY IDOCK:   -6.92 KCAL/MOL
REMARK 923 INTER-LIGAND FREE ENERGY PREDICTED BY IDOCK:   -6.41 KCAL/MOL
REMARK 924 INTRA-LIGAND FREE ENERGY PREDICTED BY IDOCK:   -0.51 KCAL/MOL
REMARK 927      BINDING AFFINITY PREDICTED BY RF-SCORE:    0.00 PKD
ROOT
HETATM    1  O   UNL     1      -8.934   2.224  62.867  1.00  0.00    -0.084 OA 
HETATM    2  C   UNL     1      -9.453   3.407  63.262  1.00  0.00    -0.100 C  
HETATM    3  C   UNL     1      -8.765   4.025  64.427  1.00  0.00    -0.125 A  
HETATM    4  O   UNL     1     -10.441   3.903  62.744  1.00  0.00    -0.191 OA 
HETATM    5  C   UNL     1      -9.514   4.898  65.238  1.00  0.00    -0.106 A  
HETATM    6  C   UNL     1      -8.925   5.550  66.333  1.00  0.00    -0.131 A  
HETATM    7  C   UNL     1      -7.573   5.296  66.604  1.00  0.00    -0.088 A  
HETATM    8  O   UNL     1      -6.679   2.943  63.947  1.00  0.00    -0.030 OA 
HETATM    9  C   UNL     1      -7.416   3.800  64.721  1.00  0.00    -0.073 A  
HETATM   10  H   UNL     1      -5.763   2.791  64.146  1.00  0.00     0.000 HD 
HETATM   11  C   UNL     1      -6.815   4.432  65.806  1.00  0.00    -0.058 A  
ENDROOT
BRANCH   6  12
HETATM   12  N   UNL     1      -9.596   6.447  67.193  1.00  0.00    -0.130 NA 
HETATM   13  H   UNL     1      -9.443   6.480  68.201  1.00  0.00     0.000 HD 
BRANCH  12  14
HETATM   14  N   UNL     1     -10.396   7.197  66.594  1.00  0.00    -0.473 NA 
HETATM   15  H   UNL     1     -11.190   6.860  66.050  1.00  0.00     0.000 HD 
BRANCH  14  16
HETATM   16  C   UNL     1     -10.078   8.564  66.755  1.00  0.00    -0.299 A  
HETATM   17  C   UNL     1      -8.570  10.392  66.169  1.00  0.00    -0.151 A  
HETATM   18  C   UNL     1      -8.989   9.064  66.029  1.00  0.00    -0.227 A  
HETATM   19  C   UNL     1      -9.273  11.253  67.016  1.00  0.00    -0.165 A  
HETATM   20  C   UNL     1     -10.777   9.448  67.595  1.00  0.00    -0.295 A  
HETATM   21  C   UNL     1     -10.377  10.784  67.734  1.00  0.00    -0.226 A  
BRANCH  19  22
HETATM   22  S   UNL     1      -8.628  12.891  67.317  1.00  0.00    -0.204 S  
HETATM   23  O   UNL     1      -7.186  12.793  67.321  1.00  0.00    -0.145 OA 
HETATM   24  O   UNL     1      -9.337  13.407  68.473  1.00  0.00    -0.181 OA 
BRANCH  22  25
HETATM   25  N   UNL     1      -9.169  13.798  66.002  1.00  0.00    -0.497 N  
HETATM   26  H   UNL     1      -8.672  14.626  65.676  1.00  0.00     0.000 HD 
BRANCH  25  27
HETATM   27  C   UNL     1     -10.348  13.339  65.382  1.00  0.00    -0.306 A  
HETATM   28  N   UNL     1     -11.469  13.849  65.915  1.00  0.00    -0.318 NA 
HETATM   29  C   UNL     1     -12.627  13.507  65.307  1.00  0.00    -0.468 A  
HETATM   30  C   UNL     1     -12.704  12.660  64.212  1.00  0.00    -0.394 A  
HETATM   31  C   UNL     1     -11.523  12.126  63.708  1.00  0.00    -0.548 A  
HETATM   32  C   UNL     1     -10.312  12.472  64.303  1.00  0.00    -0.396 A  
ENDBRANCH  25  27
ENDBRANCH  22  25
ENDBRANCH  19  22
ENDBRANCH  14  16
ENDBRANCH  12  14
ENDBRANCH   6  12
TORSDOF 6
ENDMDL
MODEL      230
REMARK 921   NORMALIZED FREE ENERGY PREDICTED BY IDOCK:   -4.73 KCAL/MOL
REMARK 922        TOTAL FREE ENERGY PREDICTED BY IDOCK:   -6.91 KCAL/MOL
REMARK 923 INTER-LIGAND FREE ENERGY PREDICTED BY IDOCK:   -6.35 KCAL/MOL
REMARK 924 INTRA-LIGAND FREE ENERGY PREDICTED BY IDOCK:   -0.56 KCAL/MOL
REMARK 927      BINDING AFFINITY PREDICTED BY RF-SCORE:    0.00 PKD
ROOT
HETATM    1  O   UNL     1      -8.515  18.576  67.558  1.00  0.00    -0.258 OA 
HETATM    2  C   UNL     1      -8.913  17.397  67.031  1.00  0.00    -0.242 C  
HETATM    3  C   UNL     1      -9.718  16.552  67.952  1.00  0.00    -0.236 A  
HETATM    4  O   UNL     1      -8.590  17.029  65.914  1.00  0.00    -0.521 OA 
HETATM    5  C   UNL     1      -9.697  15.160  67.744  1.00  0.00    -0.211 A  
HETATM    6  C   UNL     1     -10.461  14.298  68.546  1.00  0.00    -0.253 A  
HETATM    7  C   UNL     1     -11.236  14.862  69.570  1.00  0.00    -0.300 A  
HETATM    8  O   UNL     1     -10.529  18.434  69.198  1.00  0.00    -0.447 OA 
HETATM    9  C   UNL     1     -10.509  17.082  68.977  1.00  0.00    -0.337 A  
HETATM   10  H   UNL     1     -11.067  18.794  69.894  1.00  0.00     0.000 HD 
HETATM   11  C   UNL     1     -11.269  16.243  69.787  1.00  0.00    -0.314 A  
ENDROOT
BRANCH   6  12
HETATM   12  N   UNL     1     -10.507  12.893  68.404  1.00  0.00    -0.247 NA 
HETATM   13  H   UNL     1     -11.318  12.392  68.040  1.00  0.00     0.000 HD 
BRANCH  12  14
HETATM   14  N   UNL     1      -9.455  12.327  68.768  1.00  0.00    -0.403 NA 
HETATM   15  H   UNL     1      -8.578  12.818  68.940  1.00  0.00     0.000 HD 
BRANCH  14  16
HETATM   16  C   UNL     1      -9.617  10.932  68.917  1.00  0.00    -0.181 A  
HETATM   17  C   UNL     1      -9.092   8.713  68.046  1.00  0.00    -0.144 A  
HETATM   18  C   UNL     1      -8.945  10.103  68.007  1.00  0.00    -0.125 A  
HETATM   19  C   UNL     1      -9.887   8.128  69.035  1.00  0.00    -0.176 A  
HETATM   20  C   UNL     1     -10.406  10.325  69.909  1.00  0.00    -0.281 A  
HETATM   21  C   UNL     1     -10.549   8.931  69.968  1.00  0.00    -0.234 A  
BRANCH  19  22
HETATM   22  S   UNL     1     -10.204   6.372  68.969  1.00  0.00    -0.201 S  
HETATM   23  O   UNL     1     -11.612   6.177  69.231  1.00  0.00    -0.329 OA 
HETATM   24  O   UNL     1      -9.202   5.740  69.805  1.00  0.00    -0.136 OA 
BRANCH  22  25
HETATM   25  N   UNL     1      -9.819   5.941  67.384  1.00  0.00    -0.122 N  
HETATM   26  H   UNL     1     -10.117   6.499  66.585  1.00  0.00     0.000 HD 
BRANCH  25  27
HETATM   27  C   UNL     1      -9.061   4.763  67.233  1.00  0.00    -0.119 A  
HETATM   28  N   UNL     1      -7.747   4.986  67.072  1.00  0.00    -0.091 NA 
HETATM   29  C   UNL     1      -6.961   3.888  67.003  1.00  0.00    -0.059 A  
HETATM   30  C   UNL     1      -7.441   2.589  67.062  1.00  0.00    -0.065 A  
HETATM   31  C   UNL     1      -8.812   2.399  67.196  1.00  0.00    -0.154 A  
HETATM   32  C   UNL     1      -9.647   3.510  67.286  1.00  0.00    -0.166 A  
ENDBRANCH  25  27
ENDBRANCH  22  25
ENDBRANCH  19  22
ENDBRANCH  14  16
ENDBRANCH  12  14
ENDBRANCH   6  12
TORSDOF 6
ENDMDL
MODEL      231
REMARK 921   NORMALIZED FREE ENERGY PREDICTED BY IDOCK:   -4.70 KCAL/MOL
REMARK 922        TOTAL FREE ENERGY PREDICTED BY IDOCK:   -6.87 KCAL/MOL
REMARK 923 INTER-LIGAND FREE ENERGY PREDICTED BY IDOCK:   -6.28 KCAL/MOL
REMARK 924 INTRA-LIGAND FREE ENERGY PREDICTED BY IDOCK:   -0.59 KCAL/MOL
REMARK 927      BINDING AFFINITY PREDICTED BY RF-SCORE:    0.00 PKD
ROOT
HETATM    1  O   UNL     1      -5.197   5.922  69.945  1.00  0.00    -0.008 OA 
HETATM    2  C   UNL     1      -6.351   6.590  70.162  1.00  0.00    -0.039 C  
HETATM    3  C   UNL     1      -7.490   6.145  69.315  1.00  0.00    -0.089 A  
HETATM    4  O   UNL     1      -6.440   7.520  70.947  1.00  0.00    -0.038 OA 
HETATM    5  C   UNL     1      -8.508   7.079  69.050  1.00  0.00    -0.129 A  
HETATM    6  C   UNL     1      -9.634   6.724  68.291  1.00  0.00    -0.127 A  
HETATM    7  C   UNL     1      -9.710   5.415  67.793  1.00  0.00    -0.160 A  
HETATM    8  O   UNL     1      -6.610   3.930  69.050  1.00  0.00    -0.039 OA 
HETATM    9  C   UNL     1      -7.601   4.845  68.810  1.00  0.00    -0.069 A  
HETATM   10  H   UNL     1      -6.685   3.047  68.707  1.00  0.00     0.000 HD 
HETATM   11  C   UNL     1      -8.706   4.475  68.050  1.00  0.00    -0.115 A  
ENDROOT
BRANCH   6  12
HETATM   12  N   UNL     1     -10.707   7.592  67.984  1.00  0.00    -0.412 NA 
HETATM   13  H   UNL     1     -11.330   7.455  67.188  1.00  0.00     0.000 HD 
BRANCH  12  14
HETATM   14  N   UNL     1     -10.814   8.543  68.787  1.00  0.00    -0.432 NA 
HETATM   15  H   UNL     1     -10.832   8.429  69.801  1.00  0.00     0.000 HD 
BRANCH  14  16
HETATM   16  C   UNL     1     -10.909   9.792  68.135  1.00  0.00    -0.214 A  
HETATM   17  C   UNL     1     -10.285  11.133  66.193  1.00  0.00    -0.293 A  
HETATM   18  C   UNL     1     -10.289   9.917  66.884  1.00  0.00    -0.300 A  
HETATM   19  C   UNL     1     -10.948  12.238  66.733  1.00  0.00    -0.276 A  
HETATM   20  C   UNL     1     -11.577  10.912  68.658  1.00  0.00    -0.373 A  
HETATM   21  C   UNL     1     -11.594  12.133  67.968  1.00  0.00    -0.411 A  
BRANCH  19  22
HETATM   22  S   UNL     1     -10.790  13.824  65.928  1.00  0.00    -0.287 S  
HETATM   23  O   UNL     1     -11.550  13.762  64.700  1.00  0.00    -0.349 OA 
HETATM   24  O   UNL     1      -9.374  14.137  65.907  1.00  0.00    -0.161 OA 
BRANCH  22  25
HETATM   25  N   UNL     1     -11.486  14.910  67.014  1.00  0.00    -0.349 N  
HETATM   26  H   UNL     1     -12.403  14.749  67.428  1.00  0.00     0.000 HD 
BRANCH  25  27
HETATM   27  C   UNL     1     -10.721  16.055  67.314  1.00  0.00    -0.295 A  
HETATM   28  N   UNL     1     -10.234  16.064  68.566  1.00  0.00    -0.229 NA 
HETATM   29  C   UNL     1      -9.425  17.100  68.883  1.00  0.00    -0.217 A  
HETATM   30  C   UNL     1      -9.112  18.132  68.011  1.00  0.00    -0.289 A  
HETATM   31  C   UNL     1      -9.663  18.104  66.733  1.00  0.00    -0.324 A  
HETATM   32  C   UNL     1     -10.487  17.041  66.371  1.00  0.00    -0.252 A  
ENDBRANCH  25  27
ENDBRANCH  22  25
ENDBRANCH  19  22
ENDBRANCH  14  16
ENDBRANCH  12  14
ENDBRANCH   6  12
TORSDOF 6
ENDMDL
MODEL      232
REMARK 921   NORMALIZED FREE ENERGY PREDICTED BY IDOCK:   -4.69 KCAL/MOL
REMARK 922        TOTAL FREE ENERGY PREDICTED BY IDOCK:   -6.86 KCAL/MOL
REMARK 923 INTER-LIGAND FREE ENERGY PREDICTED BY IDOCK:   -5.79 KCAL/MOL
REMARK 924 INTRA-LIGAND FREE ENERGY PREDICTED BY IDOCK:   -1.07 KCAL/MOL
REMARK 927      BINDING AFFINITY PREDICTED BY RF-SCORE:    0.00 PKD
ROOT
HETATM    1  O   UNL     1     -14.144   9.129  72.266  1.00  0.00    -0.437 OA 
HETATM    2  C   UNL     1     -12.902   9.452  71.845  1.00  0.00    -0.412 C  
HETATM    3  C   UNL     1     -11.934   8.323  71.857  1.00  0.00    -0.383 A  
HETATM    4  O   UNL     1     -12.583  10.588  71.535  1.00  0.00    -0.382 OA 
HETATM    5  C   UNL     1     -10.569   8.638  71.990  1.00  0.00    -0.421 A  
HETATM    6  C   UNL     1      -9.591   7.632  71.972  1.00  0.00    -0.157 A  
HETATM    7  C   UNL     1     -10.013   6.302  71.831  1.00  0.00    -0.193 A  
HETATM    8  O   UNL     1     -13.647   6.666  71.592  1.00  0.00    -0.190 OA 
HETATM    9  C   UNL     1     -12.320   6.987  71.710  1.00  0.00    -0.354 A  
HETATM   10  H   UNL     1     -13.910   5.758  71.491  1.00  0.00     0.000 HD 
HETATM   11  C   UNL     1     -11.366   5.974  71.695  1.00  0.00    -0.313 A  
ENDROOT
BRANCH   6  12
HETATM   12  N   UNL     1      -8.200   7.856  72.089  1.00  0.00    -0.115 NA 
HETATM   13  H   UNL     1      -7.764   8.252  72.922  1.00  0.00     0.000 HD 
BRANCH  12  14
HETATM   14  N   UNL     1      -7.561   7.521  71.071  1.00  0.00    -0.083 NA 
HETATM   15  H   UNL     1      -7.270   6.563  70.874  1.00  0.00     0.000 HD 
BRANCH  14  16
HETATM   16  C   UNL     1      -7.285   8.615  70.221  1.00  0.00    -0.049 A  
HETATM   17  C   UNL     1      -6.609  10.954  70.061  1.00  0.00    -0.151 A  
HETATM   18  C   UNL     1      -6.851   9.805  70.821  1.00  0.00    -0.065 A  
HETATM   19  C   UNL     1      -6.758  10.911  68.672  1.00  0.00    -0.059 A  
HETATM   20  C   UNL     1      -7.422   8.589  68.822  1.00  0.00    -0.092 A  
HETATM   21  C   UNL     1      -7.168   9.730  68.048  1.00  0.00    -0.080 A  
BRANCH  19  22
HETATM   22  S   UNL     1      -6.614  12.424  67.736  1.00  0.00    -0.130 S  
HETATM   23  O   UNL     1      -6.606  12.066  66.335  1.00  0.00     0.103 OA 
HETATM   24  O   UNL     1      -5.510  13.165  68.316  1.00  0.00    -0.074 OA 
BRANCH  22  25
HETATM   25  N   UNL     1      -8.007  13.290  68.130  1.00  0.00    -0.140 N  
HETATM   26  H   UNL     1      -8.142  13.707  69.050  1.00  0.00     0.000 HD 
BRANCH  25  27
HETATM   27  C   UNL     1      -8.972  13.401  67.110  1.00  0.00    -0.226 A  
HETATM   28  N   UNL     1      -9.748  12.312  66.982  1.00  0.00    -0.201 NA 
HETATM   29  C   UNL     1     -10.744  12.395  66.072  1.00  0.00    -0.261 A  
HETATM   30  C   UNL     1     -10.973  13.505  65.274  1.00  0.00    -0.303 A  
HETATM   31  C   UNL     1     -10.127  14.601  65.413  1.00  0.00    -0.403 A  
HETATM   32  C   UNL     1      -9.101  14.553  66.353  1.00  0.00    -0.217 A  
ENDBRANCH  25  27
ENDBRANCH  22  25
ENDBRANCH  19  22
ENDBRANCH  14  16
ENDBRANCH  12  14
ENDBRANCH   6  12
TORSDOF 6
ENDMDL
MODEL      233
REMARK 921   NORMALIZED FREE ENERGY PREDICTED BY IDOCK:   -4.68 KCAL/MOL
REMARK 922        TOTAL FREE ENERGY PREDICTED BY IDOCK:   -6.85 KCAL/MOL
REMARK 923 INTER-LIGAND FREE ENERGY PREDICTED BY IDOCK:   -6.49 KCAL/MOL
REMARK 924 INTRA-LIGAND FREE ENERGY PREDICTED BY IDOCK:   -0.36 KCAL/MOL
REMARK 927      BINDING AFFINITY PREDICTED BY RF-SCORE:    0.00 PKD
ROOT
HETATM    1  O   UNL     1      -8.104   4.758  69.648  1.00  0.00    -0.065 OA 
HETATM    2  C   UNL     1      -9.174   5.556  69.856  1.00  0.00    -0.138 C  
HETATM    3  C   UNL     1      -9.524   6.431  68.706  1.00  0.00    -0.127 A  
HETATM    4  O   UNL     1      -9.771   5.599  70.920  1.00  0.00    -0.164 OA 
HETATM    5  C   UNL     1     -10.202   7.632  68.985  1.00  0.00    -0.211 A  
HETATM    6  C   UNL     1     -10.600   8.493  67.950  1.00  0.00    -0.156 A  
HETATM    7  C   UNL     1     -10.292   8.128  66.631  1.00  0.00    -0.284 A  
HETATM    8  O   UNL     1      -8.570   4.933  67.094  1.00  0.00    -0.106 OA 
HETATM    9  C   UNL     1      -9.240   6.094  67.379  1.00  0.00    -0.112 A  
HETATM   10  H   UNL     1      -8.377   4.703  66.193  1.00  0.00     0.000 HD 
HETATM   11  C   UNL     1      -9.622   6.937  66.339  1.00  0.00    -0.152 A  
ENDROOT
BRANCH   6  12
HETATM   12  N   UNL     1     -11.291   9.712  68.136  1.00  0.00    -0.500 NA 
HETATM   13  H   UNL     1     -12.262   9.855  67.856  1.00  0.00     0.000 HD 
BRANCH  12  14
HETATM   14  N   UNL     1     -10.594  10.595  68.677  1.00  0.00    -0.190 NA 
HETATM   15  H   UNL     1     -10.120  10.473  69.572  1.00  0.00     0.000 HD 
BRANCH  14  16
HETATM   16  C   UNL     1     -10.534  11.780  67.912  1.00  0.00    -0.196 A  
HETATM   17  C   UNL     1      -9.154  13.632  67.123  1.00  0.00    -0.241 A  
HETATM   18  C   UNL     1      -9.293  12.425  67.815  1.00  0.00    -0.196 A  
HETATM   19  C   UNL     1     -10.259  14.192  66.477  1.00  0.00    -0.278 A  
HETATM   20  C   UNL     1     -11.632  12.354  67.249  1.00  0.00    -0.435 A  
HETATM   21  C   UNL     1     -11.503  13.557  66.540  1.00  0.00    -0.365 A  
BRANCH  19  22
HETATM   22  S   UNL     1     -10.109  15.814  65.747  1.00  0.00    -0.388 S  
HETATM   23  O   UNL     1     -10.888  15.813  64.529  1.00  0.00    -0.467 OA 
HETATM   24  O   UNL     1      -8.693  16.125  65.719  1.00  0.00    -0.334 OA 
BRANCH  22  25
HETATM   25  N   UNL     1     -10.786  16.849  66.894  1.00  0.00    -0.199 N  
HETATM   26  H   UNL     1     -11.106  17.787  66.655  1.00  0.00     0.000 HD 
BRANCH  25  27
HETATM   27  C   UNL     1     -10.881  16.338  68.204  1.00  0.00    -0.342 A  
HETATM   28  N   UNL     1     -12.105  15.884  68.517  1.00  0.00    -0.058 NA 
HETATM   29  C   UNL     1     -12.234  15.308  69.733  1.00  0.00    -0.294 A  
HETATM   30  C   UNL     1     -11.200  15.197  70.649  1.00  0.00    -0.321 A  
HETATM   31  C   UNL     1      -9.954  15.708  70.301  1.00  0.00     0.081 A  
HETATM   32  C   UNL     1      -9.785  16.293  69.048  1.00  0.00    -0.252 A  
ENDBRANCH  25  27
ENDBRANCH  22  25
ENDBRANCH  19  22
ENDBRANCH  14  16
ENDBRANCH  12  14
ENDBRANCH   6  12
TORSDOF 6
ENDMDL
MODEL      234
REMARK 921   NORMALIZED FREE ENERGY PREDICTED BY IDOCK:   -4.67 KCAL/MOL
REMARK 922        TOTAL FREE ENERGY PREDICTED BY IDOCK:   -6.83 KCAL/MOL
REMARK 923 INTER-LIGAND FREE ENERGY PREDICTED BY IDOCK:   -6.51 KCAL/MOL
REMARK 924 INTRA-LIGAND FREE ENERGY PREDICTED BY IDOCK:   -0.32 KCAL/MOL
REMARK 927      BINDING AFFINITY PREDICTED BY RF-SCORE:    0.00 PKD
ROOT
HETATM    1  O   UNL     1     -10.694   5.664  66.829  1.00  0.00    -0.291 OA 
HETATM    2  C   UNL     1      -9.543   6.322  67.086  1.00  0.00    -0.132 C  
HETATM    3  C   UNL     1      -9.555   7.118  68.342  1.00  0.00    -0.137 A  
HETATM    4  O   UNL     1      -8.590   6.312  66.324  1.00  0.00    -0.127 OA 
HETATM    5  C   UNL     1      -8.694   8.229  68.417  1.00  0.00    -0.133 A  
HETATM    6  C   UNL     1      -8.620   9.008  69.583  1.00  0.00    -0.137 A  
HETATM    7  C   UNL     1      -9.439   8.656  70.666  1.00  0.00    -0.218 A  
HETATM    8  O   UNL     1     -11.204   5.719  69.379  1.00  0.00    -0.321 OA 
HETATM    9  C   UNL     1     -10.352   6.791  69.444  1.00  0.00    -0.199 A  
HETATM   10  H   UNL     1     -11.745   5.496  70.128  1.00  0.00     0.000 HD 
HETATM   11  C   UNL     1     -10.298   7.554  70.607  1.00  0.00    -0.211 A  
ENDROOT
BRANCH   6  12
HETATM   12  N   UNL     1      -7.780  10.131  69.750  1.00  0.00    -0.162 NA 
HETATM   13  H   UNL     1      -7.438  10.447  70.657  1.00  0.00     0.000 HD 
BRANCH  12  14
HETATM   14  N   UNL     1      -7.497  10.698  68.673  1.00  0.00    -0.092 NA 
HETATM   15  H   UNL     1      -6.746  10.394  68.053  1.00  0.00     0.000 HD 
BRANCH  14  16
HETATM   16  C   UNL     1      -8.333  11.806  68.411  1.00  0.00    -0.153 A  
HETATM   17  C   UNL     1     -10.571  12.579  67.819  1.00  0.00    -0.235 A  
HETATM   18  C   UNL     1      -9.684  11.547  68.143  1.00  0.00    -0.192 A  
HETATM   19  C   UNL     1     -10.119  13.901  67.802  1.00  0.00    -0.241 A  
HETATM   20  C   UNL     1      -7.899  13.143  68.396  1.00  0.00    -0.135 A  
HETATM   21  C   UNL     1      -8.781  14.188  68.087  1.00  0.00    -0.181 A  
BRANCH  19  22
HETATM   22  S   UNL     1     -11.214  15.186  67.220  1.00  0.00    -0.294 S  
HETATM   23  O   UNL     1     -10.826  16.413  67.878  1.00  0.00    -0.333 OA 
HETATM   24  O   UNL     1     -12.563  14.670  67.353  1.00  0.00     0.115 OA 
BRANCH  22  25
HETATM   25  N   UNL     1     -10.913  15.267  65.563  1.00  0.00    -0.350 N  
HETATM   26  H   UNL     1     -10.597  16.125  65.112  1.00  0.00     0.000 HD 
BRANCH  25  27
HETATM   27  C   UNL     1     -11.126  14.077  64.839  1.00  0.00    -0.375 A  
HETATM   28  N   UNL     1     -12.419  13.837  64.567  1.00  0.00    -0.623 NA 
HETATM   29  C   UNL     1     -12.675  12.750  63.805  1.00  0.00    -0.180 A  
HETATM   30  C   UNL     1     -11.696  11.888  63.333  1.00  0.00    -0.500 A  
HETATM   31  C   UNL     1     -10.371  12.153  63.664  1.00  0.00    -0.482 A  
HETATM   32  C   UNL     1     -10.073  13.275  64.434  1.00  0.00    -0.190 A  
ENDBRANCH  25  27
ENDBRANCH  22  25
ENDBRANCH  19  22
ENDBRANCH  14  16
ENDBRANCH  12  14
ENDBRANCH   6  12
TORSDOF 6
ENDMDL
MODEL      235
REMARK 921   NORMALIZED FREE ENERGY PREDICTED BY IDOCK:   -4.67 KCAL/MOL
REMARK 922        TOTAL FREE ENERGY PREDICTED BY IDOCK:   -6.83 KCAL/MOL
REMARK 923 INTER-LIGAND FREE ENERGY PREDICTED BY IDOCK:   -5.84 KCAL/MOL
REMARK 924 INTRA-LIGAND FREE ENERGY PREDICTED BY IDOCK:   -0.99 KCAL/MOL
REMARK 927      BINDING AFFINITY PREDICTED BY RF-SCORE:    0.00 PKD
ROOT
HETATM    1  O   UNL     1      -9.824   3.531  63.494  1.00  0.00    -0.132 OA 
HETATM    2  C   UNL     1      -8.948   3.625  64.518  1.00  0.00    -0.122 C  
HETATM    3  C   UNL     1      -9.300   4.647  65.539  1.00  0.00    -0.159 A  
HETATM    4  O   UNL     1      -7.921   2.968  64.573  1.00  0.00    -0.081 OA 
HETATM    5  C   UNL     1      -8.250   5.207  66.289  1.00  0.00    -0.109 A  
HETATM    6  C   UNL     1      -8.505   6.149  67.298  1.00  0.00    -0.104 A  
HETATM    7  C   UNL     1      -9.836   6.528  67.527  1.00  0.00    -0.150 A  
HETATM    8  O   UNL     1     -11.648   4.513  65.067  1.00  0.00    -1.101 OA 
HETATM    9  C   UNL     1     -10.617   5.041  65.799  1.00  0.00    -0.109 A  
HETATM   10  H   UNL     1     -12.543   4.780  65.245  1.00  0.00     0.000 HD 
HETATM   11  C   UNL     1     -10.890   5.979  66.791  1.00  0.00    -0.356 A  
ENDROOT
BRANCH   6  12
HETATM   12  N   UNL     1      -7.515   6.755  68.105  1.00  0.00    -0.096 NA 
HETATM   13  H   UNL     1      -7.440   6.602  69.111  1.00  0.00     0.000 HD 
BRANCH  12  14
HETATM   14  N   UNL     1      -6.742   7.495  67.462  1.00  0.00    -0.065 NA 
HETATM   15  H   UNL     1      -6.058   7.151  66.788  1.00  0.00     0.000 HD 
BRANCH  14  16
HETATM   16  C   UNL     1      -6.920   8.862  67.773  1.00  0.00    -0.075 A  
HETATM   17  C   UNL     1      -6.911  11.159  66.950  1.00  0.00    -0.127 A  
HETATM   18  C   UNL     1      -6.804   9.783  66.723  1.00  0.00    -0.084 A  
HETATM   19  C   UNL     1      -7.181  11.630  68.237  1.00  0.00    -0.085 A  
HETATM   20  C   UNL     1      -7.200   9.354  69.059  1.00  0.00    -0.071 A  
HETATM   21  C   UNL     1      -7.324  10.730  69.297  1.00  0.00    -0.129 A  
BRANCH  19  22
HETATM   22  S   UNL     1      -7.144  13.388  68.545  1.00  0.00    -0.115 S  
HETATM   23  O   UNL     1      -6.637  14.025  67.350  1.00  0.00    -0.278 OA 
HETATM   24  O   UNL     1      -6.477  13.571  69.820  1.00  0.00    -0.117 OA 
BRANCH  22  25
HETATM   25  N   UNL     1      -8.759  13.797  68.808  1.00  0.00    -0.365 N  
HETATM   26  H   UNL     1      -9.047  14.389  69.587  1.00  0.00     0.000 HD 
BRANCH  25  27
HETATM   27  C   UNL     1      -9.686  13.271  67.886  1.00  0.00    -0.224 A  
HETATM   28  N   UNL     1     -10.530  12.376  68.423  1.00  0.00    -0.230 NA 
HETATM   29  C   UNL     1     -11.492  11.898  67.602  1.00  0.00    -0.317 A  
HETATM   30  C   UNL     1     -11.622  12.260  66.270  1.00  0.00    -0.446 A  
HETATM   31  C   UNL     1     -10.708  13.166  65.742  1.00  0.00    -0.292 A  
HETATM   32  C   UNL     1      -9.714  13.688  66.566  1.00  0.00    -0.298 A  
ENDBRANCH  25  27
ENDBRANCH  22  25
ENDBRANCH  19  22
ENDBRANCH  14  16
ENDBRANCH  12  14
ENDBRANCH   6  12
TORSDOF 6
ENDMDL
MODEL      236
REMARK 921   NORMALIZED FREE ENERGY PREDICTED BY IDOCK:   -4.66 KCAL/MOL
REMARK 922        TOTAL FREE ENERGY PREDICTED BY IDOCK:   -6.82 KCAL/MOL
REMARK 923 INTER-LIGAND FREE ENERGY PREDICTED BY IDOCK:   -6.30 KCAL/MOL
REMARK 924 INTRA-LIGAND FREE ENERGY PREDICTED BY IDOCK:   -0.51 KCAL/MOL
REMARK 927      BINDING AFFINITY PREDICTED BY RF-SCORE:    0.00 PKD
ROOT
HETATM    1  O   UNL     1      -7.032   3.691  69.847  1.00  0.00    -0.040 OA 
HETATM    2  C   UNL     1      -7.953   4.605  70.223  1.00  0.00    -0.064 C  
HETATM    3  C   UNL     1      -8.725   5.201  69.100  1.00  0.00    -0.103 A  
HETATM    4  O   UNL     1      -8.102   4.956  71.382  1.00  0.00    -0.105 OA 
HETATM    5  C   UNL     1      -9.262   6.488  69.290  1.00  0.00    -0.139 A  
HETATM    6  C   UNL     1     -10.035   7.102  68.292  1.00  0.00    -0.156 A  
HETATM    7  C   UNL     1     -10.246   6.403  67.095  1.00  0.00    -0.254 A  
HETATM    8  O   UNL     1      -8.435   3.279  67.695  1.00  0.00    -0.084 OA 
HETATM    9  C   UNL     1      -8.962   4.528  67.897  1.00  0.00    -0.116 A  
HETATM   10  H   UNL     1      -8.596   2.822  66.878  1.00  0.00     0.000 HD 
HETATM   11  C   UNL     1      -9.721   5.122  66.893  1.00  0.00    -0.175 A  
ENDROOT
BRANCH   6  12
HETATM   12  N   UNL     1     -10.619   8.384  68.400  1.00  0.00    -0.384 NA 
HETATM   13  H   UNL     1     -11.288   8.755  67.725  1.00  0.00     0.000 HD 
BRANCH  12  14
HETATM   14  N   UNL     1     -10.233   9.017  69.405  1.00  0.00    -0.198 NA 
HETATM   15  H   UNL     1     -10.176   8.615  70.341  1.00  0.00     0.000 HD 
BRANCH  14  16
HETATM   16  C   UNL     1      -9.885  10.353  69.101  1.00  0.00    -0.223 A  
HETATM   17  C   UNL     1     -10.671  12.634  68.739  1.00  0.00    -0.240 A  
HETATM   18  C   UNL     1     -10.917  11.301  69.083  1.00  0.00    -0.292 A  
HETATM   19  C   UNL     1      -9.368  13.046  68.448  1.00  0.00    -0.149 A  
HETATM   20  C   UNL     1      -8.580  10.787  68.814  1.00  0.00    -0.156 A  
HETATM   21  C   UNL     1      -8.318  12.124  68.481  1.00  0.00    -0.093 A  
BRANCH  19  22
HETATM   22  S   UNL     1      -9.095  14.704  67.844  1.00  0.00    -0.195 S  
HETATM   23  O   UNL     1      -7.787  15.119  68.299  1.00  0.00    -0.118 OA 
HETATM   24  O   UNL     1     -10.276  15.470  68.192  1.00  0.00    -0.223 OA 
BRANCH  22  25
HETATM   25  N   UNL     1      -9.128  14.544  66.166  1.00  0.00    -0.507 N  
HETATM   26  H   UNL     1      -8.346  14.833  65.579  1.00  0.00     0.000 HD 
BRANCH  25  27
HETATM   27  C   UNL     1     -10.303  13.987  65.623  1.00  0.00    -0.329 A  
HETATM   28  N   UNL     1     -10.101  12.824  64.983  1.00  0.00    -0.253 NA 
HETATM   29  C   UNL     1     -11.207  12.203  64.512  1.00  0.00    -0.331 A  
HETATM   30  C   UNL     1     -12.490  12.713  64.634  1.00  0.00    -0.538 A  
HETATM   31  C   UNL     1     -12.655  13.936  65.275  1.00  0.00    -0.508 A  
HETATM   32  C   UNL     1     -11.537  14.593  65.785  1.00  0.00    -0.328 A  
ENDBRANCH  25  27
ENDBRANCH  22  25
ENDBRANCH  19  22
ENDBRANCH  14  16
ENDBRANCH  12  14
ENDBRANCH   6  12
TORSDOF 6
ENDMDL
MODEL      237
REMARK 921   NORMALIZED FREE ENERGY PREDICTED BY IDOCK:   -4.65 KCAL/MOL
REMARK 922        TOTAL FREE ENERGY PREDICTED BY IDOCK:   -6.80 KCAL/MOL
REMARK 923 INTER-LIGAND FREE ENERGY PREDICTED BY IDOCK:   -6.21 KCAL/MOL
REMARK 924 INTRA-LIGAND FREE ENERGY PREDICTED BY IDOCK:   -0.59 KCAL/MOL
REMARK 927      BINDING AFFINITY PREDICTED BY RF-SCORE:    0.00 PKD
ROOT
HETATM    1  O   UNL     1      -9.193   1.800  68.280  1.00  0.00    -0.141 OA 
HETATM    2  C   UNL     1      -9.201   2.961  67.590  1.00  0.00    -0.201 C  
HETATM    3  C   UNL     1      -9.677   4.136  68.366  1.00  0.00    -0.150 A  
HETATM    4  O   UNL     1      -8.898   3.031  66.410  1.00  0.00    -0.130 OA 
HETATM    5  C   UNL     1     -10.244   5.205  67.647  1.00  0.00    -0.197 A  
HETATM    6  C   UNL     1     -10.682   6.366  68.303  1.00  0.00    -0.285 A  
HETATM    7  C   UNL     1     -10.551   6.425  69.699  1.00  0.00    -0.309 A  
HETATM    8  O   UNL     1      -9.015   3.194  70.470  1.00  0.00    -0.081 OA 
HETATM    9  C   UNL     1      -9.554   4.232  69.756  1.00  0.00    -0.209 A  
HETATM   10  H   UNL     1      -8.931   3.259  71.414  1.00  0.00     0.000 HD 
HETATM   11  C   UNL     1      -9.987   5.372  70.426  1.00  0.00    -0.291 A  
ENDROOT
BRANCH   6  12
HETATM   12  N   UNL     1     -11.253   7.488  67.662  1.00  0.00    -0.424 NA 
HETATM   13  H   UNL     1     -12.076   7.978  68.015  1.00  0.00     0.000 HD 
BRANCH  12  14
HETATM   14  N   UNL     1     -10.649   7.820  66.621  1.00  0.00    -0.454 NA 
HETATM   15  H   UNL     1     -10.642   7.261  65.767  1.00  0.00     0.000 HD 
BRANCH  14  16
HETATM   16  C   UNL     1      -9.977   9.055  66.756  1.00  0.00    -0.263 A  
HETATM   17  C   UNL     1      -8.666  10.517  68.206  1.00  0.00    -0.135 A  
HETATM   18  C   UNL     1      -9.310   9.299  67.965  1.00  0.00    -0.145 A  
HETATM   19  C   UNL     1      -8.645  11.498  67.211  1.00  0.00    -0.150 A  
HETATM   20  C   UNL     1      -9.938  10.050  65.765  1.00  0.00    -0.346 A  
HETATM   21  C   UNL     1      -9.282  11.269  65.989  1.00  0.00    -0.224 A  
BRANCH  19  22
HETATM   22  S   UNL     1      -7.971  13.106  67.592  1.00  0.00    -0.188 S  
HETATM   23  O   UNL     1      -6.748  13.252  66.836  1.00  0.00     0.072 OA 
HETATM   24  O   UNL     1      -7.964  13.219  69.038  1.00  0.00     0.069 OA 
BRANCH  22  25
HETATM   25  N   UNL     1      -9.147  14.187  67.051  1.00  0.00    -0.234 N  
HETATM   26  H   UNL     1      -9.209  14.476  66.076  1.00  0.00     0.000 HD 
BRANCH  25  27
HETATM   27  C   UNL     1     -10.041  14.665  68.030  1.00  0.00    -0.227 A  
HETATM   28  N   UNL     1      -9.837  15.950  68.363  1.00  0.00    -0.211 NA 
HETATM   29  C   UNL     1     -10.717  16.485  69.239  1.00  0.00    -0.331 A  
HETATM   30  C   UNL     1     -11.765  15.781  69.810  1.00  0.00    -0.355 A  
HETATM   31  C   UNL     1     -11.924  14.442  69.465  1.00  0.00    -0.376 A  
HETATM   32  C   UNL     1     -11.043  13.866  68.552  1.00  0.00    -0.289 A  
ENDBRANCH  25  27
ENDBRANCH  22  25
ENDBRANCH  19  22
ENDBRANCH  14  16
ENDBRANCH  12  14
ENDBRANCH   6  12
TORSDOF 6
ENDMDL
MODEL      238
REMARK 921   NORMALIZED FREE ENERGY PREDICTED BY IDOCK:   -4.64 KCAL/MOL
REMARK 922        TOTAL FREE ENERGY PREDICTED BY IDOCK:   -6.79 KCAL/MOL
REMARK 923 INTER-LIGAND FREE ENERGY PREDICTED BY IDOCK:   -6.18 KCAL/MOL
REMARK 924 INTRA-LIGAND FREE ENERGY PREDICTED BY IDOCK:   -0.61 KCAL/MOL
REMARK 927      BINDING AFFINITY PREDICTED BY RF-SCORE:    0.00 PKD
ROOT
HETATM    1  O   UNL     1      -6.938   4.839  68.817  1.00  0.00    -0.050 OA 
HETATM    2  C   UNL     1      -7.228   6.158  68.782  1.00  0.00    -0.084 C  
HETATM    3  C   UNL     1      -8.524   6.487  68.130  1.00  0.00    -0.116 A  
HETATM    4  O   UNL     1      -6.466   7.015  69.198  1.00  0.00    -0.037 OA 
HETATM    5  C   UNL     1      -8.657   7.763  67.552  1.00  0.00    -0.122 A  
HETATM    6  C   UNL     1      -9.861   8.162  66.952  1.00  0.00    -0.247 A  
HETATM    7  C   UNL     1     -10.925   7.248  66.934  1.00  0.00    -0.137 A  
HETATM    8  O   UNL     1      -9.488   4.353  68.650  1.00  0.00    -0.137 OA 
HETATM    9  C   UNL     1      -9.608   5.603  68.102  1.00  0.00    -0.114 A  
HETATM   10  H   UNL     1     -10.224   3.752  68.631  1.00  0.00     0.000 HD 
HETATM   11  C   UNL     1     -10.809   5.978  67.506  1.00  0.00    -0.393 A  
ENDROOT
BRANCH   6  12
HETATM   12  N   UNL     1     -10.086   9.424  66.357  1.00  0.00    -0.272 NA 
HETATM   13  H   UNL     1      -9.648   9.720  65.485  1.00  0.00     0.000 HD 
BRANCH  12  14
HETATM   14  N   UNL     1     -10.877  10.140  67.007  1.00  0.00    -0.199 NA 
HETATM   15  H   UNL     1     -11.756   9.802  67.399  1.00  0.00     0.000 HD 
BRANCH  14  16
HETATM   16  C   UNL     1     -10.418  11.469  67.139  1.00  0.00    -0.224 A  
HETATM   17  C   UNL     1      -8.527  13.002  66.966  1.00  0.00    -0.142 A  
HETATM   18  C   UNL     1      -9.080  11.726  66.813  1.00  0.00    -0.194 A  
HETATM   19  C   UNL     1      -9.330  14.055  67.411  1.00  0.00    -0.220 A  
HETATM   20  C   UNL     1     -11.212  12.543  67.577  1.00  0.00    -0.342 A  
HETATM   21  C   UNL     1     -10.674  13.830  67.721  1.00  0.00    -0.254 A  
BRANCH  19  22
HETATM   22  S   UNL     1      -8.573  15.633  67.766  1.00  0.00    -0.165 S  
HETATM   23  O   UNL     1      -7.198  15.381  68.130  1.00  0.00    -0.108 OA 
HETATM   24  O   UNL     1      -9.465  16.322  68.680  1.00  0.00    -0.210 OA 
BRANCH  22  25
HETATM   25  N   UNL     1      -8.668  16.475  66.308  1.00  0.00    -0.315 N  
HETATM   26  H   UNL     1      -8.621  16.002  65.406  1.00  0.00     0.000 HD 
BRANCH  25  27
HETATM   27  C   UNL     1      -8.816  17.873  66.413  1.00  0.00    -0.228 A  
HETATM   28  N   UNL     1     -10.092  18.285  66.338  1.00  0.00    -0.378 NA 
HETATM   29  C   UNL     1     -10.300  19.610  66.513  1.00  0.00    -0.493 A  
HETATM   30  C   UNL     1      -9.286  20.530  66.731  1.00  0.00    -0.382 A  
HETATM   31  C   UNL     1      -7.975  20.068  66.769  1.00  0.00    -0.349 A  
HETATM   32  C   UNL     1      -7.729  18.706  66.608  1.00  0.00    -0.265 A  
ENDBRANCH  25  27
ENDBRANCH  22  25
ENDBRANCH  19  22
ENDBRANCH  14  16
ENDBRANCH  12  14
ENDBRANCH   6  12
TORSDOF 6
ENDMDL
MODEL      239
REMARK 921   NORMALIZED FREE ENERGY PREDICTED BY IDOCK:   -4.62 KCAL/MOL
REMARK 922        TOTAL FREE ENERGY PREDICTED BY IDOCK:   -6.76 KCAL/MOL
REMARK 923 INTER-LIGAND FREE ENERGY PREDICTED BY IDOCK:   -7.04 KCAL/MOL
REMARK 924 INTRA-LIGAND FREE ENERGY PREDICTED BY IDOCK:    0.28 KCAL/MOL
REMARK 927      BINDING AFFINITY PREDICTED BY RF-SCORE:    0.00 PKD
ROOT
HETATM    1  O   UNL     1      -6.047   6.796  69.165  1.00  0.00    -0.024 OA 
HETATM    2  C   UNL     1      -6.843   7.581  69.923  1.00  0.00    -0.047 C  
HETATM    3  C   UNL     1      -8.205   7.032  70.158  1.00  0.00    -0.133 A  
HETATM    4  O   UNL     1      -6.496   8.676  70.334  1.00  0.00    -0.034 OA 
HETATM    5  C   UNL     1      -9.240   7.949  70.419  1.00  0.00    -0.158 A  
HETATM    6  C   UNL     1     -10.545   7.507  70.689  1.00  0.00    -0.224 A  
HETATM    7  C   UNL     1     -10.791   6.126  70.678  1.00  0.00    -0.355 A  
HETATM    8  O   UNL     1      -7.487   4.758  69.899  1.00  0.00    -0.054 OA 
HETATM    9  C   UNL     1      -8.484   5.661  70.164  1.00  0.00    -0.119 A  
HETATM   10  H   UNL     1      -7.676   3.827  69.904  1.00  0.00     0.000 HD 
HETATM   11  C   UNL     1      -9.772   5.203  70.423  1.00  0.00    -0.270 A  
ENDROOT
BRANCH   6  12
HETATM   12  N   UNL     1     -11.641   8.354  70.969  1.00  0.00    -0.276 NA 
HETATM   13  H   UNL     1     -12.614   8.048  70.925  1.00  0.00     0.000 HD 
BRANCH  12  14
HETATM   14  N   UNL     1     -11.300   9.515  71.276  1.00  0.00    -0.348 NA 
HETATM   15  H   UNL     1     -10.926   9.773  72.190  1.00  0.00     0.000 HD 
BRANCH  14  16
HETATM   16  C   UNL     1     -11.487  10.431  70.218  1.00  0.00    -0.325 A  
HETATM   17  C   UNL     1     -11.506  10.784  67.803  1.00  0.00    -0.283 A  
HETATM   18  C   UNL     1     -11.389   9.937  68.910  1.00  0.00    -0.060 A  
HETATM   19  C   UNL     1     -11.769  12.142  67.995  1.00  0.00    -0.344 A  
HETATM   20  C   UNL     1     -11.761  11.799  70.391  1.00  0.00    -0.253 A  
HETATM   21  C   UNL     1     -11.895  12.656  69.289  1.00  0.00    -0.358 A  
BRANCH  19  22
HETATM   22  S   UNL     1     -11.745  13.239  66.586  1.00  0.00    -0.394 S  
HETATM   23  O   UNL     1     -12.129  14.552  67.055  1.00  0.00    -0.398 OA 
HETATM   24  O   UNL     1     -12.498  12.580  65.537  1.00  0.00    -0.646 OA 
BRANCH  22  25
HETATM   25  N   UNL     1     -10.137  13.225  66.078  1.00  0.00    -0.294 N  
HETATM   26  H   UNL     1      -9.455  13.899  66.424  1.00  0.00     0.000 HD 
BRANCH  25  27
HETATM   27  C   UNL     1      -9.795  12.225  65.147  1.00  0.00    -0.158 A  
HETATM   28  N   UNL     1      -8.980  11.282  65.646  1.00  0.00    -0.194 NA 
HETATM   29  C   UNL     1      -8.683  10.253  64.820  1.00  0.00    -0.188 A  
HETATM   30  C   UNL     1      -9.145  10.150  63.517  1.00  0.00    -0.302 A  
HETATM   31  C   UNL     1      -9.961  11.164  63.026  1.00  0.00    -0.347 A  
HETATM   32  C   UNL     1     -10.298  12.229  63.857  1.00  0.00    -0.455 A  
ENDBRANCH  25  27
ENDBRANCH  22  25
ENDBRANCH  19  22
ENDBRANCH  14  16
ENDBRANCH  12  14
ENDBRANCH   6  12
TORSDOF 6
ENDMDL
MODEL      240
REMARK 921   NORMALIZED FREE ENERGY PREDICTED BY IDOCK:   -4.60 KCAL/MOL
REMARK 922        TOTAL FREE ENERGY PREDICTED BY IDOCK:   -6.73 KCAL/MOL
REMARK 923 INTER-LIGAND FREE ENERGY PREDICTED BY IDOCK:   -6.72 KCAL/MOL
REMARK 924 INTRA-LIGAND FREE ENERGY PREDICTED BY IDOCK:   -0.02 KCAL/MOL
REMARK 927      BINDING AFFINITY PREDICTED BY RF-SCORE:    0.00 PKD
ROOT
HETATM    1  O   UNL     1      -6.799   6.212  68.105  1.00  0.00    -0.062 OA 
HETATM    2  C   UNL     1      -7.302   6.378  66.862  1.00  0.00    -0.079 C  
HETATM    3  C   UNL     1      -7.219   7.769  66.343  1.00  0.00    -0.075 A  
HETATM    4  O   UNL     1      -7.835   5.474  66.238  1.00  0.00    -0.098 OA 
HETATM    5  C   UNL     1      -8.163   8.161  65.377  1.00  0.00    -0.147 A  
HETATM    6  C   UNL     1      -8.127   9.445  64.811  1.00  0.00    -0.131 A  
HETATM    7  C   UNL     1      -7.131  10.331  65.245  1.00  0.00    -0.130 A  
HETATM    8  O   UNL     1      -5.315   8.310  67.698  1.00  0.00    -0.032 OA 
HETATM    9  C   UNL     1      -6.233   8.675  66.749  1.00  0.00    -0.059 A  
HETATM   10  H   UNL     1      -4.645   8.925  67.973  1.00  0.00     0.000 HD 
HETATM   11  C   UNL     1      -6.184   9.955  66.204  1.00  0.00    -0.072 A  
ENDROOT
BRANCH   6  12
HETATM   12  N   UNL     1      -9.027   9.920  63.830  1.00  0.00    -0.232 NA 
HETATM   13  H   UNL     1      -8.746  10.161  62.879  1.00  0.00     0.000 HD 
BRANCH  12  14
HETATM   14  N   UNL     1     -10.201  10.014  64.245  1.00  0.00    -0.384 NA 
HETATM   15  H   UNL     1     -10.947   9.367  63.988  1.00  0.00     0.000 HD 
BRANCH  14  16
HETATM   16  C   UNL     1     -10.382  11.117  65.109  1.00  0.00    -0.293 A  
HETATM   17  C   UNL     1     -10.278  11.953  67.399  1.00  0.00    -0.214 A  
HETATM   18  C   UNL     1     -10.077  10.932  66.465  1.00  0.00    -0.269 A  
HETATM   19  C   UNL     1     -10.751  13.197  66.975  1.00  0.00    -0.262 A  
HETATM   20  C   UNL     1     -10.848  12.378  64.700  1.00  0.00    -0.346 A  
HETATM   21  C   UNL     1     -11.040  13.414  65.625  1.00  0.00    -0.298 A  
BRANCH  19  22
HETATM   22  S   UNL     1     -11.165  14.431  68.197  1.00  0.00    -0.296 S  
HETATM   23  O   UNL     1     -12.525  14.851  67.943  1.00  0.00     0.094 OA 
HETATM   24  O   UNL     1     -10.081  15.395  68.195  1.00  0.00    -0.219 OA 
BRANCH  22  25
HETATM   25  N   UNL     1     -11.050  13.613  69.668  1.00  0.00    -0.457 N  
HETATM   26  H   UNL     1     -10.437  12.809  69.792  1.00  0.00     0.000 HD 
BRANCH  25  27
HETATM   27  C   UNL     1     -11.854  14.110  70.713  1.00  0.00    -0.242 A  
HETATM   28  N   UNL     1     -12.779  13.236  71.142  1.00  0.00    -0.352 NA 
HETATM   29  C   UNL     1     -13.525  13.630  72.199  1.00  0.00    -0.512 A  
HETATM   30  C   UNL     1     -13.399  14.865  72.817  1.00  0.00    -0.576 A  
HETATM   31  C   UNL     1     -12.452  15.755  72.322  1.00  0.00    -0.533 A  
HETATM   32  C   UNL     1     -11.656  15.373  71.245  1.00  0.00    -0.440 A  
ENDBRANCH  25  27
ENDBRANCH  22  25
ENDBRANCH  19  22
ENDBRANCH  14  16
ENDBRANCH  12  14
ENDBRANCH   6  12
TORSDOF 6
ENDMDL
MODEL      241
REMARK 921   NORMALIZED FREE ENERGY PREDICTED BY IDOCK:   -4.59 KCAL/MOL
REMARK 922        TOTAL FREE ENERGY PREDICTED BY IDOCK:   -6.72 KCAL/MOL
REMARK 923 INTER-LIGAND FREE ENERGY PREDICTED BY IDOCK:   -6.09 KCAL/MOL
REMARK 924 INTRA-LIGAND FREE ENERGY PREDICTED BY IDOCK:   -0.64 KCAL/MOL
REMARK 927      BINDING AFFINITY PREDICTED BY RF-SCORE:    0.00 PKD
ROOT
HETATM    1  O   UNL     1      -8.140  17.800  65.905  1.00  0.00    -0.527 OA 
HETATM    2  C   UNL     1      -8.884  17.136  66.817  1.00  0.00    -0.246 C  
HETATM    3  C   UNL     1      -8.307  15.838  67.257  1.00  0.00    -0.213 A  
HETATM    4  O   UNL     1      -9.969  17.538  67.206  1.00  0.00    -0.292 OA 
HETATM    5  C   UNL     1      -9.198  14.854  67.724  1.00  0.00    -0.186 A  
HETATM    6  C   UNL     1      -8.727  13.618  68.192  1.00  0.00    -0.177 A  
HETATM    7  C   UNL     1      -7.344  13.385  68.170  1.00  0.00    -0.117 A  
HETATM    8  O   UNL     1      -6.055  16.521  66.792  1.00  0.00    -0.292 OA 
HETATM    9  C   UNL     1      -6.933  15.576  67.256  1.00  0.00    -0.171 A  
HETATM   10  H   UNL     1      -5.122  16.344  66.792  1.00  0.00     0.000 HD 
HETATM   11  C   UNL     1      -6.447  14.354  67.711  1.00  0.00    -0.181 A  
ENDROOT
BRANCH   6  12
HETATM   12  N   UNL     1      -9.547  12.578  68.687  1.00  0.00    -0.400 NA 
HETATM   13  H   UNL     1      -9.805  12.485  69.669  1.00  0.00     0.000 HD 
BRANCH  12  14
HETATM   14  N   UNL     1      -9.923  11.784  67.799  1.00  0.00    -0.186 NA 
HETATM   15  H   UNL     1     -10.258  12.078  66.881  1.00  0.00     0.000 HD 
BRANCH  14  16
HETATM   16  C   UNL     1      -9.832  10.435  68.207  1.00  0.00    -0.154 A  
HETATM   17  C   UNL     1     -10.722   8.173  67.988  1.00  0.00    -0.108 A  
HETATM   18  C   UNL     1     -10.705   9.518  67.605  1.00  0.00    -0.314 A  
HETATM   19  C   UNL     1      -9.825   7.717  68.958  1.00  0.00    -0.169 A  
HETATM   20  C   UNL     1      -8.932   9.957  69.174  1.00  0.00    -0.170 A  
HETATM   21  C   UNL     1      -8.928   8.607  69.556  1.00  0.00    -0.145 A  
BRANCH  19  22
HETATM   22  S   UNL     1      -9.972   6.043  69.559  1.00  0.00    -0.192 S  
HETATM   23  O   UNL     1      -9.691   5.159  68.450  1.00  0.00    -0.133 OA 
HETATM   24  O   UNL     1     -11.238   5.967  70.263  1.00  0.00    -0.332 OA 
BRANCH  22  25
HETATM   25  N   UNL     1      -8.779   5.922  70.745  1.00  0.00    -0.133 N  
HETATM   26  H   UNL     1      -7.787   6.003  70.524  1.00  0.00     0.000 HD 
BRANCH  25  27
HETATM   27  C   UNL     1      -9.237   5.703  72.059  1.00  0.00    -0.144 A  
HETATM   28  N   UNL     1      -9.534   6.834  72.721  1.00  0.00    -0.142 NA 
HETATM   29  C   UNL     1     -10.055   6.680  73.959  1.00  0.00    -0.347 A  
HETATM   30  C   UNL     1     -10.262   5.449  74.563  1.00  0.00    -0.293 A  
HETATM   31  C   UNL     1      -9.911   4.302  73.859  1.00  0.00    -0.160 A  
HETATM   32  C   UNL     1      -9.387   4.427  72.574  1.00  0.00    -0.163 A  
ENDBRANCH  25  27
ENDBRANCH  22  25
ENDBRANCH  19  22
ENDBRANCH  14  16
ENDBRANCH  12  14
ENDBRANCH   6  12
TORSDOF 6
ENDMDL
MODEL      242
REMARK 921   NORMALIZED FREE ENERGY PREDICTED BY IDOCK:   -4.57 KCAL/MOL
REMARK 922        TOTAL FREE ENERGY PREDICTED BY IDOCK:   -6.70 KCAL/MOL
REMARK 923 INTER-LIGAND FREE ENERGY PREDICTED BY IDOCK:   -6.12 KCAL/MOL
REMARK 924 INTRA-LIGAND FREE ENERGY PREDICTED BY IDOCK:   -0.58 KCAL/MOL
REMARK 927      BINDING AFFINITY PREDICTED BY RF-SCORE:    0.00 PKD
ROOT
HETATM    1  O   UNL     1      -8.092   4.403  66.365  1.00  0.00    -0.102 OA 
HETATM    2  C   UNL     1      -8.526   5.294  67.283  1.00  0.00    -0.106 C  
HETATM    3  C   UNL     1      -8.405   6.716  66.868  1.00  0.00    -0.114 A  
HETATM    4  O   UNL     1      -8.932   4.963  68.386  1.00  0.00    -0.104 OA 
HETATM    5  C   UNL     1      -8.286   7.683  67.883  1.00  0.00    -0.123 A  
HETATM    6  C   UNL     1      -8.205   9.050  67.573  1.00  0.00    -0.109 A  
HETATM    7  C   UNL     1      -8.233   9.424  66.222  1.00  0.00    -0.111 A  
HETATM    8  O   UNL     1      -8.541   6.192  64.531  1.00  0.00    -0.336 OA 
HETATM    9  C   UNL     1      -8.438   7.125  65.530  1.00  0.00    -0.107 A  
HETATM   10  H   UNL     1      -8.565   6.470  63.623  1.00  0.00     0.000 HD 
HETATM   11  C   UNL     1      -8.354   8.475  65.202  1.00  0.00    -0.178 A  
ENDROOT
BRANCH   6  12
HETATM   12  N   UNL     1      -8.093  10.087  68.526  1.00  0.00    -0.101 NA 
HETATM   13  H   UNL     1      -8.452  10.017  69.478  1.00  0.00     0.000 HD 
BRANCH  12  14
HETATM   14  N   UNL     1      -7.510  11.100  68.084  1.00  0.00    -0.089 NA 
HETATM   15  H   UNL     1      -6.596  11.075  67.632  1.00  0.00     0.000 HD 
BRANCH  14  16
HETATM   16  C   UNL     1      -8.258  12.282  68.280  1.00  0.00    -0.167 A  
HETATM   17  C   UNL     1     -10.459  13.336  68.236  1.00  0.00    -0.257 A  
HETATM   18  C   UNL     1      -9.648  12.203  68.116  1.00  0.00    -0.208 A  
HETATM   19  C   UNL     1      -9.886  14.566  68.570  1.00  0.00    -0.231 A  
HETATM   20  C   UNL     1      -7.701  13.526  68.623  1.00  0.00    -0.093 A  
HETATM   21  C   UNL     1      -8.505  14.666  68.762  1.00  0.00    -0.161 A  
BRANCH  19  22
HETATM   22  S   UNL     1     -10.905  16.032  68.551  1.00  0.00    -0.322 S  
HETATM   23  O   UNL     1     -10.406  16.917  69.580  1.00  0.00    -0.273 OA 
HETATM   24  O   UNL     1     -12.282  15.578  68.570  1.00  0.00    -0.142 OA 
BRANCH  22  25
HETATM   25  N   UNL     1     -10.657  16.689  67.018  1.00  0.00    -0.288 N  
HETATM   26  H   UNL     1     -10.990  16.228  66.172  1.00  0.00     0.000 HD 
BRANCH  25  27
HETATM   27  C   UNL     1      -9.962  17.914  66.978  1.00  0.00    -0.324 A  
HETATM   28  N   UNL     1      -8.662  17.784  66.669  1.00  0.00    -0.253 NA 
HETATM   29  C   UNL     1      -7.964  18.935  66.537  1.00  0.00    -0.277 A  
HETATM   30  C   UNL     1      -8.508  20.196  66.728  1.00  0.00    -0.365 A  
HETATM   31  C   UNL     1      -9.851  20.287  67.079  1.00  0.00    -0.607 A  
HETATM   32  C   UNL     1     -10.601  19.120  67.207  1.00  0.00    -0.573 A  
ENDBRANCH  25  27
ENDBRANCH  22  25
ENDBRANCH  19  22
ENDBRANCH  14  16
ENDBRANCH  12  14
ENDBRANCH   6  12
TORSDOF 6
ENDMDL
MODEL      243
REMARK 921   NORMALIZED FREE ENERGY PREDICTED BY IDOCK:   -4.57 KCAL/MOL
REMARK 922        TOTAL FREE ENERGY PREDICTED BY IDOCK:   -6.69 KCAL/MOL
REMARK 923 INTER-LIGAND FREE ENERGY PREDICTED BY IDOCK:   -5.72 KCAL/MOL
REMARK 924 INTRA-LIGAND FREE ENERGY PREDICTED BY IDOCK:   -0.97 KCAL/MOL
REMARK 927      BINDING AFFINITY PREDICTED BY RF-SCORE:    0.00 PKD
ROOT
HETATM    1  O   UNL     1      -8.735  16.514  66.965  1.00  0.00    -0.182 OA 
HETATM    2  C   UNL     1      -8.974  15.186  66.901  1.00  0.00    -0.252 C  
HETATM    3  C   UNL     1      -8.036  14.352  67.697  1.00  0.00    -0.191 A  
HETATM    4  O   UNL     1      -9.851  14.704  66.201  1.00  0.00    -0.281 OA 
HETATM    5  C   UNL     1      -7.831  13.024  67.280  1.00  0.00    -0.132 A  
HETATM    6  C   UNL     1      -6.990  12.162  68.001  1.00  0.00    -0.090 A  
HETATM    7  C   UNL     1      -6.350  12.665  69.143  1.00  0.00    -0.099 A  
HETATM    8  O   UNL     1      -7.570  16.114  69.256  1.00  0.00    -0.226 OA 
HETATM    9  C   UNL     1      -7.388  14.819  68.846  1.00  0.00    -0.130 A  
HETATM   10  H   UNL     1      -7.130  16.432  70.036  1.00  0.00     0.000 HD 
HETATM   11  C   UNL     1      -6.546  13.982  69.571  1.00  0.00    -0.115 A  
ENDROOT
BRANCH   6  12
HETATM   12  N   UNL     1      -6.734  10.814  67.662  1.00  0.00    -0.068 NA 
HETATM   13  H   UNL     1      -6.908  10.426  66.735  1.00  0.00     0.000 HD 
BRANCH  12  14
HETATM   14  N   UNL     1      -6.272  10.147  68.611  1.00  0.00    -0.044 NA 
HETATM   15  H   UNL     1      -5.355  10.312  69.026  1.00  0.00     0.000 HD 
BRANCH  14  16
HETATM   16  C   UNL     1      -7.161   9.140  69.046  1.00  0.00    -0.072 A  
HETATM   17  C   UNL     1      -9.034   7.684  68.472  1.00  0.00    -0.129 A  
HETATM   18  C   UNL     1      -8.081   8.642  68.113  1.00  0.00    -0.115 A  
HETATM   19  C   UNL     1      -9.049   7.176  69.774  1.00  0.00    -0.141 A  
HETATM   20  C   UNL     1      -7.186   8.611  70.348  1.00  0.00    -0.045 A  
HETATM   21  C   UNL     1      -8.127   7.639  70.717  1.00  0.00    -0.103 A  
BRANCH  19  22
HETATM   22  S   UNL     1     -10.374   6.085  70.266  1.00  0.00    -0.241 S  
HETATM   23  O   UNL     1      -9.797   4.780  70.493  1.00  0.00    -0.195 OA 
HETATM   24  O   UNL     1     -11.438   6.265  69.296  1.00  0.00    -0.411 OA 
BRANCH  22  25
HETATM   25  N   UNL     1     -10.946   6.751  71.706  1.00  0.00    -0.229 N  
HETATM   26  H   UNL     1     -10.656   6.398  72.617  1.00  0.00     0.000 HD 
BRANCH  25  27
HETATM   27  C   UNL     1     -11.848   7.826  71.571  1.00  0.00    -0.293 A  
HETATM   28  N   UNL     1     -13.128   7.484  71.791  1.00  0.00    -0.339 NA 
HETATM   29  C   UNL     1     -14.027   8.493  71.755  1.00  0.00    -0.431 A  
HETATM   30  C   UNL     1     -13.700   9.812  71.483  1.00  0.00    -0.264 A  
HETATM   31  C   UNL     1     -12.367  10.120  71.228  1.00  0.00    -0.501 A  
HETATM   32  C   UNL     1     -11.414   9.106  71.274  1.00  0.00    -0.405 A  
ENDBRANCH  25  27
ENDBRANCH  22  25
ENDBRANCH  19  22
ENDBRANCH  14  16
ENDBRANCH  12  14
ENDBRANCH   6  12
TORSDOF 6
ENDMDL
MODEL      244
REMARK 921   NORMALIZED FREE ENERGY PREDICTED BY IDOCK:   -4.51 KCAL/MOL
REMARK 922        TOTAL FREE ENERGY PREDICTED BY IDOCK:   -6.62 KCAL/MOL
REMARK 923 INTER-LIGAND FREE ENERGY PREDICTED BY IDOCK:   -5.94 KCAL/MOL
REMARK 924 INTRA-LIGAND FREE ENERGY PREDICTED BY IDOCK:   -0.68 KCAL/MOL
REMARK 927      BINDING AFFINITY PREDICTED BY RF-SCORE:    0.00 PKD
ROOT
HETATM    1  O   UNL     1      -9.661   2.477  73.389  1.00  0.00    -0.093 OA 
HETATM    2  C   UNL     1      -9.668   3.121  72.201  1.00  0.00    -0.160 C  
HETATM    3  C   UNL     1     -10.244   4.491  72.246  1.00  0.00    -0.257 A  
HETATM    4  O   UNL     1      -9.288   2.601  71.164  1.00  0.00    -0.115 OA 
HETATM    5  C   UNL     1     -10.802   5.002  71.059  1.00  0.00     0.047 A  
HETATM    6  C   UNL     1     -11.331   6.301  71.011  1.00  0.00    -0.316 A  
HETATM    7  C   UNL     1     -11.298   7.072  72.182  1.00  0.00    -0.302 A  
HETATM    8  O   UNL     1      -9.690   4.801  74.559  1.00  0.00    -0.129 OA 
HETATM    9  C   UNL     1     -10.220   5.290  73.394  1.00  0.00    -0.192 A  
HETATM   10  H   UNL     1      -9.674   5.343  75.339  1.00  0.00     0.000 HD 
HETATM   11  C   UNL     1     -10.744   6.579  73.368  1.00  0.00    -0.295 A  
ENDROOT
BRANCH   6  12
HETATM   12  N   UNL     1     -11.901   6.897  69.864  1.00  0.00    -0.631 NA 
HETATM   13  H   UNL     1     -12.833   7.313  69.851  1.00  0.00     0.000 HD 
BRANCH  12  14
HETATM   14  N   UNL     1     -11.150   6.864  68.867  1.00  0.00    -0.473 NA 
HETATM   15  H   UNL     1     -10.850   6.002  68.412  1.00  0.00     0.000 HD 
BRANCH  14  16
HETATM   16  C   UNL     1     -10.761   8.154  68.440  1.00  0.00    -0.012 A  
HETATM   17  C   UNL     1      -9.903   9.526  66.614  1.00  0.00    -0.293 A  
HETATM   18  C   UNL     1     -10.355   8.298  67.106  1.00  0.00    -0.387 A  
HETATM   19  C   UNL     1      -9.893  10.646  67.449  1.00  0.00    -0.170 A  
HETATM   20  C   UNL     1     -10.752   9.293  69.263  1.00  0.00    -0.211 A  
HETATM   21  C   UNL     1     -10.315  10.533  68.777  1.00  0.00    -0.208 A  
BRANCH  19  22
HETATM   22  S   UNL     1      -9.154  12.161  66.862  1.00  0.00    -0.206 S  
HETATM   23  O   UNL     1      -9.938  12.615  65.735  1.00  0.00    -0.263 OA 
HETATM   24  O   UNL     1      -7.734  11.899  66.717  1.00  0.00    -0.135 OA 
BRANCH  22  25
HETATM   25  N   UNL     1      -9.296  13.223  68.164  1.00  0.00    -0.217 N  
HETATM   26  H   UNL     1     -10.002  13.099  68.888  1.00  0.00     0.000 HD 
BRANCH  25  27
HETATM   27  C   UNL     1      -8.378  14.293  68.189  1.00  0.00    -0.162 A  
HETATM   28  N   UNL     1      -8.573  15.191  67.210  1.00  0.00    -0.184 NA 
HETATM   29  C   UNL     1      -7.772  16.280  67.235  1.00  0.00    -0.178 A  
HETATM   30  C   UNL     1      -6.776  16.487  68.177  1.00  0.00    -0.145 A  
HETATM   31  C   UNL     1      -6.584  15.517  69.155  1.00  0.00    -0.136 A  
HETATM   32  C   UNL     1      -7.404  14.391  69.167  1.00  0.00    -0.113 A  
ENDBRANCH  25  27
ENDBRANCH  22  25
ENDBRANCH  19  22
ENDBRANCH  14  16
ENDBRANCH  12  14
ENDBRANCH   6  12
TORSDOF 6
ENDMDL
MODEL      245
REMARK 921   NORMALIZED FREE ENERGY PREDICTED BY IDOCK:   -4.49 KCAL/MOL
REMARK 922        TOTAL FREE ENERGY PREDICTED BY IDOCK:   -6.59 KCAL/MOL
REMARK 923 INTER-LIGAND FREE ENERGY PREDICTED BY IDOCK:   -5.78 KCAL/MOL
REMARK 924 INTRA-LIGAND FREE ENERGY PREDICTED BY IDOCK:   -0.81 KCAL/MOL
REMARK 927      BINDING AFFINITY PREDICTED BY RF-SCORE:    0.00 PKD
ROOT
HETATM    1  O   UNL     1     -13.996   8.972  72.311  1.00  0.00    -0.448 OA 
HETATM    2  C   UNL     1     -12.833   9.364  71.747  1.00  0.00    -0.399 C  
HETATM    3  C   UNL     1     -11.697   8.429  71.962  1.00  0.00    -0.417 A  
HETATM    4  O   UNL     1     -12.708  10.426  71.157  1.00  0.00    -0.347 OA 
HETATM    5  C   UNL     1     -10.396   8.966  71.928  1.00  0.00    -0.407 A  
HETATM    6  C   UNL     1      -9.271   8.142  72.084  1.00  0.00    -0.194 A  
HETATM    7  C   UNL     1      -9.479   6.770  72.288  1.00  0.00    -0.149 A  
HETATM    8  O   UNL     1     -13.130   6.522  72.206  1.00  0.00    -0.548 OA 
HETATM    9  C   UNL     1     -11.868   7.055  72.159  1.00  0.00    -0.275 A  
HETATM   10  H   UNL     1     -13.246   5.588  72.339  1.00  0.00     0.000 HD 
HETATM   11  C   UNL     1     -10.765   6.222  72.322  1.00  0.00    -0.263 A  
ENDROOT
BRANCH   6  12
HETATM   12  N   UNL     1      -7.932   8.592  72.055  1.00  0.00    -0.300 NA 
HETATM   13  H   UNL     1      -7.652   9.540  72.309  1.00  0.00     0.000 HD 
BRANCH  12  14
HETATM   14  N   UNL     1      -7.125   7.712  71.687  1.00  0.00    -0.061 NA 
HETATM   15  H   UNL     1      -6.600   7.120  72.330  1.00  0.00     0.000 HD 
BRANCH  14  16
HETATM   16  C   UNL     1      -7.022   7.628  70.280  1.00  0.00    -0.051 A  
HETATM   17  C   UNL     1      -7.062   8.828  68.156  1.00  0.00    -0.078 A  
HETATM   18  C   UNL     1      -7.099   8.824  69.554  1.00  0.00    -0.055 A  
HETATM   19  C   UNL     1      -6.901   7.625  67.464  1.00  0.00    -0.069 A  
HETATM   20  C   UNL     1      -6.853   6.429  69.567  1.00  0.00    -0.065 A  
HETATM   21  C   UNL     1      -6.799   6.421  68.166  1.00  0.00    -0.071 A  
BRANCH  19  22
HETATM   22  S   UNL     1      -7.028   7.624  65.683  1.00  0.00    -0.061 S  
HETATM   23  O   UNL     1      -6.359   6.437  65.203  1.00  0.00    -0.033 OA 
HETATM   24  O   UNL     1      -6.609   8.940  65.238  1.00  0.00    -0.066 OA 
BRANCH  22  25
HETATM   25  N   UNL     1      -8.686   7.545  65.386  1.00  0.00    -0.345 N  
HETATM   26  H   UNL     1      -9.087   7.796  64.482  1.00  0.00     0.000 HD 
BRANCH  25  27
HETATM   27  C   UNL     1      -9.485   7.110  66.462  1.00  0.00    -0.156 A  
HETATM   28  N   UNL     1      -9.903   8.107  67.259  1.00  0.00    -0.178 NA 
HETATM   29  C   UNL     1     -10.740   7.756  68.262  1.00  0.00    -0.036 A  
HETATM   30  C   UNL     1     -11.145   6.454  68.511  1.00  0.00    -0.385 A  
HETATM   31  C   UNL     1     -10.664   5.445  67.684  1.00  0.00    -0.125 A  
HETATM   32  C   UNL     1      -9.813   5.776  66.631  1.00  0.00    -0.194 A  
ENDBRANCH  25  27
ENDBRANCH  22  25
ENDBRANCH  19  22
ENDBRANCH  14  16
ENDBRANCH  12  14
ENDBRANCH   6  12
TORSDOF 6
ENDMDL
MODEL      246
REMARK 921   NORMALIZED FREE ENERGY PREDICTED BY IDOCK:   -4.49 KCAL/MOL
REMARK 922        TOTAL FREE ENERGY PREDICTED BY IDOCK:   -6.58 KCAL/MOL
REMARK 923 INTER-LIGAND FREE ENERGY PREDICTED BY IDOCK:   -5.95 KCAL/MOL
REMARK 924 INTRA-LIGAND FREE ENERGY PREDICTED BY IDOCK:   -0.63 KCAL/MOL
REMARK 927      BINDING AFFINITY PREDICTED BY RF-SCORE:    0.00 PKD
ROOT
HETATM    1  O   UNL     1     -13.527  12.489  71.687  1.00  0.00    -0.285 OA 
HETATM    2  C   UNL     1     -12.624  11.575  71.270  1.00  0.00    -0.347 C  
HETATM    3  C   UNL     1     -11.964  11.906  69.979  1.00  0.00    -0.409 A  
HETATM    4  O   UNL     1     -12.408  10.536  71.871  1.00  0.00    -0.269 OA 
HETATM    5  C   UNL     1     -11.475  10.837  69.206  1.00  0.00    -0.369 A  
HETATM    6  C   UNL     1     -10.805  11.069  67.994  1.00  0.00    -0.229 A  
HETATM    7  C   UNL     1     -10.649  12.396  67.569  1.00  0.00    -0.240 A  
HETATM    8  O   UNL     1     -12.267  14.267  70.266  1.00  0.00    -0.301 OA 
HETATM    9  C   UNL     1     -11.784  13.218  69.529  1.00  0.00    -0.322 A  
HETATM   10  H   UNL     1     -12.144  15.159  69.961  1.00  0.00     0.000 HD 
HETATM   11  C   UNL     1     -11.128  13.469  68.327  1.00  0.00    -0.287 A  
ENDROOT
BRANCH   6  12
HETATM   12  N   UNL     1     -10.274  10.059  67.160  1.00  0.00    -0.215 NA 
HETATM   13  H   UNL     1      -9.394  10.155  66.653  1.00  0.00     0.000 HD 
BRANCH  12  14
HETATM   14  N   UNL     1     -10.991   9.038  67.106  1.00  0.00    -0.309 NA 
HETATM   15  H   UNL     1     -12.011   9.061  67.115  1.00  0.00     0.000 HD 
BRANCH  14  16
HETATM   16  C   UNL     1     -10.233   7.849  67.030  1.00  0.00    -0.312 A  
HETATM   17  C   UNL     1     -10.106   5.472  67.568  1.00  0.00    -0.217 A  
HETATM   18  C   UNL     1     -10.808   6.682  67.551  1.00  0.00    -0.417 A  
HETATM   19  C   UNL     1      -8.824   5.407  67.018  1.00  0.00    -0.110 A  
HETATM   20  C   UNL     1      -8.945   7.763  66.474  1.00  0.00    -0.191 A  
HETATM   21  C   UNL     1      -8.237   6.552  66.471  1.00  0.00    -0.113 A  
BRANCH  19  22
HETATM   22  S   UNL     1      -7.875   3.906  67.200  1.00  0.00    -0.088 S  
HETATM   23  O   UNL     1      -8.012   3.472  68.572  1.00  0.00    -0.065 OA 
HETATM   24  O   UNL     1      -6.565   4.174  66.637  1.00  0.00    -0.043 OA 
BRANCH  22  25
HETATM   25  N   UNL     1      -8.616   2.817  66.146  1.00  0.00    -0.111 N  
HETATM   26  H   UNL     1      -8.787   1.846  66.404  1.00  0.00     0.000 HD 
BRANCH  25  27
HETATM   27  C   UNL     1      -8.984   3.333  64.887  1.00  0.00    -0.135 A  
HETATM   28  N   UNL     1      -7.938   3.596  64.087  1.00  0.00    -0.085 NA 
HETATM   29  C   UNL     1      -8.236   4.017  62.837  1.00  0.00    -0.081 A  
HETATM   30  C   UNL     1      -9.528   4.209  62.373  1.00  0.00    -0.121 A  
HETATM   31  C   UNL     1     -10.584   3.957  63.243  1.00  0.00    -0.177 A  
HETATM   32  C   UNL     1     -10.311   3.506  64.532  1.00  0.00    -0.105 A  
ENDBRANCH  25  27
ENDBRANCH  22  25
ENDBRANCH  19  22
ENDBRANCH  14  16
ENDBRANCH  12  14
ENDBRANCH   6  12
TORSDOF 6
ENDMDL
MODEL      247
REMARK 921   NORMALIZED FREE ENERGY PREDICTED BY IDOCK:   -4.48 KCAL/MOL
REMARK 922        TOTAL FREE ENERGY PREDICTED BY IDOCK:   -6.58 KCAL/MOL
REMARK 923 INTER-LIGAND FREE ENERGY PREDICTED BY IDOCK:   -6.47 KCAL/MOL
REMARK 924 INTRA-LIGAND FREE ENERGY PREDICTED BY IDOCK:   -0.10 KCAL/MOL
REMARK 927      BINDING AFFINITY PREDICTED BY RF-SCORE:    0.00 PKD
ROOT
HETATM    1  O   UNL     1     -11.055   5.763  66.906  1.00  0.00    -0.222 OA 
HETATM    2  C   UNL     1      -9.807   6.235  67.110  1.00  0.00    -0.142 C  
HETATM    3  C   UNL     1      -9.687   7.196  68.239  1.00  0.00    -0.148 A  
HETATM    4  O   UNL     1      -8.863   5.944  66.393  1.00  0.00    -0.125 OA 
HETATM    5  C   UNL     1      -8.640   8.134  68.188  1.00  0.00    -0.129 A  
HETATM    6  C   UNL     1      -8.438   9.048  69.234  1.00  0.00    -0.128 A  
HETATM    7  C   UNL     1      -9.318   9.010  70.325  1.00  0.00    -0.227 A  
HETATM    8  O   UNL     1     -11.574   6.280  69.403  1.00  0.00    -0.557 OA 
HETATM    9  C   UNL     1     -10.542   7.180  69.346  1.00  0.00    -0.233 A  
HETATM   10  H   UNL     1     -12.155   6.268  70.155  1.00  0.00     0.000 HD 
HETATM   11  C   UNL     1     -10.363   8.082  70.390  1.00  0.00    -0.206 A  
ENDROOT
BRANCH   6  12
HETATM   12  N   UNL     1      -7.409  10.016  69.271  1.00  0.00    -0.081 NA 
HETATM   13  H   UNL     1      -6.774  10.131  70.061  1.00  0.00     0.000 HD 
BRANCH  12  14
HETATM   14  N   UNL     1      -7.356  10.717  68.239  1.00  0.00    -0.083 NA 
HETATM   15  H   UNL     1      -6.797  10.478  67.419  1.00  0.00     0.000 HD 
BRANCH  14  16
HETATM   16  C   UNL     1      -8.155  11.878  68.332  1.00  0.00    -0.155 A  
HETATM   17  C   UNL     1     -10.333  12.895  67.912  1.00  0.00    -0.233 A  
HETATM   18  C   UNL     1      -9.487  11.782  67.906  1.00  0.00    -0.191 A  
HETATM   19  C   UNL     1      -9.863  14.120  68.391  1.00  0.00    -0.231 A  
HETATM   20  C   UNL     1      -7.702  13.117  68.819  1.00  0.00    -0.006 A  
HETATM   21  C   UNL     1      -8.545  14.237  68.843  1.00  0.00    -0.030 A  
BRANCH  19  22
HETATM   22  S   UNL     1     -10.895  15.569  68.233  1.00  0.00    -0.306 S  
HETATM   23  O   UNL     1     -12.216  15.119  67.859  1.00  0.00    -0.050 OA 
HETATM   24  O   UNL     1     -10.168  16.504  67.396  1.00  0.00    -0.273 OA 
BRANCH  22  25
HETATM   25  N   UNL     1     -10.902  16.243  69.779  1.00  0.00    -0.341 N  
HETATM   26  H   UNL     1     -10.302  17.028  70.029  1.00  0.00     0.000 HD 
BRANCH  25  27
HETATM   27  C   UNL     1     -11.788  15.655  70.703  1.00  0.00    -0.376 A  
HETATM   28  N   UNL     1     -11.263  15.503  71.930  1.00  0.00    -0.350 NA 
HETATM   29  C   UNL     1     -12.096  15.018  72.878  1.00  0.00    -0.322 A  
HETATM   30  C   UNL     1     -13.413  14.656  72.639  1.00  0.00    -0.580 A  
HETATM   31  C   UNL     1     -13.910  14.797  71.348  1.00  0.00    -0.509 A  
HETATM   32  C   UNL     1     -13.082  15.310  70.352  1.00  0.00    -0.240 A  
ENDBRANCH  25  27
ENDBRANCH  22  25
ENDBRANCH  19  22
ENDBRANCH  14  16
ENDBRANCH  12  14
ENDBRANCH   6  12
TORSDOF 6
ENDMDL
MODEL      248
REMARK 921   NORMALIZED FREE ENERGY PREDICTED BY IDOCK:   -4.44 KCAL/MOL
REMARK 922        TOTAL FREE ENERGY PREDICTED BY IDOCK:   -6.52 KCAL/MOL
REMARK 923 INTER-LIGAND FREE ENERGY PREDICTED BY IDOCK:   -5.77 KCAL/MOL
REMARK 924 INTRA-LIGAND FREE ENERGY PREDICTED BY IDOCK:   -0.74 KCAL/MOL
REMARK 927      BINDING AFFINITY PREDICTED BY RF-SCORE:    0.00 PKD
ROOT
HETATM    1  O   UNL     1     -12.771  16.332  69.914  1.00  0.00     0.124 OA 
HETATM    2  C   UNL     1     -11.799  15.395  69.862  1.00  0.00    -0.350 C  
HETATM    3  C   UNL     1     -10.857  15.546  68.721  1.00  0.00    -0.256 A  
HETATM    4  O   UNL     1     -11.730  14.467  70.652  1.00  0.00    -0.292 OA 
HETATM    5  C   UNL     1     -10.206  14.389  68.256  1.00  0.00    -0.241 A  
HETATM    6  C   UNL     1      -9.275  14.456  67.208  1.00  0.00    -0.209 A  
HETATM    7  C   UNL     1      -9.021  15.708  66.628  1.00  0.00    -0.317 A  
HETATM    8  O   UNL     1     -11.212  17.913  68.560  1.00  0.00    -0.050 OA 
HETATM    9  C   UNL     1     -10.575  16.780  68.125  1.00  0.00    -0.350 A  
HETATM   10  H   UNL     1     -11.020  18.751  68.156  1.00  0.00     0.000 HD 
HETATM   11  C   UNL     1      -9.659  16.867  67.081  1.00  0.00    -0.245 A  
ENDROOT
BRANCH   6  12
HETATM   12  N   UNL     1      -8.568  13.349  66.685  1.00  0.00    -0.442 NA 
HETATM   13  H   UNL     1      -7.557  13.241  66.763  1.00  0.00     0.000 HD 
BRANCH  12  14
HETATM   14  N   UNL     1      -9.308  12.518  66.118  1.00  0.00    -0.386 NA 
HETATM   15  H   UNL     1      -9.934  12.750  65.347  1.00  0.00     0.000 HD 
BRANCH  14  16
HETATM   16  C   UNL     1      -9.179  11.221  66.663  1.00  0.00    -0.180 A  
HETATM   17  C   UNL     1      -7.958   9.761  68.190  1.00  0.00    -0.100 A  
HETATM   18  C   UNL     1      -8.191  11.024  67.637  1.00  0.00    -0.117 A  
HETATM   19  C   UNL     1      -8.749   8.677  67.800  1.00  0.00    -0.137 A  
HETATM   20  C   UNL     1      -9.970  10.121  66.289  1.00  0.00    -0.304 A  
HETATM   21  C   UNL     1      -9.756   8.852  66.846  1.00  0.00    -0.263 A  
BRANCH  19  22
HETATM   22  S   UNL     1      -8.330   7.042  68.381  1.00  0.00    -0.124 S  
HETATM   23  O   UNL     1      -7.167   6.606  67.642  1.00  0.00    -0.085 OA 
HETATM   24  O   UNL     1      -9.556   6.268  68.355  1.00  0.00    -0.121 OA 
BRANCH  22  25
HETATM   25  N   UNL     1      -7.961   7.264  70.012  1.00  0.00    -0.115 N  
HETATM   26  H   UNL     1      -7.080   7.678  70.315  1.00  0.00     0.000 HD 
BRANCH  25  27
HETATM   27  C   UNL     1      -8.945   6.844  70.929  1.00  0.00    -0.149 A  
HETATM   28  N   UNL     1      -8.801   5.569  71.325  1.00  0.00    -0.134 NA 
HETATM   29  C   UNL     1      -9.670   5.137  72.267  1.00  0.00    -0.163 A  
HETATM   30  C   UNL     1     -10.684   5.918  72.800  1.00  0.00    -0.274 A  
HETATM   31  C   UNL     1     -10.821   7.223  72.339  1.00  0.00    -0.293 A  
HETATM   32  C   UNL     1      -9.931   7.704  71.381  1.00  0.00    -0.203 A  
ENDBRANCH  25  27
ENDBRANCH  22  25
ENDBRANCH  19  22
ENDBRANCH  14  16
ENDBRANCH  12  14
ENDBRANCH   6  12
TORSDOF 6
ENDMDL
MODEL      249
REMARK 921   NORMALIZED FREE ENERGY PREDICTED BY IDOCK:   -4.37 KCAL/MOL
REMARK 922        TOTAL FREE ENERGY PREDICTED BY IDOCK:   -6.43 KCAL/MOL
REMARK 923 INTER-LIGAND FREE ENERGY PREDICTED BY IDOCK:   -7.12 KCAL/MOL
REMARK 924 INTRA-LIGAND FREE ENERGY PREDICTED BY IDOCK:    0.69 KCAL/MOL
REMARK 927      BINDING AFFINITY PREDICTED BY RF-SCORE:    0.00 PKD
ROOT
HETATM    1  O   UNL     1      -5.134  10.546  66.259  1.00  0.00    -0.045 OA 
HETATM    2  C   UNL     1      -5.954   9.581  66.729  1.00  0.00    -0.059 C  
HETATM    3  C   UNL     1      -7.353   9.664  66.231  1.00  0.00    -0.094 A  
HETATM    4  O   UNL     1      -5.595   8.743  67.540  1.00  0.00    -0.038 OA 
HETATM    5  C   UNL     1      -8.366   9.113  67.037  1.00  0.00    -0.120 A  
HETATM    6  C   UNL     1      -9.706   9.119  66.619  1.00  0.00    -0.223 A  
HETATM    7  C   UNL     1     -10.009   9.701  65.380  1.00  0.00    -0.230 A  
HETATM    8  O   UNL     1      -6.714  10.781  64.206  1.00  0.00    -0.350 OA 
HETATM    9  C   UNL     1      -7.689  10.230  64.996  1.00  0.00    -0.129 A  
HETATM   10  H   UNL     1      -6.942  11.165  63.367  1.00  0.00     0.000 HD 
HETATM   11  C   UNL     1      -9.013  10.250  64.566  1.00  0.00    -0.247 A  
ENDROOT
BRANCH   6  12
HETATM   12  N   UNL     1     -10.783   8.581  67.358  1.00  0.00    -0.465 NA 
HETATM   13  H   UNL     1     -11.551   8.061  66.934  1.00  0.00     0.000 HD 
BRANCH  12  14
HETATM   14  N   UNL     1     -10.700   8.807  68.584  1.00  0.00    -0.411 NA 
HETATM   15  H   UNL     1     -10.558   8.081  69.286  1.00  0.00     0.000 HD 
BRANCH  14  16
HETATM   16  C   UNL     1     -10.826  10.181  68.889  1.00  0.00    -0.223 A  
HETATM   17  C   UNL     1     -12.108  11.906  70.045  1.00  0.00    -0.366 A  
HETATM   18  C   UNL     1     -11.877  10.562  69.734  1.00  0.00    -0.329 A  
HETATM   19  C   UNL     1     -11.254  12.890  69.542  1.00  0.00    -0.074 A  
HETATM   20  C   UNL     1      -9.972  11.184  68.399  1.00  0.00    -0.193 A  
HETATM   21  C   UNL     1     -10.185  12.534  68.715  1.00  0.00    -0.101 A  
BRANCH  19  22
HETATM   22  S   UNL     1     -11.660  14.609  69.803  1.00  0.00    -0.312 S  
HETATM   23  O   UNL     1     -10.415  15.338  69.892  1.00  0.00    -0.267 OA 
HETATM   24  O   UNL     1     -12.618  14.646  70.891  1.00  0.00    -0.302 OA 
BRANCH  22  25
HETATM   25  N   UNL     1     -12.518  15.047  68.419  1.00  0.00    -0.390 N  
HETATM   26  H   UNL     1     -13.453  15.449  68.467  1.00  0.00     0.000 HD 
BRANCH  25  27
HETATM   27  C   UNL     1     -11.862  14.824  67.192  1.00  0.00    -0.286 A  
HETATM   28  N   UNL     1     -10.932  15.748  66.903  1.00  0.00    -0.263 NA 
HETATM   29  C   UNL     1     -10.215  15.539  65.776  1.00  0.00    -0.366 A  
HETATM   30  C   UNL     1     -10.412  14.465  64.922  1.00  0.00    -0.448 A  
HETATM   31  C   UNL     1     -11.408  13.546  65.238  1.00  0.00    -0.304 A  
HETATM   32  C   UNL     1     -12.153  13.725  66.401  1.00  0.00    -0.483 A  
ENDBRANCH  25  27
ENDBRANCH  22  25
ENDBRANCH  19  22
ENDBRANCH  14  16
ENDBRANCH  12  14
ENDBRANCH   6  12
TORSDOF 6
ENDMDL
MODEL      250
REMARK 921   NORMALIZED FREE ENERGY PREDICTED BY IDOCK:   -4.36 KCAL/MOL
REMARK 922        TOTAL FREE ENERGY PREDICTED BY IDOCK:   -6.42 KCAL/MOL
REMARK 923 INTER-LIGAND FREE ENERGY PREDICTED BY IDOCK:   -5.88 KCAL/MOL
REMARK 924 INTRA-LIGAND FREE ENERGY PREDICTED BY IDOCK:   -0.54 KCAL/MOL
REMARK 927      BINDING AFFINITY PREDICTED BY RF-SCORE:    0.00 PKD
ROOT
HETATM    1  O   UNL     1      -8.437   5.729  66.114  1.00  0.00    -0.121 OA 
HETATM    2  C   UNL     1      -7.503   6.620  66.510  1.00  0.00    -0.078 C  
HETATM    3  C   UNL     1      -7.890   7.438  67.690  1.00  0.00    -0.113 A  
HETATM    4  O   UNL     1      -6.450   6.784  65.915  1.00  0.00    -0.047 OA 
HETATM    5  C   UNL     1      -7.294   8.704  67.829  1.00  0.00    -0.092 A  
HETATM    6  C   UNL     1      -7.579   9.520  68.936  1.00  0.00    -0.075 A  
HETATM    7  C   UNL     1      -8.485   9.041  69.893  1.00  0.00    -0.139 A  
HETATM    8  O   UNL     1      -9.381   5.761  68.538  1.00  0.00    -0.119 OA 
HETATM    9  C   UNL     1      -8.783   6.988  68.668  1.00  0.00    -0.123 A  
HETATM   10  H   UNL     1      -9.987   5.455  69.203  1.00  0.00     0.000 HD 
HETATM   11  C   UNL     1      -9.084   7.783  69.770  1.00  0.00    -0.147 A  
ENDROOT
BRANCH   6  12
HETATM   12  N   UNL     1      -7.021  10.798  69.160  1.00  0.00    -0.080 NA 
HETATM   13  H   UNL     1      -6.860  11.185  70.090  1.00  0.00     0.000 HD 
BRANCH  12  14
HETATM   14  N   UNL     1      -6.744  11.407  68.105  1.00  0.00    -0.057 NA 
HETATM   15  H   UNL     1      -5.876  11.276  67.587  1.00  0.00     0.000 HD 
BRANCH  14  16
HETATM   16  C   UNL     1      -7.769  12.295  67.710  1.00  0.00    -0.139 A  
HETATM   17  C   UNL     1      -8.900  14.418  68.120  1.00  0.00    -0.180 A  
HETATM   18  C   UNL     1      -7.881  13.505  68.408  1.00  0.00    -0.143 A  
HETATM   19  C   UNL     1      -9.802  14.146  67.088  1.00  0.00    -0.253 A  
HETATM   20  C   UNL     1      -8.681  12.043  66.670  1.00  0.00    -0.171 A  
HETATM   21  C   UNL     1      -9.698  12.957  66.361  1.00  0.00    -0.263 A  
BRANCH  19  22
HETATM   22  S   UNL     1     -11.197  15.234  66.845  1.00  0.00    -0.196 S  
HETATM   23  O   UNL     1     -11.562  15.764  68.139  1.00  0.00    -0.344 OA 
HETATM   24  O   UNL     1     -12.161  14.498  66.049  1.00  0.00    -0.364 OA 
BRANCH  22  25
HETATM   25  N   UNL     1     -10.603  16.451  65.840  1.00  0.00    -0.315 N  
HETATM   26  H   UNL     1     -10.735  16.430  64.829  1.00  0.00     0.000 HD 
BRANCH  25  27
HETATM   27  C   UNL     1      -9.914  17.499  66.482  1.00  0.00    -0.321 A  
HETATM   28  N   UNL     1      -8.614  17.569  66.153  1.00  0.00    -0.488 NA 
HETATM   29  C   UNL     1      -7.922  18.605  66.678  1.00  0.00    -0.265 A  
HETATM   30  C   UNL     1      -8.471  19.547  67.534  1.00  0.00    -0.339 A  
HETATM   31  C   UNL     1      -9.813  19.421  67.878  1.00  0.00    -0.460 A  
HETATM   32  C   UNL     1     -10.557  18.374  67.340  1.00  0.00    -0.445 A  
ENDBRANCH  25  27
ENDBRANCH  22  25
ENDBRANCH  19  22
ENDBRANCH  14  16
ENDBRANCH  12  14
ENDBRANCH   6  12
TORSDOF 6
ENDMDL
MODEL      251
REMARK 921   NORMALIZED FREE ENERGY PREDICTED BY IDOCK:   -4.36 KCAL/MOL
REMARK 922        TOTAL FREE ENERGY PREDICTED BY IDOCK:   -6.41 KCAL/MOL
REMARK 923 INTER-LIGAND FREE ENERGY PREDICTED BY IDOCK:   -5.63 KCAL/MOL
REMARK 924 INTRA-LIGAND FREE ENERGY PREDICTED BY IDOCK:   -0.77 KCAL/MOL
REMARK 927      BINDING AFFINITY PREDICTED BY RF-SCORE:    0.00 PKD
ROOT
HETATM    1  O   UNL     1      -7.857  12.928  67.167  1.00  0.00    -0.156 OA 
HETATM    2  C   UNL     1      -8.136  11.985  68.093  1.00  0.00    -0.160 C  
HETATM    3  C   UNL     1      -7.065  11.777  69.103  1.00  0.00    -0.071 A  
HETATM    4  O   UNL     1      -9.158  11.318  68.071  1.00  0.00    -0.145 OA 
HETATM    5  C   UNL     1      -6.991  10.515  69.722  1.00  0.00    -0.144 A  
HETATM    6  C   UNL     1      -6.032  10.252  70.713  1.00  0.00    -0.086 A  
HETATM    7  C   UNL     1      -5.142  11.279  71.060  1.00  0.00    -0.119 A  
HETATM    8  O   UNL     1      -6.221  14.010  68.875  1.00  0.00    -0.081 OA 
HETATM    9  C   UNL     1      -6.167  12.781  69.479  1.00  0.00    -0.120 A  
HETATM   10  H   UNL     1      -5.611  14.692  69.131  1.00  0.00     0.000 HD 
HETATM   11  C   UNL     1      -5.205  12.538  70.455  1.00  0.00    -0.129 A  
ENDROOT
BRANCH   6  12
HETATM   12  N   UNL     1      -5.891   9.021  71.392  1.00  0.00    -0.053 NA 
HETATM   13  H   UNL     1      -5.480   8.189  70.968  1.00  0.00     0.000 HD 
BRANCH  12  14
HETATM   14  N   UNL     1      -6.320   9.054  72.564  1.00  0.00    -0.280 NA 
HETATM   15  H   UNL     1      -5.977   9.700  73.275  1.00  0.00     0.000 HD 
BRANCH  14  16
HETATM   16  C   UNL     1      -7.334   8.098  72.795  1.00  0.00    -0.119 A  
HETATM   17  C   UNL     1      -8.346   5.989  72.102  1.00  0.00    -0.110 A  
HETATM   18  C   UNL     1      -7.346   6.959  71.979  1.00  0.00    -0.087 A  
HETATM   19  C   UNL     1      -9.331   6.129  73.084  1.00  0.00    -0.138 A  
HETATM   20  C   UNL     1      -8.328   8.218  73.782  1.00  0.00    -0.265 A  
HETATM   21  C   UNL     1      -9.327   7.245  73.925  1.00  0.00    -0.304 A  
BRANCH  19  22
HETATM   22  S   UNL     1     -10.694   4.977  73.117  1.00  0.00    -0.283 S  
HETATM   23  O   UNL     1     -10.909   4.601  74.496  1.00  0.00    -0.339 OA 
HETATM   24  O   UNL     1     -10.409   3.970  72.112  1.00  0.00    -0.166 OA 
BRANCH  22  25
HETATM   25  N   UNL     1     -12.000   5.863  72.522  1.00  0.00    -0.497 N  
HETATM   26  H   UNL     1     -12.962   5.654  72.788  1.00  0.00     0.000 HD 
BRANCH  25  27
HETATM   27  C   UNL     1     -11.680   6.912  71.637  1.00  0.00    -0.304 A  
HETATM   28  N   UNL     1     -11.697   8.125  72.212  1.00  0.00    -0.354 NA 
HETATM   29  C   UNL     1     -11.319   9.161  71.429  1.00  0.00    -0.344 A  
HETATM   30  C   UNL     1     -10.955   9.031  70.098  1.00  0.00    -0.256 A  
HETATM   31  C   UNL     1     -10.982   7.761  69.529  1.00  0.00    -0.092 A  
HETATM   32  C   UNL     1     -11.351   6.672  70.314  1.00  0.00    -0.431 A  
ENDBRANCH  25  27
ENDBRANCH  22  25
ENDBRANCH  19  22
ENDBRANCH  14  16
ENDBRANCH  12  14
ENDBRANCH   6  12
TORSDOF 6
ENDMDL
MODEL      252
REMARK 921   NORMALIZED FREE ENERGY PREDICTED BY IDOCK:   -4.33 KCAL/MOL
REMARK 922        TOTAL FREE ENERGY PREDICTED BY IDOCK:   -6.37 KCAL/MOL
REMARK 923 INTER-LIGAND FREE ENERGY PREDICTED BY IDOCK:   -5.71 KCAL/MOL
REMARK 924 INTRA-LIGAND FREE ENERGY PREDICTED BY IDOCK:   -0.66 KCAL/MOL
REMARK 927      BINDING AFFINITY PREDICTED BY RF-SCORE:    0.00 PKD
ROOT
HETATM    1  O   UNL     1      -8.157   3.765  71.501  1.00  0.00    -0.066 OA 
HETATM    2  C   UNL     1      -8.768   4.963  71.626  1.00  0.00    -0.127 C  
HETATM    3  C   UNL     1      -8.670   5.833  70.424  1.00  0.00    -0.135 A  
HETATM    4  O   UNL     1      -9.307   5.327  72.658  1.00  0.00    -0.137 OA 
HETATM    5  C   UNL     1      -8.752   7.224  70.618  1.00  0.00    -0.147 A  
HETATM    6  C   UNL     1      -8.706   8.109  69.530  1.00  0.00    -0.142 A  
HETATM    7  C   UNL     1      -8.563   7.569  68.244  1.00  0.00    -0.124 A  
HETATM    8  O   UNL     1      -8.442   3.975  68.924  1.00  0.00    -0.076 OA 
HETATM    9  C   UNL     1      -8.536   5.327  69.127  1.00  0.00    -0.098 A  
HETATM   10  H   UNL     1      -8.351   3.631  68.043  1.00  0.00     0.000 HD 
HETATM   11  C   UNL     1      -8.483   6.188  68.035  1.00  0.00    -0.116 A  
ENDROOT
BRANCH   6  12
HETATM   12  N   UNL     1      -8.791   9.516  69.631  1.00  0.00    -0.171 NA 
HETATM   13  H   UNL     1      -7.975  10.124  69.708  1.00  0.00     0.000 HD 
BRANCH  12  14
HETATM   14  N   UNL     1      -9.966   9.940  69.616  1.00  0.00    -0.218 NA 
HETATM   15  H   UNL     1     -10.741   9.479  70.093  1.00  0.00     0.000 HD 
BRANCH  14  16
HETATM   16  C   UNL     1     -10.101  11.130  68.867  1.00  0.00    -0.186 A  
HETATM   17  C   UNL     1      -9.058  12.687  67.303  1.00  0.00    -0.191 A  
HETATM   18  C   UNL     1      -9.032  11.497  68.037  1.00  0.00    -0.170 A  
HETATM   19  C   UNL     1     -10.185  13.510  67.358  1.00  0.00    -0.237 A  
HETATM   20  C   UNL     1     -11.229  11.968  68.904  1.00  0.00    -0.315 A  
HETATM   21  C   UNL     1     -11.274  13.156  68.160  1.00  0.00    -0.304 A  
BRANCH  19  22
HETATM   22  S   UNL     1     -10.137  15.104  66.555  1.00  0.00    -0.282 S  
HETATM   23  O   UNL     1     -11.065  15.967  67.250  1.00  0.00    -0.281 OA 
HETATM   24  O   UNL     1     -10.281  14.855  65.134  1.00  0.00    -0.383 OA 
BRANCH  22  25
HETATM   25  N   UNL     1      -8.548  15.628  66.771  1.00  0.00    -0.250 N  
HETATM   26  H   UNL     1      -7.752  15.002  66.656  1.00  0.00     0.000 HD 
BRANCH  25  27
HETATM   27  C   UNL     1      -8.389  16.984  67.120  1.00  0.00    -0.191 A  
HETATM   28  N   UNL     1      -7.903  17.167  68.358  1.00  0.00    -0.233 NA 
HETATM   29  C   UNL     1      -7.654  18.447  68.717  1.00  0.00    -0.275 A  
HETATM   30  C   UNL     1      -7.898  19.540  67.900  1.00  0.00    -0.330 A  
HETATM   31  C   UNL     1      -8.432  19.312  66.636  1.00  0.00    -0.329 A  
HETATM   32  C   UNL     1      -8.685  18.003  66.231  1.00  0.00    -0.194 A  
ENDBRANCH  25  27
ENDBRANCH  22  25
ENDBRANCH  19  22
ENDBRANCH  14  16
ENDBRANCH  12  14
ENDBRANCH   6  12
TORSDOF 6
ENDMDL
MODEL      253
REMARK 921   NORMALIZED FREE ENERGY PREDICTED BY IDOCK:   -4.32 KCAL/MOL
REMARK 922        TOTAL FREE ENERGY PREDICTED BY IDOCK:   -6.36 KCAL/MOL
REMARK 923 INTER-LIGAND FREE ENERGY PREDICTED BY IDOCK:   -6.03 KCAL/MOL
REMARK 924 INTRA-LIGAND FREE ENERGY PREDICTED BY IDOCK:   -0.33 KCAL/MOL
REMARK 927      BINDING AFFINITY PREDICTED BY RF-SCORE:    0.00 PKD
ROOT
HETATM    1  O   UNL     1     -10.837  10.690  65.557  1.00  0.00    -0.092 OA 
HETATM    2  C   UNL     1     -10.571  11.963  65.193  1.00  0.00    -0.287 C  
HETATM    3  C   UNL     1      -9.558  12.647  66.040  1.00  0.00    -0.190 A  
HETATM    4  O   UNL     1     -11.153  12.526  64.280  1.00  0.00    -0.312 OA 
HETATM    5  C   UNL     1      -9.619  14.051  66.120  1.00  0.00    -0.263 A  
HETATM    6  C   UNL     1      -8.675  14.772  66.869  1.00  0.00    -0.236 A  
HETATM    7  C   UNL     1      -7.678  14.054  67.544  1.00  0.00    -0.197 A  
HETATM    8  O   UNL     1      -8.483  10.595  66.659  1.00  0.00    -0.130 OA 
HETATM    9  C   UNL     1      -8.546  11.963  66.719  1.00  0.00    -0.181 A  
HETATM   10  H   UNL     1      -7.795  10.130  67.120  1.00  0.00     0.000 HD 
HETATM   11  C   UNL     1      -7.604  12.659  67.471  1.00  0.00    -0.160 A  
ENDROOT
BRANCH   6  12
HETATM   12  N   UNL     1      -8.654  16.179  66.998  1.00  0.00    -0.189 NA 
HETATM   13  H   UNL     1      -7.800  16.716  67.154  1.00  0.00     0.000 HD 
BRANCH  12  14
HETATM   14  N   UNL     1      -9.785  16.699  66.901  1.00  0.00    -0.245 NA 
HETATM   15  H   UNL     1     -10.066  17.305  66.129  1.00  0.00     0.000 HD 
BRANCH  14  16
HETATM   16  C   UNL     1     -10.632  16.355  67.978  1.00  0.00    -0.314 A  
HETATM   17  C   UNL     1     -10.970  16.376  70.395  1.00  0.00    -0.218 A  
HETATM   18  C   UNL     1     -10.221  16.724  69.266  1.00  0.00    -0.278 A  
HETATM   19  C   UNL     1     -12.174  15.684  70.241  1.00  0.00    -0.386 A  
HETATM   20  C   UNL     1     -11.849  15.666  67.842  1.00  0.00     0.025 A  
HETATM   21  C   UNL     1     -12.616  15.324  68.965  1.00  0.00     0.243 A  
BRANCH  19  22
HETATM   22  S   UNL     1     -13.030  15.096  71.693  1.00  0.00    -0.415 S  
HETATM   23  O   UNL     1     -14.367  14.725  71.286  1.00  0.00    -0.422 OA 
HETATM   24  O   UNL     1     -12.822  16.092  72.726  1.00  0.00    -0.442 OA 
BRANCH  22  25
HETATM   25  N   UNL     1     -12.148  13.742  72.174  1.00  0.00     0.129 N  
HETATM   26  H   UNL     1     -11.448  13.787  72.914  1.00  0.00     0.000 HD 
BRANCH  25  27
HETATM   27  C   UNL     1     -12.438  12.544  71.491  1.00  0.00    -0.017 A  
HETATM   28  N   UNL     1     -11.890  12.477  70.267  1.00  0.00    -0.283 NA 
HETATM   29  C   UNL     1     -12.068  11.315  69.598  1.00  0.00    -0.322 A  
HETATM   30  C   UNL     1     -12.790  10.240  70.093  1.00  0.00    -0.033 A  
HETATM   31  C   UNL     1     -13.370  10.361  71.352  1.00  0.00    -0.373 A  
HETATM   32  C   UNL     1     -13.191  11.539  72.073  1.00  0.00    -0.443 A  
ENDBRANCH  25  27
ENDBRANCH  22  25
ENDBRANCH  19  22
ENDBRANCH  14  16
ENDBRANCH  12  14
ENDBRANCH   6  12
TORSDOF 6
ENDMDL
MODEL      254
REMARK 921   NORMALIZED FREE ENERGY PREDICTED BY IDOCK:   -4.30 KCAL/MOL
REMARK 922        TOTAL FREE ENERGY PREDICTED BY IDOCK:   -6.34 KCAL/MOL
REMARK 923 INTER-LIGAND FREE ENERGY PREDICTED BY IDOCK:   -5.60 KCAL/MOL
REMARK 924 INTRA-LIGAND FREE ENERGY PREDICTED BY IDOCK:   -0.74 KCAL/MOL
REMARK 927      BINDING AFFINITY PREDICTED BY RF-SCORE:    0.00 PKD
ROOT
HETATM    1  O   UNL     1     -11.630   6.193  69.486  1.00  0.00    -0.396 OA 
HETATM    2  C   UNL     1     -10.598   7.043  69.674  1.00  0.00    -0.234 C  
HETATM    3  C   UNL     1      -9.719   7.218  68.487  1.00  0.00    -0.149 A  
HETATM    4  O   UNL     1     -10.370   7.581  70.746  1.00  0.00    -0.202 OA 
HETATM    5  C   UNL     1      -8.382   7.592  68.717  1.00  0.00    -0.129 A  
HETATM    6  C   UNL     1      -7.500   7.813  67.648  1.00  0.00    -0.104 A  
HETATM    7  C   UNL     1      -7.986   7.638  66.344  1.00  0.00    -0.107 A  
HETATM    8  O   UNL     1     -11.469   6.684  66.937  1.00  0.00    -0.777 OA 
HETATM    9  C   UNL     1     -10.173   7.060  67.174  1.00  0.00    -0.248 A  
HETATM   10  H   UNL     1     -11.777   6.577  66.044  1.00  0.00     0.000 HD 
HETATM   11  C   UNL     1      -9.312   7.269  66.100  1.00  0.00    -0.101 A  
ENDROOT
BRANCH   6  12
HETATM   12  N   UNL     1      -6.148   8.199  67.785  1.00  0.00    -0.046 NA 
HETATM   13  H   UNL     1      -5.419   7.938  67.120  1.00  0.00     0.000 HD 
BRANCH  12  14
HETATM   14  N   UNL     1      -5.935   8.892  68.801  1.00  0.00    -0.044 NA 
HETATM   15  H   UNL     1      -5.614   8.510  69.691  1.00  0.00     0.000 HD 
BRANCH  14  16
HETATM   16  C   UNL     1      -6.187  10.265  68.582  1.00  0.00    -0.047 A  
HETATM   17  C   UNL     1      -5.651  12.254  67.274  1.00  0.00    -0.122 A  
HETATM   18  C   UNL     1      -5.504  10.887  67.528  1.00  0.00    -0.044 A  
HETATM   19  C   UNL     1      -6.527  13.013  68.054  1.00  0.00    -0.120 A  
HETATM   20  C   UNL     1      -7.069  11.043  69.351  1.00  0.00    -0.128 A  
HETATM   21  C   UNL     1      -7.237  12.412  69.097  1.00  0.00     0.060 A  
BRANCH  19  22
HETATM   22  S   UNL     1      -6.575  14.784  67.832  1.00  0.00    -0.172 S  
HETATM   23  O   UNL     1      -5.302  15.185  67.279  1.00  0.00    -0.322 OA 
HETATM   24  O   UNL     1      -7.047  15.344  69.083  1.00  0.00    -0.134 OA 
BRANCH  22  25
HETATM   25  N   UNL     1      -7.820  15.028  66.720  1.00  0.00    -0.300 N  
HETATM   26  H   UNL     1      -7.913  14.459  65.879  1.00  0.00     0.000 HD 
BRANCH  25  27
HETATM   27  C   UNL     1      -8.723  16.065  67.025  1.00  0.00    -0.210 A  
HETATM   28  N   UNL     1      -8.339  17.266  66.562  1.00  0.00    -0.256 NA 
HETATM   29  C   UNL     1      -9.208  18.284  66.755  1.00  0.00    -0.288 A  
HETATM   30  C   UNL     1     -10.421  18.151  67.413  1.00  0.00    -0.414 A  
HETATM   31  C   UNL     1     -10.769  16.898  67.906  1.00  0.00    -0.344 A  
HETATM   32  C   UNL     1      -9.902  15.825  67.709  1.00  0.00    -0.224 A  
ENDBRANCH  25  27
ENDBRANCH  22  25
ENDBRANCH  19  22
ENDBRANCH  14  16
ENDBRANCH  12  14
ENDBRANCH   6  12
TORSDOF 6
ENDMDL
MODEL      255
REMARK 921   NORMALIZED FREE ENERGY PREDICTED BY IDOCK:   -4.28 KCAL/MOL
REMARK 922        TOTAL FREE ENERGY PREDICTED BY IDOCK:   -6.30 KCAL/MOL
REMARK 923 INTER-LIGAND FREE ENERGY PREDICTED BY IDOCK:   -6.35 KCAL/MOL
REMARK 924 INTRA-LIGAND FREE ENERGY PREDICTED BY IDOCK:    0.05 KCAL/MOL
REMARK 927      BINDING AFFINITY PREDICTED BY RF-SCORE:    0.00 PKD
ROOT
HETATM    1  O   UNL     1      -5.856   6.810  69.183  1.00  0.00    -0.017 OA 
HETATM    2  C   UNL     1      -6.814   6.971  70.122  1.00  0.00    -0.060 C  
HETATM    3  C   UNL     1      -8.176   6.561  69.690  1.00  0.00    -0.126 A  
HETATM    4  O   UNL     1      -6.592   7.465  71.216  1.00  0.00    -0.043 OA 
HETATM    5  C   UNL     1      -9.272   7.178  70.321  1.00  0.00    -0.156 A  
HETATM    6  C   UNL     1     -10.589   6.818  69.996  1.00  0.00    -0.220 A  
HETATM    7  C   UNL     1     -10.783   5.835  69.014  1.00  0.00    -0.354 A  
HETATM    8  O   UNL     1      -7.346   4.979  68.090  1.00  0.00    -0.072 OA 
HETATM    9  C   UNL     1      -8.405   5.579  68.721  1.00  0.00    -0.102 A  
HETATM   10  H   UNL     1      -7.501   4.311  67.432  1.00  0.00     0.000 HD 
HETATM   11  C   UNL     1      -9.703   5.212  68.380  1.00  0.00    -0.200 A  
ENDROOT
BRANCH   6  12
HETATM   12  N   UNL     1     -11.747   7.376  70.584  1.00  0.00    -0.417 NA 
HETATM   13  H   UNL     1     -12.674   6.957  70.507  1.00  0.00     0.000 HD 
BRANCH  12  14
HETATM   14  N   UNL     1     -11.520   8.434  71.207  1.00  0.00    -0.271 NA 
HETATM   15  H   UNL     1     -11.272   8.467  72.196  1.00  0.00     0.000 HD 
BRANCH  14  16
HETATM   16  C   UNL     1     -11.645   9.580  70.389  1.00  0.00    -0.212 A  
HETATM   17  C   UNL     1     -11.365  10.538  68.163  1.00  0.00    -0.324 A  
HETATM   18  C   UNL     1     -11.323   9.444  69.032  1.00  0.00     0.183 A  
HETATM   19  C   UNL     1     -11.777  11.786  68.639  1.00  0.00    -0.330 A  
HETATM   20  C   UNL     1     -12.065  10.840  70.848  1.00  0.00    -0.475 A  
HETATM   21  C   UNL     1     -12.126  11.942  69.983  1.00  0.00    -0.366 A  
BRANCH  19  22
HETATM   22  S   UNL     1     -11.662  13.207  67.564  1.00  0.00    -0.363 S  
HETATM   23  O   UNL     1     -12.153  14.348  68.303  1.00  0.00    -0.309 OA 
HETATM   24  O   UNL     1     -12.272  12.823  66.305  1.00  0.00    -0.515 OA 
BRANCH  22  25
HETATM   25  N   UNL     1     -10.012  13.356  67.250  1.00  0.00    -0.229 N  
HETATM   26  H   UNL     1      -9.410  12.543  67.123  1.00  0.00     0.000 HD 
BRANCH  25  27
HETATM   27  C   UNL     1      -9.516  14.672  67.173  1.00  0.00    -0.229 A  
HETATM   28  N   UNL     1      -9.813  15.292  66.019  1.00  0.00    -0.304 NA 
HETATM   29  C   UNL     1      -9.431  16.585  65.922  1.00  0.00    -0.219 A  
HETATM   30  C   UNL     1      -8.747  17.266  66.918  1.00  0.00    -0.261 A  
HETATM   31  C   UNL     1      -8.430  16.580  68.086  1.00  0.00    -0.191 A  
HETATM   32  C   UNL     1      -8.823  15.251  68.222  1.00  0.00    -0.171 A  
ENDBRANCH  25  27
ENDBRANCH  22  25
ENDBRANCH  19  22
ENDBRANCH  14  16
ENDBRANCH  12  14
ENDBRANCH   6  12
TORSDOF 6
ENDMDL
MODEL      256
REMARK 921   NORMALIZED FREE ENERGY PREDICTED BY IDOCK:   -4.25 KCAL/MOL
REMARK 922        TOTAL FREE ENERGY PREDICTED BY IDOCK:   -6.26 KCAL/MOL
REMARK 923 INTER-LIGAND FREE ENERGY PREDICTED BY IDOCK:   -5.58 KCAL/MOL
REMARK 924 INTRA-LIGAND FREE ENERGY PREDICTED BY IDOCK:   -0.68 KCAL/MOL
REMARK 927      BINDING AFFINITY PREDICTED BY RF-SCORE:    0.00 PKD
ROOT
HETATM    1  O   UNL     1      -7.307   2.747  68.337  1.00  0.00    -0.048 OA 
HETATM    2  C   UNL     1      -7.145   3.974  67.795  1.00  0.00    -0.059 C  
HETATM    3  C   UNL     1      -8.041   4.262  66.643  1.00  0.00    -0.102 A  
HETATM    4  O   UNL     1      -6.295   4.761  68.180  1.00  0.00    -0.034 OA 
HETATM    5  C   UNL     1      -7.600   5.205  65.697  1.00  0.00    -0.086 A  
HETATM    6  C   UNL     1      -8.405   5.560  64.602  1.00  0.00    -0.131 A  
HETATM    7  C   UNL     1      -9.655   4.937  64.472  1.00  0.00     0.182 A  
HETATM    8  O   UNL     1      -9.732   2.737  67.395  1.00  0.00    -0.383 OA 
HETATM    9  C   UNL     1      -9.296   3.666  66.487  1.00  0.00    -0.187 A  
HETATM   10  H   UNL     1     -10.585   2.332  67.290  1.00  0.00     0.000 HD 
HETATM   11  C   UNL     1     -10.107   4.000  65.406  1.00  0.00    -0.157 A  
ENDROOT
BRANCH   6  12
HETATM   12  N   UNL     1      -8.049   6.502  63.611  1.00  0.00    -0.271 NA 
HETATM   13  H   UNL     1      -8.368   6.447  62.643  1.00  0.00     0.000 HD 
BRANCH  12  14
HETATM   14  N   UNL     1      -7.303   7.408  64.039  1.00  0.00    -0.081 NA 
HETATM   15  H   UNL     1      -6.307   7.284  64.219  1.00  0.00     0.000 HD 
BRANCH  14  16
HETATM   16  C   UNL     1      -7.993   8.623  64.244  1.00  0.00    -0.148 A  
HETATM   17  C   UNL     1      -8.532  10.427  65.797  1.00  0.00    -0.170 A  
HETATM   18  C   UNL     1      -7.842   9.250  65.488  1.00  0.00    -0.099 A  
HETATM   19  C   UNL     1      -9.356  11.019  64.837  1.00  0.00    -0.214 A  
HETATM   20  C   UNL     1      -8.820   9.238  63.288  1.00  0.00    -0.159 A  
HETATM   21  C   UNL     1      -9.506  10.425  63.580  1.00  0.00    -0.353 A  
BRANCH  19  22
HETATM   22  S   UNL     1     -10.361  12.420  65.299  1.00  0.00    -0.286 S  
HETATM   23  O   UNL     1     -11.474  11.917  66.072  1.00  0.00    -0.341 OA 
HETATM   24  O   UNL     1     -10.588  13.184  64.087  1.00  0.00    -0.414 OA 
BRANCH  22  25
HETATM   25  N   UNL     1      -9.341  13.364  66.255  1.00  0.00    -0.450 N  
HETATM   26  H   UNL     1      -8.356  13.134  66.385  1.00  0.00     0.000 HD 
BRANCH  25  27
HETATM   27  C   UNL     1      -9.932  14.491  66.860  1.00  0.00    -0.259 A  
HETATM   28  N   UNL     1      -9.576  15.655  66.294  1.00  0.00    -0.282 NA 
HETATM   29  C   UNL     1     -10.176  16.763  66.783  1.00  0.00    -0.304 A  
HETATM   30  C   UNL     1     -11.090  16.751  67.825  1.00  0.00    -0.135 A  
HETATM   31  C   UNL     1     -11.409  15.529  68.407  1.00  0.00    -0.357 A  
HETATM   32  C   UNL     1     -10.820  14.367  67.915  1.00  0.00    -0.256 A  
ENDBRANCH  25  27
ENDBRANCH  22  25
ENDBRANCH  19  22
ENDBRANCH  14  16
ENDBRANCH  12  14
ENDBRANCH   6  12
TORSDOF 6
ENDMDL
MODEL      257
REMARK 921   NORMALIZED FREE ENERGY PREDICTED BY IDOCK:   -4.24 KCAL/MOL
REMARK 922        TOTAL FREE ENERGY PREDICTED BY IDOCK:   -6.25 KCAL/MOL
REMARK 923 INTER-LIGAND FREE ENERGY PREDICTED BY IDOCK:   -6.35 KCAL/MOL
REMARK 924 INTRA-LIGAND FREE ENERGY PREDICTED BY IDOCK:    0.09 KCAL/MOL
REMARK 927      BINDING AFFINITY PREDICTED BY RF-SCORE:    0.00 PKD
ROOT
HETATM    1  O   UNL     1      -8.103   7.356  65.973  1.00  0.00    -0.110 OA 
HETATM    2  C   UNL     1      -7.182   8.226  66.443  1.00  0.00    -0.075 C  
HETATM    3  C   UNL     1      -7.415   8.674  67.842  1.00  0.00    -0.097 A  
HETATM    4  O   UNL     1      -6.266   8.655  65.760  1.00  0.00    -0.054 OA 
HETATM    5  C   UNL     1      -6.901   9.929  68.218  1.00  0.00    -0.064 A  
HETATM    6  C   UNL     1      -7.046  10.405  69.530  1.00  0.00    -0.113 A  
HETATM    7  C   UNL     1      -7.730   9.601  70.453  1.00  0.00    -0.178 A  
HETATM    8  O   UNL     1      -8.603   6.676  68.434  1.00  0.00    -0.124 OA 
HETATM    9  C   UNL     1      -8.085   7.894  68.790  1.00  0.00    -0.126 A  
HETATM   10  H   UNL     1      -9.057   6.146  69.078  1.00  0.00     0.000 HD 
HETATM   11  C   UNL     1      -8.245   8.351  70.095  1.00  0.00    -0.117 A  
ENDROOT
BRANCH   6  12
HETATM   12  N   UNL     1      -6.554  11.645  69.997  1.00  0.00    -0.354 NA 
HETATM   13  H   UNL     1      -6.373  11.843  70.981  1.00  0.00     0.000 HD 
BRANCH  12  14
HETATM   14  N   UNL     1      -6.365  12.474  69.083  1.00  0.00    -0.089 NA 
HETATM   15  H   UNL     1      -5.520  12.504  68.511  1.00  0.00     0.000 HD 
BRANCH  14  16
HETATM   16  C   UNL     1      -7.449  13.366  68.928  1.00  0.00    -0.010 A  
HETATM   17  C   UNL     1      -8.436  15.507  69.559  1.00  0.00    -0.211 A  
HETATM   18  C   UNL     1      -7.383  14.589  69.611  1.00  0.00    -0.011 A  
HETATM   19  C   UNL     1      -9.561  15.228  68.780  1.00  0.00    -0.214 A  
HETATM   20  C   UNL     1      -8.585  13.107  68.143  1.00  0.00    -0.181 A  
HETATM   21  C   UNL     1      -9.641  14.026  68.071  1.00  0.00    -0.217 A  
BRANCH  19  22
HETATM   22  S   UNL     1     -10.967  16.326  68.859  1.00  0.00    -0.341 S  
HETATM   23  O   UNL     1     -12.099  15.617  68.307  1.00  0.00    -0.139 OA 
HETATM   24  O   UNL     1     -10.537  17.589  68.291  1.00  0.00    -0.372 OA 
BRANCH  22  25
HETATM   25  N   UNL     1     -11.178  16.610  70.508  1.00  0.00    -0.430 N  
HETATM   26  H   UNL     1     -10.799  17.438  70.966  1.00  0.00     0.000 HD 
BRANCH  25  27
HETATM   27  C   UNL     1     -11.910  15.634  71.212  1.00  0.00    -0.419 A  
HETATM   28  N   UNL     1     -11.930  15.831  72.540  1.00  0.00    -0.449 NA 
HETATM   29  C   UNL     1     -12.685  14.970  73.259  1.00  0.00    -0.519 A  
HETATM   30  C   UNL     1     -13.391  13.913  72.705  1.00  0.00    -0.640 A  
HETATM   31  C   UNL     1     -13.319  13.722  71.329  1.00  0.00    -0.282 A  
HETATM   32  C   UNL     1     -12.562  14.602  70.559  1.00  0.00    -0.409 A  
ENDBRANCH  25  27
ENDBRANCH  22  25
ENDBRANCH  19  22
ENDBRANCH  14  16
ENDBRANCH  12  14
ENDBRANCH   6  12
TORSDOF 6
ENDMDL
MODEL      258
REMARK 921   NORMALIZED FREE ENERGY PREDICTED BY IDOCK:   -4.22 KCAL/MOL
REMARK 922        TOTAL FREE ENERGY PREDICTED BY IDOCK:   -6.23 KCAL/MOL
REMARK 923 INTER-LIGAND FREE ENERGY PREDICTED BY IDOCK:   -5.52 KCAL/MOL
REMARK 924 INTRA-LIGAND FREE ENERGY PREDICTED BY IDOCK:   -0.71 KCAL/MOL
REMARK 927      BINDING AFFINITY PREDICTED BY RF-SCORE:    0.00 PKD
ROOT
HETATM    1  O   UNL     1      -8.385   7.617  65.198  1.00  0.00    -0.138 OA 
HETATM    2  C   UNL     1      -7.508   8.476  65.761  1.00  0.00    -0.081 C  
HETATM    3  C   UNL     1      -7.796   8.808  67.182  1.00  0.00    -0.096 A  
HETATM    4  O   UNL     1      -6.588   8.985  65.141  1.00  0.00    -0.070 OA 
HETATM    5  C   UNL     1      -7.335  10.046  67.668  1.00  0.00    -0.089 A  
HETATM    6  C   UNL     1      -7.534  10.415  69.007  1.00  0.00    -0.106 A  
HETATM    7  C   UNL     1      -8.217   9.522  69.845  1.00  0.00    -0.169 A  
HETATM    8  O   UNL     1      -8.932   6.734  67.583  1.00  0.00    -0.117 OA 
HETATM    9  C   UNL     1      -8.467   7.937  68.047  1.00  0.00    -0.123 A  
HETATM   10  H   UNL     1      -9.386   6.142  68.171  1.00  0.00     0.000 HD 
HETATM   11  C   UNL     1      -8.679   8.287  69.377  1.00  0.00    -0.142 A  
ENDROOT
BRANCH   6  12
HETATM   12  N   UNL     1      -7.099  11.631  69.582  1.00  0.00    -0.345 NA 
HETATM   13  H   UNL     1      -7.122  11.818  70.584  1.00  0.00     0.000 HD 
BRANCH  12  14
HETATM   14  N   UNL     1      -6.683  12.452  68.738  1.00  0.00    -0.087 NA 
HETATM   15  H   UNL     1      -5.878  12.285  68.133  1.00  0.00     0.000 HD 
BRANCH  14  16
HETATM   16  C   UNL     1      -7.450  13.638  68.714  1.00  0.00    -0.088 A  
HETATM   17  C   UNL     1      -9.432  14.769  67.850  1.00  0.00    -0.201 A  
HETATM   18  C   UNL     1      -8.639  13.624  67.973  1.00  0.00    -0.175 A  
HETATM   19  C   UNL     1      -9.061  15.943  68.511  1.00  0.00    -0.200 A  
HETATM   20  C   UNL     1      -7.097  14.825  69.380  1.00  0.00    -0.170 A  
HETATM   21  C   UNL     1      -7.892  15.976  69.276  1.00  0.00    -0.222 A  
BRANCH  19  22
HETATM   22  S   UNL     1      -9.985  17.440  68.208  1.00  0.00    -0.341 S  
HETATM   23  O   UNL     1      -9.417  18.474  69.043  1.00  0.00    -0.271 OA 
HETATM   24  O   UNL     1     -11.388  17.089  68.317  1.00  0.00    -0.174 OA 
BRANCH  22  25
HETATM   25  N   UNL     1      -9.717  17.768  66.575  1.00  0.00    -0.308 N  
HETATM   26  H   UNL     1     -10.397  17.522  65.856  1.00  0.00     0.000 HD 
BRANCH  25  27
HETATM   27  C   UNL     1      -8.498  18.403  66.266  1.00  0.00    -0.196 A  
HETATM   28  N   UNL     1      -7.512  17.548  65.948  1.00  0.00    -0.487 NA 
HETATM   29  C   UNL     1      -6.342  18.106  65.564  1.00  0.00    -0.214 A  
HETATM   30  C   UNL     1      -6.116  19.473  65.514  1.00  0.00    -0.240 A  
HETATM   31  C   UNL     1      -7.152  20.325  65.883  1.00  0.00    -0.287 A  
HETATM   32  C   UNL     1      -8.376  19.782  66.268  1.00  0.00    -0.383 A  
ENDBRANCH  25  27
ENDBRANCH  22  25
ENDBRANCH  19  22
ENDBRANCH  14  16
ENDBRANCH  12  14
ENDBRANCH   6  12
TORSDOF 6
ENDMDL
MODEL      259
REMARK 921   NORMALIZED FREE ENERGY PREDICTED BY IDOCK:   -4.20 KCAL/MOL
REMARK 922        TOTAL FREE ENERGY PREDICTED BY IDOCK:   -6.20 KCAL/MOL
REMARK 923 INTER-LIGAND FREE ENERGY PREDICTED BY IDOCK:   -5.88 KCAL/MOL
REMARK 924 INTRA-LIGAND FREE ENERGY PREDICTED BY IDOCK:   -0.32 KCAL/MOL
REMARK 927      BINDING AFFINITY PREDICTED BY RF-SCORE:    0.00 PKD
ROOT
HETATM    1  O   UNL     1      -8.926  18.677  67.022  1.00  0.00    -0.272 OA 
HETATM    2  C   UNL     1      -9.006  17.456  66.450  1.00  0.00    -0.246 C  
HETATM    3  C   UNL     1      -9.819  16.471  67.212  1.00  0.00    -0.254 A  
HETATM    4  O   UNL     1      -8.413  17.165  65.424  1.00  0.00     0.077 OA 
HETATM    5  C   UNL     1      -9.520  15.107  67.038  1.00  0.00    -0.237 A  
HETATM    6  C   UNL     1     -10.267  14.114  67.692  1.00  0.00    -0.241 A  
HETATM    7  C   UNL     1     -11.312  14.521  68.535  1.00  0.00    -0.309 A  
HETATM    8  O   UNL     1     -11.167  18.167  68.241  1.00  0.00    -0.058 OA 
HETATM    9  C   UNL     1     -10.873  16.841  68.053  1.00  0.00    -0.341 A  
HETATM   10  H   UNL     1     -11.884  18.419  68.812  1.00  0.00     0.000 HD 
HETATM   11  C   UNL     1     -11.622  15.873  68.715  1.00  0.00    -0.389 A  
ENDROOT
BRANCH   6  12
HETATM   12  N   UNL     1     -10.043  12.725  67.569  1.00  0.00    -0.211 NA 
HETATM   13  H   UNL     1     -10.443  12.155  66.823  1.00  0.00     0.000 HD 
BRANCH  12  14
HETATM   14  N   UNL     1      -9.307  12.264  68.467  1.00  0.00    -0.361 NA 
HETATM   15  H   UNL     1      -8.567  12.798  68.923  1.00  0.00     0.000 HD 
BRANCH  14  16
HETATM   16  C   UNL     1      -9.615  10.921  68.781  1.00  0.00    -0.189 A  
HETATM   17  C   UNL     1      -9.027   8.571  68.488  1.00  0.00    -0.139 A  
HETATM   18  C   UNL     1      -8.767   9.928  68.272  1.00  0.00    -0.119 A  
HETATM   19  C   UNL     1     -10.127   8.191  69.260  1.00  0.00    -0.202 A  
HETATM   20  C   UNL     1     -10.712  10.520  69.563  1.00  0.00    -0.291 A  
HETATM   21  C   UNL     1     -10.975   9.163  69.798  1.00  0.00    -0.195 A  
BRANCH  19  22
HETATM   22  S   UNL     1     -10.545   6.459  69.383  1.00  0.00    -0.289 S  
HETATM   23  O   UNL     1     -10.592   5.930  68.039  1.00  0.00    -0.220 OA 
HETATM   24  O   UNL     1     -11.703   6.375  70.252  1.00  0.00    -0.411 OA 
BRANCH  22  25
HETATM   25  N   UNL     1      -9.267   5.785  70.253  1.00  0.00    -0.150 N  
HETATM   26  H   UNL     1      -8.497   6.351  70.609  1.00  0.00     0.000 HD 
BRANCH  25  27
HETATM   27  C   UNL     1      -9.329   4.393  70.458  1.00  0.00    -0.143 A  
HETATM   28  N   UNL     1      -9.228   4.034  71.749  1.00  0.00    -0.122 NA 
HETATM   29  C   UNL     1      -9.362   2.715  72.012  1.00  0.00    -0.104 A  
HETATM   30  C   UNL     1      -9.563   1.748  71.038  1.00  0.00    -0.197 A  
HETATM   31  C   UNL     1      -9.629   2.156  69.710  1.00  0.00    -0.038 A  
HETATM   32  C   UNL     1      -9.511   3.510  69.407  1.00  0.00    -0.234 A  
ENDBRANCH  25  27
ENDBRANCH  22  25
ENDBRANCH  19  22
ENDBRANCH  14  16
ENDBRANCH  12  14
ENDBRANCH   6  12
TORSDOF 6
ENDMDL
MODEL      260
REMARK 921   NORMALIZED FREE ENERGY PREDICTED BY IDOCK:   -4.20 KCAL/MOL
REMARK 922        TOTAL FREE ENERGY PREDICTED BY IDOCK:   -6.20 KCAL/MOL
REMARK 923 INTER-LIGAND FREE ENERGY PREDICTED BY IDOCK:   -5.52 KCAL/MOL
REMARK 924 INTRA-LIGAND FREE ENERGY PREDICTED BY IDOCK:   -0.68 KCAL/MOL
REMARK 927      BINDING AFFINITY PREDICTED BY RF-SCORE:    0.00 PKD
ROOT
HETATM    1  O   UNL     1     -11.407  12.255  63.361  1.00  0.00    -0.440 OA 
HETATM    2  C   UNL     1     -10.595  11.403  64.023  1.00  0.00    -0.383 C  
HETATM    3  C   UNL     1     -10.263  11.822  65.411  1.00  0.00    -0.301 A  
HETATM    4  O   UNL     1     -10.125  10.401  63.509  1.00  0.00    -0.221 OA 
HETATM    5  C   UNL     1      -9.053  11.357  65.959  1.00  0.00    -0.218 A  
HETATM    6  C   UNL     1      -8.687  11.677  67.276  1.00  0.00    -0.159 A  
HETATM    7  C   UNL     1      -9.555  12.484  68.026  1.00  0.00    -0.212 A  
HETATM    8  O   UNL     1     -12.285  13.087  65.664  1.00  0.00    -0.429 OA 
HETATM    9  C   UNL     1     -11.110  12.618  66.190  1.00  0.00    -0.292 A  
HETATM   10  H   UNL     1     -12.860  13.628  66.193  1.00  0.00     0.000 HD 
HETATM   11  C   UNL     1     -10.762  12.952  67.495  1.00  0.00    -0.241 A  
ENDROOT
BRANCH   6  12
HETATM   12  N   UNL     1      -7.499  11.249  67.910  1.00  0.00    -0.091 NA 
HETATM   13  H   UNL     1      -6.652  10.993  67.402  1.00  0.00     0.000 HD 
BRANCH  12  14
HETATM   14  N   UNL     1      -7.591  11.214  69.155  1.00  0.00    -0.242 NA 
HETATM   15  H   UNL     1      -7.699  12.044  69.738  1.00  0.00     0.000 HD 
BRANCH  14  16
HETATM   16  C   UNL     1      -7.528   9.898  69.665  1.00  0.00    -0.122 A  
HETATM   17  C   UNL     1      -8.646   8.155  70.956  1.00  0.00    -0.152 A  
HETATM   18  C   UNL     1      -8.643   9.425  70.369  1.00  0.00    -0.266 A  
HETATM   19  C   UNL     1      -7.536   7.319  70.804  1.00  0.00    -0.084 A  
HETATM   20  C   UNL     1      -6.424   9.041  69.516  1.00  0.00    -0.043 A  
HETATM   21  C   UNL     1      -6.421   7.760  70.086  1.00  0.00    -0.034 A  
BRANCH  19  22
HETATM   22  S   UNL     1      -7.483   5.775  71.698  1.00  0.00    -0.096 S  
HETATM   23  O   UNL     1      -8.326   5.922  72.864  1.00  0.00    -0.118 OA 
HETATM   24  O   UNL     1      -6.082   5.427  71.838  1.00  0.00    -0.030 OA 
BRANCH  22  25
HETATM   25  N   UNL     1      -8.132   4.651  70.622  1.00  0.00    -0.081 N  
HETATM   26  H   UNL     1      -7.976   3.649  70.728  1.00  0.00     0.000 HD 
BRANCH  25  27
HETATM   27  C   UNL     1      -8.902   5.181  69.568  1.00  0.00    -0.099 A  
HETATM   28  N   UNL     1      -8.239   5.256  68.403  1.00  0.00    -0.091 NA 
HETATM   29  C   UNL     1      -8.954   5.682  67.337  1.00  0.00    -0.107 A  
HETATM   30  C   UNL     1     -10.287   6.057  67.401  1.00  0.00    -0.268 A  
HETATM   31  C   UNL     1     -10.930   5.997  68.633  1.00  0.00    -0.361 A  
HETATM   32  C   UNL     1     -10.225   5.546  69.746  1.00  0.00    -0.336 A  
ENDBRANCH  25  27
ENDBRANCH  22  25
ENDBRANCH  19  22
ENDBRANCH  14  16
ENDBRANCH  12  14
ENDBRANCH   6  12
TORSDOF 6
ENDMDL
MODEL      261
REMARK 921   NORMALIZED FREE ENERGY PREDICTED BY IDOCK:   -4.18 KCAL/MOL
REMARK 922        TOTAL FREE ENERGY PREDICTED BY IDOCK:   -6.16 KCAL/MOL
REMARK 923 INTER-LIGAND FREE ENERGY PREDICTED BY IDOCK:   -5.60 KCAL/MOL
REMARK 924 INTRA-LIGAND FREE ENERGY PREDICTED BY IDOCK:   -0.56 KCAL/MOL
REMARK 927      BINDING AFFINITY PREDICTED BY RF-SCORE:    0.00 PKD
ROOT
HETATM    1  O   UNL     1      -8.819   1.473  71.065  1.00  0.00    -0.051 OA 
HETATM    2  C   UNL     1      -9.289   2.664  71.496  1.00  0.00    -0.129 C  
HETATM    3  C   UNL     1      -8.601   3.846  70.912  1.00  0.00    -0.107 A  
HETATM    4  O   UNL     1     -10.167   2.764  72.338  1.00  0.00    -0.163 OA 
HETATM    5  C   UNL     1      -8.603   5.036  71.662  1.00  0.00    -0.132 A  
HETATM    6  C   UNL     1      -8.008   6.205  71.162  1.00  0.00    -0.116 A  
HETATM    7  C   UNL     1      -7.401   6.150  69.899  1.00  0.00    -0.079 A  
HETATM    8  O   UNL     1      -7.975   2.671  68.917  1.00  0.00    -0.052 OA 
HETATM    9  C   UNL     1      -7.994   3.828  69.652  1.00  0.00    -0.050 A  
HETATM   10  H   UNL     1      -7.563   2.659  68.060  1.00  0.00     0.000 HD 
HETATM   11  C   UNL     1      -7.394   4.975  69.141  1.00  0.00    -0.057 A  
ENDROOT
BRANCH   6  12
HETATM   12  N   UNL     1      -7.970   7.445  71.840  1.00  0.00    -0.090 NA 
HETATM   13  H   UNL     1      -7.104   7.918  72.098  1.00  0.00     0.000 HD 
BRANCH  12  14
HETATM   14  N   UNL     1      -9.105   7.902  72.091  1.00  0.00    -0.137 NA 
HETATM   15  H   UNL     1      -9.665   7.618  72.895  1.00  0.00     0.000 HD 
BRANCH  14  16
HETATM   16  C   UNL     1      -9.526   8.857  71.139  1.00  0.00    -0.265 A  
HETATM   17  C   UNL     1      -8.877  10.337  69.310  1.00  0.00    -0.186 A  
HETATM   18  C   UNL     1      -8.561   9.350  70.249  1.00  0.00    -0.249 A  
HETATM   19  C   UNL     1     -10.187  10.815  69.222  1.00  0.00    -0.194 A  
HETATM   20  C   UNL     1     -10.840   9.344  71.030  1.00  0.00    -0.406 A  
HETATM   21  C   UNL     1     -11.172  10.323  70.083  1.00  0.00    -0.387 A  
BRANCH  19  22
HETATM   22  S   UNL     1     -10.538  12.193  68.142  1.00  0.00    -0.224 S  
HETATM   23  O   UNL     1     -11.926  12.548  68.332  1.00  0.00    -0.322 OA 
HETATM   24  O   UNL     1     -10.042  11.825  66.829  1.00  0.00    -0.205 OA 
BRANCH  22  25
HETATM   25  N   UNL     1      -9.520  13.420  68.691  1.00  0.00    -0.392 N  
HETATM   26  H   UNL     1      -8.605  13.223  69.095  1.00  0.00     0.000 HD 
BRANCH  25  27
HETATM   27  C   UNL     1     -10.010  14.734  68.556  1.00  0.00    -0.228 A  
HETATM   28  N   UNL     1     -10.366  15.297  69.722  1.00  0.00    -0.264 NA 
HETATM   29  C   UNL     1     -10.768  16.587  69.662  1.00  0.00    -0.323 A  
HETATM   30  C   UNL     1     -10.853  17.316  68.486  1.00  0.00    -0.240 A  
HETATM   31  C   UNL     1     -10.507  16.687  67.295  1.00  0.00    -0.313 A  
HETATM   32  C   UNL     1     -10.073  15.364  67.325  1.00  0.00    -0.238 A  
ENDBRANCH  25  27
ENDBRANCH  22  25
ENDBRANCH  19  22
ENDBRANCH  14  16
ENDBRANCH  12  14
ENDBRANCH   6  12
TORSDOF 6
ENDMDL
MODEL      262
REMARK 921   NORMALIZED FREE ENERGY PREDICTED BY IDOCK:   -4.17 KCAL/MOL
REMARK 922        TOTAL FREE ENERGY PREDICTED BY IDOCK:   -6.15 KCAL/MOL
REMARK 923 INTER-LIGAND FREE ENERGY PREDICTED BY IDOCK:   -6.13 KCAL/MOL
REMARK 924 INTRA-LIGAND FREE ENERGY PREDICTED BY IDOCK:   -0.02 KCAL/MOL
REMARK 927      BINDING AFFINITY PREDICTED BY RF-SCORE:    0.00 PKD
ROOT
HETATM    1  O   UNL     1      -7.358  20.040  68.428  1.00  0.00    -0.303 OA 
HETATM    2  C   UNL     1      -8.358  19.140  68.552  1.00  0.00    -0.364 C  
HETATM    3  C   UNL     1      -8.007  17.764  68.111  1.00  0.00    -0.263 A  
HETATM    4  O   UNL     1      -9.475  19.441  68.940  1.00  0.00    -0.391 OA 
HETATM    5  C   UNL     1      -9.055  16.933  67.675  1.00  0.00    -0.223 A  
HETATM    6  C   UNL     1      -8.809  15.609  67.279  1.00  0.00    -0.198 A  
HETATM    7  C   UNL     1      -7.488  15.141  67.318  1.00  0.00    -0.228 A  
HETATM    8  O   UNL     1      -5.669  18.066  68.557  1.00  0.00    -0.169 OA 
HETATM    9  C   UNL     1      -6.701  17.263  68.146  1.00  0.00    -0.179 A  
HETATM   10  H   UNL     1      -4.783  17.726  68.581  1.00  0.00     0.000 HD 
HETATM   11  C   UNL     1      -6.436  15.955  67.752  1.00  0.00    -0.177 A  
ENDROOT
BRANCH   6  12
HETATM   12  N   UNL     1      -9.799  14.703  66.836  1.00  0.00    -0.243 NA 
HETATM   13  H   UNL     1     -10.800  14.899  66.877  1.00  0.00     0.000 HD 
BRANCH  12  14
HETATM   14  N   UNL     1      -9.326  13.636  66.391  1.00  0.00    -0.429 NA 
HETATM   15  H   UNL     1      -8.834  13.564  65.500  1.00  0.00     0.000 HD 
BRANCH  14  16
HETATM   16  C   UNL     1      -9.548  12.543  67.257  1.00  0.00    -0.205 A  
HETATM   17  C   UNL     1      -8.711  10.417  68.115  1.00  0.00    -0.125 A  
HETATM   18  C   UNL     1      -8.551  11.560  67.326  1.00  0.00    -0.150 A  
HETATM   19  C   UNL     1      -9.866  10.265  68.887  1.00  0.00    -0.195 A  
HETATM   20  C   UNL     1     -10.699  12.376  68.047  1.00  0.00    -0.247 A  
HETATM   21  C   UNL     1     -10.865  11.242  68.854  1.00  0.00    -0.253 A  
BRANCH  19  22
HETATM   22  S   UNL     1     -10.135   8.727  69.753  1.00  0.00    -0.202 S  
HETATM   23  O   UNL     1      -9.812   7.654  68.839  1.00  0.00    -0.158 OA 
HETATM   24  O   UNL     1     -11.453   8.816  70.352  1.00  0.00    -0.240 OA 
BRANCH  22  25
HETATM   25  N   UNL     1      -9.041   8.777  71.035  1.00  0.00    -0.197 N  
HETATM   26  H   UNL     1      -8.359   9.527  71.135  1.00  0.00     0.000 HD 
BRANCH  25  27
HETATM   27  C   UNL     1      -9.130   7.718  71.961  1.00  0.00    -0.137 A  
HETATM   28  N   UNL     1      -9.716   6.616  71.464  1.00  0.00    -0.165 NA 
HETATM   29  C   UNL     1      -9.754   5.542  72.284  1.00  0.00    -0.156 A  
HETATM   30  C   UNL     1      -9.258   5.538  73.578  1.00  0.00    -0.130 A  
HETATM   31  C   UNL     1      -8.687   6.708  74.068  1.00  0.00    -0.167 A  
HETATM   32  C   UNL     1      -8.618   7.828  73.243  1.00  0.00    -0.240 A  
ENDBRANCH  25  27
ENDBRANCH  22  25
ENDBRANCH  19  22
ENDBRANCH  14  16
ENDBRANCH  12  14
ENDBRANCH   6  12
TORSDOF 6
ENDMDL
MODEL      263
REMARK 921   NORMALIZED FREE ENERGY PREDICTED BY IDOCK:   -4.14 KCAL/MOL
REMARK 922        TOTAL FREE ENERGY PREDICTED BY IDOCK:   -6.12 KCAL/MOL
REMARK 923 INTER-LIGAND FREE ENERGY PREDICTED BY IDOCK:   -5.43 KCAL/MOL
REMARK 924 INTRA-LIGAND FREE ENERGY PREDICTED BY IDOCK:   -0.69 KCAL/MOL
REMARK 927      BINDING AFFINITY PREDICTED BY RF-SCORE:    0.00 PKD
ROOT
HETATM    1  O   UNL     1      -9.792  12.676  63.120  1.00  0.00    -0.043 OA 
HETATM    2  C   UNL     1      -9.721  11.797  64.143  1.00  0.00    -0.151 C  
HETATM    3  C   UNL     1     -10.254  12.309  65.434  1.00  0.00    -0.297 A  
HETATM    4  O   UNL     1      -9.209  10.694  64.035  1.00  0.00    -0.206 OA 
HETATM    5  C   UNL     1      -9.742  11.748  66.618  1.00  0.00    -0.219 A  
HETATM    6  C   UNL     1     -10.222  12.151  67.874  1.00  0.00    -0.198 A  
HETATM    7  C   UNL     1     -11.217  13.138  67.916  1.00  0.00    -0.300 A  
HETATM    8  O   UNL     1     -11.751  13.848  64.365  1.00  0.00    -0.388 OA 
HETATM    9  C   UNL     1     -11.253  13.285  65.511  1.00  0.00    -0.287 A  
HETATM   10  H   UNL     1     -12.430  14.511  64.418  1.00  0.00     0.000 HD 
HETATM   11  C   UNL     1     -11.738  13.703  66.747  1.00  0.00    -0.426 A  
ENDROOT
BRANCH   6  12
HETATM   12  N   UNL     1      -9.773  11.637  69.112  1.00  0.00    -0.408 NA 
HETATM   13  H   UNL     1     -10.358  11.592  69.947  1.00  0.00     0.000 HD 
BRANCH  12  14
HETATM   14  N   UNL     1      -8.588  11.244  69.080  1.00  0.00    -0.379 NA 
HETATM   15  H   UNL     1      -7.782  11.867  69.131  1.00  0.00     0.000 HD 
BRANCH  14  16
HETATM   16  C   UNL     1      -8.489   9.839  68.967  1.00  0.00    -0.137 A  
HETATM   17  C   UNL     1      -7.186   7.945  68.147  1.00  0.00    -0.090 A  
HETATM   18  C   UNL     1      -7.342   9.320  68.351  1.00  0.00    -0.077 A  
HETATM   19  C   UNL     1      -8.168   7.062  68.603  1.00  0.00    -0.122 A  
HETATM   20  C   UNL     1      -9.462   8.935  69.426  1.00  0.00    -0.161 A  
HETATM   21  C   UNL     1      -9.310   7.553  69.241  1.00  0.00    -0.151 A  
BRANCH  19  22
HETATM   22  S   UNL     1      -8.040   5.331  68.186  1.00  0.00    -0.094 S  
HETATM   23  O   UNL     1      -6.951   4.779  68.959  1.00  0.00    -0.049 OA 
HETATM   24  O   UNL     1      -8.031   5.255  66.737  1.00  0.00    -0.103 OA 
BRANCH  22  25
HETATM   25  N   UNL     1      -9.517   4.677  68.672  1.00  0.00    -0.142 N  
HETATM   26  H   UNL     1     -10.397   4.940  68.228  1.00  0.00     0.000 HD 
BRANCH  25  27
HETATM   27  C   UNL     1      -9.461   3.746  69.728  1.00  0.00    -0.185 A  
HETATM   28  N   UNL     1      -9.047   2.526  69.347  1.00  0.00    -0.110 NA 
HETATM   29  C   UNL     1      -8.897   1.614  70.334  1.00  0.00    -0.067 A  
HETATM   30  C   UNL     1      -9.169   1.868  71.670  1.00  0.00    -0.159 A  
HETATM   31  C   UNL     1      -9.626   3.134  72.019  1.00  0.00    -0.216 A  
HETATM   32  C   UNL     1      -9.776   4.101  71.028  1.00  0.00    -0.260 A  
ENDBRANCH  25  27
ENDBRANCH  22  25
ENDBRANCH  19  22
ENDBRANCH  14  16
ENDBRANCH  12  14
ENDBRANCH   6  12
TORSDOF 6
ENDMDL
MODEL      264
REMARK 921   NORMALIZED FREE ENERGY PREDICTED BY IDOCK:   -4.14 KCAL/MOL
REMARK 922        TOTAL FREE ENERGY PREDICTED BY IDOCK:   -6.11 KCAL/MOL
REMARK 923 INTER-LIGAND FREE ENERGY PREDICTED BY IDOCK:   -5.25 KCAL/MOL
REMARK 924 INTRA-LIGAND FREE ENERGY PREDICTED BY IDOCK:   -0.86 KCAL/MOL
REMARK 927      BINDING AFFINITY PREDICTED BY RF-SCORE:    0.00 PKD
ROOT
HETATM    1  O   UNL     1      -6.035  14.305  67.209  1.00  0.00    -0.300 OA 
HETATM    2  C   UNL     1      -6.880  13.868  68.168  1.00  0.00    -0.122 C  
HETATM    3  C   UNL     1      -7.670  12.665  67.793  1.00  0.00    -0.145 A  
HETATM    4  O   UNL     1      -7.027  14.445  69.233  1.00  0.00    -0.120 OA 
HETATM    5  C   UNL     1      -8.910  12.476  68.430  1.00  0.00    -0.123 A  
HETATM    6  C   UNL     1      -9.696  11.345  68.159  1.00  0.00    -0.192 A  
HETATM    7  C   UNL     1      -9.217  10.415  67.225  1.00  0.00    -0.157 A  
HETATM    8  O   UNL     1      -6.017  11.892  66.236  1.00  0.00    -0.495 OA 
HETATM    9  C   UNL     1      -7.218  11.713  66.873  1.00  0.00    -0.125 A  
HETATM   10  H   UNL     1      -5.710  11.245  65.611  1.00  0.00     0.000 HD 
HETATM   11  C   UNL     1      -7.985  10.589  66.585  1.00  0.00    -0.125 A  
ENDROOT
BRANCH   6  12
HETATM   12  N   UNL     1     -10.947  11.070  68.757  1.00  0.00    -0.203 NA 
HETATM   13  H   UNL     1     -11.816  10.990  68.230  1.00  0.00     0.000 HD 
BRANCH  12  14
HETATM   14  N   UNL     1     -10.880  10.935  69.997  1.00  0.00    -0.465 NA 
HETATM   15  H   UNL     1     -11.057  11.690  70.660  1.00  0.00     0.000 HD 
BRANCH  14  16
HETATM   16  C   UNL     1     -10.531   9.620  70.379  1.00  0.00    -0.293 A  
HETATM   17  C   UNL     1      -8.809   8.147  71.284  1.00  0.00    -0.176 A  
HETATM   18  C   UNL     1      -9.257   9.424  70.930  1.00  0.00    -0.242 A  
HETATM   19  C   UNL     1      -9.656   7.047  71.130  1.00  0.00    -0.165 A  
HETATM   20  C   UNL     1     -11.372   8.503  70.238  1.00  0.00    -0.135 A  
HETATM   21  C   UNL     1     -10.940   7.220  70.604  1.00  0.00    -0.278 A  
BRANCH  19  22
HETATM   22  S   UNL     1      -9.014   5.407  71.423  1.00  0.00    -0.139 S  
HETATM   23  O   UNL     1     -10.134   4.495  71.402  1.00  0.00    -0.190 OA 
HETATM   24  O   UNL     1      -8.158   5.502  72.590  1.00  0.00    -0.105 OA 
BRANCH  22  25
HETATM   25  N   UNL     1      -7.983   5.127  70.118  1.00  0.00    -0.078 N  
HETATM   26  H   UNL     1      -6.987   5.345  70.159  1.00  0.00     0.000 HD 
BRANCH  25  27
HETATM   27  C   UNL     1      -8.581   4.574  68.968  1.00  0.00    -0.083 A  
HETATM   28  N   UNL     1      -8.826   5.475  68.003  1.00  0.00    -0.106 NA 
HETATM   29  C   UNL     1      -9.326   4.986  66.846  1.00  0.00    -0.131 A  
HETATM   30  C   UNL     1      -9.611   3.647  66.631  1.00  0.00    -0.168 A  
HETATM   31  C   UNL     1      -9.373   2.749  67.667  1.00  0.00    -0.222 A  
HETATM   32  C   UNL     1      -8.844   3.219  68.866  1.00  0.00    -0.166 A  
ENDBRANCH  25  27
ENDBRANCH  22  25
ENDBRANCH  19  22
ENDBRANCH  14  16
ENDBRANCH  12  14
ENDBRANCH   6  12
TORSDOF 6
ENDMDL
MODEL      265
REMARK 921   NORMALIZED FREE ENERGY PREDICTED BY IDOCK:   -4.13 KCAL/MOL
REMARK 922        TOTAL FREE ENERGY PREDICTED BY IDOCK:   -6.10 KCAL/MOL
REMARK 923 INTER-LIGAND FREE ENERGY PREDICTED BY IDOCK:   -5.78 KCAL/MOL
REMARK 924 INTRA-LIGAND FREE ENERGY PREDICTED BY IDOCK:   -0.31 KCAL/MOL
REMARK 927      BINDING AFFINITY PREDICTED BY RF-SCORE:    0.00 PKD
ROOT
HETATM    1  O   UNL     1     -12.005  11.667  62.957  1.00  0.00    -0.187 OA 
HETATM    2  C   UNL     1     -10.917  11.613  63.756  1.00  0.00    -0.422 C  
HETATM    3  C   UNL     1     -10.982  12.503  64.946  1.00  0.00    -0.335 A  
HETATM    4  O   UNL     1      -9.937  10.935  63.496  1.00  0.00    -0.312 OA 
HETATM    5  C   UNL     1      -9.765  12.943  65.497  1.00  0.00    -0.076 A  
HETATM    6  C   UNL     1      -9.742  13.754  66.643  1.00  0.00    -0.289 A  
HETATM    7  C   UNL     1     -10.968  14.124  67.215  1.00  0.00    -0.304 A  
HETATM    8  O   UNL     1     -13.380  12.473  65.013  1.00  0.00    -0.591 OA 
HETATM    9  C   UNL     1     -12.187  12.884  65.547  1.00  0.00    -0.474 A  
HETATM   10  H   UNL     1     -14.198  12.732  65.421  1.00  0.00     0.000 HD 
HETATM   11  C   UNL     1     -12.185  13.693  66.680  1.00  0.00    -0.437 A  
ENDROOT
BRANCH   6  12
HETATM   12  N   UNL     1      -8.569  14.233  67.268  1.00  0.00    -0.205 NA 
HETATM   13  H   UNL     1      -8.572  14.951  67.993  1.00  0.00     0.000 HD 
BRANCH  12  14
HETATM   14  N   UNL     1      -7.528  13.689  66.844  1.00  0.00    -0.274 NA 
HETATM   15  H   UNL     1      -6.990  14.037  66.050  1.00  0.00     0.000 HD 
BRANCH  14  16
HETATM   16  C   UNL     1      -7.179  12.539  67.586  1.00  0.00    -0.136 A  
HETATM   17  C   UNL     1      -6.980  10.107  67.607  1.00  0.00    -0.085 A  
HETATM   18  C   UNL     1      -7.255  11.301  66.933  1.00  0.00    -0.142 A  
HETATM   19  C   UNL     1      -6.580  10.142  68.945  1.00  0.00    -0.049 A  
HETATM   20  C   UNL     1      -6.767  12.556  68.930  1.00  0.00    -0.098 A  
HETATM   21  C   UNL     1      -6.475  11.366  69.612  1.00  0.00    -0.133 A  
BRANCH  19  22
HETATM   22  S   UNL     1      -6.401   8.608  69.840  1.00  0.00    -0.038 S  
HETATM   23  O   UNL     1      -5.690   8.902  71.063  1.00  0.00    -0.033 OA 
HETATM   24  O   UNL     1      -5.879   7.638  68.896  1.00  0.00    -0.026 OA 
BRANCH  22  25
HETATM   25  N   UNL     1      -7.986   8.129  70.162  1.00  0.00    -0.105 N  
HETATM   26  H   UNL     1      -8.419   8.272  71.074  1.00  0.00     0.000 HD 
BRANCH  25  27
HETATM   27  C   UNL     1      -8.674   7.519  69.095  1.00  0.00    -0.136 A  
HETATM   28  N   UNL     1      -8.433   6.203  68.982  1.00  0.00    -0.118 NA 
HETATM   29  C   UNL     1      -9.130   5.550  68.024  1.00  0.00    -0.108 A  
HETATM   30  C   UNL     1     -10.029   6.166  67.166  1.00  0.00    -0.188 A  
HETATM   31  C   UNL     1     -10.226   7.537  67.293  1.00  0.00    -0.337 A  
HETATM   32  C   UNL     1      -9.535   8.235  68.281  1.00  0.00    -0.146 A  
ENDBRANCH  25  27
ENDBRANCH  22  25
ENDBRANCH  19  22
ENDBRANCH  14  16
ENDBRANCH  12  14
ENDBRANCH   6  12
TORSDOF 6
ENDMDL
MODEL      266
REMARK 921   NORMALIZED FREE ENERGY PREDICTED BY IDOCK:   -4.08 KCAL/MOL
REMARK 922        TOTAL FREE ENERGY PREDICTED BY IDOCK:   -6.03 KCAL/MOL
REMARK 923 INTER-LIGAND FREE ENERGY PREDICTED BY IDOCK:   -5.44 KCAL/MOL
REMARK 924 INTRA-LIGAND FREE ENERGY PREDICTED BY IDOCK:   -0.59 KCAL/MOL
REMARK 927      BINDING AFFINITY PREDICTED BY RF-SCORE:    0.00 PKD
ROOT
HETATM    1  O   UNL     1      -6.577   3.229  68.907  1.00  0.00    -0.035 OA 
HETATM    2  C   UNL     1      -7.284   4.220  69.490  1.00  0.00    -0.050 C  
HETATM    3  C   UNL     1      -8.388   4.764  68.655  1.00  0.00    -0.083 A  
HETATM    4  O   UNL     1      -7.007   4.674  70.589  1.00  0.00    -0.036 OA 
HETATM    5  C   UNL     1      -8.793   6.090  68.895  1.00  0.00    -0.120 A  
HETATM    6  C   UNL     1      -9.853   6.662  68.175  1.00  0.00    -0.132 A  
HETATM    7  C   UNL     1     -10.489   5.879  67.200  1.00  0.00    -0.335 A  
HETATM    8  O   UNL     1      -8.656   2.720  67.429  1.00  0.00    -0.090 OA 
HETATM    9  C   UNL     1      -9.049   4.008  67.681  1.00  0.00    -0.145 A  
HETATM   10  H   UNL     1      -9.106   2.206  66.768  1.00  0.00     0.000 HD 
HETATM   11  C   UNL     1     -10.099   4.559  66.952  1.00  0.00    -0.200 A  
ENDROOT
BRANCH   6  12
HETATM   12  N   UNL     1     -10.332   7.979  68.355  1.00  0.00    -0.221 NA 
HETATM   13  H   UNL     1     -11.282   8.269  68.122  1.00  0.00     0.000 HD 
BRANCH  12  14
HETATM   14  N   UNL     1      -9.474   8.754  68.828  1.00  0.00    -0.141 NA 
HETATM   15  H   UNL     1      -8.533   8.463  69.094  1.00  0.00     0.000 HD 
BRANCH  14  16
HETATM   16  C   UNL     1      -9.953  10.077  68.955  1.00  0.00    -0.196 A  
HETATM   17  C   UNL     1     -11.563  11.572  70.017  1.00  0.00    -0.364 A  
HETATM   18  C   UNL     1     -10.992  10.304  69.867  1.00  0.00    -0.358 A  
HETATM   19  C   UNL     1     -11.065  12.648  69.278  1.00  0.00    -0.132 A  
HETATM   20  C   UNL     1      -9.459  11.173  68.227  1.00  0.00    -0.182 A  
HETATM   21  C   UNL     1     -10.013  12.452  68.379  1.00  0.00    -0.210 A  
BRANCH  19  22
HETATM   22  S   UNL     1     -11.912  14.218  69.350  1.00  0.00    -0.333 S  
HETATM   23  O   UNL     1     -13.202  13.985  69.959  1.00  0.00     0.182 OA 
HETATM   24  O   UNL     1     -11.813  14.801  68.025  1.00  0.00    -0.336 OA 
BRANCH  22  25
HETATM   25  N   UNL     1     -10.937  15.169  70.345  1.00  0.00    -0.399 N  
HETATM   26  H   UNL     1     -10.986  15.114  71.362  1.00  0.00     0.000 HD 
BRANCH  25  27
HETATM   27  C   UNL     1     -10.051  16.043  69.685  1.00  0.00    -0.244 A  
HETATM   28  N   UNL     1     -10.579  17.250  69.428  1.00  0.00    -0.215 NA 
HETATM   29  C   UNL     1      -9.746  18.157  68.868  1.00  0.00    -0.271 A  
HETATM   30  C   UNL     1      -8.426  17.893  68.535  1.00  0.00    -0.303 A  
HETATM   31  C   UNL     1      -7.926  16.620  68.787  1.00  0.00    -0.239 A  
HETATM   32  C   UNL     1      -8.754  15.668  69.378  1.00  0.00    -0.249 A  
ENDBRANCH  25  27
ENDBRANCH  22  25
ENDBRANCH  19  22
ENDBRANCH  14  16
ENDBRANCH  12  14
ENDBRANCH   6  12
TORSDOF 6
ENDMDL
MODEL      267
REMARK 921   NORMALIZED FREE ENERGY PREDICTED BY IDOCK:   -4.07 KCAL/MOL
REMARK 922        TOTAL FREE ENERGY PREDICTED BY IDOCK:   -6.01 KCAL/MOL
REMARK 923 INTER-LIGAND FREE ENERGY PREDICTED BY IDOCK:   -5.75 KCAL/MOL
REMARK 924 INTRA-LIGAND FREE ENERGY PREDICTED BY IDOCK:   -0.27 KCAL/MOL
REMARK 927      BINDING AFFINITY PREDICTED BY RF-SCORE:    0.00 PKD
ROOT
HETATM    1  O   UNL     1      -8.917   8.286  74.067  1.00  0.00    -0.137 OA 
HETATM    2  C   UNL     1      -8.733   8.371  72.731  1.00  0.00    -0.186 C  
HETATM    3  C   UNL     1      -9.700   7.578  71.925  1.00  0.00    -0.191 A  
HETATM    4  O   UNL     1      -7.816   8.998  72.227  1.00  0.00    -0.353 OA 
HETATM    5  C   UNL     1      -9.286   7.148  70.651  1.00  0.00    -0.158 A  
HETATM    6  C   UNL     1     -10.154   6.428  69.814  1.00  0.00    -0.176 A  
HETATM    7  C   UNL     1     -11.441   6.139  70.290  1.00  0.00    -0.357 A  
HETATM    8  O   UNL     1     -11.405   7.682  73.609  1.00  0.00    -0.516 OA 
HETATM    9  C   UNL     1     -10.994   7.280  72.365  1.00  0.00    -0.267 A  
HETATM   10  H   UNL     1     -12.284   7.480  73.907  1.00  0.00     0.000 HD 
HETATM   11  C   UNL     1     -11.867   6.562  71.553  1.00  0.00    -0.386 A  
ENDROOT
BRANCH   6  12
HETATM   12  N   UNL     1      -9.827   5.966  68.520  1.00  0.00    -0.129 NA 
HETATM   13  H   UNL     1      -8.992   5.418  68.313  1.00  0.00     0.000 HD 
BRANCH  12  14
HETATM   14  N   UNL     1     -10.664   6.296  67.654  1.00  0.00    -0.277 NA 
HETATM   15  H   UNL     1     -11.406   5.680  67.319  1.00  0.00     0.000 HD 
BRANCH  14  16
HETATM   16  C   UNL     1     -10.471   7.616  67.190  1.00  0.00    -0.342 A  
HETATM   17  C   UNL     1     -10.828   9.995  67.598  1.00  0.00    -0.336 A  
HETATM   18  C   UNL     1     -10.929   8.661  68.004  1.00  0.00     0.091 A  
HETATM   19  C   UNL     1     -10.221  10.304  66.379  1.00  0.00    -0.225 A  
HETATM   20  C   UNL     1      -9.855   7.947  65.970  1.00  0.00     0.126 A  
HETATM   21  C   UNL     1      -9.735   9.281  65.559  1.00  0.00    -0.247 A  
BRANCH  19  22
HETATM   22  S   UNL     1     -10.253  11.991  65.795  1.00  0.00    -0.250 S  
HETATM   23  O   UNL     1     -11.334  12.664  66.478  1.00  0.00    -0.291 OA 
HETATM   24  O   UNL     1     -10.219  11.928  64.346  1.00  0.00    -0.270 OA 
BRANCH  22  25
HETATM   25  N   UNL     1      -8.759  12.620  66.263  1.00  0.00    -0.413 N  
HETATM   26  H   UNL     1      -8.402  13.499  65.891  1.00  0.00     0.000 HD 
BRANCH  25  27
HETATM   27  C   UNL     1      -8.036  11.856  67.201  1.00  0.00    -0.172 A  
HETATM   28  N   UNL     1      -8.257  12.218  68.475  1.00  0.00    -0.133 NA 
HETATM   29  C   UNL     1      -7.652  11.466  69.421  1.00  0.00     0.111 A  
HETATM   30  C   UNL     1      -6.820  10.393  69.141  1.00  0.00    -0.066 A  
HETATM   31  C   UNL     1      -6.590  10.069  67.808  1.00  0.00    -0.067 A  
HETATM   32  C   UNL     1      -7.212  10.815  66.810  1.00  0.00    -0.128 A  
ENDBRANCH  25  27
ENDBRANCH  22  25
ENDBRANCH  19  22
ENDBRANCH  14  16
ENDBRANCH  12  14
ENDBRANCH   6  12
TORSDOF 6
ENDMDL
MODEL      268
REMARK 921   NORMALIZED FREE ENERGY PREDICTED BY IDOCK:   -4.01 KCAL/MOL
REMARK 922        TOTAL FREE ENERGY PREDICTED BY IDOCK:   -5.94 KCAL/MOL
REMARK 923 INTER-LIGAND FREE ENERGY PREDICTED BY IDOCK:   -5.39 KCAL/MOL
REMARK 924 INTRA-LIGAND FREE ENERGY PREDICTED BY IDOCK:   -0.55 KCAL/MOL
REMARK 927      BINDING AFFINITY PREDICTED BY RF-SCORE:    0.00 PKD
ROOT
HETATM    1  O   UNL     1     -12.988  13.705  65.436  1.00  0.00    -0.683 OA 
HETATM    2  C   UNL     1     -11.899  13.402  66.176  1.00  0.00    -0.385 C  
HETATM    3  C   UNL     1     -11.128  12.228  65.685  1.00  0.00    -0.357 A  
HETATM    4  O   UNL     1     -11.602  14.003  67.195  1.00  0.00    -0.332 OA 
HETATM    5  C   UNL     1     -10.368  11.509  66.626  1.00  0.00    -0.262 A  
HETATM    6  C   UNL     1      -9.583  10.413  66.235  1.00  0.00    -0.182 A  
HETATM    7  C   UNL     1      -9.588  10.047  64.881  1.00  0.00    -0.375 A  
HETATM    8  O   UNL     1     -11.849  12.525  63.417  1.00  0.00    -0.550 OA 
HETATM    9  C   UNL     1     -11.103  11.841  64.342  1.00  0.00    -0.334 A  
HETATM   10  H   UNL     1     -11.832  12.262  62.504  1.00  0.00     0.000 HD 
HETATM   11  C   UNL     1     -10.336  10.753  63.934  1.00  0.00    -0.329 A  
ENDROOT
BRANCH   6  12
HETATM   12  N   UNL     1      -8.784   9.641  67.108  1.00  0.00    -0.131 NA 
HETATM   13  H   UNL     1      -8.674   9.849  68.101  1.00  0.00     0.000 HD 
BRANCH  12  14
HETATM   14  N   UNL     1      -8.225   8.679  66.541  1.00  0.00    -0.106 NA 
HETATM   15  H   UNL     1      -7.820   8.730  65.606  1.00  0.00     0.000 HD 
BRANCH  14  16
HETATM   16  C   UNL     1      -8.215   7.513  67.338  1.00  0.00    -0.116 A  
HETATM   17  C   UNL     1      -9.485   5.609  68.183  1.00  0.00    -0.125 A  
HETATM   18  C   UNL     1      -9.388   6.747  67.377  1.00  0.00    -0.140 A  
HETATM   19  C   UNL     1      -8.382   5.195  68.934  1.00  0.00    -0.087 A  
HETATM   20  C   UNL     1      -7.113   7.078  68.095  1.00  0.00    -0.085 A  
HETATM   21  C   UNL     1      -7.193   5.930  68.895  1.00  0.00    -0.082 A  
BRANCH  19  22
HETATM   22  S   UNL     1      -8.573   3.845  70.087  1.00  0.00    -0.067 S  
HETATM   23  O   UNL     1      -9.990   3.605  70.240  1.00  0.00    -0.102 OA 
HETATM   24  O   UNL     1      -7.749   4.165  71.237  1.00  0.00    -0.066 OA 
BRANCH  22  25
HETATM   25  N   UNL     1      -7.818   2.543  69.328  1.00  0.00    -0.042 N  
HETATM   26  H   UNL     1      -7.436   1.757  69.854  1.00  0.00     0.000 HD 
BRANCH  25  27
HETATM   27  C   UNL     1      -7.748   2.606  67.922  1.00  0.00    -0.059 A  
HETATM   28  N   UNL     1      -6.558   3.023  67.461  1.00  0.00    -0.037 NA 
HETATM   29  C   UNL     1      -6.407   3.026  66.117  1.00  0.00    -0.028 A  
HETATM   30  C   UNL     1      -7.404   2.656  65.227  1.00  0.00    -0.063 A  
HETATM   31  C   UNL     1      -8.634   2.261  65.742  1.00  0.00    -0.114 A  
HETATM   32  C   UNL     1      -8.815   2.232  67.123  1.00  0.00    -0.153 A  
ENDBRANCH  25  27
ENDBRANCH  22  25
ENDBRANCH  19  22
ENDBRANCH  14  16
ENDBRANCH  12  14
ENDBRANCH   6  12
TORSDOF 6
ENDMDL
MODEL      269
REMARK 921   NORMALIZED FREE ENERGY PREDICTED BY IDOCK:   -4.01 KCAL/MOL
REMARK 922        TOTAL FREE ENERGY PREDICTED BY IDOCK:   -5.94 KCAL/MOL
REMARK 923 INTER-LIGAND FREE ENERGY PREDICTED BY IDOCK:   -4.95 KCAL/MOL
REMARK 924 INTRA-LIGAND FREE ENERGY PREDICTED BY IDOCK:   -0.98 KCAL/MOL
REMARK 927      BINDING AFFINITY PREDICTED BY RF-SCORE:    0.00 PKD
ROOT
HETATM    1  O   UNL     1     -11.237   5.744  69.874  1.00  0.00    -0.346 OA 
HETATM    2  C   UNL     1     -10.142   6.527  69.995  1.00  0.00    -0.174 C  
HETATM    3  C   UNL     1      -9.551   6.965  68.703  1.00  0.00    -0.133 A  
HETATM    4  O   UNL     1      -9.644   6.805  71.074  1.00  0.00    -0.170 OA 
HETATM    5  C   UNL     1      -8.178   7.273  68.687  1.00  0.00    -0.125 A  
HETATM    6  C   UNL     1      -7.555   7.731  67.515  1.00  0.00    -0.109 A  
HETATM    7  C   UNL     1      -8.336   7.860  66.358  1.00  0.00    -0.129 A  
HETATM    8  O   UNL     1     -11.638   6.805  67.532  1.00  0.00    -0.668 OA 
HETATM    9  C   UNL     1     -10.303   7.114  67.533  1.00  0.00    -0.236 A  
HETATM   10  H   UNL     1     -12.149   6.906  66.738  1.00  0.00     0.000 HD 
HETATM   11  C   UNL     1      -9.702   7.560  66.360  1.00  0.00    -0.180 A  
ENDROOT
BRANCH   6  12
HETATM   12  N   UNL     1      -6.188   8.072  67.410  1.00  0.00    -0.053 NA 
HETATM   13  H   UNL     1      -5.594   7.781  66.632  1.00  0.00     0.000 HD 
BRANCH  12  14
HETATM   14  N   UNL     1      -5.778   8.765  68.365  1.00  0.00    -0.038 NA 
HETATM   15  H   UNL     1      -5.160   8.413  69.096  1.00  0.00     0.000 HD 
BRANCH  14  16
HETATM   16  C   UNL     1      -6.266  10.090  68.319  1.00  0.00    -0.049 A  
HETATM   17  C   UNL     1      -6.475  12.143  67.017  1.00  0.00    -0.088 A  
HETATM   18  C   UNL     1      -6.074  10.808  67.131  1.00  0.00    -0.063 A  
HETATM   19  C   UNL     1      -7.121  12.766  68.088  1.00  0.00    -0.105 A  
HETATM   20  C   UNL     1      -6.924  10.731  69.383  1.00  0.00    -0.116 A  
HETATM   21  C   UNL     1      -7.345  12.064  69.275  1.00  0.00     0.126 A  
BRANCH  19  22
HETATM   22  S   UNL     1      -7.472  14.514  67.992  1.00  0.00    -0.156 S  
HETATM   23  O   UNL     1      -6.608  15.073  66.978  1.00  0.00    -0.207 OA 
HETATM   24  O   UNL     1      -7.438  15.017  69.352  1.00  0.00    -0.174 OA 
BRANCH  22  25
HETATM   25  N   UNL     1      -9.088  14.586  67.516  1.00  0.00    -0.186 N  
HETATM   26  H   UNL     1      -9.489  15.420  67.087  1.00  0.00     0.000 HD 
BRANCH  25  27
HETATM   27  C   UNL     1      -9.851  13.423  67.746  1.00  0.00    -0.234 A  
HETATM   28  N   UNL     1     -10.468  13.413  68.939  1.00  0.00    -0.169 NA 
HETATM   29  C   UNL     1     -11.278  12.357  69.180  1.00  0.00    -0.236 A  
HETATM   30  C   UNL     1     -11.469  11.310  68.292  1.00  0.00    -0.378 A  
HETATM   31  C   UNL     1     -10.787  11.342  67.080  1.00  0.00    -0.321 A  
HETATM   32  C   UNL     1      -9.957  12.423  66.795  1.00  0.00    -0.234 A  
ENDBRANCH  25  27
ENDBRANCH  22  25
ENDBRANCH  19  22
ENDBRANCH  14  16
ENDBRANCH  12  14
ENDBRANCH   6  12
TORSDOF 6
ENDMDL
MODEL      270
REMARK 921   NORMALIZED FREE ENERGY PREDICTED BY IDOCK:   -4.00 KCAL/MOL
REMARK 922        TOTAL FREE ENERGY PREDICTED BY IDOCK:   -5.92 KCAL/MOL
REMARK 923 INTER-LIGAND FREE ENERGY PREDICTED BY IDOCK:   -5.36 KCAL/MOL
REMARK 924 INTRA-LIGAND FREE ENERGY PREDICTED BY IDOCK:   -0.56 KCAL/MOL
REMARK 927      BINDING AFFINITY PREDICTED BY RF-SCORE:    0.00 PKD
ROOT
HETATM    1  O   UNL     1     -13.041  12.508  63.651  1.00  0.00    -0.690 OA 
HETATM    2  C   UNL     1     -11.923  12.138  64.312  1.00  0.00    -0.380 C  
HETATM    3  C   UNL     1     -11.573  13.008  65.466  1.00  0.00    -0.382 A  
HETATM    4  O   UNL     1     -11.225  11.201  63.960  1.00  0.00    -0.272 OA 
HETATM    5  C   UNL     1     -10.220  13.071  65.846  1.00  0.00    -0.298 A  
HETATM    6  C   UNL     1      -9.814  13.840  66.949  1.00  0.00    -0.264 A  
HETATM    7  C   UNL     1     -10.795  14.555  67.652  1.00  0.00    -0.275 A  
HETATM    8  O   UNL     1     -13.845  13.684  65.827  1.00  0.00     0.087 OA 
HETATM    9  C   UNL     1     -12.526  13.727  66.195  1.00  0.00    -0.418 A  
HETATM   10  H   UNL     1     -14.493  14.172  66.323  1.00  0.00     0.000 HD 
HETATM   11  C   UNL     1     -12.144  14.500  67.287  1.00  0.00    -0.298 A  
ENDROOT
BRANCH   6  12
HETATM   12  N   UNL     1      -8.482  13.954  67.407  1.00  0.00    -0.189 NA 
HETATM   13  H   UNL     1      -8.175  14.664  68.071  1.00  0.00     0.000 HD 
BRANCH  12  14
HETATM   14  N   UNL     1      -7.719  13.096  66.916  1.00  0.00    -0.373 NA 
HETATM   15  H   UNL     1      -7.086  13.280  66.137  1.00  0.00     0.000 HD 
BRANCH  14  16
HETATM   16  C   UNL     1      -7.829  11.843  67.559  1.00  0.00    -0.152 A  
HETATM   17  C   UNL     1      -8.084   9.430  67.297  1.00  0.00    -0.110 A  
HETATM   18  C   UNL     1      -7.916  10.705  66.746  1.00  0.00    -0.132 A  
HETATM   19  C   UNL     1      -8.122   9.275  68.685  1.00  0.00    -0.105 A  
HETATM   20  C   UNL     1      -7.862  11.667  68.953  1.00  0.00    -0.040 A  
HETATM   21  C   UNL     1      -8.014  10.392  69.518  1.00  0.00    -0.152 A  
BRANCH  19  22
HETATM   22  S   UNL     1      -8.507   7.672  69.370  1.00  0.00    -0.132 S  
HETATM   23  O   UNL     1      -9.678   7.178  68.681  1.00  0.00    -0.140 OA 
HETATM   24  O   UNL     1      -8.509   7.828  70.812  1.00  0.00    -0.118 OA 
BRANCH  22  25
HETATM   25  N   UNL     1      -7.154   6.732  69.010  1.00  0.00    -0.085 N  
HETATM   26  H   UNL     1      -6.204   7.078  69.144  1.00  0.00     0.000 HD 
BRANCH  25  27
HETATM   27  C   UNL     1      -7.416   5.440  68.513  1.00  0.00    -0.076 A  
HETATM   28  N   UNL     1      -7.635   4.528  69.474  1.00  0.00    -0.055 NA 
HETATM   29  C   UNL     1      -7.972   3.288  69.053  1.00  0.00    -0.053 A  
HETATM   30  C   UNL     1      -8.069   2.924  67.719  1.00  0.00    -0.079 A  
HETATM   31  C   UNL     1      -7.803   3.889  66.752  1.00  0.00    -0.089 A  
HETATM   32  C   UNL     1      -7.469   5.180  67.154  1.00  0.00    -0.087 A  
ENDBRANCH  25  27
ENDBRANCH  22  25
ENDBRANCH  19  22
ENDBRANCH  14  16
ENDBRANCH  12  14
ENDBRANCH   6  12
TORSDOF 6
ENDMDL
MODEL      271
REMARK 921   NORMALIZED FREE ENERGY PREDICTED BY IDOCK:   -3.99 KCAL/MOL
REMARK 922        TOTAL FREE ENERGY PREDICTED BY IDOCK:   -5.91 KCAL/MOL
REMARK 923 INTER-LIGAND FREE ENERGY PREDICTED BY IDOCK:   -5.21 KCAL/MOL
REMARK 924 INTRA-LIGAND FREE ENERGY PREDICTED BY IDOCK:   -0.70 KCAL/MOL
REMARK 927      BINDING AFFINITY PREDICTED BY RF-SCORE:    0.00 PKD
ROOT
HETATM    1  O   UNL     1      -9.805   1.480  71.634  1.00  0.00    -0.123 OA 
HETATM    2  C   UNL     1      -9.770   2.706  72.200  1.00  0.00    -0.146 C  
HETATM    3  C   UNL     1      -9.171   3.764  71.343  1.00  0.00    -0.193 A  
HETATM    4  O   UNL     1     -10.146   2.919  73.341  1.00  0.00    -0.103 OA 
HETATM    5  C   UNL     1      -8.588   4.871  71.987  1.00  0.00    -0.127 A  
HETATM    6  C   UNL     1      -8.037   5.929  71.248  1.00  0.00    -0.118 A  
HETATM    7  C   UNL     1      -8.071   5.846  69.848  1.00  0.00    -0.116 A  
HETATM    8  O   UNL     1      -9.751   2.639  69.306  1.00  0.00    -0.044 OA 
HETATM    9  C   UNL     1      -9.197   3.717  69.945  1.00  0.00    -0.148 A  
HETATM   10  H   UNL     1      -9.768   2.607  68.356  1.00  0.00     0.000 HD 
HETATM   11  C   UNL     1      -8.650   4.753  69.194  1.00  0.00    -0.094 A  
ENDROOT
BRANCH   6  12
HETATM   12  N   UNL     1      -7.440   7.080  71.809  1.00  0.00    -0.086 NA 
HETATM   13  H   UNL     1      -6.431   7.221  71.864  1.00  0.00     0.000 HD 
BRANCH  12  14
HETATM   14  N   UNL     1      -8.274   7.909  72.232  1.00  0.00    -0.118 NA 
HETATM   15  H   UNL     1      -8.722   7.847  73.146  1.00  0.00     0.000 HD 
BRANCH  14  16
HETATM   16  C   UNL     1      -8.526   8.943  71.302  1.00  0.00    -0.182 A  
HETATM   17  C   UNL     1     -10.179  10.449  70.324  1.00  0.00     0.056 A  
HETATM   18  C   UNL     1      -9.827   9.463  71.252  1.00  0.00    -0.245 A  
HETATM   19  C   UNL     1      -9.211  10.961  69.456  1.00  0.00     0.247 A  
HETATM   20  C   UNL     1      -7.564   9.476  70.427  1.00  0.00    -0.169 A  
HETATM   21  C   UNL     1      -7.901  10.475  69.503  1.00  0.00    -0.134 A  
BRANCH  19  22
HETATM   22  S   UNL     1      -9.710  12.090  68.167  1.00  0.00    -0.201 S  
HETATM   23  O   UNL     1      -8.527  12.433  67.411  1.00  0.00    -0.161 OA 
HETATM   24  O   UNL     1     -10.504  13.122  68.806  1.00  0.00    -0.235 OA 
BRANCH  22  25
HETATM   25  N   UNL     1     -10.788  11.195  67.227  1.00  0.00    -0.258 N  
HETATM   26  H   UNL     1     -11.210  10.331  67.565  1.00  0.00     0.000 HD 
BRANCH  25  27
HETATM   27  C   UNL     1     -11.069  11.715  65.948  1.00  0.00    -0.264 A  
HETATM   28  N   UNL     1     -11.908  12.763  65.966  1.00  0.00    -0.420 NA 
HETATM   29  C   UNL     1     -12.149  13.353  64.774  1.00  0.00    -0.406 A  
HETATM   30  C   UNL     1     -11.608  12.920  63.573  1.00  0.00    -0.528 A  
HETATM   31  C   UNL     1     -10.769  11.811  63.592  1.00  0.00    -0.503 A  
HETATM   32  C   UNL     1     -10.488  11.190  64.807  1.00  0.00    -0.388 A  
ENDBRANCH  25  27
ENDBRANCH  22  25
ENDBRANCH  19  22
ENDBRANCH  14  16
ENDBRANCH  12  14
ENDBRANCH   6  12
TORSDOF 6
ENDMDL
MODEL      272
REMARK 921   NORMALIZED FREE ENERGY PREDICTED BY IDOCK:   -3.98 KCAL/MOL
REMARK 922        TOTAL FREE ENERGY PREDICTED BY IDOCK:   -5.90 KCAL/MOL
REMARK 923 INTER-LIGAND FREE ENERGY PREDICTED BY IDOCK:   -5.24 KCAL/MOL
REMARK 924 INTRA-LIGAND FREE ENERGY PREDICTED BY IDOCK:   -0.66 KCAL/MOL
REMARK 927      BINDING AFFINITY PREDICTED BY RF-SCORE:    0.00 PKD
ROOT
HETATM    1  O   UNL     1     -12.224  15.535  64.607  1.00  0.00    -0.151 OA 
HETATM    2  C   UNL     1     -12.244  14.238  64.983  1.00  0.00    -0.433 C  
HETATM    3  C   UNL     1     -11.078  13.815  65.804  1.00  0.00    -0.290 A  
HETATM    4  O   UNL     1     -13.116  13.460  64.631  1.00  0.00    -0.626 OA 
HETATM    5  C   UNL     1     -10.714  12.457  65.766  1.00  0.00    -0.301 A  
HETATM    6  C   UNL     1      -9.649  11.973  66.543  1.00  0.00    -0.224 A  
HETATM    7  C   UNL     1      -8.950  12.885  67.347  1.00  0.00    -0.199 A  
HETATM    8  O   UNL     1     -10.701  16.024  66.659  1.00  0.00    -0.311 OA 
HETATM    9  C   UNL     1     -10.364  14.696  66.623  1.00  0.00    -0.273 A  
HETATM   10  H   UNL     1     -10.216  16.622  67.216  1.00  0.00     0.000 HD 
HETATM   11  C   UNL     1      -9.301  14.237  67.396  1.00  0.00    -0.203 A  
ENDROOT
BRANCH   6  12
HETATM   12  N   UNL     1      -9.221  10.627  66.575  1.00  0.00    -0.163 NA 
HETATM   13  H   UNL     1      -9.767   9.854  66.193  1.00  0.00     0.000 HD 
BRANCH  12  14
HETATM   14  N   UNL     1      -8.106  10.478  67.117  1.00  0.00    -0.118 NA 
HETATM   15  H   UNL     1      -7.304  11.082  66.937  1.00  0.00     0.000 HD 
BRANCH  14  16
HETATM   16  C   UNL     1      -8.079   9.381  68.006  1.00  0.00    -0.106 A  
HETATM   17  C   UNL     1      -9.310   8.043  69.634  1.00  0.00    -0.156 A  
HETATM   18  C   UNL     1      -9.262   9.078  68.694  1.00  0.00    -0.136 A  
HETATM   19  C   UNL     1      -8.174   7.264  69.866  1.00  0.00    -0.133 A  
HETATM   20  C   UNL     1      -6.948   8.581  68.246  1.00  0.00    -0.070 A  
HETATM   21  C   UNL     1      -6.988   7.532  69.175  1.00  0.00    -0.072 A  
BRANCH  19  22
HETATM   22  S   UNL     1      -8.199   6.063  71.187  1.00  0.00    -0.124 S  
HETATM   23  O   UNL     1      -8.284   6.793  72.432  1.00  0.00    -0.105 OA 
HETATM   24  O   UNL     1      -7.098   5.152  70.938  1.00  0.00    -0.055 OA 
BRANCH  22  25
HETATM   25  N   UNL     1      -9.604   5.174  70.912  1.00  0.00    -0.166 N  
HETATM   26  H   UNL     1     -10.454   5.322  71.455  1.00  0.00     0.000 HD 
BRANCH  25  27
HETATM   27  C   UNL     1      -9.533   4.212  69.883  1.00  0.00    -0.195 A  
HETATM   28  N   UNL     1      -9.576   2.946  70.327  1.00  0.00    -0.121 NA 
HETATM   29  C   UNL     1      -9.593   1.983  69.378  1.00  0.00     0.023 A  
HETATM   30  C   UNL     1      -9.541   2.238  68.017  1.00  0.00    -0.084 A  
HETATM   31  C   UNL     1      -9.463   3.562  67.597  1.00  0.00    -0.233 A  
HETATM   32  C   UNL     1      -9.461   4.578  68.550  1.00  0.00    -0.213 A  
ENDBRANCH  25  27
ENDBRANCH  22  25
ENDBRANCH  19  22
ENDBRANCH  14  16
ENDBRANCH  12  14
ENDBRANCH   6  12
TORSDOF 6
ENDMDL
MODEL      273
REMARK 921   NORMALIZED FREE ENERGY PREDICTED BY IDOCK:   -3.98 KCAL/MOL
REMARK 922        TOTAL FREE ENERGY PREDICTED BY IDOCK:   -5.89 KCAL/MOL
REMARK 923 INTER-LIGAND FREE ENERGY PREDICTED BY IDOCK:   -5.45 KCAL/MOL
REMARK 924 INTRA-LIGAND FREE ENERGY PREDICTED BY IDOCK:   -0.45 KCAL/MOL
REMARK 927      BINDING AFFINITY PREDICTED BY RF-SCORE:    0.00 PKD
ROOT
HETATM    1  O   UNL     1     -12.678  15.582  70.090  1.00  0.00    -0.347 OA 
HETATM    2  C   UNL     1     -12.076  14.644  69.327  1.00  0.00    -0.272 C  
HETATM    3  C   UNL     1     -11.234  15.189  68.229  1.00  0.00    -0.315 A  
HETATM    4  O   UNL     1     -12.254  13.447  69.487  1.00  0.00    -0.286 OA 
HETATM    5  C   UNL     1     -11.041  14.380  67.094  1.00  0.00    -0.318 A  
HETATM    6  C   UNL     1     -10.228  14.808  66.032  1.00  0.00    -0.304 A  
HETATM    7  C   UNL     1      -9.625  16.070  66.129  1.00  0.00    -0.366 A  
HETATM    8  O   UNL     1     -10.800  17.241  69.391  1.00  0.00    -0.358 OA 
HETATM    9  C   UNL     1     -10.610  16.439  68.297  1.00  0.00    -0.318 A  
HETATM   10  H   UNL     1     -10.376  18.090  69.438  1.00  0.00     0.000 HD 
HETATM   11  C   UNL     1      -9.806  16.884  67.252  1.00  0.00    -0.265 A  
ENDROOT
BRANCH   6  12
HETATM   12  N   UNL     1      -9.971  14.060  64.861  1.00  0.00    -0.599 NA 
HETATM   13  H   UNL     1      -9.272  14.325  64.167  1.00  0.00     0.000 HD 
BRANCH  12  14
HETATM   14  N   UNL     1     -10.687  13.042  64.761  1.00  0.00    -0.332 NA 
HETATM   15  H   UNL     1     -11.615  13.040  64.337  1.00  0.00     0.000 HD 
BRANCH  14  16
HETATM   16  C   UNL     1     -10.069  11.892  65.302  1.00  0.00    -0.257 A  
HETATM   17  C   UNL     1     -10.332   9.564  65.986  1.00  0.00    -0.130 A  
HETATM   18  C   UNL     1     -10.847  10.731  65.412  1.00  0.00    -0.062 A  
HETATM   19  C   UNL     1      -9.004   9.533  66.421  1.00  0.00    -0.154 A  
HETATM   20  C   UNL     1      -8.733  11.839  65.737  1.00  0.00     0.132 A  
HETATM   21  C   UNL     1      -8.201  10.671  66.301  1.00  0.00    -0.153 A  
BRANCH  19  22
HETATM   22  S   UNL     1      -8.413   8.099  67.305  1.00  0.00    -0.125 S  
HETATM   23  O   UNL     1      -8.583   6.956  66.436  1.00  0.00    -0.122 OA 
HETATM   24  O   UNL     1      -9.040   8.133  68.613  1.00  0.00    -0.143 OA 
BRANCH  22  25
HETATM   25  N   UNL     1      -6.779   8.420  67.569  1.00  0.00    -0.062 N  
HETATM   26  H   UNL     1      -6.114   8.509  66.801  1.00  0.00     0.000 HD 
BRANCH  25  27
HETATM   27  C   UNL     1      -6.388   8.558  68.916  1.00  0.00    -0.045 A  
HETATM   28  N   UNL     1      -6.569   9.795  69.404  1.00  0.00    -0.048 NA 
HETATM   29  C   UNL     1      -6.286   9.964  70.716  1.00  0.00    -0.086 A  
HETATM   30  C   UNL     1      -5.808   8.957  71.540  1.00  0.00    -0.057 A  
HETATM   31  C   UNL     1      -5.603   7.697  70.988  1.00  0.00    -0.030 A  
HETATM   32  C   UNL     1      -5.900   7.486  69.644  1.00  0.00    -0.023 A  
ENDBRANCH  25  27
ENDBRANCH  22  25
ENDBRANCH  19  22
ENDBRANCH  14  16
ENDBRANCH  12  14
ENDBRANCH   6  12
TORSDOF 6
ENDMDL
MODEL      274
REMARK 921   NORMALIZED FREE ENERGY PREDICTED BY IDOCK:   -3.97 KCAL/MOL
REMARK 922        TOTAL FREE ENERGY PREDICTED BY IDOCK:   -5.88 KCAL/MOL
REMARK 923 INTER-LIGAND FREE ENERGY PREDICTED BY IDOCK:   -5.52 KCAL/MOL
REMARK 924 INTRA-LIGAND FREE ENERGY PREDICTED BY IDOCK:   -0.36 KCAL/MOL
REMARK 927      BINDING AFFINITY PREDICTED BY RF-SCORE:    0.00 PKD
ROOT
HETATM    1  O   UNL     1      -8.116   8.125  74.108  1.00  0.00    -0.227 OA 
HETATM    2  C   UNL     1      -8.087   7.972  72.766  1.00  0.00    -0.153 C  
HETATM    3  C   UNL     1      -9.076   6.997  72.235  1.00  0.00    -0.146 A  
HETATM    4  O   UNL     1      -7.277   8.542  72.052  1.00  0.00    -0.097 OA 
HETATM    5  C   UNL     1      -8.775   6.362  71.016  1.00  0.00    -0.135 A  
HETATM    6  C   UNL     1      -9.675   5.458  70.431  1.00  0.00    -0.192 A  
HETATM    7  C   UNL     1     -10.879   5.196  71.101  1.00  0.00    -0.060 A  
HETATM    8  O   UNL     1     -10.590   7.322  74.067  1.00  0.00    -0.478 OA 
HETATM    9  C   UNL     1     -10.289   6.719  72.873  1.00  0.00    -0.221 A  
HETATM   10  H   UNL     1     -11.414   7.134  74.500  1.00  0.00     0.000 HD 
HETATM   11  C   UNL     1     -11.193   5.822  72.312  1.00  0.00    -0.333 A  
ENDROOT
BRANCH   6  12
HETATM   12  N   UNL     1      -9.460   4.783  69.208  1.00  0.00    -0.139 NA 
HETATM   13  H   UNL     1      -8.732   4.081  69.075  1.00  0.00     0.000 HD 
BRANCH  12  14
HETATM   14  N   UNL     1     -10.251   5.133  68.307  1.00  0.00    -0.143 NA 
HETATM   15  H   UNL     1     -11.037   4.565  67.992  1.00  0.00     0.000 HD 
BRANCH  14  16
HETATM   16  C   UNL     1      -9.935   6.403  67.775  1.00  0.00    -0.128 A  
HETATM   17  C   UNL     1     -10.785   8.509  66.882  1.00  0.00    -0.156 A  
HETATM   18  C   UNL     1     -11.003   7.256  67.464  1.00  0.00    -0.221 A  
HETATM   19  C   UNL     1      -9.479   8.944  66.643  1.00  0.00    -0.202 A  
HETATM   20  C   UNL     1      -8.628   6.860  67.534  1.00  0.00    -0.121 A  
HETATM   21  C   UNL     1      -8.396   8.120  66.965  1.00  0.00    -0.116 A  
BRANCH  19  22
HETATM   22  S   UNL     1      -9.220  10.466  65.745  1.00  0.00    -0.186 S  
HETATM   23  O   UNL     1      -9.962  10.368  64.508  1.00  0.00    -0.332 OA 
HETATM   24  O   UNL     1      -7.789  10.700  65.732  1.00  0.00    -0.156 OA 
BRANCH  22  25
HETATM   25  N   UNL     1      -9.872  11.654  66.749  1.00  0.00    -0.198 N  
HETATM   26  H   UNL     1     -10.725  11.500  67.286  1.00  0.00     0.000 HD 
BRANCH  25  27
HETATM   27  C   UNL     1      -9.166  12.872  66.799  1.00  0.00    -0.230 A  
HETATM   28  N   UNL     1      -9.764  13.869  66.126  1.00  0.00    -0.290 NA 
HETATM   29  C   UNL     1      -9.171  15.081  66.208  1.00  0.00    -0.289 A  
HETATM   30  C   UNL     1      -8.000  15.324  66.909  1.00  0.00    -0.194 A  
HETATM   31  C   UNL     1      -7.394  14.259  67.566  1.00  0.00    -0.199 A  
HETATM   32  C   UNL     1      -7.988  13.000  67.515  1.00  0.00    -0.177 A  
ENDBRANCH  25  27
ENDBRANCH  22  25
ENDBRANCH  19  22
ENDBRANCH  14  16
ENDBRANCH  12  14
ENDBRANCH   6  12
TORSDOF 6
ENDMDL
MODEL      275
REMARK 921   NORMALIZED FREE ENERGY PREDICTED BY IDOCK:   -3.96 KCAL/MOL
REMARK 922        TOTAL FREE ENERGY PREDICTED BY IDOCK:   -5.87 KCAL/MOL
REMARK 923 INTER-LIGAND FREE ENERGY PREDICTED BY IDOCK:   -5.43 KCAL/MOL
REMARK 924 INTRA-LIGAND FREE ENERGY PREDICTED BY IDOCK:   -0.44 KCAL/MOL
REMARK 927      BINDING AFFINITY PREDICTED BY RF-SCORE:    0.00 PKD
ROOT
HETATM    1  O   UNL     1     -13.039  15.026  65.050  1.00  0.00    -0.023 OA 
HETATM    2  C   UNL     1     -12.480  13.816  65.269  1.00  0.00    -0.480 C  
HETATM    3  C   UNL     1     -11.311  13.834  66.189  1.00  0.00    -0.320 A  
HETATM    4  O   UNL     1     -12.864  12.798  64.715  1.00  0.00    -0.707 OA 
HETATM    5  C   UNL     1     -10.356  12.811  66.048  1.00  0.00    -0.291 A  
HETATM    6  C   UNL     1      -9.245  12.738  66.902  1.00  0.00    -0.229 A  
HETATM    7  C   UNL     1      -9.106  13.721  67.893  1.00  0.00    -0.193 A  
HETATM    8  O   UNL     1     -12.064  15.804  67.333  1.00  0.00     0.155 OA 
HETATM    9  C   UNL     1     -11.147  14.795  67.193  1.00  0.00    -0.333 A  
HETATM   10  H   UNL     1     -11.953  16.456  68.015  1.00  0.00     0.000 HD 
HETATM   11  C   UNL     1     -10.049  14.743  68.046  1.00  0.00    -0.218 A  
ENDROOT
BRANCH   6  12
HETATM   12  N   UNL     1      -8.243  11.743  66.839  1.00  0.00    -0.168 NA 
HETATM   13  H   UNL     1      -7.635  11.608  66.031  1.00  0.00     0.000 HD 
BRANCH  12  14
HETATM   14  N   UNL     1      -8.177  11.046  67.874  1.00  0.00    -0.116 NA 
HETATM   15  H   UNL     1      -8.059  11.432  68.811  1.00  0.00     0.000 HD 
BRANCH  14  16
HETATM   16  C   UNL     1      -8.285   9.664  67.601  1.00  0.00    -0.114 A  
HETATM   17  C   UNL     1      -9.329   7.927  66.242  1.00  0.00    -0.225 A  
HETATM   18  C   UNL     1      -9.121   9.277  66.546  1.00  0.00    -0.191 A  
HETATM   19  C   UNL     1      -8.661   6.942  66.973  1.00  0.00    -0.121 A  
HETATM   20  C   UNL     1      -7.615   8.659  68.320  1.00  0.00    -0.097 A  
HETATM   21  C   UNL     1      -7.804   7.303  68.016  1.00  0.00    -0.118 A  
BRANCH  19  22
HETATM   22  S   UNL     1      -9.066   5.226  66.690  1.00  0.00    -0.126 S  
HETATM   23  O   UNL     1     -10.348   4.977  67.309  1.00  0.00    -0.188 OA 
HETATM   24  O   UNL     1      -7.898   4.457  67.075  1.00  0.00    -0.095 OA 
BRANCH  22  25
HETATM   25  N   UNL     1      -9.170   5.096  65.012  1.00  0.00    -0.328 N  
HETATM   26  H   UNL     1      -8.978   5.885  64.395  1.00  0.00     0.000 HD 
BRANCH  25  27
HETATM   27  C   UNL     1      -9.539   3.831  64.514  1.00  0.00    -0.171 A  
HETATM   28  N   UNL     1     -10.703   3.834  63.845  1.00  0.00    -0.278 NA 
HETATM   29  C   UNL     1     -11.066   2.663  63.276  1.00  0.00    -0.114 A  
HETATM   30  C   UNL     1     -10.327   1.493  63.374  1.00  0.00    -0.131 A  
HETATM   31  C   UNL     1      -9.143   1.522  64.103  1.00  0.00    -0.105 A  
HETATM   32  C   UNL     1      -8.733   2.718  64.688  1.00  0.00    -0.108 A  
ENDBRANCH  25  27
ENDBRANCH  22  25
ENDBRANCH  19  22
ENDBRANCH  14  16
ENDBRANCH  12  14
ENDBRANCH   6  12
TORSDOF 6
ENDMDL
MODEL      276
REMARK 921   NORMALIZED FREE ENERGY PREDICTED BY IDOCK:   -3.91 KCAL/MOL
REMARK 922        TOTAL FREE ENERGY PREDICTED BY IDOCK:   -5.80 KCAL/MOL
REMARK 923 INTER-LIGAND FREE ENERGY PREDICTED BY IDOCK:   -6.20 KCAL/MOL
REMARK 924 INTRA-LIGAND FREE ENERGY PREDICTED BY IDOCK:    0.41 KCAL/MOL
REMARK 927      BINDING AFFINITY PREDICTED BY RF-SCORE:    0.00 PKD
ROOT
HETATM    1  O   UNL     1     -10.941  15.935  64.257  1.00  0.00    -0.414 OA 
HETATM    2  C   UNL     1     -11.203  15.165  65.335  1.00  0.00    -0.338 C  
HETATM    3  C   UNL     1     -10.071  15.038  66.292  1.00  0.00    -0.298 A  
HETATM    4  O   UNL     1     -12.261  14.575  65.486  1.00  0.00    -0.353 OA 
HETATM    5  C   UNL     1     -10.023  13.882  67.093  1.00  0.00    -0.239 A  
HETATM    6  C   UNL     1      -9.008  13.706  68.046  1.00  0.00    -0.188 A  
HETATM    7  C   UNL     1      -8.035  14.709  68.168  1.00  0.00    -0.136 A  
HETATM    8  O   UNL     1      -9.118  17.147  65.662  1.00  0.00    -0.500 OA 
HETATM    9  C   UNL     1      -9.090  16.022  66.445  1.00  0.00    -0.319 A  
HETATM   10  H   UNL     1      -8.451  17.816  65.767  1.00  0.00     0.000 HD 
HETATM   11  C   UNL     1      -8.071  15.864  67.380  1.00  0.00    -0.187 A  
ENDROOT
BRANCH   6  12
HETATM   12  N   UNL     1      -8.887  12.585  68.898  1.00  0.00    -0.358 NA 
HETATM   13  H   UNL     1      -9.683  12.135  69.350  1.00  0.00     0.000 HD 
BRANCH  12  14
HETATM   14  N   UNL     1      -7.707  12.202  69.041  1.00  0.00    -0.331 NA 
HETATM   15  H   UNL     1      -6.895  12.805  68.908  1.00  0.00     0.000 HD 
BRANCH  14  16
HETATM   16  C   UNL     1      -7.623  10.840  69.409  1.00  0.00    -0.112 A  
HETATM   17  C   UNL     1      -8.507   8.586  69.106  1.00  0.00    -0.125 A  
HETATM   18  C   UNL     1      -8.484   9.942  68.765  1.00  0.00    -0.122 A  
HETATM   19  C   UNL     1      -7.626   8.101  70.077  1.00  0.00    -0.077 A  
HETATM   20  C   UNL     1      -6.739  10.333  70.377  1.00  0.00    -0.122 A  
HETATM   21  C   UNL     1      -6.741   8.973  70.717  1.00  0.00    -0.067 A  
BRANCH  19  22
HETATM   22  S   UNL     1      -7.783   6.409  70.624  1.00  0.00    -0.107 S  
HETATM   23  O   UNL     1      -7.753   6.418  72.069  1.00  0.00    -0.094 OA 
HETATM   24  O   UNL     1      -6.813   5.639  69.869  1.00  0.00    -0.055 OA 
BRANCH  22  25
HETATM   25  N   UNL     1      -9.296   5.928  70.055  1.00  0.00    -0.146 N  
HETATM   26  H   UNL     1      -9.401   5.334  69.233  1.00  0.00     0.000 HD 
BRANCH  25  27
HETATM   27  C   UNL     1     -10.406   6.397  70.785  1.00  0.00    -0.201 A  
HETATM   28  N   UNL     1     -10.091   6.862  72.004  1.00  0.00    -0.186 NA 
HETATM   29  C   UNL     1     -11.106   7.399  72.717  1.00  0.00    -0.346 A  
HETATM   30  C   UNL     1     -12.417   7.463  72.270  1.00  0.00    -0.126 A  
HETATM   31  C   UNL     1     -12.710   6.941  71.015  1.00  0.00    -0.269 A  
HETATM   32  C   UNL     1     -11.683   6.395  70.248  1.00  0.00    -0.389 A  
ENDBRANCH  25  27
ENDBRANCH  22  25
ENDBRANCH  19  22
ENDBRANCH  14  16
ENDBRANCH  12  14
ENDBRANCH   6  12
TORSDOF 6
ENDMDL
MODEL      277
REMARK 921   NORMALIZED FREE ENERGY PREDICTED BY IDOCK:   -3.90 KCAL/MOL
REMARK 922        TOTAL FREE ENERGY PREDICTED BY IDOCK:   -5.79 KCAL/MOL
REMARK 923 INTER-LIGAND FREE ENERGY PREDICTED BY IDOCK:   -5.56 KCAL/MOL
REMARK 924 INTRA-LIGAND FREE ENERGY PREDICTED BY IDOCK:   -0.23 KCAL/MOL
REMARK 927      BINDING AFFINITY PREDICTED BY RF-SCORE:    0.00 PKD
ROOT
HETATM    1  O   UNL     1     -11.966   5.762  72.940  1.00  0.00    -0.128 OA 
HETATM    2  C   UNL     1     -10.684   5.834  72.522  1.00  0.00    -0.237 C  
HETATM    3  C   UNL     1     -10.515   5.813  71.045  1.00  0.00    -0.307 A  
HETATM    4  O   UNL     1      -9.737   5.856  73.292  1.00  0.00    -0.149 OA 
HETATM    5  C   UNL     1      -9.295   5.329  70.536  1.00  0.00    -0.205 A  
HETATM    6  C   UNL     1      -9.045   5.313  69.155  1.00  0.00    -0.108 A  
HETATM    7  C   UNL     1     -10.049   5.781  68.295  1.00  0.00    -0.208 A  
HETATM    8  O   UNL     1     -12.689   6.743  70.642  1.00  0.00    -0.489 OA 
HETATM    9  C   UNL     1     -11.492   6.280  70.160  1.00  0.00    -0.382 A  
HETATM   10  H   UNL     1     -13.352   7.061  70.041  1.00  0.00     0.000 HD 
HETATM   11  C   UNL     1     -11.265   6.268  68.787  1.00  0.00    -0.357 A  
ENDROOT
BRANCH   6  12
HETATM   12  N   UNL     1      -7.849   4.855  68.557  1.00  0.00    -0.081 NA 
HETATM   13  H   UNL     1      -7.017   4.600  69.090  1.00  0.00     0.000 HD 
BRANCH  12  14
HETATM   14  N   UNL     1      -7.914   4.793  67.312  1.00  0.00    -0.101 NA 
HETATM   15  H   UNL     1      -8.084   3.930  66.795  1.00  0.00     0.000 HD 
BRANCH  14  16
HETATM   16  C   UNL     1      -7.726   6.051  66.698  1.00  0.00    -0.103 A  
HETATM   17  C   UNL     1      -6.634   8.231  66.805  1.00  0.00    -0.057 A  
HETATM   18  C   UNL     1      -6.838   6.944  67.313  1.00  0.00    -0.072 A  
HETATM   19  C   UNL     1      -7.291   8.627  65.637  1.00  0.00    -0.084 A  
HETATM   20  C   UNL     1      -8.372   6.464  65.520  1.00  0.00    -0.147 A  
HETATM   21  C   UNL     1      -8.164   7.746  64.992  1.00  0.00    -0.123 A  
BRANCH  19  22
HETATM   22  S   UNL     1      -7.156  10.323  65.096  1.00  0.00    -0.089 S  
HETATM   23  O   UNL     1      -8.157  10.531  64.074  1.00  0.00    -0.125 OA 
HETATM   24  O   UNL     1      -5.753  10.556  64.815  1.00  0.00    -0.133 OA 
BRANCH  22  25
HETATM   25  N   UNL     1      -7.506  11.226  66.477  1.00  0.00    -0.246 N  
HETATM   26  H   UNL     1      -6.773  11.595  67.082  1.00  0.00     0.000 HD 
BRANCH  25  27
HETATM   27  C   UNL     1      -8.873  11.441  66.742  1.00  0.00    -0.179 A  
HETATM   28  N   UNL     1      -9.294  12.677  66.429  1.00  0.00    -0.226 NA 
HETATM   29  C   UNL     1     -10.616  12.914  66.588  1.00  0.00    -0.261 A  
HETATM   30  C   UNL     1     -11.517  11.977  67.069  1.00  0.00    -0.402 A  
HETATM   31  C   UNL     1     -11.036  10.718  67.414  1.00  0.00    -0.363 A  
HETATM   32  C   UNL     1      -9.682  10.438  67.247  1.00  0.00    -0.195 A  
ENDBRANCH  25  27
ENDBRANCH  22  25
ENDBRANCH  19  22
ENDBRANCH  14  16
ENDBRANCH  12  14
ENDBRANCH   6  12
TORSDOF 6
ENDMDL
MODEL      278
REMARK 921   NORMALIZED FREE ENERGY PREDICTED BY IDOCK:   -3.89 KCAL/MOL
REMARK 922        TOTAL FREE ENERGY PREDICTED BY IDOCK:   -5.78 KCAL/MOL
REMARK 923 INTER-LIGAND FREE ENERGY PREDICTED BY IDOCK:   -5.75 KCAL/MOL
REMARK 924 INTRA-LIGAND FREE ENERGY PREDICTED BY IDOCK:   -0.02 KCAL/MOL
REMARK 927      BINDING AFFINITY PREDICTED BY RF-SCORE:    0.00 PKD
ROOT
HETATM    1  O   UNL     1      -6.345   5.616  68.703  1.00  0.00    -0.037 OA 
HETATM    2  C   UNL     1      -6.414   5.681  67.355  1.00  0.00    -0.047 C  
HETATM    3  C   UNL     1      -6.362   7.060  66.801  1.00  0.00    -0.049 A  
HETATM    4  O   UNL     1      -6.563   4.695  66.651  1.00  0.00    -0.047 OA 
HETATM    5  C   UNL     1      -6.968   7.282  65.550  1.00  0.00    -0.060 A  
HETATM    6  C   UNL     1      -6.928   8.547  64.943  1.00  0.00    -0.072 A  
HETATM    7  C   UNL     1      -6.280   9.587  65.624  1.00  0.00    -0.065 A  
HETATM    8  O   UNL     1      -5.134   7.918  68.673  1.00  0.00    -0.022 OA 
HETATM    9  C   UNL     1      -5.717   8.118  67.449  1.00  0.00    -0.039 A  
HETATM   10  H   UNL     1      -4.695   8.637  69.114  1.00  0.00     0.000 HD 
HETATM   11  C   UNL     1      -5.672   9.381  66.866  1.00  0.00    -0.051 A  
ENDROOT
BRANCH   6  12
HETATM   12  N   UNL     1      -7.499   8.857  63.688  1.00  0.00    -0.102 NA 
HETATM   13  H   UNL     1      -6.951   9.142  62.876  1.00  0.00     0.000 HD 
BRANCH  12  14
HETATM   14  N   UNL     1      -8.743   8.747  63.673  1.00  0.00    -0.428 NA 
HETATM   15  H   UNL     1      -9.246   8.077  63.090  1.00  0.00     0.000 HD 
BRANCH  14  16
HETATM   16  C   UNL     1      -9.376   9.651  64.554  1.00  0.00    -0.182 A  
HETATM   17  C   UNL     1     -10.153  11.935  64.922  1.00  0.00    -0.296 A  
HETATM   18  C   UNL     1      -9.584  10.960  64.097  1.00  0.00    -0.321 A  
HETATM   19  C   UNL     1     -10.565  11.596  66.213  1.00  0.00    -0.258 A  
HETATM   20  C   UNL     1      -9.805   9.327  65.853  1.00  0.00    -0.335 A  
HETATM   21  C   UNL     1     -10.391  10.292  66.684  1.00  0.00    -0.283 A  
BRANCH  19  22
HETATM   22  S   UNL     1     -11.130  12.885  67.312  1.00  0.00    -0.287 S  
HETATM   23  O   UNL     1     -10.010  13.263  68.145  1.00  0.00    -0.223 OA 
HETATM   24  O   UNL     1     -12.366  12.411  67.905  1.00  0.00    -0.261 OA 
BRANCH  22  25
HETATM   25  N   UNL     1     -11.567  14.146  66.281  1.00  0.00    -0.356 N  
HETATM   26  H   UNL     1     -12.102  13.986  65.428  1.00  0.00     0.000 HD 
BRANCH  25  27
HETATM   27  C   UNL     1     -11.149  15.434  66.671  1.00  0.00    -0.236 A  
HETATM   28  N   UNL     1     -10.659  16.169  65.659  1.00  0.00    -0.369 NA 
HETATM   29  C   UNL     1     -10.317  17.442  65.960  1.00  0.00    -0.304 A  
HETATM   30  C   UNL     1     -10.420  17.991  67.229  1.00  0.00    -0.390 A  
HETATM   31  C   UNL     1     -10.901  17.187  68.257  1.00  0.00    -0.314 A  
HETATM   32  C   UNL     1     -11.277  15.876  67.976  1.00  0.00    -0.319 A  
ENDBRANCH  25  27
ENDBRANCH  22  25
ENDBRANCH  19  22
ENDBRANCH  14  16
ENDBRANCH  12  14
ENDBRANCH   6  12
TORSDOF 6
ENDMDL
MODEL      279
REMARK 921   NORMALIZED FREE ENERGY PREDICTED BY IDOCK:   -3.88 KCAL/MOL
REMARK 922        TOTAL FREE ENERGY PREDICTED BY IDOCK:   -5.77 KCAL/MOL
REMARK 923 INTER-LIGAND FREE ENERGY PREDICTED BY IDOCK:   -4.81 KCAL/MOL
REMARK 924 INTRA-LIGAND FREE ENERGY PREDICTED BY IDOCK:   -0.96 KCAL/MOL
REMARK 927      BINDING AFFINITY PREDICTED BY RF-SCORE:    0.00 PKD
ROOT
HETATM    1  O   UNL     1     -10.258   3.981  62.980  1.00  0.00    -0.175 OA 
HETATM    2  C   UNL     1      -9.349   3.416  63.805  1.00  0.00    -0.120 C  
HETATM    3  C   UNL     1      -9.352   3.960  65.189  1.00  0.00    -0.158 A  
HETATM    4  O   UNL     1      -8.553   2.570  63.433  1.00  0.00    -0.085 OA 
HETATM    5  C   UNL     1      -8.155   3.875  65.924  1.00  0.00    -0.101 A  
HETATM    6  C   UNL     1      -8.087   4.331  67.250  1.00  0.00    -0.100 A  
HETATM    7  C   UNL     1      -9.243   4.886  67.818  1.00  0.00    -0.138 A  
HETATM    8  O   UNL     1     -11.657   4.612  65.080  1.00  0.00    -1.107 OA 
HETATM    9  C   UNL     1     -10.488   4.512  65.789  1.00  0.00    -0.233 A  
HETATM   10  H   UNL     1     -12.430   4.987  65.487  1.00  0.00     0.000 HD 
HETATM   11  C   UNL     1     -10.440   4.975  67.100  1.00  0.00    -0.181 A  
ENDROOT
BRANCH   6  12
HETATM   12  N   UNL     1      -6.933   4.276  68.064  1.00  0.00    -0.055 NA 
HETATM   13  H   UNL     1      -6.838   3.650  68.863  1.00  0.00     0.000 HD 
BRANCH  12  14
HETATM   14  N   UNL     1      -6.040   5.073  67.705  1.00  0.00    -0.026 NA 
HETATM   15  H   UNL     1      -5.231   4.802  67.146  1.00  0.00     0.000 HD 
BRANCH  14  16
HETATM   16  C   UNL     1      -6.278   6.390  68.157  1.00  0.00    -0.032 A  
HETATM   17  C   UNL     1      -6.256   8.769  67.614  1.00  0.00    -0.052 A  
HETATM   18  C   UNL     1      -6.097   7.431  67.237  1.00  0.00    -0.046 A  
HETATM   19  C   UNL     1      -6.645   9.079  68.920  1.00  0.00    -0.052 A  
HETATM   20  C   UNL     1      -6.676   6.720  69.464  1.00  0.00    -0.050 A  
HETATM   21  C   UNL     1      -6.853   8.056  69.850  1.00  0.00    -0.041 A  
BRANCH  19  22
HETATM   22  S   UNL     1      -6.676  10.788  69.434  1.00  0.00    -0.111 S  
HETATM   23  O   UNL     1      -5.862  11.535  68.502  1.00  0.00    -0.046 OA 
HETATM   24  O   UNL     1      -6.374  10.798  70.853  1.00  0.00    -0.351 OA 
BRANCH  22  25
HETATM   25  N   UNL     1      -8.299  11.229  69.306  1.00  0.00    -0.379 N  
HETATM   26  H   UNL     1      -8.778  11.748  70.041  1.00  0.00     0.000 HD 
BRANCH  25  27
HETATM   27  C   UNL     1      -8.952  10.837  68.120  1.00  0.00    -0.140 A  
HETATM   28  N   UNL     1      -9.815   9.823  68.292  1.00  0.00    -0.145 NA 
HETATM   29  C   UNL     1     -10.529   9.458  67.203  1.00  0.00    -0.244 A  
HETATM   30  C   UNL     1     -10.392  10.047  65.956  1.00  0.00    -0.222 A  
HETATM   31  C   UNL     1      -9.464  11.073  65.810  1.00  0.00    -0.242 A  
HETATM   32  C   UNL     1      -8.724  11.483  66.917  1.00  0.00    -0.181 A  
ENDBRANCH  25  27
ENDBRANCH  22  25
ENDBRANCH  19  22
ENDBRANCH  14  16
ENDBRANCH  12  14
ENDBRANCH   6  12
TORSDOF 6
ENDMDL
MODEL      280
REMARK 921   NORMALIZED FREE ENERGY PREDICTED BY IDOCK:   -3.87 KCAL/MOL
REMARK 922        TOTAL FREE ENERGY PREDICTED BY IDOCK:   -5.76 KCAL/MOL
REMARK 923 INTER-LIGAND FREE ENERGY PREDICTED BY IDOCK:   -5.39 KCAL/MOL
REMARK 924 INTRA-LIGAND FREE ENERGY PREDICTED BY IDOCK:   -0.37 KCAL/MOL
REMARK 927      BINDING AFFINITY PREDICTED BY RF-SCORE:    0.00 PKD
ROOT
HETATM    1  O   UNL     1     -10.609   3.332  62.887  1.00  0.00    -0.176 OA 
HETATM    2  C   UNL     1      -9.800   2.831  63.845  1.00  0.00    -0.149 C  
HETATM    3  C   UNL     1      -9.706   3.666  65.072  1.00  0.00    -0.162 A  
HETATM    4  O   UNL     1      -9.154   1.806  63.697  1.00  0.00    -0.088 OA 
HETATM    5  C   UNL     1      -8.535   3.559  65.844  1.00  0.00    -0.112 A  
HETATM    6  C   UNL     1      -8.387   4.286  67.036  1.00  0.00    -0.101 A  
HETATM    7  C   UNL     1      -9.434   5.132  67.429  1.00  0.00    -0.144 A  
HETATM    8  O   UNL     1     -11.875   4.636  64.748  1.00  0.00    -0.791 OA 
HETATM    9  C   UNL     1     -10.735   4.513  65.497  1.00  0.00    -0.130 A  
HETATM   10  H   UNL     1     -12.575   5.212  65.037  1.00  0.00     0.000 HD 
HETATM   11  C   UNL     1     -10.605   5.247  66.673  1.00  0.00    -0.334 A  
ENDROOT
BRANCH   6  12
HETATM   12  N   UNL     1      -7.252   4.233  67.877  1.00  0.00    -0.063 NA 
HETATM   13  H   UNL     1      -6.874   3.365  68.256  1.00  0.00     0.000 HD 
BRANCH  12  14
HETATM   14  N   UNL     1      -6.760   5.357  68.109  1.00  0.00    -0.053 NA 
HETATM   15  H   UNL     1      -6.221   5.891  67.428  1.00  0.00     0.000 HD 
BRANCH  14  16
HETATM   16  C   UNL     1      -7.033   5.806  69.421  1.00  0.00    -0.063 A  
HETATM   17  C   UNL     1      -7.382   7.723  70.890  1.00  0.00    -0.065 A  
HETATM   18  C   UNL     1      -7.166   7.187  69.616  1.00  0.00    -0.076 A  
HETATM   19  C   UNL     1      -7.511   6.869  71.988  1.00  0.00    -0.092 A  
HETATM   20  C   UNL     1      -7.174   4.962  70.536  1.00  0.00    -0.053 A  
HETATM   21  C   UNL     1      -7.405   5.486  71.815  1.00  0.00    -0.091 A  
BRANCH  19  22
HETATM   22  S   UNL     1      -7.613   7.570  73.627  1.00  0.00    -0.116 S  
HETATM   23  O   UNL     1      -7.019   8.886  73.571  1.00  0.00    -0.351 OA 
HETATM   24  O   UNL     1      -7.100   6.565  74.538  1.00  0.00    -0.092 OA 
BRANCH  22  25
HETATM   25  N   UNL     1      -9.269   7.667  73.933  1.00  0.00    -0.331 N  
HETATM   26  H   UNL     1      -9.642   7.698  74.881  1.00  0.00     0.000 HD 
BRANCH  25  27
HETATM   27  C   UNL     1     -10.104   7.703  72.798  1.00  0.00    -0.254 A  
HETATM   28  N   UNL     1     -10.835   6.589  72.633  1.00  0.00    -0.236 NA 
HETATM   29  C   UNL     1     -11.714   6.601  71.606  1.00  0.00    -0.316 A  
HETATM   30  C   UNL     1     -11.866   7.666  70.730  1.00  0.00    -0.227 A  
HETATM   31  C   UNL     1     -11.066   8.789  70.915  1.00  0.00    -0.320 A  
HETATM   32  C   UNL     1     -10.162   8.814  71.974  1.00  0.00    -0.401 A  
ENDBRANCH  25  27
ENDBRANCH  22  25
ENDBRANCH  19  22
ENDBRANCH  14  16
ENDBRANCH  12  14
ENDBRANCH   6  12
TORSDOF 6
ENDMDL
MODEL      281
REMARK 921   NORMALIZED FREE ENERGY PREDICTED BY IDOCK:   -3.86 KCAL/MOL
REMARK 922        TOTAL FREE ENERGY PREDICTED BY IDOCK:   -5.74 KCAL/MOL
REMARK 923 INTER-LIGAND FREE ENERGY PREDICTED BY IDOCK:   -5.07 KCAL/MOL
REMARK 924 INTRA-LIGAND FREE ENERGY PREDICTED BY IDOCK:   -0.68 KCAL/MOL
REMARK 927      BINDING AFFINITY PREDICTED BY RF-SCORE:    0.00 PKD
ROOT
HETATM    1  O   UNL     1     -12.479  13.180  64.099  1.00  0.00    -0.577 OA 
HETATM    2  C   UNL     1     -11.873  12.210  64.819  1.00  0.00    -0.318 C  
HETATM    3  C   UNL     1     -11.514  12.606  66.207  1.00  0.00    -0.415 A  
HETATM    4  O   UNL     1     -11.591  11.118  64.354  1.00  0.00     0.017 OA 
HETATM    5  C   UNL     1     -10.438  11.935  66.817  1.00  0.00    -0.253 A  
HETATM    6  C   UNL     1     -10.063  12.224  68.139  1.00  0.00    -0.211 A  
HETATM    7  C   UNL     1     -10.781  13.211  68.829  1.00  0.00    -0.253 A  
HETATM    8  O   UNL     1     -13.256  14.249  66.340  1.00  0.00    -0.205 OA 
HETATM    9  C   UNL     1     -12.215  13.579  66.927  1.00  0.00    -0.327 A  
HETATM   10  H   UNL     1     -13.732  14.910  66.829  1.00  0.00     0.000 HD 
HETATM   11  C   UNL     1     -11.854  13.885  68.236  1.00  0.00    -0.412 A  
ENDROOT
BRANCH   6  12
HETATM   12  N   UNL     1      -9.005  11.595  68.832  1.00  0.00    -0.385 NA 
HETATM   13  H   UNL     1      -8.483  12.042  69.587  1.00  0.00     0.000 HD 
BRANCH  12  14
HETATM   14  N   UNL     1      -8.773  10.436  68.429  1.00  0.00    -0.124 NA 
HETATM   15  H   UNL     1      -8.875  10.143  67.457  1.00  0.00     0.000 HD 
BRANCH  14  16
HETATM   16  C   UNL     1      -8.352   9.577  69.468  1.00  0.00    -0.145 A  
HETATM   17  C   UNL     1      -8.546   7.372  70.497  1.00  0.00    -0.139 A  
HETATM   18  C   UNL     1      -8.866   8.272  69.475  1.00  0.00    -0.149 A  
HETATM   19  C   UNL     1      -7.665   7.758  71.510  1.00  0.00    -0.086 A  
HETATM   20  C   UNL     1      -7.461   9.944  70.491  1.00  0.00    -0.057 A  
HETATM   21  C   UNL     1      -7.122   9.046  71.513  1.00  0.00    -0.037 A  
BRANCH  19  22
HETATM   22  S   UNL     1      -7.402   6.664  72.896  1.00  0.00    -0.080 S  
HETATM   23  O   UNL     1      -8.515   6.839  73.802  1.00  0.00    -0.121 OA 
HETATM   24  O   UNL     1      -6.041   6.886  73.345  1.00  0.00    -0.057 OA 
BRANCH  22  25
HETATM   25  N   UNL     1      -7.416   5.122  72.214  1.00  0.00    -0.092 N  
HETATM   26  H   UNL     1      -6.752   4.843  71.493  1.00  0.00     0.000 HD 
BRANCH  25  27
HETATM   27  C   UNL     1      -8.402   4.241  72.703  1.00  0.00    -0.101 A  
HETATM   28  N   UNL     1      -9.537   4.253  71.985  1.00  0.00    -0.142 NA 
HETATM   29  C   UNL     1     -10.488   3.368  72.360  1.00  0.00    -0.016 A  
HETATM   30  C   UNL     1     -10.357   2.502  73.434  1.00  0.00    -0.216 A  
HETATM   31  C   UNL     1      -9.180   2.543  74.174  1.00  0.00    -0.091 A  
HETATM   32  C   UNL     1      -8.174   3.432  73.802  1.00  0.00    -0.075 A  
ENDBRANCH  25  27
ENDBRANCH  22  25
ENDBRANCH  19  22
ENDBRANCH  14  16
ENDBRANCH  12  14
ENDBRANCH   6  12
TORSDOF 6
ENDMDL
MODEL      282
REMARK 921   NORMALIZED FREE ENERGY PREDICTED BY IDOCK:   -3.86 KCAL/MOL
REMARK 922        TOTAL FREE ENERGY PREDICTED BY IDOCK:   -5.73 KCAL/MOL
REMARK 923 INTER-LIGAND FREE ENERGY PREDICTED BY IDOCK:   -4.94 KCAL/MOL
REMARK 924 INTRA-LIGAND FREE ENERGY PREDICTED BY IDOCK:   -0.79 KCAL/MOL
REMARK 927      BINDING AFFINITY PREDICTED BY RF-SCORE:    0.00 PKD
ROOT
HETATM    1  O   UNL     1      -7.194  12.961  67.024  1.00  0.00    -0.036 OA 
HETATM    2  C   UNL     1      -7.652  11.950  67.793  1.00  0.00    -0.130 C  
HETATM    3  C   UNL     1      -9.134  11.845  67.856  1.00  0.00    -0.183 A  
HETATM    4  O   UNL     1      -6.914  11.217  68.431  1.00  0.00    -0.066 OA 
HETATM    5  C   UNL     1      -9.696  11.248  68.999  1.00  0.00    -0.072 A  
HETATM    6  C   UNL     1     -11.085  11.078  69.116  1.00  0.00    -0.243 A  
HETATM    7  C   UNL     1     -11.897  11.532  68.067  1.00  0.00    -0.287 A  
HETATM    8  O   UNL     1      -9.439  12.875  65.711  1.00  0.00    -0.450 OA 
HETATM    9  C   UNL     1      -9.973  12.280  66.824  1.00  0.00    -0.205 A  
HETATM   10  H   UNL     1     -10.008  13.169  65.010  1.00  0.00     0.000 HD 
HETATM   11  C   UNL     1     -11.352  12.126  66.924  1.00  0.00    -0.402 A  
ENDROOT
BRANCH   6  12
HETATM   12  N   UNL     1     -11.734  10.481  70.221  1.00  0.00    -0.305 NA 
HETATM   13  H   UNL     1     -12.100  11.012  71.011  1.00  0.00     0.000 HD 
BRANCH  12  14
HETATM   14  N   UNL     1     -11.815   9.238  70.131  1.00  0.00    -0.462 NA 
HETATM   15  H   UNL     1     -12.478   8.756  69.525  1.00  0.00     0.000 HD 
BRANCH  14  16
HETATM   16  C   UNL     1     -10.885   8.575  70.962  1.00  0.00    -0.241 A  
HETATM   17  C   UNL     1      -8.925   7.126  71.082  1.00  0.00    -0.145 A  
HETATM   18  C   UNL     1      -9.856   7.857  70.337  1.00  0.00    -0.183 A  
HETATM   19  C   UNL     1      -8.988   7.142  72.477  1.00  0.00    -0.127 A  
HETATM   20  C   UNL     1     -10.927   8.586  72.367  1.00  0.00    -0.390 A  
HETATM   21  C   UNL     1      -9.990   7.869  73.125  1.00  0.00    -0.358 A  
BRANCH  19  22
HETATM   22  S   UNL     1      -7.904   6.071  73.408  1.00  0.00    -0.100 S  
HETATM   23  O   UNL     1      -8.654   5.575  74.540  1.00  0.00    -0.110 OA 
HETATM   24  O   UNL     1      -6.668   6.804  73.604  1.00  0.00    -0.071 OA 
BRANCH  22  25
HETATM   25  N   UNL     1      -7.534   4.823  72.335  1.00  0.00    -0.083 N  
HETATM   26  H   UNL     1      -6.706   4.848  71.742  1.00  0.00     0.000 HD 
BRANCH  25  27
HETATM   27  C   UNL     1      -8.440   3.744  72.310  1.00  0.00    -0.089 A  
HETATM   28  N   UNL     1      -8.004   2.660  72.972  1.00  0.00    -0.050 NA 
HETATM   29  C   UNL     1      -8.867   1.622  73.050  1.00  0.00    -0.062 A  
HETATM   30  C   UNL     1     -10.127   1.620  72.471  1.00  0.00    -0.206 A  
HETATM   31  C   UNL     1     -10.530   2.749  71.765  1.00  0.00     0.353 A  
HETATM   32  C   UNL     1      -9.670   3.841  71.681  1.00  0.00    -0.239 A  
ENDBRANCH  25  27
ENDBRANCH  22  25
ENDBRANCH  19  22
ENDBRANCH  14  16
ENDBRANCH  12  14
ENDBRANCH   6  12
TORSDOF 6
ENDMDL
MODEL      283
REMARK 921   NORMALIZED FREE ENERGY PREDICTED BY IDOCK:   -3.83 KCAL/MOL
REMARK 922        TOTAL FREE ENERGY PREDICTED BY IDOCK:   -5.69 KCAL/MOL
REMARK 923 INTER-LIGAND FREE ENERGY PREDICTED BY IDOCK:   -5.85 KCAL/MOL
REMARK 924 INTRA-LIGAND FREE ENERGY PREDICTED BY IDOCK:    0.16 KCAL/MOL
REMARK 927      BINDING AFFINITY PREDICTED BY RF-SCORE:    0.00 PKD
ROOT
HETATM    1  O   UNL     1     -12.616  15.463  70.072  1.00  0.00    -0.332 OA 
HETATM    2  C   UNL     1     -11.889  14.544  69.400  1.00  0.00    -0.325 C  
HETATM    3  C   UNL     1     -11.195  15.069  68.194  1.00  0.00    -0.316 A  
HETATM    4  O   UNL     1     -11.849  13.368  69.721  1.00  0.00    -0.303 OA 
HETATM    5  C   UNL     1     -10.906  14.158  67.162  1.00  0.00    -0.291 A  
HETATM    6  C   UNL     1     -10.220  14.568  66.008  1.00  0.00    -0.315 A  
HETATM    7  C   UNL     1      -9.842  15.915  65.907  1.00  0.00    -0.383 A  
HETATM    8  O   UNL     1     -11.084  17.304  69.057  1.00  0.00    -0.244 OA 
HETATM    9  C   UNL     1     -10.797  16.403  68.065  1.00  0.00    -0.342 A  
HETATM   10  H   UNL     1     -10.813  18.210  68.970  1.00  0.00     0.000 HD 
HETATM   11  C   UNL     1     -10.121  16.831  66.926  1.00  0.00    -0.286 A  
ENDROOT
BRANCH   6  12
HETATM   12  N   UNL     1      -9.879  13.722  64.928  1.00  0.00    -0.605 NA 
HETATM   13  H   UNL     1      -9.162  13.950  64.240  1.00  0.00     0.000 HD 
BRANCH  12  14
HETATM   14  N   UNL     1     -10.546  12.666  64.902  1.00  0.00    -0.295 NA 
HETATM   15  H   UNL     1     -11.454  12.581  64.444  1.00  0.00     0.000 HD 
BRANCH  14  16
HETATM   16  C   UNL     1      -9.903  11.604  65.576  1.00  0.00    -0.234 A  
HETATM   17  C   UNL     1      -9.887   9.215  66.072  1.00  0.00    -0.342 A  
HETATM   18  C   UNL     1     -10.427  10.316  65.400  1.00  0.00    -0.125 A  
HETATM   19  C   UNL     1      -8.777   9.386  66.903  1.00  0.00    -0.127 A  
HETATM   20  C   UNL     1      -8.782  11.756  66.409  1.00  0.00    -0.147 A  
HETATM   21  C   UNL     1      -8.222  10.657  67.077  1.00  0.00    -0.124 A  
BRANCH  19  22
HETATM   22  S   UNL     1      -8.207   8.009  67.886  1.00  0.00    -0.130 S  
HETATM   23  O   UNL     1      -9.064   7.922  69.046  1.00  0.00    -0.145 OA 
HETATM   24  O   UNL     1      -6.774   8.175  68.037  1.00  0.00    -0.061 OA 
BRANCH  22  25
HETATM   25  N   UNL     1      -8.413   6.670  66.882  1.00  0.00    -0.113 N  
HETATM   26  H   UNL     1      -9.276   6.128  66.874  1.00  0.00     0.000 HD 
BRANCH  25  27
HETATM   27  C   UNL     1      -7.319   6.348  66.054  1.00  0.00    -0.080 A  
HETATM   28  N   UNL     1      -7.446   6.798  64.795  1.00  0.00    -0.088 NA 
HETATM   29  C   UNL     1      -6.389   6.587  63.978  1.00  0.00    -0.037 A  
HETATM   30  C   UNL     1      -5.234   5.925  64.363  1.00  0.00    -0.016 A  
HETATM   31  C   UNL     1      -5.154   5.444  65.666  1.00  0.00    -0.009 A  
HETATM   32  C   UNL     1      -6.219   5.660  66.537  1.00  0.00    -0.034 A  
ENDBRANCH  25  27
ENDBRANCH  22  25
ENDBRANCH  19  22
ENDBRANCH  14  16
ENDBRANCH  12  14
ENDBRANCH   6  12
TORSDOF 6
ENDMDL
MODEL      284
REMARK 921   NORMALIZED FREE ENERGY PREDICTED BY IDOCK:   -3.75 KCAL/MOL
REMARK 922        TOTAL FREE ENERGY PREDICTED BY IDOCK:   -5.58 KCAL/MOL
REMARK 923 INTER-LIGAND FREE ENERGY PREDICTED BY IDOCK:   -5.35 KCAL/MOL
REMARK 924 INTRA-LIGAND FREE ENERGY PREDICTED BY IDOCK:   -0.23 KCAL/MOL
REMARK 927      BINDING AFFINITY PREDICTED BY RF-SCORE:    0.00 PKD
ROOT
HETATM    1  O   UNL     1      -5.846   6.291  68.415  1.00  0.00    -0.014 OA 
HETATM    2  C   UNL     1      -5.997   6.762  67.158  1.00  0.00    -0.021 C  
HETATM    3  C   UNL     1      -6.267   8.222  67.075  1.00  0.00    -0.055 A  
HETATM    4  O   UNL     1      -5.971   6.042  66.173  1.00  0.00    -0.026 OA 
HETATM    5  C   UNL     1      -6.970   8.691  65.950  1.00  0.00    -0.075 A  
HETATM    6  C   UNL     1      -7.230  10.060  65.780  1.00  0.00    -0.117 A  
HETATM    7  C   UNL     1      -6.782  10.946  66.771  1.00  0.00    -0.120 A  
HETATM    8  O   UNL     1      -5.153   8.689  69.147  1.00  0.00    -0.034 OA 
HETATM    9  C   UNL     1      -5.827   9.134  68.040  1.00  0.00    -0.038 A  
HETATM   10  H   UNL     1      -4.853   9.309  69.802  1.00  0.00     0.000 HD 
HETATM   11  C   UNL     1      -6.081  10.495  67.893  1.00  0.00    -0.047 A  
ENDROOT
BRANCH   6  12
HETATM   12  N   UNL     1      -7.918  10.619  64.680  1.00  0.00    -0.354 NA 
HETATM   13  H   UNL     1      -7.505  11.307  64.049  1.00  0.00     0.000 HD 
BRANCH  12  14
HETATM   14  N   UNL     1      -9.084  10.187  64.558  1.00  0.00    -0.218 NA 
HETATM   15  H   UNL     1      -9.439   9.747  63.708  1.00  0.00     0.000 HD 
BRANCH  14  16
HETATM   16  C   UNL     1      -9.855  10.375  65.726  1.00  0.00    -0.239 A  
HETATM   17  C   UNL     1     -11.025  11.961  67.165  1.00  0.00    -0.319 A  
HETATM   18  C   UNL     1     -10.303  11.674  66.002  1.00  0.00    -0.283 A  
HETATM   19  C   UNL     1     -11.348  10.930  68.052  1.00  0.00    -0.312 A  
HETATM   20  C   UNL     1     -10.196   9.350  66.625  1.00  0.00    -0.319 A  
HETATM   21  C   UNL     1     -10.933   9.622  67.787  1.00  0.00    -0.203 A  
BRANCH  19  22
HETATM   22  S   UNL     1     -12.118  11.336  69.611  1.00  0.00    -0.300 S  
HETATM   23  O   UNL     1     -11.160  11.044  70.654  1.00  0.00     0.028 OA 
HETATM   24  O   UNL     1     -13.421  10.700  69.606  1.00  0.00     0.305 OA 
BRANCH  22  25
HETATM   25  N   UNL     1     -12.413  12.993  69.509  1.00  0.00     0.022 N  
HETATM   26  H   UNL     1     -12.598  13.455  68.619  1.00  0.00     0.000 HD 
BRANCH  25  27
HETATM   27  C   UNL     1     -12.391  13.699  70.728  1.00  0.00    -0.371 A  
HETATM   28  N   UNL     1     -11.488  14.692  70.758  1.00  0.00    -0.229 NA 
HETATM   29  C   UNL     1     -11.479  15.455  71.874  1.00  0.00    -0.433 A  
HETATM   30  C   UNL     1     -12.312  15.244  72.962  1.00  0.00    -0.525 A  
HETATM   31  C   UNL     1     -13.211  14.184  72.906  1.00  0.00    -0.553 A  
HETATM   32  C   UNL     1     -13.257  13.390  71.763  1.00  0.00    -0.495 A  
ENDBRANCH  25  27
ENDBRANCH  22  25
ENDBRANCH  19  22
ENDBRANCH  14  16
ENDBRANCH  12  14
ENDBRANCH   6  12
TORSDOF 6
ENDMDL
MODEL      285
REMARK 921   NORMALIZED FREE ENERGY PREDICTED BY IDOCK:   -3.73 KCAL/MOL
REMARK 922        TOTAL FREE ENERGY PREDICTED BY IDOCK:   -5.56 KCAL/MOL
REMARK 923 INTER-LIGAND FREE ENERGY PREDICTED BY IDOCK:   -5.01 KCAL/MOL
REMARK 924 INTRA-LIGAND FREE ENERGY PREDICTED BY IDOCK:   -0.55 KCAL/MOL
REMARK 927      BINDING AFFINITY PREDICTED BY RF-SCORE:    0.00 PKD
ROOT
HETATM    1  O   UNL     1      -7.155  12.987  66.840  1.00  0.00     0.100 OA 
HETATM    2  C   UNL     1      -7.754  12.008  67.552  1.00  0.00    -0.155 C  
HETATM    3  C   UNL     1      -9.233  12.132  67.649  1.00  0.00    -0.181 A  
HETATM    4  O   UNL     1      -7.130  11.126  68.120  1.00  0.00    -0.067 OA 
HETATM    5  C   UNL     1      -9.863  11.551  68.765  1.00  0.00    -0.153 A  
HETATM    6  C   UNL     1     -11.259  11.592  68.908  1.00  0.00    -0.246 A  
HETATM    7  C   UNL     1     -12.007  12.240  67.915  1.00  0.00    -0.240 A  
HETATM    8  O   UNL     1      -9.407  13.344  65.587  1.00  0.00    -0.475 OA 
HETATM    9  C   UNL     1     -10.010  12.764  66.672  1.00  0.00    -0.245 A  
HETATM   10  H   UNL     1      -9.935  13.773  64.923  1.00  0.00     0.000 HD 
HETATM   11  C   UNL     1     -11.394  12.820  66.799  1.00  0.00    -0.362 A  
ENDROOT
BRANCH   6  12
HETATM   12  N   UNL     1     -11.975  11.029  69.988  1.00  0.00    -0.320 NA 
HETATM   13  H   UNL     1     -12.238  11.553  70.823  1.00  0.00     0.000 HD 
BRANCH  12  14
HETATM   14  N   UNL     1     -12.255   9.823  69.817  1.00  0.00    -0.318 NA 
HETATM   15  H   UNL     1     -13.062   9.499  69.285  1.00  0.00     0.000 HD 
BRANCH  14  16
HETATM   16  C   UNL     1     -11.327   8.960  70.442  1.00  0.00    -0.202 A  
HETATM   17  C   UNL     1      -9.665   7.197  70.153  1.00  0.00    -0.171 A  
HETATM   18  C   UNL     1     -10.567   8.122  69.616  1.00  0.00    -0.223 A  
HETATM   19  C   UNL     1      -9.482   7.132  71.537  1.00  0.00    -0.157 A  
HETATM   20  C   UNL     1     -11.123   8.886  71.831  1.00  0.00    -0.442 A  
HETATM   21  C   UNL     1     -10.212   7.973  72.381  1.00  0.00    -0.347 A  
BRANCH  19  22
HETATM   22  S   UNL     1      -8.461   5.835  72.217  1.00  0.00    -0.121 S  
HETATM   23  O   UNL     1      -8.556   5.921  73.657  1.00  0.00    -0.122 OA 
HETATM   24  O   UNL     1      -7.174   5.932  71.555  1.00  0.00    -0.078 OA 
BRANCH  22  25
HETATM   25  N   UNL     1      -9.165   4.412  71.649  1.00  0.00    -0.130 N  
HETATM   26  H   UNL     1     -10.047   4.060  72.019  1.00  0.00     0.000 HD 
BRANCH  25  27
HETATM   27  C   UNL     1      -8.459   3.739  70.632  1.00  0.00    -0.069 A  
HETATM   28  N   UNL     1      -8.915   4.003  69.396  1.00  0.00    -0.097 NA 
HETATM   29  C   UNL     1      -8.223   3.448  68.376  1.00  0.00    -0.073 A  
HETATM   30  C   UNL     1      -7.120   2.624  68.546  1.00  0.00    -0.048 A  
HETATM   31  C   UNL     1      -6.699   2.348  69.843  1.00  0.00    -0.033 A  
HETATM   32  C   UNL     1      -7.381   2.919  70.915  1.00  0.00    -0.033 A  
ENDBRANCH  25  27
ENDBRANCH  22  25
ENDBRANCH  19  22
ENDBRANCH  14  16
ENDBRANCH  12  14
ENDBRANCH   6  12
TORSDOF 6
ENDMDL
MODEL      286
REMARK 921   NORMALIZED FREE ENERGY PREDICTED BY IDOCK:   -3.72 KCAL/MOL
REMARK 922        TOTAL FREE ENERGY PREDICTED BY IDOCK:   -5.55 KCAL/MOL
REMARK 923 INTER-LIGAND FREE ENERGY PREDICTED BY IDOCK:   -7.53 KCAL/MOL
REMARK 924 INTRA-LIGAND FREE ENERGY PREDICTED BY IDOCK:    1.98 KCAL/MOL
REMARK 927      BINDING AFFINITY PREDICTED BY RF-SCORE:    0.00 PKD
ROOT
HETATM    1  O   UNL     1      -6.157  14.207  67.371  1.00  0.00    -0.343 OA 
HETATM    2  C   UNL     1      -7.112  13.850  68.257  1.00  0.00    -0.108 C  
HETATM    3  C   UNL     1      -8.086  12.849  67.745  1.00  0.00    -0.166 A  
HETATM    4  O   UNL     1      -7.205  14.348  69.368  1.00  0.00    -0.134 OA 
HETATM    5  C   UNL     1      -9.369  12.835  68.321  1.00  0.00    -0.194 A  
HETATM    6  C   UNL     1     -10.331  11.896  67.919  1.00  0.00    -0.198 A  
HETATM    7  C   UNL     1      -9.982  10.980  66.916  1.00  0.00    -0.231 A  
HETATM    8  O   UNL     1      -6.525  11.928  66.173  1.00  0.00    -0.398 OA 
HETATM    9  C   UNL     1      -7.767  11.916  66.752  1.00  0.00    -0.051 A  
HETATM   10  H   UNL     1      -6.309  11.293  65.500  1.00  0.00     0.000 HD 
HETATM   11  C   UNL     1      -8.710  10.981  66.335  1.00  0.00    -0.174 A  
ENDROOT
BRANCH   6  12
HETATM   12  N   UNL     1     -11.638  11.802  68.448  1.00  0.00    -0.296 NA 
HETATM   13  H   UNL     1     -12.309  11.088  68.165  1.00  0.00     0.000 HD 
BRANCH  12  14
HETATM   14  N   UNL     1     -11.888  12.682  69.298  1.00  0.00    -0.311 NA 
HETATM   15  H   UNL     1     -12.313  12.490  70.206  1.00  0.00     0.000 HD 
BRANCH  14  16
HETATM   16  C   UNL     1     -11.517  13.974  68.864  1.00  0.00    -0.294 A  
HETATM   17  C   UNL     1     -11.443  15.561  67.012  1.00  0.00    -0.036 A  
HETATM   18  C   UNL     1     -11.823  14.324  67.542  1.00  0.00    -0.429 A  
HETATM   19  C   UNL     1     -10.783  16.489  67.822  1.00  0.00    -0.329 A  
HETATM   20  C   UNL     1     -10.860  14.924  69.666  1.00  0.00    -0.269 A  
HETATM   21  C   UNL     1     -10.487  16.173  69.151  1.00  0.00    -0.265 A  
BRANCH  19  22
HETATM   22  S   UNL     1     -10.153  17.990  67.088  1.00  0.00    -0.363 S  
HETATM   23  O   UNL     1     -10.868  19.095  67.685  1.00  0.00    -0.448 OA 
HETATM   24  O   UNL     1     -10.171  17.787  65.652  1.00  0.00    -0.590 OA 
BRANCH  22  25
HETATM   25  N   UNL     1      -8.526  18.015  67.529  1.00  0.00    -0.235 N  
HETATM   26  H   UNL     1      -8.112  17.288  68.112  1.00  0.00     0.000 HD 
BRANCH  25  27
HETATM   27  C   UNL     1      -7.773  19.102  67.043  1.00  0.00    -0.243 A  
HETATM   28  N   UNL     1      -7.661  20.114  67.919  1.00  0.00    -0.285 NA 
HETATM   29  C   UNL     1      -6.881  21.150  67.536  1.00  0.00    -0.306 A  
HETATM   30  C   UNL     1      -6.238  21.221  66.309  1.00  0.00    -0.285 A  
HETATM   31  C   UNL     1      -6.405  20.168  65.416  1.00  0.00    -0.282 A  
HETATM   32  C   UNL     1      -7.189  19.079  65.788  1.00  0.00    -0.263 A  
ENDBRANCH  25  27
ENDBRANCH  22  25
ENDBRANCH  19  22
ENDBRANCH  14  16
ENDBRANCH  12  14
ENDBRANCH   6  12
TORSDOF 6
ENDMDL
MODEL      287
REMARK 921   NORMALIZED FREE ENERGY PREDICTED BY IDOCK:   -3.66 KCAL/MOL
REMARK 922        TOTAL FREE ENERGY PREDICTED BY IDOCK:   -5.47 KCAL/MOL
REMARK 923 INTER-LIGAND FREE ENERGY PREDICTED BY IDOCK:   -4.96 KCAL/MOL
REMARK 924 INTRA-LIGAND FREE ENERGY PREDICTED BY IDOCK:   -0.51 KCAL/MOL
REMARK 927      BINDING AFFINITY PREDICTED BY RF-SCORE:    0.00 PKD
ROOT
HETATM    1  O   UNL     1     -10.832   2.959  72.341  1.00  0.00     0.071 OA 
HETATM    2  C   UNL     1     -10.256   3.983  71.675  1.00  0.00    -0.040 C  
HETATM    3  C   UNL     1     -10.235   5.269  72.421  1.00  0.00    -0.243 A  
HETATM    4  O   UNL     1      -9.837   3.878  70.534  1.00  0.00    -0.190 OA 
HETATM    5  C   UNL     1     -10.195   6.457  71.668  1.00  0.00    -0.221 A  
HETATM    6  C   UNL     1     -10.135   7.710  72.299  1.00  0.00    -0.208 A  
HETATM    7  C   UNL     1     -10.130   7.745  73.701  1.00  0.00    -0.134 A  
HETATM    8  O   UNL     1     -10.272   4.190  74.563  1.00  0.00    -0.178 OA 
HETATM    9  C   UNL     1     -10.221   5.340  73.818  1.00  0.00    -0.223 A  
HETATM   10  H   UNL     1     -10.262   4.238  75.512  1.00  0.00     0.000 HD 
HETATM   11  C   UNL     1     -10.168   6.572  74.462  1.00  0.00    -0.273 A  
ENDROOT
BRANCH   6  12
HETATM   12  N   UNL     1     -10.082   8.951  71.625  1.00  0.00    -0.318 NA 
HETATM   13  H   UNL     1     -10.846   9.627  71.632  1.00  0.00     0.000 HD 
BRANCH  12  14
HETATM   14  N   UNL     1      -9.006   9.136  71.019  1.00  0.00    -0.230 NA 
HETATM   15  H   UNL     1      -8.091   9.111  71.469  1.00  0.00     0.000 HD 
BRANCH  14  16
HETATM   16  C   UNL     1      -9.196   9.382  69.641  1.00  0.00    -0.185 A  
HETATM   17  C   UNL     1      -8.354  10.473  67.628  1.00  0.00    -0.114 A  
HETATM   18  C   UNL     1      -8.218  10.135  68.978  1.00  0.00    -0.132 A  
HETATM   19  C   UNL     1      -9.462  10.019  66.908  1.00  0.00    -0.166 A  
HETATM   20  C   UNL     1     -10.300   8.928  68.899  1.00  0.00    -0.229 A  
HETATM   21  C   UNL     1     -10.440   9.247  67.541  1.00  0.00    -0.338 A  
BRANCH  19  22
HETATM   22  S   UNL     1      -9.709  10.599  65.237  1.00  0.00    -0.284 S  
HETATM   23  O   UNL     1     -10.204   9.484  64.462  1.00  0.00     0.564 OA 
HETATM   24  O   UNL     1      -8.490  11.284  64.853  1.00  0.00     0.118 OA 
BRANCH  22  25
HETATM   25  N   UNL     1     -10.885  11.800  65.386  1.00  0.00    -0.290 N  
HETATM   26  H   UNL     1     -11.521  12.031  64.624  1.00  0.00     0.000 HD 
BRANCH  25  27
HETATM   27  C   UNL     1     -10.934  12.463  66.628  1.00  0.00    -0.268 A  
HETATM   28  N   UNL     1     -10.003  13.421  66.763  1.00  0.00    -0.258 NA 
HETATM   29  C   UNL     1     -10.055  14.145  67.904  1.00  0.00    -0.235 A  
HETATM   30  C   UNL     1     -10.978  13.929  68.916  1.00  0.00    -0.290 A  
HETATM   31  C   UNL     1     -11.905  12.905  68.753  1.00  0.00    -0.353 A  
HETATM   32  C   UNL     1     -11.888  12.152  67.582  1.00  0.00    -0.316 A  
ENDBRANCH  25  27
ENDBRANCH  22  25
ENDBRANCH  19  22
ENDBRANCH  14  16
ENDBRANCH  12  14
ENDBRANCH   6  12
TORSDOF 6
ENDMDL
MODEL      288
REMARK 921   NORMALIZED FREE ENERGY PREDICTED BY IDOCK:   -3.66 KCAL/MOL
REMARK 922        TOTAL FREE ENERGY PREDICTED BY IDOCK:   -5.47 KCAL/MOL
REMARK 923 INTER-LIGAND FREE ENERGY PREDICTED BY IDOCK:   -5.10 KCAL/MOL
REMARK 924 INTRA-LIGAND FREE ENERGY PREDICTED BY IDOCK:   -0.37 KCAL/MOL
REMARK 927      BINDING AFFINITY PREDICTED BY RF-SCORE:    0.00 PKD
ROOT
HETATM    1  O   UNL     1     -12.267  15.456  64.467  1.00  0.00    -0.290 OA 
HETATM    2  C   UNL     1     -12.324  14.136  64.749  1.00  0.00    -0.417 C  
HETATM    3  C   UNL     1     -11.174  13.624  65.540  1.00  0.00    -0.301 A  
HETATM    4  O   UNL     1     -13.216  13.410  64.340  1.00  0.00    -0.265 OA 
HETATM    5  C   UNL     1     -10.847  12.262  65.407  1.00  0.00    -0.324 A  
HETATM    6  C   UNL     1      -9.799  11.695  66.149  1.00  0.00    -0.223 A  
HETATM    7  C   UNL     1      -9.079  12.527  67.018  1.00  0.00    -0.213 A  
HETATM    8  O   UNL     1     -10.740  15.755  66.552  1.00  0.00    -0.313 OA 
HETATM    9  C   UNL     1     -10.440  14.424  66.422  1.00  0.00    -0.295 A  
HETATM   10  H   UNL     1     -10.242  16.298  67.151  1.00  0.00     0.000 HD 
HETATM   11  C   UNL     1      -9.393  13.882  67.163  1.00  0.00    -0.244 A  
ENDROOT
BRANCH   6  12
HETATM   12  N   UNL     1      -9.408  10.338  66.086  1.00  0.00    -0.163 NA 
HETATM   13  H   UNL     1      -9.836   9.659  65.456  1.00  0.00     0.000 HD 
BRANCH  12  14
HETATM   14  N   UNL     1      -8.486  10.055  66.879  1.00  0.00    -0.125 NA 
HETATM   15  H   UNL     1      -7.733  10.698  67.125  1.00  0.00     0.000 HD 
BRANCH  14  16
HETATM   16  C   UNL     1      -8.602   8.746  67.397  1.00  0.00    -0.126 A  
HETATM   17  C   UNL     1     -10.093   6.896  67.954  1.00  0.00    -0.195 A  
HETATM   18  C   UNL     1      -9.878   8.166  67.409  1.00  0.00    -0.242 A  
HETATM   19  C   UNL     1      -9.014   6.167  68.459  1.00  0.00    -0.115 A  
HETATM   20  C   UNL     1      -7.527   7.994  67.903  1.00  0.00    -0.094 A  
HETATM   21  C   UNL     1      -7.728   6.714  68.438  1.00  0.00    -0.105 A  
BRANCH  19  22
HETATM   22  S   UNL     1      -9.327   4.626  69.306  1.00  0.00    -0.157 S  
HETATM   23  O   UNL     1     -10.258   4.903  70.376  1.00  0.00    -0.247 OA 
HETATM   24  O   UNL     1      -8.030   4.039  69.586  1.00  0.00    -0.055 OA 
BRANCH  22  25
HETATM   25  N   UNL     1     -10.032   3.644  68.130  1.00  0.00     0.108 N  
HETATM   26  H   UNL     1     -10.953   3.225  68.257  1.00  0.00     0.000 HD 
BRANCH  25  27
HETATM   27  C   UNL     1      -9.272   3.439  66.962  1.00  0.00    -0.184 A  
HETATM   28  N   UNL     1      -8.691   2.230  66.903  1.00  0.00    -0.117 NA 
HETATM   29  C   UNL     1      -8.015   1.949  65.766  1.00  0.00    -0.074 A  
HETATM   30  C   UNL     1      -7.878   2.834  64.709  1.00  0.00    -0.078 A  
HETATM   31  C   UNL     1      -8.467   4.090  64.821  1.00  0.00    -0.107 A  
HETATM   32  C   UNL     1      -9.184   4.404  65.973  1.00  0.00    -0.139 A  
ENDBRANCH  25  27
ENDBRANCH  22  25
ENDBRANCH  19  22
ENDBRANCH  14  16
ENDBRANCH  12  14
ENDBRANCH   6  12
TORSDOF 6
ENDMDL
MODEL      289
REMARK 921   NORMALIZED FREE ENERGY PREDICTED BY IDOCK:   -3.63 KCAL/MOL
REMARK 922        TOTAL FREE ENERGY PREDICTED BY IDOCK:   -5.43 KCAL/MOL
REMARK 923 INTER-LIGAND FREE ENERGY PREDICTED BY IDOCK:   -4.63 KCAL/MOL
REMARK 924 INTRA-LIGAND FREE ENERGY PREDICTED BY IDOCK:   -0.80 KCAL/MOL
REMARK 927      BINDING AFFINITY PREDICTED BY RF-SCORE:    0.00 PKD
ROOT
HETATM    1  O   UNL     1     -10.745   9.984  65.014  1.00  0.00     0.255 OA 
HETATM    2  C   UNL     1      -9.677  10.724  65.385  1.00  0.00    -0.245 C  
HETATM    3  C   UNL     1      -9.213  10.481  66.777  1.00  0.00    -0.175 A  
HETATM    4  O   UNL     1      -9.169  11.564  64.661  1.00  0.00    -0.094 OA 
HETATM    5  C   UNL     1      -8.533  11.526  67.428  1.00  0.00    -0.147 A  
HETATM    6  C   UNL     1      -8.030  11.361  68.729  1.00  0.00    -0.122 A  
HETATM    7  C   UNL     1      -8.238  10.129  69.366  1.00  0.00    -0.171 A  
HETATM    8  O   UNL     1     -10.067   8.240  66.821  1.00  0.00    -0.257 OA 
HETATM    9  C   UNL     1      -9.395   9.262  67.439  1.00  0.00    -0.127 A  
HETATM   10  H   UNL     1     -10.190   7.412  67.270  1.00  0.00     0.000 HD 
HETATM   11  C   UNL     1      -8.910   9.080  68.731  1.00  0.00    -0.137 A  
ENDROOT
BRANCH   6  12
HETATM   12  N   UNL     1      -7.329  12.351  69.454  1.00  0.00    -0.315 NA 
HETATM   13  H   UNL     1      -7.603  12.666  70.384  1.00  0.00     0.000 HD 
BRANCH  12  14
HETATM   14  N   UNL     1      -6.338  12.800  68.840  1.00  0.00    -0.080 NA 
HETATM   15  H   UNL     1      -5.558  12.223  68.523  1.00  0.00     0.000 HD 
BRANCH  14  16
HETATM   16  C   UNL     1      -6.418  14.195  68.632  1.00  0.00    -0.090 A  
HETATM   17  C   UNL     1      -6.985  15.999  67.090  1.00  0.00    -0.242 A  
HETATM   18  C   UNL     1      -6.922  14.637  67.402  1.00  0.00    -0.123 A  
HETATM   19  C   UNL     1      -6.581  16.946  68.035  1.00  0.00    -0.144 A  
HETATM   20  C   UNL     1      -6.023  15.162  69.573  1.00  0.00    -0.114 A  
HETATM   21  C   UNL     1      -6.096  16.530  69.278  1.00  0.00    -0.174 A  
BRANCH  19  22
HETATM   22  S   UNL     1      -6.504  18.666  67.564  1.00  0.00    -0.197 S  
HETATM   23  O   UNL     1      -6.384  18.714  66.124  1.00  0.00    -0.176 OA 
HETATM   24  O   UNL     1      -5.500  19.282  68.410  1.00  0.00    -0.192 OA 
BRANCH  22  25
HETATM   25  N   UNL     1      -7.983  19.300  68.068  1.00  0.00    -0.293 N  
HETATM   26  H   UNL     1      -8.094  20.282  68.315  1.00  0.00     0.000 HD 
BRANCH  25  27
HETATM   27  C   UNL     1      -9.056  18.388  68.127  1.00  0.00    -0.309 A  
HETATM   28  N   UNL     1      -9.664  18.197  66.945  1.00  0.00    -0.304 NA 
HETATM   29  C   UNL     1     -10.649  17.270  66.926  1.00  0.00    -0.213 A  
HETATM   30  C   UNL     1     -11.061  16.556  68.040  1.00  0.00    -0.275 A  
HETATM   31  C   UNL     1     -10.429  16.807  69.253  1.00  0.00    -0.331 A  
HETATM   32  C   UNL     1      -9.399  17.743  69.303  1.00  0.00     0.166 A  
ENDBRANCH  25  27
ENDBRANCH  22  25
ENDBRANCH  19  22
ENDBRANCH  14  16
ENDBRANCH  12  14
ENDBRANCH   6  12
TORSDOF 6
ENDMDL
MODEL      290
REMARK 921   NORMALIZED FREE ENERGY PREDICTED BY IDOCK:   -3.60 KCAL/MOL
REMARK 922        TOTAL FREE ENERGY PREDICTED BY IDOCK:   -5.38 KCAL/MOL
REMARK 923 INTER-LIGAND FREE ENERGY PREDICTED BY IDOCK:   -4.92 KCAL/MOL
REMARK 924 INTRA-LIGAND FREE ENERGY PREDICTED BY IDOCK:   -0.47 KCAL/MOL
REMARK 927      BINDING AFFINITY PREDICTED BY RF-SCORE:    0.00 PKD
ROOT
HETATM    1  O   UNL     1     -10.235  12.118  63.151  1.00  0.00    -0.391 OA 
HETATM    2  C   UNL     1     -10.156  11.305  64.227  1.00  0.00    -0.313 C  
HETATM    3  C   UNL     1     -10.377  11.984  65.531  1.00  0.00    -0.298 A  
HETATM    4  O   UNL     1      -9.869  10.122  64.143  1.00  0.00    -0.305 OA 
HETATM    5  C   UNL     1      -9.787  11.410  66.673  1.00  0.00    -0.233 A  
HETATM    6  C   UNL     1      -9.981  11.970  67.945  1.00  0.00    -0.197 A  
HETATM    7  C   UNL     1     -10.770  13.126  68.045  1.00  0.00    -0.248 A  
HETATM    8  O   UNL     1     -11.734  13.709  64.563  1.00  0.00    -0.367 OA 
HETATM    9  C   UNL     1     -11.164  13.132  65.668  1.00  0.00    -0.283 A  
HETATM   10  H   UNL     1     -12.269  14.488  64.656  1.00  0.00     0.000 HD 
HETATM   11  C   UNL     1     -11.364  13.706  66.920  1.00  0.00    -0.345 A  
ENDROOT
BRANCH   6  12
HETATM   12  N   UNL     1      -9.437  11.457  69.144  1.00  0.00    -0.412 NA 
HETATM   13  H   UNL     1      -9.905  11.524  70.048  1.00  0.00     0.000 HD 
BRANCH  12  14
HETATM   14  N   UNL     1      -8.324  10.913  68.985  1.00  0.00    -0.262 NA 
HETATM   15  H   UNL     1      -7.477  11.419  68.727  1.00  0.00     0.000 HD 
BRANCH  14  16
HETATM   16  C   UNL     1      -8.370   9.517  69.201  1.00  0.00    -0.125 A  
HETATM   17  C   UNL     1      -7.170   7.395  69.090  1.00  0.00    -0.084 A  
HETATM   18  C   UNL     1      -7.199   8.787  68.955  1.00  0.00    -0.072 A  
HETATM   19  C   UNL     1      -8.313   6.717  69.520  1.00  0.00    -0.131 A  
HETATM   20  C   UNL     1      -9.508   8.819  69.640  1.00  0.00    -0.170 A  
HETATM   21  C   UNL     1      -9.487   7.425  69.794  1.00  0.00    -0.159 A  
BRANCH  19  22
HETATM   22  S   UNL     1      -8.315   4.931  69.523  1.00  0.00    -0.084 S  
HETATM   23  O   UNL     1      -9.164   4.499  68.436  1.00  0.00    -0.117 OA 
HETATM   24  O   UNL     1      -8.591   4.521  70.886  1.00  0.00    -0.090 OA 
BRANCH  22  25
HETATM   25  N   UNL     1      -6.706   4.516  69.234  1.00  0.00    -0.044 N  
HETATM   26  H   UNL     1      -5.983   4.628  69.943  1.00  0.00     0.000 HD 
BRANCH  25  27
HETATM   27  C   UNL     1      -6.423   4.003  67.952  1.00  0.00    -0.038 A  
HETATM   28  N   UNL     1      -5.908   2.763  67.971  1.00  0.00    -0.023 NA 
HETATM   29  C   UNL     1      -5.693   2.190  66.765  1.00  0.00    -0.018 A  
HETATM   30  C   UNL     1      -5.946   2.817  65.555  1.00  0.00    -0.019 A  
HETATM   31  C   UNL     1      -6.448   4.114  65.577  1.00  0.00    -0.036 A  
HETATM   32  C   UNL     1      -6.696   4.726  66.804  1.00  0.00    -0.051 A  
ENDBRANCH  25  27
ENDBRANCH  22  25
ENDBRANCH  19  22
ENDBRANCH  14  16
ENDBRANCH  12  14
ENDBRANCH   6  12
TORSDOF 6
ENDMDL
MODEL      291
REMARK 921   NORMALIZED FREE ENERGY PREDICTED BY IDOCK:   -3.60 KCAL/MOL
REMARK 922        TOTAL FREE ENERGY PREDICTED BY IDOCK:   -5.38 KCAL/MOL
REMARK 923 INTER-LIGAND FREE ENERGY PREDICTED BY IDOCK:   -5.78 KCAL/MOL
REMARK 924 INTRA-LIGAND FREE ENERGY PREDICTED BY IDOCK:    0.40 KCAL/MOL
REMARK 927      BINDING AFFINITY PREDICTED BY RF-SCORE:    0.00 PKD
ROOT
HETATM    1  O   UNL     1     -14.138   9.360  72.710  1.00  0.00    -0.417 OA 
HETATM    2  C   UNL     1     -13.047   9.610  71.953  1.00  0.00    -0.436 C  
HETATM    3  C   UNL     1     -12.230   8.409  71.633  1.00  0.00    -0.358 A  
HETATM    4  O   UNL     1     -12.724  10.735  71.607  1.00  0.00    -0.411 OA 
HETATM    5  C   UNL     1     -10.862   8.604  71.368  1.00  0.00    -0.339 A  
HETATM    6  C   UNL     1     -10.033   7.525  71.020  1.00  0.00    -0.186 A  
HETATM    7  C   UNL     1     -10.604   6.246  70.958  1.00  0.00    -0.289 A  
HETATM    8  O   UNL     1     -14.098   6.915  71.821  1.00  0.00    -0.403 OA 
HETATM    9  C   UNL     1     -12.769   7.121  71.553  1.00  0.00    -0.393 A  
HETATM   10  H   UNL     1     -14.464   6.040  71.767  1.00  0.00     0.000 HD 
HETATM   11  C   UNL     1     -11.963   6.037  71.216  1.00  0.00     0.110 A  
ENDROOT
BRANCH   6  12
HETATM   12  N   UNL     1      -8.654   7.629  70.729  1.00  0.00    -0.132 NA 
HETATM   13  H   UNL     1      -7.933   7.707  71.446  1.00  0.00     0.000 HD 
BRANCH  12  14
HETATM   14  N   UNL     1      -8.408   7.617  69.505  1.00  0.00    -0.129 NA 
HETATM   15  H   UNL     1      -8.264   6.764  68.965  1.00  0.00     0.000 HD 
BRANCH  14  16
HETATM   16  C   UNL     1      -8.351   8.916  68.952  1.00  0.00    -0.122 A  
HETATM   17  C   UNL     1      -8.792  11.293  69.278  1.00  0.00     0.249 A  
HETATM   18  C   UNL     1      -8.763   9.982  69.763  1.00  0.00    -0.198 A  
HETATM   19  C   UNL     1      -8.363  11.560  67.976  1.00  0.00    -0.146 A  
HETATM   20  C   UNL     1      -7.915   9.204  67.647  1.00  0.00    -0.100 A  
HETATM   21  C   UNL     1      -7.926  10.517  67.155  1.00  0.00    -0.116 A  
BRANCH  19  22
HETATM   22  S   UNL     1      -8.566  13.206  67.314  1.00  0.00    -0.202 S  
HETATM   23  O   UNL     1      -9.696  13.173  66.413  1.00  0.00    -0.261 OA 
HETATM   24  O   UNL     1      -7.259  13.628  66.847  1.00  0.00     0.159 OA 
BRANCH  22  25
HETATM   25  N   UNL     1      -8.901  14.157  68.666  1.00  0.00    -0.292 N  
HETATM   26  H   UNL     1      -8.682  13.848  69.613  1.00  0.00     0.000 HD 
BRANCH  25  27
HETATM   27  C   UNL     1      -9.499  15.406  68.407  1.00  0.00    -0.200 A  
HETATM   28  N   UNL     1      -8.943  16.067  67.379  1.00  0.00    -0.189 NA 
HETATM   29  C   UNL     1      -9.530  17.235  67.034  1.00  0.00    -0.261 A  
HETATM   30  C   UNL     1     -10.625  17.774  67.692  1.00  0.00    -0.385 A  
HETATM   31  C   UNL     1     -11.152  17.076  68.774  1.00  0.00    -0.086 A  
HETATM   32  C   UNL     1     -10.580  15.861  69.143  1.00  0.00    -0.246 A  
ENDBRANCH  25  27
ENDBRANCH  22  25
ENDBRANCH  19  22
ENDBRANCH  14  16
ENDBRANCH  12  14
ENDBRANCH   6  12
TORSDOF 6
ENDMDL
MODEL      292
REMARK 921   NORMALIZED FREE ENERGY PREDICTED BY IDOCK:   -3.50 KCAL/MOL
REMARK 922        TOTAL FREE ENERGY PREDICTED BY IDOCK:   -5.26 KCAL/MOL
REMARK 923 INTER-LIGAND FREE ENERGY PREDICTED BY IDOCK:   -5.44 KCAL/MOL
REMARK 924 INTRA-LIGAND FREE ENERGY PREDICTED BY IDOCK:    0.18 KCAL/MOL
REMARK 927      BINDING AFFINITY PREDICTED BY RF-SCORE:    0.00 PKD
ROOT
HETATM    1  O   UNL     1     -13.014  12.505  63.620  1.00  0.00    -0.730 OA 
HETATM    2  C   UNL     1     -11.891  12.015  64.188  1.00  0.00    -0.373 C  
HETATM    3  C   UNL     1     -11.371  12.822  65.323  1.00  0.00    -0.338 A  
HETATM    4  O   UNL     1     -11.315  11.023  63.769  1.00  0.00    -0.053 OA 
HETATM    5  C   UNL     1      -9.993  12.746  65.599  1.00  0.00    -0.249 A  
HETATM    6  C   UNL     1      -9.432  13.449  66.677  1.00  0.00    -0.260 A  
HETATM    7  C   UNL     1     -10.283  14.239  67.464  1.00  0.00    -0.240 A  
HETATM    8  O   UNL     1     -13.533  13.706  65.869  1.00  0.00    -0.293 OA 
HETATM    9  C   UNL     1     -12.191  13.613  66.134  1.00  0.00    -0.444 A  
HETATM   10  H   UNL     1     -14.090  14.243  66.419  1.00  0.00     0.000 HD 
HETATM   11  C   UNL     1     -11.654  14.322  67.204  1.00  0.00    -0.402 A  
ENDROOT
BRANCH   6  12
HETATM   12  N   UNL     1      -8.065  13.424  67.032  1.00  0.00    -0.391 NA 
HETATM   13  H   UNL     1      -7.641  14.087  67.681  1.00  0.00     0.000 HD 
BRANCH  12  14
HETATM   14  N   UNL     1      -7.428  12.508  66.471  1.00  0.00    -0.143 NA 
HETATM   15  H   UNL     1      -6.830  12.650  65.657  1.00  0.00     0.000 HD 
BRANCH  14  16
HETATM   16  C   UNL     1      -7.627  11.254  67.091  1.00  0.00    -0.137 A  
HETATM   17  C   UNL     1      -8.164   8.892  66.791  1.00  0.00    -0.111 A  
HETATM   18  C   UNL     1      -7.900  10.159  66.259  1.00  0.00    -0.113 A  
HETATM   19  C   UNL     1      -8.115   8.697  68.173  1.00  0.00    -0.115 A  
HETATM   20  C   UNL     1      -7.574  11.036  68.478  1.00  0.00    -0.114 A  
HETATM   21  C   UNL     1      -7.822   9.768  69.022  1.00  0.00    -0.087 A  
BRANCH  19  22
HETATM   22  S   UNL     1      -8.622   7.123  68.847  1.00  0.00    -0.128 S  
HETATM   23  O   UNL     1      -7.826   6.102  68.203  1.00  0.00    -0.101 OA 
HETATM   24  O   UNL     1     -10.070   7.089  68.772  1.00  0.00    -0.160 OA 
BRANCH  22  25
HETATM   25  N   UNL     1      -8.248   7.235  70.488  1.00  0.00    -0.122 N  
HETATM   26  H   UNL     1      -8.444   8.075  71.031  1.00  0.00     0.000 HD 
BRANCH  25  27
HETATM   27  C   UNL     1      -7.648   6.096  71.061  1.00  0.00    -0.097 A  
HETATM   28  N   UNL     1      -6.869   6.375  72.119  1.00  0.00    -0.071 NA 
HETATM   29  C   UNL     1      -6.332   5.311  72.759  1.00  0.00    -0.047 A  
HETATM   30  C   UNL     1      -6.522   3.995  72.366  1.00  0.00    -0.021 A  
HETATM   31  C   UNL     1      -7.309   3.750  71.245  1.00  0.00    -0.040 A  
HETATM   32  C   UNL     1      -7.889   4.824  70.574  1.00  0.00    -0.062 A  
ENDBRANCH  25  27
ENDBRANCH  22  25
ENDBRANCH  19  22
ENDBRANCH  14  16
ENDBRANCH  12  14
ENDBRANCH   6  12
TORSDOF 6
ENDMDL
MODEL      293
REMARK 921   NORMALIZED FREE ENERGY PREDICTED BY IDOCK:   -3.46 KCAL/MOL
REMARK 922        TOTAL FREE ENERGY PREDICTED BY IDOCK:   -5.19 KCAL/MOL
REMARK 923 INTER-LIGAND FREE ENERGY PREDICTED BY IDOCK:   -5.18 KCAL/MOL
REMARK 924 INTRA-LIGAND FREE ENERGY PREDICTED BY IDOCK:   -0.01 KCAL/MOL
REMARK 927      BINDING AFFINITY PREDICTED BY RF-SCORE:    0.00 PKD
ROOT
HETATM    1  O   UNL     1      -5.132  12.301  73.462  1.00  0.00    -0.357 OA 
HETATM    2  C   UNL     1      -5.568  13.428  72.859  1.00  0.00     0.390 C  
HETATM    3  C   UNL     1      -5.455  13.418  71.376  1.00  0.00    -0.187 A  
HETATM    4  O   UNL     1      -5.968  14.400  73.480  1.00  0.00    -0.201 OA 
HETATM    5  C   UNL     1      -5.337  14.659  70.723  1.00  0.00    -0.136 A  
HETATM    6  C   UNL     1      -5.264  14.734  69.323  1.00  0.00    -0.089 A  
HETATM    7  C   UNL     1      -5.299  13.537  68.594  1.00  0.00    -0.077 A  
HETATM    8  O   UNL     1      -5.597  11.027  71.242  1.00  0.00    -0.310 OA 
HETATM    9  C   UNL     1      -5.495  12.243  70.618  1.00  0.00    -0.164 A  
HETATM   10  H   UNL     1      -5.625  10.229  70.727  1.00  0.00     0.000 HD 
HETATM   11  C   UNL     1      -5.418  12.296  69.229  1.00  0.00    -0.071 A  
ENDROOT
BRANCH   6  12
HETATM   12  N   UNL     1      -5.155  15.934  68.585  1.00  0.00    -0.093 NA 
HETATM   13  H   UNL     1      -4.564  16.716  68.869  1.00  0.00     0.000 HD 
BRANCH  12  14
HETATM   14  N   UNL     1      -5.853  15.940  67.550  1.00  0.00    -0.228 NA 
HETATM   15  H   UNL     1      -5.479  16.104  66.615  1.00  0.00     0.000 HD 
BRANCH  14  16
HETATM   16  C   UNL     1      -7.218  15.693  67.818  1.00  0.00    -0.155 A  
HETATM   17  C   UNL     1      -9.292  14.655  67.057  1.00  0.00    -0.244 A  
HETATM   18  C   UNL     1      -7.924  14.904  66.899  1.00  0.00    -0.067 A  
HETATM   19  C   UNL     1      -9.964  15.162  68.172  1.00  0.00    -0.221 A  
HETATM   20  C   UNL     1      -7.910  16.188  68.937  1.00  0.00    -0.213 A  
HETATM   21  C   UNL     1      -9.277  15.933  69.114  1.00  0.00    -0.253 A  
BRANCH  19  22
HETATM   22  S   UNL     1     -11.738  14.983  68.272  1.00  0.00    -0.273 S  
HETATM   23  O   UNL     1     -12.257  15.069  66.925  1.00  0.00    -0.037 OA 
HETATM   24  O   UNL     1     -12.188  15.904  69.298  1.00  0.00    -0.273 OA 
BRANCH  22  25
HETATM   25  N   UNL     1     -11.963  13.438  68.908  1.00  0.00    -0.338 N  
HETATM   26  H   UNL     1     -12.551  13.270  69.723  1.00  0.00     0.000 HD 
BRANCH  25  27
HETATM   27  C   UNL     1     -11.288  12.394  68.244  1.00  0.00    -0.284 A  
HETATM   28  N   UNL     1     -11.813  12.092  67.045  1.00  0.00    -0.594 NA 
HETATM   29  C   UNL     1     -11.157  11.153  66.328  1.00  0.00    -0.111 A  
HETATM   30  C   UNL     1     -10.022  10.492  66.774  1.00  0.00    -0.252 A  
HETATM   31  C   UNL     1      -9.528  10.809  68.035  1.00  0.00    -0.166 A  
HETATM   32  C   UNL     1     -10.173  11.785  68.792  1.00  0.00    -0.175 A  
ENDBRANCH  25  27
ENDBRANCH  22  25
ENDBRANCH  19  22
ENDBRANCH  14  16
ENDBRANCH  12  14
ENDBRANCH   6  12
TORSDOF 6
ENDMDL
MODEL      294
REMARK 921   NORMALIZED FREE ENERGY PREDICTED BY IDOCK:   -3.41 KCAL/MOL
REMARK 922        TOTAL FREE ENERGY PREDICTED BY IDOCK:   -5.13 KCAL/MOL
REMARK 923 INTER-LIGAND FREE ENERGY PREDICTED BY IDOCK:   -5.22 KCAL/MOL
REMARK 924 INTRA-LIGAND FREE ENERGY PREDICTED BY IDOCK:    0.09 KCAL/MOL
REMARK 927      BINDING AFFINITY PREDICTED BY RF-SCORE:    0.00 PKD
ROOT
HETATM    1  O   UNL     1      -9.651   3.506  67.795  1.00  0.00    -0.195 OA 
HETATM    2  C   UNL     1      -8.782   4.397  68.320  1.00  0.00    -0.101 C  
HETATM    3  C   UNL     1      -8.835   5.748  67.701  1.00  0.00    -0.105 A  
HETATM    4  O   UNL     1      -7.980   4.105  69.192  1.00  0.00    -0.060 OA 
HETATM    5  C   UNL     1      -7.670   6.535  67.754  1.00  0.00    -0.107 A  
HETATM    6  C   UNL     1      -7.651   7.835  67.226  1.00  0.00    -0.104 A  
HETATM    7  C   UNL     1      -8.824   8.323  66.631  1.00  0.00    -0.166 A  
HETATM    8  O   UNL     1     -11.127   5.509  67.037  1.00  0.00    -0.413 OA 
HETATM    9  C   UNL     1      -9.989   6.269  67.107  1.00  0.00    -0.151 A  
HETATM   10  H   UNL     1     -11.912   5.863  66.634  1.00  0.00     0.000 HD 
HETATM   11  C   UNL     1      -9.990   7.554  66.572  1.00  0.00    -0.209 A  
ENDROOT
BRANCH   6  12
HETATM   12  N   UNL     1      -6.532   8.697  67.244  1.00  0.00    -0.057 NA 
HETATM   13  H   UNL     1      -5.863   8.766  66.477  1.00  0.00     0.000 HD 
BRANCH  12  14
HETATM   14  N   UNL     1      -6.444   9.367  68.295  1.00  0.00    -0.054 NA 
HETATM   15  H   UNL     1      -6.093   8.994  69.177  1.00  0.00     0.000 HD 
BRANCH  14  16
HETATM   16  C   UNL     1      -6.886  10.698  68.125  1.00  0.00    -0.068 A  
HETATM   17  C   UNL     1      -6.551  12.829  66.984  1.00  0.00     0.230 A  
HETATM   18  C   UNL     1      -6.216  11.485  67.178  1.00  0.00    -0.121 A  
HETATM   19  C   UNL     1      -7.601  13.394  67.713  1.00  0.00    -0.157 A  
HETATM   20  C   UNL     1      -7.944  11.281  68.843  1.00  0.00    -0.104 A  
HETATM   21  C   UNL     1      -8.299  12.623  68.647  1.00  0.00     0.028 A  
BRANCH  19  22
HETATM   22  S   UNL     1      -7.904  15.149  67.582  1.00  0.00    -0.176 S  
HETATM   23  O   UNL     1      -6.618  15.809  67.571  1.00  0.00    -0.157 OA 
HETATM   24  O   UNL     1      -8.893  15.473  68.592  1.00  0.00    -0.173 OA 
BRANCH  22  25
HETATM   25  N   UNL     1      -8.686  15.324  66.098  1.00  0.00    -0.447 N  
HETATM   26  H   UNL     1      -8.260  15.824  65.318  1.00  0.00     0.000 HD 
BRANCH  25  27
HETATM   27  C   UNL     1      -9.964  14.737  66.003  1.00  0.00    -0.313 A  
HETATM   28  N   UNL     1     -10.326  14.441  64.744  1.00  0.00    -0.402 NA 
HETATM   29  C   UNL     1     -11.509  13.802  64.600  1.00  0.00    -0.371 A  
HETATM   30  C   UNL     1     -12.346  13.476  65.657  1.00  0.00    -0.522 A  
HETATM   31  C   UNL     1     -11.950  13.829  66.943  1.00  0.00    -0.460 A  
HETATM   32  C   UNL     1     -10.729  14.473  67.126  1.00  0.00    -0.286 A  
ENDBRANCH  25  27
ENDBRANCH  22  25
ENDBRANCH  19  22
ENDBRANCH  14  16
ENDBRANCH  12  14
ENDBRANCH   6  12
TORSDOF 6
ENDMDL
MODEL      295
REMARK 921   NORMALIZED FREE ENERGY PREDICTED BY IDOCK:   -3.38 KCAL/MOL
REMARK 922        TOTAL FREE ENERGY PREDICTED BY IDOCK:   -5.09 KCAL/MOL
REMARK 923 INTER-LIGAND FREE ENERGY PREDICTED BY IDOCK:   -4.65 KCAL/MOL
REMARK 924 INTRA-LIGAND FREE ENERGY PREDICTED BY IDOCK:   -0.43 KCAL/MOL
REMARK 927      BINDING AFFINITY PREDICTED BY RF-SCORE:    0.00 PKD
ROOT
HETATM    1  O   UNL     1     -10.668  13.102  67.324  1.00  0.00    -0.251 OA 
HETATM    2  C   UNL     1     -10.367  11.894  67.847  1.00  0.00    -0.198 C  
HETATM    3  C   UNL     1      -8.958  11.466  67.640  1.00  0.00    -0.140 A  
HETATM    4  O   UNL     1     -11.196  11.183  68.393  1.00  0.00    -0.218 OA 
HETATM    5  C   UNL     1      -8.692  10.085  67.624  1.00  0.00    -0.121 A  
HETATM    6  C   UNL     1      -7.382   9.603  67.472  1.00  0.00    -0.090 A  
HETATM    7  C   UNL     1      -6.347  10.538  67.325  1.00  0.00    -0.062 A  
HETATM    8  O   UNL     1      -8.147  13.720  67.501  1.00  0.00    -0.161 OA 
HETATM    9  C   UNL     1      -7.901  12.372  67.499  1.00  0.00    -0.169 A  
HETATM   10  H   UNL     1      -7.429  14.335  67.405  1.00  0.00     0.000 HD 
HETATM   11  C   UNL     1      -6.596  11.914  67.342  1.00  0.00    -0.124 A  
ENDROOT
BRANCH   6  12
HETATM   12  N   UNL     1      -7.023   8.237  67.453  1.00  0.00    -0.074 NA 
HETATM   13  H   UNL     1      -6.065   7.906  67.568  1.00  0.00     0.000 HD 
BRANCH  12  14
HETATM   14  N   UNL     1      -7.997   7.474  67.282  1.00  0.00    -0.117 NA 
HETATM   15  H   UNL     1      -8.522   7.413  66.409  1.00  0.00     0.000 HD 
BRANCH  14  16
HETATM   16  C   UNL     1      -8.292   6.707  68.431  1.00  0.00    -0.122 A  
HETATM   17  C   UNL     1      -7.851   6.331  70.801  1.00  0.00    -0.106 A  
HETATM   18  C   UNL     1      -7.660   7.069  69.628  1.00  0.00    -0.104 A  
HETATM   19  C   UNL     1      -8.720   5.237  70.798  1.00  0.00    -0.131 A  
HETATM   20  C   UNL     1      -9.168   5.608  68.449  1.00  0.00    -0.125 A  
HETATM   21  C   UNL     1      -9.379   4.870  69.622  1.00  0.00    -0.190 A  
BRANCH  19  22
HETATM   22  S   UNL     1      -8.821   4.204  72.251  1.00  0.00    -0.108 S  
HETATM   23  O   UNL     1      -7.713   4.555  73.109  1.00  0.00    -0.084 OA 
HETATM   24  O   UNL     1      -8.988   2.843  71.778  1.00  0.00    -0.076 OA 
BRANCH  22  25
HETATM   25  N   UNL     1     -10.292   4.629  72.959  1.00  0.00    -0.171 N  
HETATM   26  H   UNL     1     -10.754   4.033  73.645  1.00  0.00     0.000 HD 
BRANCH  25  27
HETATM   27  C   UNL     1     -10.842   5.859  72.545  1.00  0.00    -0.247 A  
HETATM   28  N   UNL     1     -11.737   5.740  71.551  1.00  0.00     0.005 NA 
HETATM   29  C   UNL     1     -12.356   6.879  71.169  1.00  0.00    -0.370 A  
HETATM   30  C   UNL     1     -12.096   8.124  71.721  1.00  0.00    -0.357 A  
HETATM   31  C   UNL     1     -11.138   8.211  72.726  1.00  0.00    -0.407 A  
HETATM   32  C   UNL     1     -10.493   7.052  73.153  1.00  0.00    -0.335 A  
ENDBRANCH  25  27
ENDBRANCH  22  25
ENDBRANCH  19  22
ENDBRANCH  14  16
ENDBRANCH  12  14
ENDBRANCH   6  12
TORSDOF 6
ENDMDL
MODEL      296
REMARK 921   NORMALIZED FREE ENERGY PREDICTED BY IDOCK:   -3.23 KCAL/MOL
REMARK 922        TOTAL FREE ENERGY PREDICTED BY IDOCK:   -4.89 KCAL/MOL
REMARK 923 INTER-LIGAND FREE ENERGY PREDICTED BY IDOCK:   -4.53 KCAL/MOL
REMARK 924 INTRA-LIGAND FREE ENERGY PREDICTED BY IDOCK:   -0.35 KCAL/MOL
REMARK 927      BINDING AFFINITY PREDICTED BY RF-SCORE:    0.00 PKD
ROOT
HETATM    1  O   UNL     1      -9.751   3.555  67.802  1.00  0.00    -0.165 OA 
HETATM    2  C   UNL     1      -8.763   4.414  68.134  1.00  0.00    -0.101 C  
HETATM    3  C   UNL     1      -8.951   5.798  67.620  1.00  0.00    -0.107 A  
HETATM    4  O   UNL     1      -7.769   4.073  68.754  1.00  0.00    -0.054 OA 
HETATM    5  C   UNL     1      -7.798   6.578  67.415  1.00  0.00    -0.112 A  
HETATM    6  C   UNL     1      -7.895   7.905  66.969  1.00  0.00    -0.108 A  
HETATM    7  C   UNL     1      -9.172   8.428  66.721  1.00  0.00    -0.214 A  
HETATM    8  O   UNL     1     -11.340   5.599  67.554  1.00  0.00    -0.078 OA 
HETATM    9  C   UNL     1     -10.210   6.353  67.371  1.00  0.00    -0.178 A  
HETATM   10  H   UNL     1     -12.196   5.976  67.385  1.00  0.00     0.000 HD 
HETATM   11  C   UNL     1     -10.327   7.665  66.922  1.00  0.00    -0.388 A  
ENDROOT
BRANCH   6  12
HETATM   12  N   UNL     1      -6.794   8.763  66.745  1.00  0.00    -0.069 NA 
HETATM   13  H   UNL     1      -6.315   8.840  65.848  1.00  0.00     0.000 HD 
BRANCH  12  14
HETATM   14  N   UNL     1      -6.467   9.417  67.758  1.00  0.00    -0.059 NA 
HETATM   15  H   UNL     1      -5.794   9.090  68.451  1.00  0.00     0.000 HD 
BRANCH  14  16
HETATM   16  C   UNL     1      -7.134  10.660  67.836  1.00  0.00    -0.086 A  
HETATM   17  C   UNL     1      -7.571  12.812  66.771  1.00  0.00     0.318 A  
HETATM   18  C   UNL     1      -6.992  11.539  66.754  1.00  0.00    -0.108 A  
HETATM   19  C   UNL     1      -8.345  13.206  67.866  1.00  0.00    -0.170 A  
HETATM   20  C   UNL     1      -7.922  11.071  68.925  1.00  0.00    -0.138 A  
HETATM   21  C   UNL     1      -8.520  12.339  68.948  1.00  0.00     0.234 A  
BRANCH  19  22
HETATM   22  S   UNL     1      -8.933  14.889  67.953  1.00  0.00    -0.181 S  
HETATM   23  O   UNL     1      -8.320  15.618  66.865  1.00  0.00    -0.208 OA 
HETATM   24  O   UNL     1      -8.753  15.320  69.326  1.00  0.00    -0.222 OA 
BRANCH  22  25
HETATM   25  N   UNL     1     -10.599  14.758  67.727  1.00  0.00    -0.254 N  
HETATM   26  H   UNL     1     -11.029  14.849  66.807  1.00  0.00     0.000 HD 
BRANCH  25  27
HETATM   27  C   UNL     1     -11.361  14.512  68.887  1.00  0.00    -0.274 A  
HETATM   28  N   UNL     1     -11.969  15.607  69.372  1.00  0.00    -0.364 NA 
HETATM   29  C   UNL     1     -12.778  15.415  70.438  1.00  0.00    -0.362 A  
HETATM   30  C   UNL     1     -12.977  14.185  71.046  1.00  0.00    -0.399 A  
HETATM   31  C   UNL     1     -12.303  13.081  70.534  1.00  0.00    -0.365 A  
HETATM   32  C   UNL     1     -11.475  13.243  69.426  1.00  0.00    -0.323 A  
ENDBRANCH  25  27
ENDBRANCH  22  25
ENDBRANCH  19  22
ENDBRANCH  14  16
ENDBRANCH  12  14
ENDBRANCH   6  12
TORSDOF 6
ENDMDL
MODEL      297
REMARK 921   NORMALIZED FREE ENERGY PREDICTED BY IDOCK:   -3.22 KCAL/MOL
REMARK 922        TOTAL FREE ENERGY PREDICTED BY IDOCK:   -4.87 KCAL/MOL
REMARK 923 INTER-LIGAND FREE ENERGY PREDICTED BY IDOCK:   -5.94 KCAL/MOL
REMARK 924 INTRA-LIGAND FREE ENERGY PREDICTED BY IDOCK:    1.08 KCAL/MOL
REMARK 927      BINDING AFFINITY PREDICTED BY RF-SCORE:    0.00 PKD
ROOT
HETATM    1  O   UNL     1     -12.036  13.041  69.785  1.00  0.00    -0.316 OA 
HETATM    2  C   UNL     1     -12.030  11.783  69.291  1.00  0.00    -0.291 C  
HETATM    3  C   UNL     1     -12.176  10.717  70.317  1.00  0.00    -0.431 A  
HETATM    4  O   UNL     1     -11.861  11.537  68.107  1.00  0.00    -0.510 OA 
HETATM    5  C   UNL     1     -11.638   9.451  70.022  1.00  0.00    -0.046 A  
HETATM    6  C   UNL     1     -11.768   8.383  70.923  1.00  0.00    -0.246 A  
HETATM    7  C   UNL     1     -12.439   8.617  72.133  1.00  0.00    -0.453 A  
HETATM    8  O   UNL     1     -13.362  12.146  71.835  1.00  0.00    -0.463 OA 
HETATM    9  C   UNL     1     -12.845  10.914  71.530  1.00  0.00    -0.454 A  
HETATM   10  H   UNL     1     -13.818  12.279  72.659  1.00  0.00     0.000 HD 
HETATM   11  C   UNL     1     -12.980   9.869  72.439  1.00  0.00    -0.263 A  
ENDROOT
BRANCH   6  12
HETATM   12  N   UNL     1     -11.270   7.079  70.705  1.00  0.00    -0.271 NA 
HETATM   13  H   UNL     1     -10.701   6.574  71.385  1.00  0.00     0.000 HD 
BRANCH  12  14
HETATM   14  N   UNL     1     -11.595   6.607  69.596  1.00  0.00    -0.628 NA 
HETATM   15  H   UNL     1     -12.542   6.305  69.364  1.00  0.00     0.000 HD 
BRANCH  14  16
HETATM   16  C   UNL     1     -10.507   6.538  68.698  1.00  0.00    -0.218 A  
HETATM   17  C   UNL     1      -9.527   7.345  66.613  1.00  0.00    -0.240 A  
HETATM   18  C   UNL     1     -10.535   7.385  67.582  1.00  0.00    -0.310 A  
HETATM   19  C   UNL     1      -8.445   6.476  66.776  1.00  0.00    -0.113 A  
HETATM   20  C   UNL     1      -9.407   5.676  68.848  1.00  0.00    -0.144 A  
HETATM   21  C   UNL     1      -8.382   5.636  67.892  1.00  0.00    -0.100 A  
BRANCH  19  22
HETATM   22  S   UNL     1      -7.258   6.310  65.453  1.00  0.00    -0.072 S  
HETATM   23  O   UNL     1      -5.948   6.544  66.016  1.00  0.00    -0.027 OA 
HETATM   24  O   UNL     1      -7.747   7.122  64.355  1.00  0.00    -0.105 OA 
BRANCH  22  25
HETATM   25  N   UNL     1      -7.421   4.709  64.948  1.00  0.00    -0.072 N  
HETATM   26  H   UNL     1      -7.956   4.455  64.118  1.00  0.00     0.000 HD 
BRANCH  25  27
HETATM   27  C   UNL     1      -6.772   3.743  65.744  1.00  0.00    -0.045 A  
HETATM   28  N   UNL     1      -6.852   2.497  65.250  1.00  0.00    -0.043 NA 
HETATM   29  C   UNL     1      -6.178   1.543  65.931  1.00  0.00    -0.022 A  
HETATM   30  C   UNL     1      -5.458   1.783  67.091  1.00  0.00    -0.017 A  
HETATM   31  C   UNL     1      -5.426   3.082  67.589  1.00  0.00    -0.017 A  
HETATM   32  C   UNL     1      -6.097   4.090  66.902  1.00  0.00    -0.028 A  
ENDBRANCH  25  27
ENDBRANCH  22  25
ENDBRANCH  19  22
ENDBRANCH  14  16
ENDBRANCH  12  14
ENDBRANCH   6  12
TORSDOF 6
ENDMDL
MODEL      298
REMARK 921   NORMALIZED FREE ENERGY PREDICTED BY IDOCK:   -3.07 KCAL/MOL
REMARK 922        TOTAL FREE ENERGY PREDICTED BY IDOCK:   -4.67 KCAL/MOL
REMARK 923 INTER-LIGAND FREE ENERGY PREDICTED BY IDOCK:   -4.82 KCAL/MOL
REMARK 924 INTRA-LIGAND FREE ENERGY PREDICTED BY IDOCK:    0.16 KCAL/MOL
REMARK 927      BINDING AFFINITY PREDICTED BY RF-SCORE:    0.00 PKD
ROOT
HETATM    1  O   UNL     1      -5.524   6.976  70.136  1.00  0.00    -0.022 OA 
HETATM    2  C   UNL     1      -6.044   7.299  68.932  1.00  0.00    -0.026 C  
HETATM    3  C   UNL     1      -6.588   8.681  68.847  1.00  0.00    -0.053 A  
HETATM    4  O   UNL     1      -6.115   6.507  68.007  1.00  0.00    -0.025 OA 
HETATM    5  C   UNL     1      -7.605   8.923  67.905  1.00  0.00    -0.093 A  
HETATM    6  C   UNL     1      -8.143  10.208  67.738  1.00  0.00    -0.109 A  
HETATM    7  C   UNL     1      -7.648  11.243  68.545  1.00  0.00    -0.123 A  
HETATM    8  O   UNL     1      -5.130   9.512  70.560  1.00  0.00    -0.026 OA 
HETATM    9  C   UNL     1      -6.111   9.737  69.630  1.00  0.00    -0.044 A  
HETATM   10  H   UNL     1      -4.805  10.229  71.092  1.00  0.00     0.000 HD 
HETATM   11  C   UNL     1      -6.636  11.018  69.484  1.00  0.00    -0.118 A  
ENDROOT
BRANCH   6  12
HETATM   12  N   UNL     1      -9.157  10.544  66.812  1.00  0.00    -0.150 NA 
HETATM   13  H   UNL     1      -9.128  11.377  66.224  1.00  0.00     0.000 HD 
BRANCH  12  14
HETATM   14  N   UNL     1     -10.092   9.717  66.786  1.00  0.00    -0.218 NA 
HETATM   15  H   UNL     1     -10.489   9.337  65.927  1.00  0.00     0.000 HD 
BRANCH  14  16
HETATM   16  C   UNL     1     -10.539   9.366  68.080  1.00  0.00    -0.226 A  
HETATM   17  C   UNL     1     -11.005   7.565  69.659  1.00  0.00    -0.164 A  
HETATM   18  C   UNL     1     -10.528   8.007  68.420  1.00  0.00    -0.205 A  
HETATM   19  C   UNL     1     -11.461   8.494  70.597  1.00  0.00    -0.228 A  
HETATM   20  C   UNL     1     -10.994  10.287  69.039  1.00  0.00    -0.274 A  
HETATM   21  C   UNL     1     -11.460   9.858  70.290  1.00  0.00    -0.349 A  
BRANCH  19  22
HETATM   22  S   UNL     1     -12.224   7.907  72.101  1.00  0.00    -0.292 S  
HETATM   23  O   UNL     1     -12.689   6.561  71.852  1.00  0.00    -0.325 OA 
HETATM   24  O   UNL     1     -13.147   8.942  72.527  1.00  0.00    -0.422 OA 
BRANCH  22  25
HETATM   25  N   UNL     1     -10.972   7.915  73.231  1.00  0.00    -0.293 N  
HETATM   26  H   UNL     1     -10.785   8.721  73.826  1.00  0.00     0.000 HD 
BRANCH  25  27
HETATM   27  C   UNL     1     -10.200   6.738  73.302  1.00  0.00    -0.247 A  
HETATM   28  N   UNL     1      -9.136   6.743  72.483  1.00  0.00    -0.134 NA 
HETATM   29  C   UNL     1      -8.314   5.672  72.568  1.00  0.00    -0.114 A  
HETATM   30  C   UNL     1      -8.531   4.596  73.415  1.00  0.00    -0.102 A  
HETATM   31  C   UNL     1      -9.662   4.614  74.225  1.00  0.00    -0.160 A  
HETATM   32  C   UNL     1     -10.520   5.710  74.172  1.00  0.00    -0.281 A  
ENDBRANCH  25  27
ENDBRANCH  22  25
ENDBRANCH  19  22
ENDBRANCH  14  16
ENDBRANCH  12  14
ENDBRANCH   6  12
TORSDOF 6
ENDMDL
MODEL      299
REMARK 921   NORMALIZED FREE ENERGY PREDICTED BY IDOCK:   -3.02 KCAL/MOL
REMARK 922        TOTAL FREE ENERGY PREDICTED BY IDOCK:   -4.61 KCAL/MOL
REMARK 923 INTER-LIGAND FREE ENERGY PREDICTED BY IDOCK:   -4.28 KCAL/MOL
REMARK 924 INTRA-LIGAND FREE ENERGY PREDICTED BY IDOCK:   -0.33 KCAL/MOL
REMARK 927      BINDING AFFINITY PREDICTED BY RF-SCORE:    0.00 PKD
ROOT
HETATM    1  O   UNL     1     -12.853  12.773  70.985  1.00  0.00    -0.279 OA 
HETATM    2  C   UNL     1     -12.648  11.729  70.154  1.00  0.00     0.005 C  
HETATM    3  C   UNL     1     -12.593  10.405  70.830  1.00  0.00    -0.462 A  
HETATM    4  O   UNL     1     -12.464  11.862  68.955  1.00  0.00    -0.105 OA 
HETATM    5  C   UNL     1     -11.857   9.383  70.201  1.00  0.00     0.021 A  
HETATM    6  C   UNL     1     -11.789   8.096  70.756  1.00  0.00    -0.159 A  
HETATM    7  C   UNL     1     -12.464   7.860  71.963  1.00  0.00    -0.338 A  
HETATM    8  O   UNL     1     -13.970  11.123  72.658  1.00  0.00    -0.057 OA 
HETATM    9  C   UNL     1     -13.261  10.133  72.028  1.00  0.00    -0.430 A  
HETATM   10  H   UNL     1     -14.424  10.938  73.471  1.00  0.00     0.000 HD 
HETATM   11  C   UNL     1     -13.201   8.865  72.598  1.00  0.00    -0.363 A  
ENDROOT
BRANCH   6  12
HETATM   12  N   UNL     1     -11.085   7.010  70.190  1.00  0.00    -0.275 NA 
HETATM   13  H   UNL     1     -11.521   6.306  69.594  1.00  0.00     0.000 HD 
BRANCH  12  14
HETATM   14  N   UNL     1      -9.873   6.998  70.494  1.00  0.00    -0.179 NA 
HETATM   15  H   UNL     1      -9.510   6.602  71.362  1.00  0.00     0.000 HD 
BRANCH  14  16
HETATM   16  C   UNL     1      -9.062   7.593  69.503  1.00  0.00    -0.146 A  
HETATM   17  C   UNL     1      -6.850   8.437  68.913  1.00  0.00    -0.061 A  
HETATM   18  C   UNL     1      -7.712   7.805  69.814  1.00  0.00    -0.097 A  
HETATM   19  C   UNL     1      -7.325   8.830  67.659  1.00  0.00    -0.085 A  
HETATM   20  C   UNL     1      -9.519   7.987  68.233  1.00  0.00    -0.147 A  
HETATM   21  C   UNL     1      -8.661   8.609  67.315  1.00  0.00    -0.133 A  
BRANCH  19  22
HETATM   22  S   UNL     1      -6.264   9.787  66.589  1.00  0.00    -0.066 S  
HETATM   23  O   UNL     1      -7.083  10.799  65.961  1.00  0.00    -0.132 OA 
HETATM   24  O   UNL     1      -5.520   8.835  65.786  1.00  0.00    -0.037 OA 
BRANCH  22  25
HETATM   25  N   UNL     1      -5.140  10.484  67.635  1.00  0.00    -0.037 N  
HETATM   26  H   UNL     1      -4.253  10.033  67.855  1.00  0.00     0.000 HD 
BRANCH  25  27
HETATM   27  C   UNL     1      -5.503  11.729  68.188  1.00  0.00    -0.044 A  
HETATM   28  N   UNL     1      -5.606  12.711  67.278  1.00  0.00    -0.316 NA 
HETATM   29  C   UNL     1      -6.031  13.909  67.741  1.00  0.00    -0.108 A  
HETATM   30  C   UNL     1      -6.325  14.163  69.072  1.00  0.00    -0.098 A  
HETATM   31  C   UNL     1      -6.174  13.129  69.989  1.00  0.00    -0.073 A  
HETATM   32  C   UNL     1      -5.754  11.878  69.541  1.00  0.00    -0.080 A  
ENDBRANCH  25  27
ENDBRANCH  22  25
ENDBRANCH  19  22
ENDBRANCH  14  16
ENDBRANCH  12  14
ENDBRANCH   6  12
TORSDOF 6
ENDMDL
MODEL      300
REMARK 921   NORMALIZED FREE ENERGY PREDICTED BY IDOCK:   -2.99 KCAL/MOL
REMARK 922        TOTAL FREE ENERGY PREDICTED BY IDOCK:   -4.56 KCAL/MOL
REMARK 923 INTER-LIGAND FREE ENERGY PREDICTED BY IDOCK:   -3.93 KCAL/MOL
REMARK 924 INTRA-LIGAND FREE ENERGY PREDICTED BY IDOCK:   -0.63 KCAL/MOL
REMARK 927      BINDING AFFINITY PREDICTED BY RF-SCORE:    0.00 PKD
ROOT
HETATM    1  O   UNL     1      -7.763   7.942  64.949  1.00  0.00    -0.097 OA 
HETATM    2  C   UNL     1      -7.541   9.266  64.803  1.00  0.00    -0.109 C  
HETATM    3  C   UNL     1      -6.844   9.905  65.951  1.00  0.00    -0.101 A  
HETATM    4  O   UNL     1      -7.930   9.900  63.835  1.00  0.00    -0.136 OA 
HETATM    5  C   UNL     1      -7.061  11.280  66.161  1.00  0.00     0.070 A  
HETATM    6  C   UNL     1      -6.409  11.963  67.200  1.00  0.00    -0.151 A  
HETATM    7  C   UNL     1      -5.546  11.234  68.031  1.00  0.00    -0.042 A  
HETATM    8  O   UNL     1      -5.760   7.869  66.608  1.00  0.00    -0.037 OA 
HETATM    9  C   UNL     1      -5.970   9.210  66.794  1.00  0.00    -0.056 A  
HETATM   10  H   UNL     1      -5.166   7.397  67.180  1.00  0.00     0.000 HD 
HETATM   11  C   UNL     1      -5.320   9.868  67.833  1.00  0.00    -0.039 A  
ENDROOT
BRANCH   6  12
HETATM   12  N   UNL     1      -6.560  13.340  67.478  1.00  0.00    -0.191 NA 
HETATM   13  H   UNL     1      -6.012  13.834  68.183  1.00  0.00     0.000 HD 
BRANCH  12  14
HETATM   14  N   UNL     1      -7.431  13.892  66.773  1.00  0.00    -0.128 NA 
HETATM   15  H   UNL     1      -7.338  14.037  65.768  1.00  0.00     0.000 HD 
BRANCH  14  16
HETATM   16  C   UNL     1      -8.559  14.291  67.524  1.00  0.00    -0.196 A  
HETATM   17  C   UNL     1      -9.385  15.303  69.585  1.00  0.00    -0.161 A  
HETATM   18  C   UNL     1      -8.327  14.924  68.752  1.00  0.00    -0.170 A  
HETATM   19  C   UNL     1     -10.703  15.089  69.172  1.00  0.00    -0.249 A  
HETATM   20  C   UNL     1      -9.891  14.091  67.122  1.00  0.00    -0.240 A  
HETATM   21  C   UNL     1     -10.961  14.480  67.941  1.00  0.00    -0.277 A  
BRANCH  19  22
HETATM   22  S   UNL     1     -12.035  15.417  70.314  1.00  0.00    -0.383 S  
HETATM   23  O   UNL     1     -13.275  15.181  69.610  1.00  0.00     0.344 OA 
HETATM   24  O   UNL     1     -11.758  16.711  70.910  1.00  0.00    -0.069 OA 
BRANCH  22  25
HETATM   25  N   UNL     1     -11.814  14.286  71.545  1.00  0.00    -0.416 N  
HETATM   26  H   UNL     1     -11.320  14.515  72.407  1.00  0.00     0.000 HD 
BRANCH  25  27
HETATM   27  C   UNL     1     -12.354  13.006  71.310  1.00  0.00    -0.099 A  
HETATM   28  N   UNL     1     -11.766  12.353  70.294  1.00  0.00    -0.208 NA 
HETATM   29  C   UNL     1     -12.190  11.088  70.075  1.00  0.00    -0.343 A  
HETATM   30  C   UNL     1     -13.189  10.469  70.810  1.00  0.00    -0.221 A  
HETATM   31  C   UNL     1     -13.797  11.190  71.833  1.00  0.00     0.318 A  
HETATM   32  C   UNL     1     -13.371  12.491  72.094  1.00  0.00    -0.540 A  
ENDBRANCH  25  27
ENDBRANCH  22  25
ENDBRANCH  19  22
ENDBRANCH  14  16
ENDBRANCH  12  14
ENDBRANCH   6  12
TORSDOF 6
ENDMDL
MODEL      301
REMARK 921   NORMALIZED FREE ENERGY PREDICTED BY IDOCK:   -2.99 KCAL/MOL
REMARK 922        TOTAL FREE ENERGY PREDICTED BY IDOCK:   -4.56 KCAL/MOL
REMARK 923 INTER-LIGAND FREE ENERGY PREDICTED BY IDOCK:   -4.96 KCAL/MOL
REMARK 924 INTRA-LIGAND FREE ENERGY PREDICTED BY IDOCK:    0.41 KCAL/MOL
REMARK 927      BINDING AFFINITY PREDICTED BY RF-SCORE:    0.00 PKD
ROOT
HETATM    1  O   UNL     1      -8.987   7.695  73.102  1.00  0.00    -0.152 OA 
HETATM    2  C   UNL     1      -9.102   7.335  71.805  1.00  0.00    -0.130 C  
HETATM    3  C   UNL     1      -9.033   5.870  71.563  1.00  0.00    -0.147 A  
HETATM    4  O   UNL     1      -9.197   8.147  70.899  1.00  0.00    -0.145 OA 
HETATM    5  C   UNL     1      -8.586   5.439  70.300  1.00  0.00    -0.126 A  
HETATM    6  C   UNL     1      -8.529   4.073  69.982  1.00  0.00    -0.064 A  
HETATM    7  C   UNL     1      -8.917   3.149  70.962  1.00  0.00    -0.164 A  
HETATM    8  O   UNL     1      -9.846   5.327  73.753  1.00  0.00    -0.149 OA 
HETATM    9  C   UNL     1      -9.421   4.922  72.515  1.00  0.00    -0.139 A  
HETATM   10  H   UNL     1     -10.110   4.683  74.400  1.00  0.00     0.000 HD 
HETATM   11  C   UNL     1      -9.366   3.562  72.221  1.00  0.00    -0.171 A  
ENDROOT
BRANCH   6  12
HETATM   12  N   UNL     1      -8.103   3.552  68.739  1.00  0.00    -0.061 NA 
HETATM   13  H   UNL     1      -7.286   2.951  68.632  1.00  0.00     0.000 HD 
BRANCH  12  14
HETATM   14  N   UNL     1      -8.829   3.901  67.785  1.00  0.00    -0.107 NA 
HETATM   15  H   UNL     1      -9.428   3.259  67.264  1.00  0.00     0.000 HD 
BRANCH  14  16
HETATM   16  C   UNL     1      -8.731   5.282  67.508  1.00  0.00    -0.106 A  
HETATM   17  C   UNL     1      -9.922   7.360  67.041  1.00  0.00    -0.301 A  
HETATM   18  C   UNL     1      -9.926   6.001  67.369  1.00  0.00    -0.165 A  
HETATM   19  C   UNL     1      -8.707   8.033  66.889  1.00  0.00    -0.130 A  
HETATM   20  C   UNL     1      -7.518   5.978  67.359  1.00  0.00    -0.081 A  
HETATM   21  C   UNL     1      -7.501   7.344  67.045  1.00  0.00    -0.098 A  
BRANCH  19  22
HETATM   22  S   UNL     1      -8.714   9.719  66.302  1.00  0.00    -0.141 S  
HETATM   23  O   UNL     1      -8.051   9.733  65.018  1.00  0.00    -0.122 OA 
HETATM   24  O   UNL     1      -8.226  10.538  67.395  1.00  0.00    -0.117 OA 
BRANCH  22  25
HETATM   25  N   UNL     1     -10.351  10.094  66.141  1.00  0.00    -0.204 N  
HETATM   26  H   UNL     1     -10.942   9.643  65.443  1.00  0.00     0.000 HD 
BRANCH  25  27
HETATM   27  C   UNL     1     -10.850  11.067  67.029  1.00  0.00    -0.279 A  
HETATM   28  N   UNL     1     -11.536  10.552  68.061  1.00  0.00    -0.434 NA 
HETATM   29  C   UNL     1     -11.969  11.435  68.989  1.00  0.00    -0.320 A  
HETATM   30  C   UNL     1     -11.766  12.804  68.907  1.00  0.00    -0.370 A  
HETATM   31  C   UNL     1     -11.079  13.303  67.805  1.00  0.00    -0.289 A  
HETATM   32  C   UNL     1     -10.606  12.417  66.840  1.00  0.00    -0.251 A  
ENDBRANCH  25  27
ENDBRANCH  22  25
ENDBRANCH  19  22
ENDBRANCH  14  16
ENDBRANCH  12  14
ENDBRANCH   6  12
TORSDOF 6
ENDMDL
MODEL      302
REMARK 921   NORMALIZED FREE ENERGY PREDICTED BY IDOCK:   -2.98 KCAL/MOL
REMARK 922        TOTAL FREE ENERGY PREDICTED BY IDOCK:   -4.55 KCAL/MOL
REMARK 923 INTER-LIGAND FREE ENERGY PREDICTED BY IDOCK:   -4.69 KCAL/MOL
REMARK 924 INTRA-LIGAND FREE ENERGY PREDICTED BY IDOCK:    0.13 KCAL/MOL
REMARK 927      BINDING AFFINITY PREDICTED BY RF-SCORE:    0.00 PKD
ROOT
HETATM    1  O   UNL     1     -10.892  15.973  64.184  1.00  0.00    -0.328 OA 
HETATM    2  C   UNL     1     -11.039  15.251  65.316  1.00  0.00    -0.376 C  
HETATM    3  C   UNL     1      -9.813  15.161  66.154  1.00  0.00    -0.325 A  
HETATM    4  O   UNL     1     -12.074  14.670  65.602  1.00  0.00    -0.311 OA 
HETATM    5  C   UNL     1      -9.679  14.041  66.994  1.00  0.00    -0.256 A  
HETATM    6  C   UNL     1      -8.570  13.904  67.843  1.00  0.00    -0.180 A  
HETATM    7  C   UNL     1      -7.591  14.908  67.820  1.00  0.00    -0.171 A  
HETATM    8  O   UNL     1      -8.935  17.239  65.338  1.00  0.00    -0.007 OA 
HETATM    9  C   UNL     1      -8.823  16.149  66.161  1.00  0.00    -0.332 A  
HETATM   10  H   UNL     1      -8.262  17.910  65.344  1.00  0.00     0.000 HD 
HETATM   11  C   UNL     1      -7.712  16.029  66.991  1.00  0.00    -0.264 A  
ENDROOT
BRANCH   6  12
HETATM   12  N   UNL     1      -8.358  12.820  68.725  1.00  0.00    -0.358 NA 
HETATM   13  H   UNL     1      -9.115  12.312  69.182  1.00  0.00     0.000 HD 
BRANCH  12  14
HETATM   14  N   UNL     1      -7.150  12.547  68.888  1.00  0.00    -0.170 NA 
HETATM   15  H   UNL     1      -6.403  13.240  68.848  1.00  0.00     0.000 HD 
BRANCH  14  16
HETATM   16  C   UNL     1      -6.935  11.173  69.134  1.00  0.00    -0.108 A  
HETATM   17  C   UNL     1      -6.768   8.932  68.183  1.00  0.00    -0.065 A  
HETATM   18  C   UNL     1      -6.919  10.313  68.027  1.00  0.00    -0.082 A  
HETATM   19  C   UNL     1      -6.585   8.394  69.460  1.00  0.00    -0.041 A  
HETATM   20  C   UNL     1      -6.742  10.615  70.409  1.00  0.00    -0.017 A  
HETATM   21  C   UNL     1      -6.575   9.233  70.577  1.00  0.00    -0.072 A  
BRANCH  19  22
HETATM   22  S   UNL     1      -6.566   6.621  69.661  1.00  0.00    -0.050 S  
HETATM   23  O   UNL     1      -7.551   6.290  70.666  1.00  0.00    -0.091 OA 
HETATM   24  O   UNL     1      -5.177   6.239  69.833  1.00  0.00    -0.012 OA 
BRANCH  22  25
HETATM   25  N   UNL     1      -7.023   6.027  68.150  1.00  0.00    -0.073 N  
HETATM   26  H   UNL     1      -6.363   5.559  67.531  1.00  0.00     0.000 HD 
BRANCH  25  27
HETATM   27  C   UNL     1      -8.374   6.218  67.797  1.00  0.00    -0.117 A  
HETATM   28  N   UNL     1      -8.557   6.472  66.491  1.00  0.00    -0.119 NA 
HETATM   29  C   UNL     1      -9.841   6.583  66.081  1.00  0.00     0.127 A  
HETATM   30  C   UNL     1     -10.935   6.478  66.926  1.00  0.00    -0.408 A  
HETATM   31  C   UNL     1     -10.702   6.247  68.278  1.00  0.00    -0.356 A  
HETATM   32  C   UNL     1      -9.392   6.112  68.729  1.00  0.00    -0.123 A  
ENDBRANCH  25  27
ENDBRANCH  22  25
ENDBRANCH  19  22
ENDBRANCH  14  16
ENDBRANCH  12  14
ENDBRANCH   6  12
TORSDOF 6
ENDMDL
MODEL      303
REMARK 921   NORMALIZED FREE ENERGY PREDICTED BY IDOCK:   -2.93 KCAL/MOL
REMARK 922        TOTAL FREE ENERGY PREDICTED BY IDOCK:   -4.49 KCAL/MOL
REMARK 923 INTER-LIGAND FREE ENERGY PREDICTED BY IDOCK:   -3.79 KCAL/MOL
REMARK 924 INTRA-LIGAND FREE ENERGY PREDICTED BY IDOCK:   -0.70 KCAL/MOL
REMARK 927      BINDING AFFINITY PREDICTED BY RF-SCORE:    0.00 PKD
ROOT
HETATM    1  O   UNL     1      -6.598   2.525  68.837  1.00  0.00    -0.029 OA 
HETATM    2  C   UNL     1      -7.320   3.621  69.155  1.00  0.00    -0.050 C  
HETATM    3  C   UNL     1      -8.081   4.209  68.021  1.00  0.00    -0.089 A  
HETATM    4  O   UNL     1      -7.307   4.123  70.268  1.00  0.00    -0.044 OA 
HETATM    5  C   UNL     1      -8.381   5.582  68.081  1.00  0.00    -0.099 A  
HETATM    6  C   UNL     1      -9.128   6.203  67.067  1.00  0.00    -0.118 A  
HETATM    7  C   UNL     1      -9.556   5.418  65.986  1.00  0.00    -0.149 A  
HETATM    8  O   UNL     1      -8.233   2.118  66.855  1.00  0.00    -0.075 OA 
HETATM    9  C   UNL     1      -8.530   3.454  66.932  1.00  0.00    -0.107 A  
HETATM   10  H   UNL     1      -8.538   1.605  66.116  1.00  0.00     0.000 HD 
HETATM   11  C   UNL     1      -9.267   4.052  65.914  1.00  0.00    -0.152 A  
ENDROOT
BRANCH   6  12
HETATM   12  N   UNL     1      -9.484   7.571  67.050  1.00  0.00    -0.153 NA 
HETATM   13  H   UNL     1      -9.718   8.079  66.198  1.00  0.00     0.000 HD 
BRANCH  12  14
HETATM   14  N   UNL     1      -9.482   8.094  68.184  1.00  0.00    -0.140 NA 
HETATM   15  H   UNL     1      -9.817   7.624  69.025  1.00  0.00     0.000 HD 
BRANCH  14  16
HETATM   16  C   UNL     1      -8.963   9.408  68.172  1.00  0.00    -0.128 A  
HETATM   17  C   UNL     1      -7.222  10.907  67.350  1.00  0.00    -0.094 A  
HETATM   18  C   UNL     1      -7.834   9.650  67.379  1.00  0.00    -0.095 A  
HETATM   19  C   UNL     1      -7.767  11.959  68.091  1.00  0.00    -0.126 A  
HETATM   20  C   UNL     1      -9.502  10.480  68.904  1.00  0.00    -0.199 A  
HETATM   21  C   UNL     1      -8.907  11.749  68.872  1.00  0.00     0.123 A  
BRANCH  19  22
HETATM   22  S   UNL     1      -6.881  13.507  68.182  1.00  0.00    -0.140 S  
HETATM   23  O   UNL     1      -5.514  13.246  67.792  1.00  0.00    -0.123 OA 
HETATM   24  O   UNL     1      -7.183  14.079  69.480  1.00  0.00    -0.037 OA 
BRANCH  22  25
HETATM   25  N   UNL     1      -7.654  14.493  67.053  1.00  0.00    -0.297 N  
HETATM   26  H   UNL     1      -7.573  14.332  66.050  1.00  0.00     0.000 HD 
BRANCH  25  27
HETATM   27  C   UNL     1      -8.419  15.552  67.582  1.00  0.00    -0.166 A  
HETATM   28  N   UNL     1      -7.711  16.674  67.791  1.00  0.00    -0.160 NA 
HETATM   29  C   UNL     1      -8.411  17.748  68.222  1.00  0.00    -0.276 A  
HETATM   30  C   UNL     1      -9.774  17.732  68.474  1.00  0.00    -0.343 A  
HETATM   31  C   UNL     1     -10.466  16.542  68.276  1.00  0.00    -0.313 A  
HETATM   32  C   UNL     1      -9.776  15.422  67.817  1.00  0.00    -0.211 A  
ENDBRANCH  25  27
ENDBRANCH  22  25
ENDBRANCH  19  22
ENDBRANCH  14  16
ENDBRANCH  12  14
ENDBRANCH   6  12
TORSDOF 6
ENDMDL
MODEL      304
REMARK 921   NORMALIZED FREE ENERGY PREDICTED BY IDOCK:   -2.90 KCAL/MOL
REMARK 922        TOTAL FREE ENERGY PREDICTED BY IDOCK:   -4.43 KCAL/MOL
REMARK 923 INTER-LIGAND FREE ENERGY PREDICTED BY IDOCK:   -3.93 KCAL/MOL
REMARK 924 INTRA-LIGAND FREE ENERGY PREDICTED BY IDOCK:   -0.51 KCAL/MOL
REMARK 927      BINDING AFFINITY PREDICTED BY RF-SCORE:    0.00 PKD
ROOT
HETATM    1  O   UNL     1     -10.833   2.959  72.341  1.00  0.00     0.071 OA 
HETATM    2  C   UNL     1     -10.258   3.983  71.674  1.00  0.00    -0.040 C  
HETATM    3  C   UNL     1     -10.233   5.269  72.422  1.00  0.00    -0.243 A  
HETATM    4  O   UNL     1      -9.844   3.880  70.531  1.00  0.00    -0.190 OA 
HETATM    5  C   UNL     1     -10.195   6.458  71.671  1.00  0.00    -0.221 A  
HETATM    6  C   UNL     1     -10.131   7.709  72.303  1.00  0.00    -0.208 A  
HETATM    7  C   UNL     1     -10.121   7.742  73.705  1.00  0.00    -0.134 A  
HETATM    8  O   UNL     1     -10.263   4.187  74.562  1.00  0.00    -0.178 OA 
HETATM    9  C   UNL     1     -10.213   5.337  73.819  1.00  0.00    -0.223 A  
HETATM   10  H   UNL     1     -10.248   4.233  75.511  1.00  0.00     0.000 HD 
HETATM   11  C   UNL     1     -10.156   6.568  74.465  1.00  0.00    -0.332 A  
ENDROOT
BRANCH   6  12
HETATM   12  N   UNL     1     -10.080   8.951  71.630  1.00  0.00    -0.318 NA 
HETATM   13  H   UNL     1     -10.843   9.628  71.642  1.00  0.00     0.000 HD 
BRANCH  12  14
HETATM   14  N   UNL     1      -9.006   9.135  71.020  1.00  0.00    -0.230 NA 
HETATM   15  H   UNL     1      -8.089   9.110  71.466  1.00  0.00     0.000 HD 
BRANCH  14  16
HETATM   16  C   UNL     1      -9.203   9.383  69.643  1.00  0.00    -0.185 A  
HETATM   17  C   UNL     1      -8.606   8.779  67.355  1.00  0.00    -0.126 A  
HETATM   18  C   UNL     1      -8.513   8.568  68.735  1.00  0.00    -0.123 A  
HETATM   19  C   UNL     1      -9.434   9.790  66.863  1.00  0.00    -0.160 A  
HETATM   20  C   UNL     1     -10.037  10.391  69.129  1.00  0.00    -0.236 A  
HETATM   21  C   UNL     1     -10.151  10.602  67.747  1.00  0.00    -0.203 A  
BRANCH  19  22
HETATM   22  S   UNL     1      -9.411  10.159  65.116  1.00  0.00    -0.283 S  
HETATM   23  O   UNL     1     -10.771  10.445  64.717  1.00  0.00    -0.067 OA 
HETATM   24  O   UNL     1      -8.663   9.092  64.479  1.00  0.00    -0.189 OA 
BRANCH  22  25
HETATM   25  N   UNL     1      -8.444  11.535  64.996  1.00  0.00    -0.173 N  
HETATM   26  H   UNL     1      -8.557  12.211  64.241  1.00  0.00     0.000 HD 
BRANCH  25  27
HETATM   27  C   UNL     1      -7.472  11.694  66.003  1.00  0.00     0.440 A  
HETATM   28  N   UNL     1      -6.367  10.957  65.806  1.00  0.00    -0.087 NA 
HETATM   29  C   UNL     1      -5.367  11.131  66.699  1.00  0.00    -0.106 A  
HETATM   30  C   UNL     1      -5.443  11.987  67.787  1.00  0.00    -0.069 A  
HETATM   31  C   UNL     1      -6.616  12.710  67.976  1.00  0.00    -0.095 A  
HETATM   32  C   UNL     1      -7.659  12.564  67.064  1.00  0.00    -0.020 A  
ENDBRANCH  25  27
ENDBRANCH  22  25
ENDBRANCH  19  22
ENDBRANCH  14  16
ENDBRANCH  12  14
ENDBRANCH   6  12
TORSDOF 6
ENDMDL
MODEL      305
REMARK 921   NORMALIZED FREE ENERGY PREDICTED BY IDOCK:   -2.81 KCAL/MOL
REMARK 922        TOTAL FREE ENERGY PREDICTED BY IDOCK:   -4.32 KCAL/MOL
REMARK 923 INTER-LIGAND FREE ENERGY PREDICTED BY IDOCK:   -3.36 KCAL/MOL
REMARK 924 INTRA-LIGAND FREE ENERGY PREDICTED BY IDOCK:   -0.96 KCAL/MOL
REMARK 927      BINDING AFFINITY PREDICTED BY RF-SCORE:    0.00 PKD
ROOT
HETATM    1  O   UNL     1      -6.357  14.556  67.153  1.00  0.00    -0.219 OA 
HETATM    2  C   UNL     1      -6.618  13.992  68.352  1.00  0.00    -0.106 C  
HETATM    3  C   UNL     1      -6.735  12.509  68.323  1.00  0.00    -0.079 A  
HETATM    4  O   UNL     1      -6.801  14.645  69.366  1.00  0.00    -0.138 OA 
HETATM    5  C   UNL     1      -7.522  11.899  69.317  1.00  0.00     0.148 A  
HETATM    6  C   UNL     1      -7.650  10.502  69.380  1.00  0.00    -0.145 A  
HETATM    7  C   UNL     1      -6.982   9.733  68.416  1.00  0.00    -0.068 A  
HETATM    8  O   UNL     1      -5.314  12.294  66.403  1.00  0.00    -0.429 OA 
HETATM    9  C   UNL     1      -6.074  11.712  67.383  1.00  0.00    -0.097 A  
HETATM   10  H   UNL     1      -4.865  11.753  65.764  1.00  0.00     0.000 HD 
HETATM   11  C   UNL     1      -6.193  10.326  67.425  1.00  0.00    -0.058 A  
ENDROOT
BRANCH   6  12
HETATM   12  N   UNL     1      -8.411   9.805  70.345  1.00  0.00    -0.290 NA 
HETATM   13  H   UNL     1      -9.430   9.767  70.338  1.00  0.00     0.000 HD 
BRANCH  12  14
HETATM   14  N   UNL     1      -7.708   9.239  71.209  1.00  0.00    -0.338 NA 
HETATM   15  H   UNL     1      -7.028   9.725  71.794  1.00  0.00     0.000 HD 
BRANCH  14  16
HETATM   16  C   UNL     1      -7.961   7.852  71.287  1.00  0.00    -0.092 A  
HETATM   17  C   UNL     1      -7.010   5.610  71.453  1.00  0.00    -0.071 A  
HETATM   18  C   UNL     1      -6.856   7.000  71.424  1.00  0.00    -0.060 A  
HETATM   19  C   UNL     1      -8.290   5.053  71.388  1.00  0.00    -0.118 A  
HETATM   20  C   UNL     1      -9.241   7.273  71.232  1.00  0.00    -0.151 A  
HETATM   21  C   UNL     1      -9.410   5.882  71.275  1.00  0.00    -0.172 A  
BRANCH  19  22
HETATM   22  S   UNL     1      -8.460   3.281  71.253  1.00  0.00    -0.068 S  
HETATM   23  O   UNL     1      -9.829   3.006  70.880  1.00  0.00    -0.140 OA 
HETATM   24  O   UNL     1      -7.897   2.719  72.466  1.00  0.00    -0.052 OA 
BRANCH  22  25
HETATM   25  N   UNL     1      -7.400   2.857  70.013  1.00  0.00    -0.043 N  
HETATM   26  H   UNL     1      -6.436   2.580  70.197  1.00  0.00     0.000 HD 
BRANCH  25  27
HETATM   27  C   UNL     1      -7.927   2.908  68.707  1.00  0.00    -0.056 A  
HETATM   28  N   UNL     1      -8.273   1.705  68.220  1.00  0.00    -0.056 NA 
HETATM   29  C   UNL     1      -8.860   1.703  67.001  1.00  0.00    -0.119 A  
HETATM   30  C   UNL     1      -9.085   2.846  66.250  1.00  0.00    -0.140 A  
HETATM   31  C   UNL     1      -8.683   4.070  66.775  1.00  0.00    -0.116 A  
HETATM   32  C   UNL     1      -8.090   4.107  68.035  1.00  0.00    -0.089 A  
ENDBRANCH  25  27
ENDBRANCH  22  25
ENDBRANCH  19  22
ENDBRANCH  14  16
ENDBRANCH  12  14
ENDBRANCH   6  12
TORSDOF 6
ENDMDL
MODEL      306
REMARK 921   NORMALIZED FREE ENERGY PREDICTED BY IDOCK:   -2.77 KCAL/MOL
REMARK 922        TOTAL FREE ENERGY PREDICTED BY IDOCK:   -4.27 KCAL/MOL
REMARK 923 INTER-LIGAND FREE ENERGY PREDICTED BY IDOCK:   -4.75 KCAL/MOL
REMARK 924 INTRA-LIGAND FREE ENERGY PREDICTED BY IDOCK:    0.48 KCAL/MOL
REMARK 927      BINDING AFFINITY PREDICTED BY RF-SCORE:    0.00 PKD
ROOT
HETATM    1  O   UNL     1      -5.142  12.910  74.185  1.00  0.00    -0.391 OA 
HETATM    2  C   UNL     1      -5.679  13.744  73.267  1.00  0.00     0.214 C  
HETATM    3  C   UNL     1      -5.475  13.321  71.856  1.00  0.00    -0.002 A  
HETATM    4  O   UNL     1      -6.234  14.789  73.566  1.00  0.00     0.534 OA 
HETATM    5  C   UNL     1      -5.475  14.324  70.869  1.00  0.00    -0.165 A  
HETATM    6  C   UNL     1      -5.327  14.001  69.511  1.00  0.00    -0.084 A  
HETATM    7  C   UNL     1      -5.167  12.651  69.166  1.00  0.00    -0.068 A  
HETATM    8  O   UNL     1      -5.308  10.998  72.429  1.00  0.00    -0.301 OA 
HETATM    9  C   UNL     1      -5.322  11.983  71.477  1.00  0.00     0.089 A  
HETATM   10  H   UNL     1      -5.205  10.089  72.171  1.00  0.00     0.000 HD 
HETATM   11  C   UNL     1      -5.168  11.643  70.136  1.00  0.00    -0.087 A  
ENDROOT
BRANCH   6  12
HETATM   12  N   UNL     1      -5.324  14.939  68.455  1.00  0.00    -0.103 NA 
HETATM   13  H   UNL     1      -4.818  15.825  68.491  1.00  0.00     0.000 HD 
BRANCH  12  14
HETATM   14  N   UNL     1      -6.002  14.575  67.471  1.00  0.00    -0.347 NA 
HETATM   15  H   UNL     1      -5.625  14.476  66.529  1.00  0.00     0.000 HD 
BRANCH  14  16
HETATM   16  C   UNL     1      -7.349  14.316  67.811  1.00  0.00    -0.174 A  
HETATM   17  C   UNL     1      -9.184  12.707  67.792  1.00  0.00    -0.195 A  
HETATM   18  C   UNL     1      -7.848  13.034  67.540  1.00  0.00    -0.178 A  
HETATM   19  C   UNL     1     -10.033  13.657  68.365  1.00  0.00    -0.235 A  
HETATM   20  C   UNL     1      -8.216  15.255  68.394  1.00  0.00    -0.146 A  
HETATM   21  C   UNL     1      -9.553  14.935  68.666  1.00  0.00    -0.222 A  
BRANCH  19  22
HETATM   22  S   UNL     1     -11.772  13.285  68.522  1.00  0.00    -0.367 S  
HETATM   23  O   UNL     1     -12.083  12.258  67.554  1.00  0.00    -0.514 OA 
HETATM   24  O   UNL     1     -12.470  14.557  68.501  1.00  0.00    -0.072 OA 
BRANCH  22  25
HETATM   25  N   UNL     1     -11.930  12.700  70.096  1.00  0.00    -0.463 N  
HETATM   26  H   UNL     1     -12.239  13.293  70.865  1.00  0.00     0.000 HD 
BRANCH  25  27
HETATM   27  C   UNL     1     -11.610  11.340  70.282  1.00  0.00    -0.275 A  
HETATM   28  N   UNL     1     -10.360  11.026  69.906  1.00  0.00     0.140 NA 
HETATM   29  C   UNL     1      -9.971   9.752  70.137  1.00  0.00    -0.263 A  
HETATM   30  C   UNL     1     -10.789   8.784  70.700  1.00  0.00    -0.273 A  
HETATM   31  C   UNL     1     -12.089   9.140  71.046  1.00  0.00    -0.324 A  
HETATM   32  C   UNL     1     -12.514  10.450  70.836  1.00  0.00    -0.478 A  
ENDBRANCH  25  27
ENDBRANCH  22  25
ENDBRANCH  19  22
ENDBRANCH  14  16
ENDBRANCH  12  14
ENDBRANCH   6  12
TORSDOF 6
ENDMDL
MODEL      307
REMARK 921   NORMALIZED FREE ENERGY PREDICTED BY IDOCK:   -2.72 KCAL/MOL
REMARK 922        TOTAL FREE ENERGY PREDICTED BY IDOCK:   -4.19 KCAL/MOL
REMARK 923 INTER-LIGAND FREE ENERGY PREDICTED BY IDOCK:   -5.05 KCAL/MOL
REMARK 924 INTRA-LIGAND FREE ENERGY PREDICTED BY IDOCK:    0.86 KCAL/MOL
REMARK 927      BINDING AFFINITY PREDICTED BY RF-SCORE:    0.00 PKD
ROOT
HETATM    1  O   UNL     1      -5.824  10.067  71.735  1.00  0.00    -0.285 OA 
HETATM    2  C   UNL     1      -6.704  10.044  70.711  1.00  0.00    -0.008 C  
HETATM    3  C   UNL     1      -7.849   9.114  70.903  1.00  0.00    -0.163 A  
HETATM    4  O   UNL     1      -6.546  10.688  69.686  1.00  0.00    -0.075 OA 
HETATM    5  C   UNL     1      -8.472   8.602  69.750  1.00  0.00    -0.129 A  
HETATM    6  C   UNL     1      -9.583   7.749  69.848  1.00  0.00    -0.164 A  
HETATM    7  C   UNL     1     -10.046   7.412  71.128  1.00  0.00    -0.189 A  
HETATM    8  O   UNL     1      -7.736   9.245  73.295  1.00  0.00     0.217 OA 
HETATM    9  C   UNL     1      -8.342   8.764  72.164  1.00  0.00     0.014 A  
HETATM   10  H   UNL     1      -8.071   9.008  74.152  1.00  0.00     0.000 HD 
HETATM   11  C   UNL     1      -9.439   7.915  72.283  1.00  0.00    -0.248 A  
ENDROOT
BRANCH   6  12
HETATM   12  N   UNL     1     -10.275   7.197  68.747  1.00  0.00    -0.174 NA 
HETATM   13  H   UNL     1     -10.912   6.404  68.824  1.00  0.00     0.000 HD 
BRANCH  12  14
HETATM   14  N   UNL     1     -10.029   7.779  67.669  1.00  0.00    -0.166 NA 
HETATM   15  H   UNL     1      -9.739   7.296  66.819  1.00  0.00     0.000 HD 
BRANCH  14  16
HETATM   16  C   UNL     1     -10.197   9.178  67.761  1.00  0.00    -0.224 A  
HETATM   17  C   UNL     1     -11.683  11.021  68.354  1.00  0.00    -0.329 A  
HETATM   18  C   UNL     1     -11.410   9.651  68.280  1.00  0.00     0.122 A  
HETATM   19  C   UNL     1     -10.716  11.943  67.946  1.00  0.00    -0.204 A  
HETATM   20  C   UNL     1      -9.233  10.121  67.362  1.00  0.00    -0.156 A  
HETATM   21  C   UNL     1      -9.489  11.497  67.446  1.00  0.00    -0.171 A  
BRANCH  19  22
HETATM   22  S   UNL     1     -11.139  13.677  67.885  1.00  0.00    -0.271 S  
HETATM   23  O   UNL     1     -11.106  14.177  69.240  1.00  0.00    -0.253 OA 
HETATM   24  O   UNL     1     -12.348  13.778  67.089  1.00  0.00    -0.357 OA 
BRANCH  22  25
HETATM   25  N   UNL     1      -9.915  14.370  66.954  1.00  0.00    -0.256 N  
HETATM   26  H   UNL     1      -9.487  13.877  66.171  1.00  0.00     0.000 HD 
BRANCH  25  27
HETATM   27  C   UNL     1      -9.522  15.671  67.325  1.00  0.00    -0.216 A  
HETATM   28  N   UNL     1     -10.490  16.589  67.173  1.00  0.00    -0.310 NA 
HETATM   29  C   UNL     1     -10.193  17.841  67.590  1.00  0.00    -0.358 A  
HETATM   30  C   UNL     1      -8.967  18.209  68.122  1.00  0.00    -0.298 A  
HETATM   31  C   UNL     1      -7.979  17.236  68.233  1.00  0.00    -0.244 A  
HETATM   32  C   UNL     1      -8.259  15.933  67.827  1.00  0.00    -0.157 A  
ENDBRANCH  25  27
ENDBRANCH  22  25
ENDBRANCH  19  22
ENDBRANCH  14  16
ENDBRANCH  12  14
ENDBRANCH   6  12
TORSDOF 6
ENDMDL
MODEL      308
REMARK 921   NORMALIZED FREE ENERGY PREDICTED BY IDOCK:   -2.45 KCAL/MOL
REMARK 922        TOTAL FREE ENERGY PREDICTED BY IDOCK:   -3.83 KCAL/MOL
REMARK 923 INTER-LIGAND FREE ENERGY PREDICTED BY IDOCK:   -5.27 KCAL/MOL
REMARK 924 INTRA-LIGAND FREE ENERGY PREDICTED BY IDOCK:    1.44 KCAL/MOL
REMARK 927      BINDING AFFINITY PREDICTED BY RF-SCORE:    0.00 PKD
ROOT
HETATM    1  O   UNL     1      -8.567  11.354  68.809  1.00  0.00    -0.153 OA 
HETATM    2  C   UNL     1      -8.540  12.009  67.628  1.00  0.00    -0.163 C  
HETATM    3  C   UNL     1      -8.323  13.476  67.742  1.00  0.00    -0.181 A  
HETATM    4  O   UNL     1      -8.735  11.455  66.558  1.00  0.00    -0.172 OA 
HETATM    5  C   UNL     1      -8.821  14.290  66.707  1.00  0.00    -0.207 A  
HETATM    6  C   UNL     1      -8.623  15.680  66.723  1.00  0.00    -0.274 A  
HETATM    7  C   UNL     1      -7.926  16.236  67.806  1.00  0.00    -0.154 A  
HETATM    8  O   UNL     1      -7.146  13.283  69.822  1.00  0.00    -0.321 OA 
HETATM    9  C   UNL     1      -7.625  14.063  68.802  1.00  0.00    -0.113 A  
HETATM   10  H   UNL     1      -6.671  13.681  70.543  1.00  0.00     0.000 HD 
HETATM   11  C   UNL     1      -7.424  15.440  68.839  1.00  0.00    -0.152 A  
ENDROOT
BRANCH   6  12
HETATM   12  N   UNL     1      -9.079  16.570  65.725  1.00  0.00    -0.482 NA 
HETATM   13  H   UNL     1      -8.457  17.167  65.178  1.00  0.00     0.000 HD 
BRANCH  12  14
HETATM   14  N   UNL     1     -10.319  16.554  65.580  1.00  0.00    -0.515 NA 
HETATM   15  H   UNL     1     -10.793  16.827  64.719  1.00  0.00     0.000 HD 
BRANCH  14  16
HETATM   16  C   UNL     1     -10.993  16.115  66.742  1.00  0.00    -0.080 A  
HETATM   17  C   UNL     1     -11.552  16.573  69.072  1.00  0.00    -0.027 A  
HETATM   18  C   UNL     1     -10.959  16.954  67.864  1.00  0.00    -0.251 A  
HETATM   19  C   UNL     1     -12.230  15.355  69.158  1.00  0.00    -0.160 A  
HETATM   20  C   UNL     1     -11.686  14.897  66.844  1.00  0.00    -0.260 A  
HETATM   21  C   UNL     1     -12.297  14.511  68.046  1.00  0.00     0.031 A  
BRANCH  19  22
HETATM   22  S   UNL     1     -12.831  14.805  70.747  1.00  0.00    -0.356 S  
HETATM   23  O   UNL     1     -14.166  14.287  70.548  1.00  0.00     0.601 OA 
HETATM   24  O   UNL     1     -12.591  15.891  71.678  1.00  0.00    -0.442 OA 
BRANCH  22  25
HETATM   25  N   UNL     1     -11.766  13.575  71.190  1.00  0.00    -0.208 N  
HETATM   26  H   UNL     1     -10.795  13.764  71.438  1.00  0.00     0.000 HD 
BRANCH  25  27
HETATM   27  C   UNL     1     -12.300  12.271  71.197  1.00  0.00    -0.147 A  
HETATM   28  N   UNL     1     -13.274  12.094  72.104  1.00  0.00    -0.453 NA 
HETATM   29  C   UNL     1     -13.879  10.884  72.100  1.00  0.00     0.343 A  
HETATM   30  C   UNL     1     -13.528   9.848  71.249  1.00  0.00    -0.353 A  
HETATM   31  C   UNL     1     -12.492  10.059  70.345  1.00  0.00    -0.179 A  
HETATM   32  C   UNL     1     -11.860  11.300  70.314  1.00  0.00    -0.446 A  
ENDBRANCH  25  27
ENDBRANCH  22  25
ENDBRANCH  19  22
ENDBRANCH  14  16
ENDBRANCH  12  14
ENDBRANCH   6  12
TORSDOF 6
ENDMDL
MODEL      309
REMARK 921   NORMALIZED FREE ENERGY PREDICTED BY IDOCK:   -2.38 KCAL/MOL
REMARK 922        TOTAL FREE ENERGY PREDICTED BY IDOCK:   -3.74 KCAL/MOL
REMARK 923 INTER-LIGAND FREE ENERGY PREDICTED BY IDOCK:   -3.81 KCAL/MOL
REMARK 924 INTRA-LIGAND FREE ENERGY PREDICTED BY IDOCK:    0.07 KCAL/MOL
REMARK 927      BINDING AFFINITY PREDICTED BY RF-SCORE:    0.00 PKD
ROOT
HETATM    1  O   UNL     1     -12.752  12.009  65.457  1.00  0.00    -0.123 OA 
HETATM    2  C   UNL     1     -11.494  11.794  65.017  1.00  0.00    -0.188 C  
HETATM    3  C   UNL     1     -10.475  11.674  66.094  1.00  0.00    -0.289 A  
HETATM    4  O   UNL     1     -11.204  11.758  63.831  1.00  0.00    -0.366 OA 
HETATM    5  C   UNL     1      -9.147  12.009  65.773  1.00  0.00     0.008 A  
HETATM    6  C   UNL     1      -8.121  11.886  66.724  1.00  0.00    -0.108 A  
HETATM    7  C   UNL     1      -8.461  11.432  68.007  1.00  0.00    -0.145 A  
HETATM    8  O   UNL     1     -12.070  10.900  67.709  1.00  0.00    -0.629 OA 
HETATM    9  C   UNL     1     -10.778  11.217  67.380  1.00  0.00    -0.242 A  
HETATM   10  H   UNL     1     -12.275  10.589  68.583  1.00  0.00     0.000 HD 
HETATM   11  C   UNL     1      -9.777  11.094  68.339  1.00  0.00    -0.191 A  
ENDROOT
BRANCH   6  12
HETATM   12  N   UNL     1      -6.762  12.189  66.488  1.00  0.00    -0.387 NA 
HETATM   13  H   UNL     1      -6.338  12.185  65.560  1.00  0.00     0.000 HD 
BRANCH  12  14
HETATM   14  N   UNL     1      -6.131  12.463  67.530  1.00  0.00    -0.134 NA 
HETATM   15  H   UNL     1      -5.593  11.779  68.063  1.00  0.00     0.000 HD 
BRANCH  14  16
HETATM   16  C   UNL     1      -6.244  13.824  67.889  1.00  0.00    -0.155 A  
HETATM   17  C   UNL     1      -5.878  15.521  69.604  1.00  0.00    -0.128 A  
HETATM   18  C   UNL     1      -5.756  14.205  69.146  1.00  0.00    -0.085 A  
HETATM   19  C   UNL     1      -6.456  16.490  68.781  1.00  0.00    -0.152 A  
HETATM   20  C   UNL     1      -6.816  14.815  67.072  1.00  0.00     0.539 A  
HETATM   21  C   UNL     1      -6.930  16.141  67.514  1.00  0.00    -0.196 A  
BRANCH  19  22
HETATM   22  S   UNL     1      -6.760  18.121  69.442  1.00  0.00    -0.100 S  
HETATM   23  O   UNL     1      -6.509  18.064  70.864  1.00  0.00     1.024 OA 
HETATM   24  O   UNL     1      -8.054  18.537  68.935  1.00  0.00    -0.287 OA 
BRANCH  22  25
HETATM   25  N   UNL     1      -5.626  19.100  68.667  1.00  0.00    -0.199 N  
HETATM   26  H   UNL     1      -4.834  19.507  69.164  1.00  0.00     0.000 HD 
BRANCH  25  27
HETATM   27  C   UNL     1      -5.839  19.319  67.292  1.00  0.00    -0.178 A  
HETATM   28  N   UNL     1      -6.620  20.380  67.031  1.00  0.00    -0.222 NA 
HETATM   29  C   UNL     1      -6.792  20.686  65.725  1.00  0.00    -0.148 A  
HETATM   30  C   UNL     1      -6.240  19.959  64.681  1.00  0.00    -0.315 A  
HETATM   31  C   UNL     1      -5.464  18.847  64.992  1.00  0.00    -0.242 A  
HETATM   32  C   UNL     1      -5.254  18.515  66.328  1.00  0.00    -0.171 A  
ENDBRANCH  25  27
ENDBRANCH  22  25
ENDBRANCH  19  22
ENDBRANCH  14  16
ENDBRANCH  12  14
ENDBRANCH   6  12
TORSDOF 6
ENDMDL
MODEL      310
REMARK 921   NORMALIZED FREE ENERGY PREDICTED BY IDOCK:   -2.19 KCAL/MOL
REMARK 922        TOTAL FREE ENERGY PREDICTED BY IDOCK:   -3.48 KCAL/MOL
REMARK 923 INTER-LIGAND FREE ENERGY PREDICTED BY IDOCK:   -3.15 KCAL/MOL
REMARK 924 INTRA-LIGAND FREE ENERGY PREDICTED BY IDOCK:   -0.33 KCAL/MOL
REMARK 927      BINDING AFFINITY PREDICTED BY RF-SCORE:    0.00 PKD
ROOT
HETATM    1  O   UNL     1      -8.980   8.605  73.141  1.00  0.00    -0.310 OA 
HETATM    2  C   UNL     1      -9.365   7.966  72.014  1.00  0.00    -0.162 C  
HETATM    3  C   UNL     1      -9.548   6.498  72.171  1.00  0.00    -0.151 A  
HETATM    4  O   UNL     1      -9.496   8.534  70.942  1.00  0.00    -0.160 OA 
HETATM    5  C   UNL     1      -9.390   5.697  71.025  1.00  0.00    -0.181 A  
HETATM    6  C   UNL     1      -9.584   4.308  71.083  1.00  0.00    -0.179 A  
HETATM    7  C   UNL     1      -9.928   3.739  72.318  1.00  0.00    -0.239 A  
HETATM    8  O   UNL     1     -10.045   6.667  74.511  1.00  0.00    -0.387 OA 
HETATM    9  C   UNL     1      -9.900   5.900  73.385  1.00  0.00    -0.163 A  
HETATM   10  H   UNL     1     -10.285   6.261  75.336  1.00  0.00     0.000 HD 
HETATM   11  C   UNL     1     -10.091   4.523  73.464  1.00  0.00    -0.200 A  
ENDROOT
BRANCH   6  12
HETATM   12  N   UNL     1      -9.455   3.429  69.983  1.00  0.00    -0.182 NA 
HETATM   13  H   UNL     1      -8.760   2.684  69.938  1.00  0.00     0.000 HD 
BRANCH  12  14
HETATM   14  N   UNL     1     -10.280   3.656  69.073  1.00  0.00     0.645 NA 
HETATM   15  H   UNL     1     -11.152   3.140  68.957  1.00  0.00     0.000 HD 
BRANCH  14  16
HETATM   16  C   UNL     1      -9.871   4.709  68.224  1.00  0.00    -0.103 A  
HETATM   17  C   UNL     1     -10.492   6.786  67.105  1.00  0.00    -0.364 A  
HETATM   18  C   UNL     1     -10.793   5.735  67.976  1.00  0.00    -0.251 A  
HETATM   19  C   UNL     1      -9.234   6.846  66.499  1.00  0.00    -0.163 A  
HETATM   20  C   UNL     1      -8.608   4.790  67.612  1.00  0.00    -0.103 A  
HETATM   21  C   UNL     1      -8.289   5.847  66.748  1.00  0.00    -0.109 A  
BRANCH  19  22
HETATM   22  S   UNL     1      -8.925   8.094  65.261  1.00  0.00     0.200 S  
HETATM   23  O   UNL     1      -8.778   7.416  63.992  1.00  0.00     0.353 OA 
HETATM   24  O   UNL     1      -7.862   8.934  65.778  1.00  0.00    -0.095 OA 
BRANCH  22  25
HETATM   25  N   UNL     1     -10.316   9.048  65.278  1.00  0.00     0.557 N  
HETATM   26  H   UNL     1     -11.236   8.659  65.480  1.00  0.00     0.000 HD 
BRANCH  25  27
HETATM   27  C   UNL     1     -10.127  10.416  64.996  1.00  0.00    -0.309 A  
HETATM   28  N   UNL     1      -9.791  10.661  63.719  1.00  0.00    -0.320 NA 
HETATM   29  C   UNL     1      -9.677  11.963  63.373  1.00  0.00    -0.270 A  
HETATM   30  C   UNL     1      -9.858  13.016  64.256  1.00  0.00     0.082 A  
HETATM   31  C   UNL     1     -10.173  12.721  65.578  1.00  0.00    -0.293 A  
HETATM   32  C   UNL     1     -10.314  11.389  65.962  1.00  0.00    -0.297 A  
ENDBRANCH  25  27
ENDBRANCH  22  25
ENDBRANCH  19  22
ENDBRANCH  14  16
ENDBRANCH  12  14
ENDBRANCH   6  12
TORSDOF 6
ENDMDL
MODEL      311
REMARK 921   NORMALIZED FREE ENERGY PREDICTED BY IDOCK:   -1.64 KCAL/MOL
REMARK 922        TOTAL FREE ENERGY PREDICTED BY IDOCK:   -2.73 KCAL/MOL
REMARK 923 INTER-LIGAND FREE ENERGY PREDICTED BY IDOCK:   -2.89 KCAL/MOL
REMARK 924 INTRA-LIGAND FREE ENERGY PREDICTED BY IDOCK:    0.16 KCAL/MOL
REMARK 927      BINDING AFFINITY PREDICTED BY RF-SCORE:    0.00 PKD
ROOT
HETATM    1  O   UNL     1     -10.899  12.581  68.513  1.00  0.00    -0.227 OA 
HETATM    2  C   UNL     1     -10.237  11.419  68.703  1.00  0.00    -0.208 C  
HETATM    3  C   UNL     1      -8.866  11.389  68.126  1.00  0.00    -0.162 A  
HETATM    4  O   UNL     1     -10.740  10.452  69.251  1.00  0.00    -0.205 OA 
HETATM    5  C   UNL     1      -8.336  10.135  67.772  1.00  0.00    -0.114 A  
HETATM    6  C   UNL     1      -7.035  10.020  67.257  1.00  0.00    -0.083 A  
HETATM    7  C   UNL     1      -6.283  11.192  67.093  1.00  0.00    -0.083 A  
HETATM    8  O   UNL     1      -8.595  13.767  68.286  1.00  0.00    -0.166 OA 
HETATM    9  C   UNL     1      -8.086  12.538  67.957  1.00  0.00    -0.164 A  
HETATM   10  H   UNL     1      -8.064  14.547  68.173  1.00  0.00     0.000 HD 
HETATM   11  C   UNL     1      -6.796  12.445  67.443  1.00  0.00    -0.147 A  
ENDROOT
BRANCH   6  12
HETATM   12  N   UNL     1      -6.420   8.803  66.884  1.00  0.00    -0.060 NA 
HETATM   13  H   UNL     1      -5.435   8.726  66.632  1.00  0.00     0.000 HD 
BRANCH  12  14
HETATM   14  N   UNL     1      -7.205   7.832  66.895  1.00  0.00    -0.087 NA 
HETATM   15  H   UNL     1      -7.855   7.620  66.138  1.00  0.00     0.000 HD 
BRANCH  14  16
HETATM   16  C   UNL     1      -7.093   7.059  68.072  1.00  0.00    -0.086 A  
HETATM   17  C   UNL     1      -6.916   7.063  70.506  1.00  0.00    -0.062 A  
HETATM   18  C   UNL     1      -7.079   7.743  69.295  1.00  0.00    -0.076 A  
HETATM   19  C   UNL     1      -6.806   5.670  70.508  1.00  0.00    -0.052 A  
HETATM   20  C   UNL     1      -6.989   5.658  68.095  1.00  0.00    -0.065 A  
HETATM   21  C   UNL     1      -6.840   4.962  69.303  1.00  0.00    -0.050 A  
BRANCH  19  22
HETATM   22  S   UNL     1      -6.426   4.831  72.038  1.00  0.00    -0.032 S  
HETATM   23  O   UNL     1      -5.312   5.523  72.645  1.00  0.00    -0.017 OA 
HETATM   24  O   UNL     1      -6.335   3.418  71.723  1.00  0.00    -0.014 OA 
BRANCH  22  25
HETATM   25  N   UNL     1      -7.824   5.007  72.965  1.00  0.00    -0.096 N  
HETATM   26  H   UNL     1      -8.032   5.866  73.472  1.00  0.00     0.000 HD 
BRANCH  25  27
HETATM   27  C   UNL     1      -8.687   3.893  72.996  1.00  0.00    -0.098 A  
HETATM   28  N   UNL     1      -8.469   3.073  74.036  1.00  0.00    -0.073 NA 
HETATM   29  C   UNL     1      -9.322   2.030  74.160  1.00  0.00    -0.071 A  
HETATM   30  C   UNL     1     -10.355   1.767  73.275  1.00  0.00    -0.187 A  
HETATM   31  C   UNL     1     -10.528   2.621  72.191  1.00  0.00     0.032 A  
HETATM   32  C   UNL     1      -9.676   3.714  72.044  1.00  0.00    -0.238 A  
ENDBRANCH  25  27
ENDBRANCH  22  25
ENDBRANCH  19  22
ENDBRANCH  14  16
ENDBRANCH  12  14
ENDBRANCH   6  12
TORSDOF 6
ENDMDL
MODEL      312
REMARK 921   NORMALIZED FREE ENERGY PREDICTED BY IDOCK:   -1.53 KCAL/MOL
REMARK 922        TOTAL FREE ENERGY PREDICTED BY IDOCK:   -2.59 KCAL/MOL
REMARK 923 INTER-LIGAND FREE ENERGY PREDICTED BY IDOCK:   -2.76 KCAL/MOL
REMARK 924 INTRA-LIGAND FREE ENERGY PREDICTED BY IDOCK:    0.17 KCAL/MOL
REMARK 927      BINDING AFFINITY PREDICTED BY RF-SCORE:    0.00 PKD
ROOT
HETATM    1  O   UNL     1     -10.951   4.756  68.782  1.00  0.00     0.708 OA 
HETATM    2  C   UNL     1      -9.983   5.656  69.062  1.00  0.00    -0.174 C  
HETATM    3  C   UNL     1      -9.167   6.069  67.889  1.00  0.00    -0.111 A  
HETATM    4  O   UNL     1      -9.757   6.055  70.193  1.00  0.00    -0.161 OA 
HETATM    5  C   UNL     1      -7.856   6.518  68.134  1.00  0.00    -0.106 A  
HETATM    6  C   UNL     1      -7.037   6.961  67.084  1.00  0.00    -0.080 A  
HETATM    7  C   UNL     1      -7.557   6.932  65.782  1.00  0.00    -0.091 A  
HETATM    8  O   UNL     1     -10.928   5.614  66.326  1.00  0.00    -0.682 OA 
HETATM    9  C   UNL     1      -9.657   6.060  66.580  1.00  0.00    -0.154 A  
HETATM   10  H   UNL     1     -11.261   5.608  65.436  1.00  0.00     0.000 HD 
HETATM   11  C   UNL     1      -8.858   6.490  65.524  1.00  0.00    -0.009 A  
ENDROOT
BRANCH   6  12
HETATM   12  N   UNL     1      -5.715   7.437  67.239  1.00  0.00    -0.029 NA 
HETATM   13  H   UNL     1      -4.932   7.113  66.670  1.00  0.00     0.000 HD 
BRANCH  12  14
HETATM   14  N   UNL     1      -5.602   8.293  68.141  1.00  0.00    -0.034 NA 
HETATM   15  H   UNL     1      -4.929   8.226  68.905  1.00  0.00     0.000 HD 
BRANCH  14  16
HETATM   16  C   UNL     1      -6.510   9.364  67.985  1.00  0.00    -0.062 A  
HETATM   17  C   UNL     1      -7.056  11.419  66.787  1.00  0.00    -0.132 A  
HETATM   18  C   UNL     1      -6.241  10.298  66.976  1.00  0.00    -0.059 A  
HETATM   19  C   UNL     1      -8.186  11.596  67.589  1.00  0.00    -0.141 A  
HETATM   20  C   UNL     1      -7.656   9.554  68.777  1.00  0.00    -0.076 A  
HETATM   21  C   UNL     1      -8.489  10.666  68.588  1.00  0.00    -0.142 A  
BRANCH  19  22
HETATM   22  S   UNL     1      -9.117  13.113  67.454  1.00  0.00    -0.219 S  
HETATM   23  O   UNL     1     -10.458  12.762  67.045  1.00  0.00    -0.235 OA 
HETATM   24  O   UNL     1      -8.315  14.021  66.657  1.00  0.00    -0.005 OA 
BRANCH  22  25
HETATM   25  N   UNL     1      -9.110  13.744  69.018  1.00  0.00    -0.372 N  
HETATM   26  H   UNL     1      -8.539  13.341  69.761  1.00  0.00     0.000 HD 
BRANCH  25  27
HETATM   27  C   UNL     1      -9.940  14.862  69.235  1.00  0.00    -0.175 A  
HETATM   28  N   UNL     1     -11.174  14.541  69.657  1.00  0.00    -0.259 NA 
HETATM   29  C   UNL     1     -11.988  15.578  69.958  1.00  0.00    -0.364 A  
HETATM   30  C   UNL     1     -11.624  16.910  69.829  1.00  0.00     0.846 A  
HETATM   31  C   UNL     1     -10.348  17.201  69.358  1.00  0.00    -0.195 A  
HETATM   32  C   UNL     1      -9.480  16.155  69.054  1.00  0.00    -0.246 A  
ENDBRANCH  25  27
ENDBRANCH  22  25
ENDBRANCH  19  22
ENDBRANCH  14  16
ENDBRANCH  12  14
ENDBRANCH   6  12
TORSDOF 6
ENDMDL
MODEL      313
REMARK 921   NORMALIZED FREE ENERGY PREDICTED BY IDOCK:   -1.34 KCAL/MOL
REMARK 922        TOTAL FREE ENERGY PREDICTED BY IDOCK:   -2.33 KCAL/MOL
REMARK 923 INTER-LIGAND FREE ENERGY PREDICTED BY IDOCK:   -3.04 KCAL/MOL
REMARK 924 INTRA-LIGAND FREE ENERGY PREDICTED BY IDOCK:    0.71 KCAL/MOL
REMARK 927      BINDING AFFINITY PREDICTED BY RF-SCORE:    0.00 PKD
ROOT
HETATM    1  O   UNL     1     -10.215  12.808  68.762  1.00  0.00    -0.187 OA 
HETATM    2  C   UNL     1      -9.597  11.630  68.996  1.00  0.00     0.115 C  
HETATM    3  C   UNL     1      -8.204  11.550  68.481  1.00  0.00    -0.148 A  
HETATM    4  O   UNL     1     -10.153  10.686  69.535  1.00  0.00    -0.209 OA 
HETATM    5  C   UNL     1      -7.698  10.276  68.167  1.00  0.00    -0.092 A  
HETATM    6  C   UNL     1      -6.380  10.115  67.712  1.00  0.00    -0.058 A  
HETATM    7  C   UNL     1      -5.586  11.262  67.566  1.00  0.00    -0.047 A  
HETATM    8  O   UNL     1      -7.868  13.921  68.622  1.00  0.00    -0.136 OA 
HETATM    9  C   UNL     1      -7.383  12.673  68.332  1.00  0.00    -0.118 A  
HETATM   10  H   UNL     1      -7.310  14.683  68.521  1.00  0.00     0.000 HD 
HETATM   11  C   UNL     1      -6.075  12.535  67.876  1.00  0.00    -0.101 A  
ENDROOT
BRANCH   6  12
HETATM   12  N   UNL     1      -5.786   8.875  67.383  1.00  0.00    -0.039 NA 
HETATM   13  H   UNL     1      -4.777   8.730  67.336  1.00  0.00     0.000 HD 
BRANCH  12  14
HETATM   14  N   UNL     1      -6.621   7.975  67.155  1.00  0.00    -0.056 NA 
HETATM   15  H   UNL     1      -6.758   7.548  66.238  1.00  0.00     0.000 HD 
BRANCH  14  16
HETATM   16  C   UNL     1      -7.355   7.615  68.306  1.00  0.00    -0.099 A  
HETATM   17  C   UNL     1      -9.557   7.221  69.282  1.00  0.00    -0.156 A  
HETATM   18  C   UNL     1      -8.748   7.518  68.181  1.00  0.00    -0.122 A  
HETATM   19  C   UNL     1      -8.971   6.972  70.526  1.00  0.00    -0.155 A  
HETATM   20  C   UNL     1      -6.783   7.354  69.563  1.00  0.00    -0.041 A  
HETATM   21  C   UNL     1      -7.582   7.041  70.672  1.00  0.00    -0.093 A  
BRANCH  19  22
HETATM   22  S   UNL     1     -10.020   6.765  71.955  1.00  0.00    -0.170 S  
HETATM   23  O   UNL     1     -11.192   7.587  71.753  1.00  0.00    -0.238 OA 
HETATM   24  O   UNL     1      -9.175   6.955  73.119  1.00  0.00    -0.129 OA 
BRANCH  22  25
HETATM   25  N   UNL     1     -10.422   5.128  71.940  1.00  0.00    -0.215 N  
HETATM   26  H   UNL     1     -11.241   4.776  71.445  1.00  0.00     0.000 HD 
BRANCH  25  27
HETATM   27  C   UNL     1      -9.557   4.275  72.655  1.00  0.00    -0.131 A  
HETATM   28  N   UNL     1     -10.056   3.866  73.832  1.00  0.00    -0.126 NA 
HETATM   29  C   UNL     1      -9.302   2.981  74.523  1.00  0.00    -0.086 A  
HETATM   30  C   UNL     1      -8.068   2.517  74.096  1.00  0.00    -0.059 A  
HETATM   31  C   UNL     1      -7.569   2.990  72.886  1.00  0.00    -0.051 A  
HETATM   32  C   UNL     1      -8.329   3.890  72.143  1.00  0.00    -0.094 A  
ENDBRANCH  25  27
ENDBRANCH  22  25
ENDBRANCH  19  22
ENDBRANCH  14  16
ENDBRANCH  12  14
ENDBRANCH   6  12
TORSDOF 6
ENDMDL
MODEL      314
REMARK 921   NORMALIZED FREE ENERGY PREDICTED BY IDOCK:   -0.70 KCAL/MOL
REMARK 922        TOTAL FREE ENERGY PREDICTED BY IDOCK:   -1.47 KCAL/MOL
REMARK 923 INTER-LIGAND FREE ENERGY PREDICTED BY IDOCK:   -1.50 KCAL/MOL
REMARK 924 INTRA-LIGAND FREE ENERGY PREDICTED BY IDOCK:    0.03 KCAL/MOL
REMARK 927      BINDING AFFINITY PREDICTED BY RF-SCORE:    0.00 PKD
ROOT
HETATM    1  O   UNL     1     -10.422  15.182  65.225  1.00  0.00    -0.353 OA 
HETATM    2  C   UNL     1      -9.590  14.217  65.673  1.00  0.00    -0.081 C  
HETATM    3  C   UNL     1     -10.276  12.984  66.147  1.00  0.00    -0.288 A  
HETATM    4  O   UNL     1      -8.380  14.362  65.739  1.00  0.00     1.314 OA 
HETATM    5  C   UNL     1      -9.612  12.198  67.106  1.00  0.00    -0.195 A  
HETATM    6  C   UNL     1     -10.175  11.001  67.574  1.00  0.00    -0.188 A  
HETATM    7  C   UNL     1     -11.426  10.617  67.068  1.00  0.00     0.230 A  
HETATM    8  O   UNL     1     -12.181  13.331  64.731  1.00  0.00    -0.382 OA 
HETATM    9  C   UNL     1     -11.518  12.568  65.657  1.00  0.00    -0.359 A  
HETATM   10  H   UNL     1     -13.024  13.048  64.398  1.00  0.00     0.000 HD 
HETATM   11  C   UNL     1     -12.097  11.387  66.112  1.00  0.00     1.207 A  
ENDROOT
BRANCH   6  12
HETATM   12  N   UNL     1      -9.577  10.146  68.527  1.00  0.00    -0.150 NA 
HETATM   13  H   UNL     1      -8.932  10.471  69.247  1.00  0.00     0.000 HD 
BRANCH  12  14
HETATM   14  N   UNL     1      -9.919   8.951  68.399  1.00  0.00    -0.172 NA 
HETATM   15  H   UNL     1     -10.272   8.553  67.528  1.00  0.00     0.000 HD 
BRANCH  14  16
HETATM   16  C   UNL     1      -9.760   8.213  69.592  1.00  0.00    -0.170 A  
HETATM   17  C   UNL     1      -9.471   6.013  70.608  1.00  0.00    -0.190 A  
HETATM   18  C   UNL     1      -9.580   6.828  69.477  1.00  0.00    -0.148 A  
HETATM   19  C   UNL     1      -9.496   6.588  71.881  1.00  0.00    -0.151 A  
HETATM   20  C   UNL     1      -9.775   8.774  70.881  1.00  0.00    -0.277 A  
HETATM   21  C   UNL     1      -9.651   7.970  72.023  1.00  0.00    -0.262 A  
BRANCH  19  22
HETATM   22  S   UNL     1      -9.528   5.524  73.314  1.00  0.00    -0.146 S  
HETATM   23  O   UNL     1     -10.633   4.607  73.146  1.00  0.00    -0.185 OA 
HETATM   24  O   UNL     1      -9.457   6.392  74.474  1.00  0.00    -0.202 OA 
BRANCH  22  25
HETATM   25  N   UNL     1      -8.053   4.709  73.258  1.00  0.00    -0.099 N  
HETATM   26  H   UNL     1      -7.863   3.894  73.841  1.00  0.00     0.000 HD 
BRANCH  25  27
HETATM   27  C   UNL     1      -7.099   5.223  72.357  1.00  0.00    -0.086 A  
HETATM   28  N   UNL     1      -6.943   4.472  71.255  1.00  0.00    -0.038 NA 
HETATM   29  C   UNL     1      -6.099   4.960  70.317  1.00  0.00    -0.021 A  
HETATM   30  C   UNL     1      -5.393   6.146  70.454  1.00  0.00    -0.013 A  
HETATM   31  C   UNL     1      -5.558   6.878  71.625  1.00  0.00    -0.036 A  
HETATM   32  C   UNL     1      -6.432   6.410  72.603  1.00  0.00    -0.063 A  
ENDBRANCH  25  27
ENDBRANCH  22  25
ENDBRANCH  19  22
ENDBRANCH  14  16
ENDBRANCH  12  14
ENDBRANCH   6  12
TORSDOF 6
ENDMDL
MODEL      315
REMARK 921   NORMALIZED FREE ENERGY PREDICTED BY IDOCK:    0.95 KCAL/MOL
REMARK 922        TOTAL FREE ENERGY PREDICTED BY IDOCK:    0.76 KCAL/MOL
REMARK 923 INTER-LIGAND FREE ENERGY PREDICTED BY IDOCK:   -3.69 KCAL/MOL
REMARK 924 INTRA-LIGAND FREE ENERGY PREDICTED BY IDOCK:    4.46 KCAL/MOL
REMARK 927      BINDING AFFINITY PREDICTED BY RF-SCORE:    0.00 PKD
ROOT
HETATM    1  O   UNL     1      -5.568  10.547  71.830  1.00  0.00    -0.308 OA 
HETATM    2  C   UNL     1      -5.695  10.379  70.495  1.00  0.00    -0.091 C  
HETATM    3  C   UNL     1      -6.488   9.186  70.097  1.00  0.00    -0.046 A  
HETATM    4  O   UNL     1      -5.158  11.113  69.681  1.00  0.00    -0.041 OA 
HETATM    5  C   UNL     1      -6.221   8.618  68.837  1.00  0.00    -0.044 A  
HETATM    6  C   UNL     1      -6.953   7.514  68.373  1.00  0.00    -0.079 A  
HETATM    7  C   UNL     1      -7.949   6.983  69.206  1.00  0.00    -0.119 A  
HETATM    8  O   UNL     1      -7.756   9.173  72.133  1.00  0.00    -0.318 OA 
HETATM    9  C   UNL     1      -7.494   8.637  70.899  1.00  0.00    -0.083 A  
HETATM   10  H   UNL     1      -8.440   8.801  72.677  1.00  0.00     0.000 HD 
HETATM   11  C   UNL     1      -8.227   7.538  70.459  1.00  0.00    -0.118 A  
ENDROOT
BRANCH   6  12
HETATM   12  N   UNL     1      -6.760   6.886  67.122  1.00  0.00    -0.061 NA 
HETATM   13  H   UNL     1      -6.799   5.876  66.987  1.00  0.00     0.000 HD 
BRANCH  12  14
HETATM   14  N   UNL     1      -6.535   7.695  66.196  1.00  0.00    -0.045 NA 
HETATM   15  H   UNL     1      -6.164   7.424  65.286  1.00  0.00     0.000 HD 
BRANCH  14  16
HETATM   16  C   UNL     1      -6.855   9.024  66.551  1.00  0.00    -0.079 A  
HETATM   17  C   UNL     1      -6.018  11.270  67.014  1.00  0.00    -0.100 A  
HETATM   18  C   UNL     1      -5.801   9.946  66.617  1.00  0.00    -0.054 A  
HETATM   19  C   UNL     1      -7.314  11.700  67.310  1.00  0.00    -0.136 A  
HETATM   20  C   UNL     1      -8.152   9.478  66.845  1.00  0.00    -0.109 A  
HETATM   21  C   UNL     1      -8.385  10.806  67.229  1.00  0.00    -0.124 A  
BRANCH  19  22
HETATM   22  S   UNL     1      -7.553  13.339  67.978  1.00  0.00    -0.164 S  
HETATM   23  O   UNL     1      -6.979  14.276  67.039  1.00  0.00    -0.053 OA 
HETATM   24  O   UNL     1      -7.094  13.294  69.353  1.00  0.00     0.002 OA 
BRANCH  22  25
HETATM   25  N   UNL     1      -9.229  13.513  68.058  1.00  0.00    -0.202 N  
HETATM   26  H   UNL     1      -9.858  12.711  68.025  1.00  0.00     0.000 HD 
BRANCH  25  27
HETATM   27  C   UNL     1      -9.706  14.834  68.172  1.00  0.00    -0.217 A  
HETATM   28  N   UNL     1      -9.164  15.514  69.196  1.00  0.00    -0.229 NA 
HETATM   29  C   UNL     1      -9.525  16.812  69.305  1.00  0.00    -0.091 A  
HETATM   30  C   UNL     1     -10.420  17.440  68.452  1.00  0.00    -0.384 A  
HETATM   31  C   UNL     1     -10.984  16.693  67.424  1.00  0.00    -0.103 A  
HETATM   32  C   UNL     1     -10.620  15.357  67.275  1.00  0.00    -0.294 A  
ENDBRANCH  25  27
ENDBRANCH  22  25
ENDBRANCH  19  22
ENDBRANCH  14  16
ENDBRANCH  12  14
ENDBRANCH   6  12
TORSDOF 6
ENDMDL
