MODEL        1
REMARK 921   NORMALIZED FREE ENERGY PREDICTED BY IDOCK:   -7.69 KCAL/MOL
REMARK 922        TOTAL FREE ENERGY PREDICTED BY IDOCK:  -10.22 KCAL/MOL
REMARK 923 INTER-LIGAND FREE ENERGY PREDICTED BY IDOCK:   -9.48 KCAL/MOL
REMARK 924 INTRA-LIGAND FREE ENERGY PREDICTED BY IDOCK:   -0.73 KCAL/MOL
REMARK 927      BINDING AFFINITY PREDICTED BY RF-SCORE:    0.00 PKD
ROOT
HETATM    1  N   UNL     1     -12.980  16.193  74.414  1.00  0.00    -0.943 NA 
HETATM    2  H2  UNL     1     -12.847  15.509  75.159  1.00  0.00     0.000 HD 
HETATM    3  C   UNL     1     -12.581  15.612  73.208  1.00  0.00    -0.503 A  
HETATM    4  H1  UNL     1     -12.576  17.079  74.716  1.00  0.00     0.000 HD 
HETATM    5  C   UNL     1     -13.135  14.397  72.795  1.00  0.00    -0.595 A  
HETATM    6  C   UNL     1     -12.817  13.848  71.549  1.00  0.00    -0.441 A  
HETATM    7  C   UNL     1     -11.976  14.552  70.686  1.00  0.00    -0.319 A  
HETATM    8  C   UNL     1     -11.470  15.802  71.054  1.00  0.00    -0.451 A  
HETATM    9  C   UNL     1     -11.795  16.336  72.306  1.00  0.00    -0.601 A  
ENDROOT
BRANCH   7  10
HETATM   10  S   UNL     1     -11.459  13.806  69.147  1.00  0.00    -0.317 S  
HETATM   11  O   UNL     1     -10.014  13.879  69.145  1.00  0.00    -0.051 OA 
HETATM   12  O   UNL     1     -12.124  12.522  69.065  1.00  0.00    -0.259 OA 
BRANCH  10  13
HETATM   13  N   UNL     1     -12.057  14.854  68.045  1.00  0.00    -0.557 N  
HETATM   14  H   UNL     1     -12.906  15.370  68.273  1.00  0.00     0.000 HD 
BRANCH  13  15
HETATM   15  C   UNL     1     -11.457  15.070  66.812  1.00  0.00    -0.251 A  
HETATM   16  C   UNL     1     -11.486  14.129  65.806  1.00  0.00    -0.327 A  
HETATM   17  C   UNL     1     -10.875  14.752  64.711  1.00  0.00    -0.376 A  
HETATM   18  N   UNL     1     -10.500  15.999  64.980  1.00  0.00    -0.587 NA 
HETATM   19  N   UNL     1     -10.822  16.205  66.291  1.00  0.00    -0.203 NA 
BRANCH  19  20
HETATM   20  C   UNL     1     -10.528  17.469  66.888  1.00  0.00    -0.285 A  
HETATM   21  C   UNL     1     -10.476  18.615  66.075  1.00  0.00    -0.456 A  
HETATM   22  C   UNL     1     -10.146  19.861  66.617  1.00  0.00    -0.598 A  
HETATM   23  C   UNL     1      -9.851  19.978  67.971  1.00  0.00    -0.522 A  
HETATM   24  C   UNL     1      -9.915  18.855  68.788  1.00  0.00    -0.466 A  
HETATM   25  C   UNL     1     -10.273  17.613  68.254  1.00  0.00    -0.374 A  
ENDBRANCH  19  20
ENDBRANCH  13  15
ENDBRANCH  10  13
ENDBRANCH   7  10
TORSDOF 4
ENDMDL
MODEL        2
REMARK 921   NORMALIZED FREE ENERGY PREDICTED BY IDOCK:   -7.60 KCAL/MOL
REMARK 922        TOTAL FREE ENERGY PREDICTED BY IDOCK:  -10.11 KCAL/MOL
REMARK 923 INTER-LIGAND FREE ENERGY PREDICTED BY IDOCK:   -8.93 KCAL/MOL
REMARK 924 INTRA-LIGAND FREE ENERGY PREDICTED BY IDOCK:   -1.18 KCAL/MOL
REMARK 927      BINDING AFFINITY PREDICTED BY RF-SCORE:    0.00 PKD
ROOT
HETATM    1  N   UNL     1     -13.600   8.935  73.238  1.00  0.00    -0.959 NA 
HETATM    2  H2  UNL     1     -14.598   9.146  73.255  1.00  0.00     0.000 HD 
HETATM    3  C   UNL     1     -13.041   9.543  72.112  1.00  0.00    -0.436 A  
HETATM    4  H1  UNL     1     -13.482   7.934  73.393  1.00  0.00     0.000 HD 
HETATM    5  C   UNL     1     -13.203  10.915  71.900  1.00  0.00    -0.508 A  
HETATM    6  C   UNL     1     -12.573  11.557  70.830  1.00  0.00    -0.438 A  
HETATM    7  C   UNL     1     -11.728  10.825  69.995  1.00  0.00    -0.336 A  
HETATM    8  C   UNL     1     -11.497   9.468  70.236  1.00  0.00    -0.256 A  
HETATM    9  C   UNL     1     -12.138   8.839  71.309  1.00  0.00    -0.344 A  
ENDROOT
BRANCH   7  10
HETATM   10  S   UNL     1     -11.017  11.602  68.550  1.00  0.00    -0.239 S  
HETATM   11  O   UNL     1      -9.997  10.689  68.080  1.00  0.00    -0.153 OA 
HETATM   12  O   UNL     1     -12.124  11.964  67.689  1.00  0.00    -0.568 OA 
BRANCH  10  13
HETATM   13  N   UNL     1     -10.307  12.926  69.192  1.00  0.00    -0.425 N  
HETATM   14  H   UNL     1      -9.628  12.800  69.943  1.00  0.00     0.000 HD 
BRANCH  13  15
HETATM   15  C   UNL     1     -10.589  14.214  68.760  1.00  0.00    -0.253 A  
HETATM   16  C   UNL     1     -10.149  14.694  67.545  1.00  0.00    -0.224 A  
HETATM   17  C   UNL     1     -10.715  15.969  67.435  1.00  0.00    -0.306 A  
HETATM   18  N   UNL     1     -11.474  16.282  68.481  1.00  0.00    -0.340 NA 
HETATM   19  N   UNL     1     -11.381  15.217  69.332  1.00  0.00    -0.273 NA 
BRANCH  19  20
HETATM   20  C   UNL     1     -12.089  15.257  70.572  1.00  0.00    -0.354 A  
HETATM   21  C   UNL     1     -11.363  15.350  71.773  1.00  0.00    -0.457 A  
HETATM   22  C   UNL     1     -12.019  15.344  73.008  1.00  0.00    -0.557 A  
HETATM   23  C   UNL     1     -13.405  15.232  73.062  1.00  0.00    -0.610 A  
HETATM   24  C   UNL     1     -14.135  15.156  71.881  1.00  0.00    -0.649 A  
HETATM   25  C   UNL     1     -13.483  15.190  70.645  1.00  0.00    -0.243 A  
ENDBRANCH  19  20
ENDBRANCH  13  15
ENDBRANCH  10  13
ENDBRANCH   7  10
TORSDOF 4
ENDMDL
MODEL        3
REMARK 921   NORMALIZED FREE ENERGY PREDICTED BY IDOCK:   -7.47 KCAL/MOL
REMARK 922        TOTAL FREE ENERGY PREDICTED BY IDOCK:   -9.96 KCAL/MOL
REMARK 923 INTER-LIGAND FREE ENERGY PREDICTED BY IDOCK:   -9.14 KCAL/MOL
REMARK 924 INTRA-LIGAND FREE ENERGY PREDICTED BY IDOCK:   -0.81 KCAL/MOL
REMARK 927      BINDING AFFINITY PREDICTED BY RF-SCORE:    0.00 PKD
ROOT
HETATM    1  N   UNL     1     -13.128  16.187  74.283  1.00  0.00    -0.925 NA 
HETATM    2  H2  UNL     1     -13.386  17.159  74.118  1.00  0.00     0.000 HD 
HETATM    3  C   UNL     1     -12.800  15.605  73.056  1.00  0.00    -0.490 A  
HETATM    4  H1  UNL     1     -13.838  15.763  74.879  1.00  0.00     0.000 HD 
HETATM    5  C   UNL     1     -11.826  16.186  72.239  1.00  0.00    -0.631 A  
HETATM    6  C   UNL     1     -11.419  15.567  71.053  1.00  0.00    -0.426 A  
HETATM    7  C   UNL     1     -11.957  14.326  70.710  1.00  0.00    -0.320 A  
HETATM    8  C   UNL     1     -12.878  13.696  71.552  1.00  0.00    -0.445 A  
HETATM    9  C   UNL     1     -13.278  14.330  72.734  1.00  0.00    -0.614 A  
ENDROOT
BRANCH   7  10
HETATM   10  S   UNL     1     -11.544  13.585  69.137  1.00  0.00    -0.329 S  
HETATM   11  O   UNL     1     -10.098  13.612  69.063  1.00  0.00    -0.104 OA 
HETATM   12  O   UNL     1     -12.253  12.324  69.074  1.00  0.00    -0.198 OA 
BRANCH  10  13
HETATM   13  N   UNL     1     -12.162  14.667  68.080  1.00  0.00    -0.596 N  
HETATM   14  H   UNL     1     -13.170  14.819  68.070  1.00  0.00     0.000 HD 
BRANCH  13  15
HETATM   15  C   UNL     1     -11.372  15.387  67.194  1.00  0.00    -0.203 A  
HETATM   16  C   UNL     1     -10.848  16.620  67.513  1.00  0.00    -0.221 A  
HETATM   17  C   UNL     1     -10.043  16.964  66.420  1.00  0.00    -0.322 A  
HETATM   18  N   UNL     1     -10.032  16.023  65.481  1.00  0.00    -0.459 NA 
HETATM   19  N   UNL     1     -10.879  15.049  65.927  1.00  0.00    -0.328 NA 
BRANCH  19  20
HETATM   20  C   UNL     1     -11.091  13.890  65.120  1.00  0.00    -0.334 A  
HETATM   21  C   UNL     1     -10.195  12.810  65.221  1.00  0.00    -0.296 A  
HETATM   22  C   UNL     1     -10.344  11.679  64.414  1.00  0.00    -0.362 A  
HETATM   23  C   UNL     1     -11.379  11.615  63.486  1.00  0.00    -0.447 A  
HETATM   24  C   UNL     1     -12.280  12.668  63.388  1.00  0.00    -0.610 A  
HETATM   25  C   UNL     1     -12.150  13.788  64.215  1.00  0.00    -0.481 A  
ENDBRANCH  19  20
ENDBRANCH  13  15
ENDBRANCH  10  13
ENDBRANCH   7  10
TORSDOF 4
ENDMDL
MODEL        4
REMARK 921   NORMALIZED FREE ENERGY PREDICTED BY IDOCK:   -7.40 KCAL/MOL
REMARK 922        TOTAL FREE ENERGY PREDICTED BY IDOCK:   -9.87 KCAL/MOL
REMARK 923 INTER-LIGAND FREE ENERGY PREDICTED BY IDOCK:   -9.13 KCAL/MOL
REMARK 924 INTRA-LIGAND FREE ENERGY PREDICTED BY IDOCK:   -0.74 KCAL/MOL
REMARK 927      BINDING AFFINITY PREDICTED BY RF-SCORE:    0.00 PKD
ROOT
HETATM    1  N   UNL     1     -11.822  12.854  63.173  1.00  0.00    -0.848 NA 
HETATM    2  H2  UNL     1     -12.752  12.453  63.052  1.00  0.00     0.000 HD 
HETATM    3  C   UNL     1     -11.749  13.419  64.448  1.00  0.00    -0.394 A  
HETATM    4  H1  UNL     1     -11.605  13.414  62.349  1.00  0.00     0.000 HD 
HETATM    5  C   UNL     1     -12.047  12.650  65.577  1.00  0.00    -0.515 A  
HETATM    6  C   UNL     1     -11.889  13.171  66.864  1.00  0.00    -0.444 A  
HETATM    7  C   UNL     1     -11.377  14.459  67.022  1.00  0.00    -0.346 A  
HETATM    8  C   UNL     1     -11.006  15.216  65.907  1.00  0.00    -0.339 A  
HETATM    9  C   UNL     1     -11.173  14.681  64.624  1.00  0.00    -0.353 A  
ENDROOT
BRANCH   7  10
HETATM   10  S   UNL     1     -11.290  15.185  68.653  1.00  0.00    -0.327 S  
HETATM   11  O   UNL     1     -10.122  14.601  69.277  1.00  0.00    -0.200 OA 
HETATM   12  O   UNL     1     -11.380  16.620  68.474  1.00  0.00    -0.317 OA 
BRANCH  10  13
HETATM   13  N   UNL     1     -12.637  14.591  69.361  1.00  0.00    -0.557 N  
HETATM   14  H   UNL     1     -13.389  14.244  68.765  1.00  0.00     0.000 HD 
BRANCH  13  15
HETATM   15  C   UNL     1     -12.802  14.538  70.738  1.00  0.00    -0.361 A  
HETATM   16  C   UNL     1     -13.044  15.665  71.493  1.00  0.00    -0.561 A  
HETATM   17  C   UNL     1     -13.248  15.191  72.794  1.00  0.00    -0.477 A  
HETATM   18  N   UNL     1     -13.165  13.866  72.872  1.00  0.00    -0.550 NA 
HETATM   19  N   UNL     1     -12.855  13.443  71.610  1.00  0.00    -0.344 NA 
BRANCH  19  20
HETATM   20  C   UNL     1     -12.686  12.046  71.369  1.00  0.00    -0.275 A  
HETATM   21  C   UNL     1     -13.375  11.122  72.174  1.00  0.00    -0.270 A  
HETATM   22  C   UNL     1     -13.198   9.746  71.997  1.00  0.00    -0.557 A  
HETATM   23  C   UNL     1     -12.322   9.275  71.025  1.00  0.00    -0.300 A  
HETATM   24  C   UNL     1     -11.648  10.177  70.211  1.00  0.00    -0.379 A  
HETATM   25  C   UNL     1     -11.845  11.553  70.367  1.00  0.00    -0.413 A  
ENDBRANCH  19  20
ENDBRANCH  13  15
ENDBRANCH  10  13
ENDBRANCH   7  10
TORSDOF 4
ENDMDL
MODEL        5
REMARK 921   NORMALIZED FREE ENERGY PREDICTED BY IDOCK:   -7.38 KCAL/MOL
REMARK 922        TOTAL FREE ENERGY PREDICTED BY IDOCK:   -9.85 KCAL/MOL
REMARK 923 INTER-LIGAND FREE ENERGY PREDICTED BY IDOCK:   -8.32 KCAL/MOL
REMARK 924 INTRA-LIGAND FREE ENERGY PREDICTED BY IDOCK:   -1.53 KCAL/MOL
REMARK 927      BINDING AFFINITY PREDICTED BY RF-SCORE:    0.00 PKD
ROOT
HETATM    1  N   UNL     1     -11.494  16.399  63.861  1.00  0.00    -1.618 NA 
HETATM    2  H2  UNL     1     -12.289  16.979  64.127  1.00  0.00     0.000 HD 
HETATM    3  C   UNL     1     -11.351  15.385  64.811  1.00  0.00    -0.376 A  
HETATM    4  H1  UNL     1     -10.709  17.011  63.641  1.00  0.00     0.000 HD 
HETATM    5  C   UNL     1     -12.427  14.545  65.112  1.00  0.00    -0.286 A  
HETATM    6  C   UNL     1     -12.275  13.469  65.991  1.00  0.00    -0.493 A  
HETATM    7  C   UNL     1     -11.018  13.200  66.532  1.00  0.00    -0.286 A  
HETATM    8  C   UNL     1      -9.915  13.985  66.186  1.00  0.00    -0.325 A  
HETATM    9  C   UNL     1     -10.084  15.062  65.308  1.00  0.00    -0.378 A  
ENDROOT
BRANCH   7  10
HETATM   10  S   UNL     1     -10.836  11.908  67.754  1.00  0.00    -0.223 S  
HETATM   11  O   UNL     1     -12.161  11.350  67.929  1.00  0.00    -0.646 OA 
HETATM   12  O   UNL     1      -9.745  11.067  67.309  1.00  0.00    -0.164 OA 
BRANCH  10  13
HETATM   13  N   UNL     1     -10.425  12.758  69.087  1.00  0.00    -0.433 N  
HETATM   14  H   UNL     1      -9.484  12.648  69.465  1.00  0.00     0.000 HD 
BRANCH  13  15
HETATM   15  C   UNL     1     -11.302  13.622  69.728  1.00  0.00    -0.112 A  
HETATM   16  C   UNL     1     -12.306  13.170  70.555  1.00  0.00    -0.380 A  
HETATM   17  C   UNL     1     -12.893  14.329  71.077  1.00  0.00    -0.357 A  
HETATM   18  N   UNL     1     -12.305  15.438  70.639  1.00  0.00    -0.373 NA 
HETATM   19  N   UNL     1     -11.335  15.022  69.772  1.00  0.00    -0.268 NA 
BRANCH  19  20
HETATM   20  C   UNL     1     -10.523  15.998  69.118  1.00  0.00    -0.251 A  
HETATM   21  C   UNL     1     -11.129  16.921  68.246  1.00  0.00    -0.213 A  
HETATM   22  C   UNL     1     -10.360  17.861  67.553  1.00  0.00    -0.383 A  
HETATM   23  C   UNL     1      -8.978  17.884  67.710  1.00  0.00    -0.254 A  
HETATM   24  C   UNL     1      -8.369  16.989  68.581  1.00  0.00    -0.264 A  
HETATM   25  C   UNL     1      -9.139  16.067  69.297  1.00  0.00    -0.235 A  
ENDBRANCH  19  20
ENDBRANCH  13  15
ENDBRANCH  10  13
ENDBRANCH   7  10
TORSDOF 4
ENDMDL
MODEL        6
REMARK 921   NORMALIZED FREE ENERGY PREDICTED BY IDOCK:   -7.28 KCAL/MOL
REMARK 922        TOTAL FREE ENERGY PREDICTED BY IDOCK:   -9.72 KCAL/MOL
REMARK 923 INTER-LIGAND FREE ENERGY PREDICTED BY IDOCK:   -9.11 KCAL/MOL
REMARK 924 INTRA-LIGAND FREE ENERGY PREDICTED BY IDOCK:   -0.60 KCAL/MOL
REMARK 927      BINDING AFFINITY PREDICTED BY RF-SCORE:    0.00 PKD
ROOT
HETATM    1  N   UNL     1     -10.205  10.497  62.483  1.00  0.00    -0.718 NA 
HETATM    2  H2  UNL     1     -10.314   9.487  62.390  1.00  0.00     0.000 HD 
HETATM    3  C   UNL     1     -10.534  10.856  63.792  1.00  0.00    -0.259 A  
HETATM    4  H1  UNL     1     -10.672  10.944  61.694  1.00  0.00     0.000 HD 
HETATM    5  C   UNL     1      -9.893  10.244  64.872  1.00  0.00    -0.404 A  
HETATM    6  C   UNL     1     -10.142  10.656  66.185  1.00  0.00    -0.306 A  
HETATM    7  C   UNL     1     -11.004  11.730  66.412  1.00  0.00    -0.294 A  
HETATM    8  C   UNL     1     -11.597  12.401  65.339  1.00  0.00    -0.426 A  
HETATM    9  C   UNL     1     -11.341  11.974  64.031  1.00  0.00    -0.478 A  
ENDROOT
BRANCH   7  10
HETATM   10  S   UNL     1     -11.431  12.185  68.087  1.00  0.00    -0.340 S  
HETATM   11  O   UNL     1     -12.408  11.208  68.517  1.00  0.00    -0.561 OA 
HETATM   12  O   UNL     1     -10.183  12.333  68.807  1.00  0.00    -0.195 OA 
BRANCH  10  13
HETATM   13  N   UNL     1     -12.165  13.628  67.870  1.00  0.00    -0.382 N  
HETATM   14  H   UNL     1     -13.117  13.641  67.503  1.00  0.00     0.000 HD 
BRANCH  13  15
HETATM   15  C   UNL     1     -11.548  14.836  68.162  1.00  0.00    -0.332 A  
HETATM   16  C   UNL     1     -10.852  15.554  67.213  1.00  0.00    -0.313 A  
HETATM   17  C   UNL     1     -10.476  16.737  67.860  1.00  0.00    -0.335 A  
HETATM   18  N   UNL     1     -10.910  16.790  69.116  1.00  0.00    -0.316 NA 
HETATM   19  N   UNL     1     -11.550  15.603  69.334  1.00  0.00    -0.345 NA 
BRANCH  19  20
HETATM   20  C   UNL     1     -12.125  15.350  70.616  1.00  0.00    -0.369 A  
HETATM   21  C   UNL     1     -11.806  16.199  71.691  1.00  0.00    -0.557 A  
HETATM   22  C   UNL     1     -12.313  15.955  72.971  1.00  0.00    -0.605 A  
HETATM   23  C   UNL     1     -13.134  14.855  73.198  1.00  0.00    -0.615 A  
HETATM   24  C   UNL     1     -13.471  14.018  72.141  1.00  0.00    -0.567 A  
HETATM   25  C   UNL     1     -12.987  14.277  70.854  1.00  0.00    -0.395 A  
ENDBRANCH  19  20
ENDBRANCH  13  15
ENDBRANCH  10  13
ENDBRANCH   7  10
TORSDOF 4
ENDMDL
MODEL        7
REMARK 921   NORMALIZED FREE ENERGY PREDICTED BY IDOCK:   -7.28 KCAL/MOL
REMARK 922        TOTAL FREE ENERGY PREDICTED BY IDOCK:   -9.71 KCAL/MOL
REMARK 923 INTER-LIGAND FREE ENERGY PREDICTED BY IDOCK:   -9.30 KCAL/MOL
REMARK 924 INTRA-LIGAND FREE ENERGY PREDICTED BY IDOCK:   -0.41 KCAL/MOL
REMARK 927      BINDING AFFINITY PREDICTED BY RF-SCORE:    0.00 PKD
ROOT
HETATM    1  N   UNL     1     -11.616  16.506  63.835  1.00  0.00    -1.578 NA 
HETATM    2  H2  UNL     1     -10.752  16.676  63.319  1.00  0.00     0.000 HD 
HETATM    3  C   UNL     1     -11.411  15.419  64.688  1.00  0.00    -0.355 A  
HETATM    4  H1  UNL     1     -12.390  16.500  63.171  1.00  0.00     0.000 HD 
HETATM    5  C   UNL     1     -10.350  15.428  65.598  1.00  0.00    -0.395 A  
HETATM    6  C   UNL     1     -10.185  14.392  66.522  1.00  0.00    -0.276 A  
HETATM    7  C   UNL     1     -11.126  13.363  66.569  1.00  0.00    -0.297 A  
HETATM    8  C   UNL     1     -12.232  13.375  65.715  1.00  0.00    -0.507 A  
HETATM    9  C   UNL     1     -12.381  14.417  64.793  1.00  0.00    -0.427 A  
ENDROOT
BRANCH   7  10
HETATM   10  S   UNL     1     -10.860  11.968  67.655  1.00  0.00    -0.244 S  
HETATM   11  O   UNL     1     -12.137  11.291  67.736  1.00  0.00    -0.631 OA 
HETATM   12  O   UNL     1      -9.695  11.269  67.154  1.00  0.00    -0.179 OA 
BRANCH  10  13
HETATM   13  N   UNL     1     -10.544  12.703  69.079  1.00  0.00    -0.424 N  
HETATM   14  H   UNL     1      -9.571  12.849  69.348  1.00  0.00     0.000 HD 
BRANCH  13  15
HETATM   15  C   UNL     1     -11.543  13.138  69.939  1.00  0.00    -0.185 A  
HETATM   16  C   UNL     1     -11.966  14.449  69.971  1.00  0.00    -0.394 A  
HETATM   17  C   UNL     1     -13.035  14.461  70.875  1.00  0.00    -0.348 A  
HETATM   18  N   UNL     1     -13.295  13.256  71.372  1.00  0.00    -0.227 NA 
HETATM   19  N   UNL     1     -12.357  12.424  70.828  1.00  0.00    -0.356 NA 
BRANCH  19  20
HETATM   20  C   UNL     1     -12.366  11.041  71.183  1.00  0.00    -0.359 A  
HETATM   21  C   UNL     1     -11.304  10.218  70.766  1.00  0.00    -0.421 A  
HETATM   22  C   UNL     1     -11.303   8.851  71.056  1.00  0.00    -0.350 A  
HETATM   23  C   UNL     1     -12.365   8.283  71.751  1.00  0.00    -0.366 A  
HETATM   24  C   UNL     1     -13.412   9.088  72.183  1.00  0.00    -0.514 A  
HETATM   25  C   UNL     1     -13.402  10.461  71.920  1.00  0.00    -0.469 A  
ENDBRANCH  19  20
ENDBRANCH  13  15
ENDBRANCH  10  13
ENDBRANCH   7  10
TORSDOF 4
ENDMDL
MODEL        8
REMARK 921   NORMALIZED FREE ENERGY PREDICTED BY IDOCK:   -7.18 KCAL/MOL
REMARK 922        TOTAL FREE ENERGY PREDICTED BY IDOCK:   -9.60 KCAL/MOL
REMARK 923 INTER-LIGAND FREE ENERGY PREDICTED BY IDOCK:   -8.78 KCAL/MOL
REMARK 924 INTRA-LIGAND FREE ENERGY PREDICTED BY IDOCK:   -0.82 KCAL/MOL
REMARK 927      BINDING AFFINITY PREDICTED BY RF-SCORE:    0.00 PKD
ROOT
HETATM    1  N   UNL     1     -13.036  16.115  74.222  1.00  0.00    -0.953 NA 
HETATM    2  H2  UNL     1     -12.971  15.429  74.974  1.00  0.00     0.000 HD 
HETATM    3  C   UNL     1     -12.650  15.497  73.030  1.00  0.00    -0.448 A  
HETATM    4  H1  UNL     1     -12.577  16.972  74.529  1.00  0.00     0.000 HD 
HETATM    5  C   UNL     1     -13.280  14.322  72.610  1.00  0.00    -0.601 A  
HETATM    6  C   UNL     1     -12.972  13.743  71.376  1.00  0.00    -0.433 A  
HETATM    7  C   UNL     1     -12.060  14.377  70.531  1.00  0.00    -0.334 A  
HETATM    8  C   UNL     1     -11.475  15.590  70.904  1.00  0.00    -0.410 A  
HETATM    9  C   UNL     1     -11.791  16.156  72.144  1.00  0.00    -0.626 A  
ENDROOT
BRANCH   7  10
HETATM   10  S   UNL     1     -11.560  13.583  69.009  1.00  0.00    -0.331 S  
HETATM   11  O   UNL     1     -10.115  13.653  68.991  1.00  0.00    -0.104 OA 
HETATM   12  O   UNL     1     -12.228  12.299  68.973  1.00  0.00    -0.198 OA 
BRANCH  10  13
HETATM   13  N   UNL     1     -12.167  14.599  67.882  1.00  0.00    -0.603 N  
HETATM   14  H   UNL     1     -13.177  14.738  67.843  1.00  0.00     0.000 HD 
BRANCH  13  15
HETATM   15  C   UNL     1     -11.366  15.279  66.975  1.00  0.00    -0.230 A  
HETATM   16  C   UNL     1     -10.896  16.551  67.220  1.00  0.00    -0.173 A  
HETATM   17  C   UNL     1     -10.060  16.841  66.135  1.00  0.00    -0.345 A  
HETATM   18  N   UNL     1      -9.980  15.834  65.271  1.00  0.00    -0.410 NA 
HETATM   19  N   UNL     1     -10.812  14.866  65.757  1.00  0.00    -0.326 NA 
BRANCH  19  20
HETATM   20  C   UNL     1     -10.952  13.643  65.032  1.00  0.00    -0.346 A  
HETATM   21  C   UNL     1     -10.025  12.608  65.247  1.00  0.00    -0.215 A  
HETATM   22  C   UNL     1     -10.103  11.415  64.522  1.00  0.00    -0.337 A  
HETATM   23  C   UNL     1     -11.098  11.244  63.565  1.00  0.00    -0.261 A  
HETATM   24  C   UNL     1     -12.031  12.253  63.355  1.00  0.00    -0.588 A  
HETATM   25  C   UNL     1     -11.971  13.436  64.099  1.00  0.00    -0.505 A  
ENDBRANCH  19  20
ENDBRANCH  13  15
ENDBRANCH  10  13
ENDBRANCH   7  10
TORSDOF 4
ENDMDL
MODEL        9
REMARK 921   NORMALIZED FREE ENERGY PREDICTED BY IDOCK:   -7.14 KCAL/MOL
REMARK 922        TOTAL FREE ENERGY PREDICTED BY IDOCK:   -9.55 KCAL/MOL
REMARK 923 INTER-LIGAND FREE ENERGY PREDICTED BY IDOCK:   -8.36 KCAL/MOL
REMARK 924 INTRA-LIGAND FREE ENERGY PREDICTED BY IDOCK:   -1.18 KCAL/MOL
REMARK 927      BINDING AFFINITY PREDICTED BY RF-SCORE:    0.00 PKD
ROOT
HETATM    1  N   UNL     1     -13.115   9.228  70.747  1.00  0.00    -0.523 NA 
HETATM    2  H2  UNL     1     -12.259   8.700  70.577  1.00  0.00     0.000 HD 
HETATM    3  C   UNL     1     -12.787  10.582  70.838  1.00  0.00    -0.394 A  
HETATM    4  H1  UNL     1     -13.628   8.771  71.501  1.00  0.00     0.000 HD 
HETATM    5  C   UNL     1     -12.083  11.207  69.804  1.00  0.00    -0.414 A  
HETATM    6  C   UNL     1     -11.828  12.581  69.836  1.00  0.00    -0.373 A  
HETATM    7  C   UNL     1     -12.329  13.345  70.890  1.00  0.00    -0.353 A  
HETATM    8  C   UNL     1     -13.096  12.750  71.895  1.00  0.00    -0.474 A  
HETATM    9  C   UNL     1     -13.340  11.372  71.851  1.00  0.00    -0.409 A  
ENDROOT
BRANCH   7  10
HETATM   10  S   UNL     1     -11.903  15.077  71.010  1.00  0.00    -0.350 S  
HETATM   11  O   UNL     1     -13.028  15.794  70.450  1.00  0.00    -0.409 OA 
HETATM   12  O   UNL     1     -11.500  15.310  72.382  1.00  0.00    -0.454 OA 
BRANCH  10  13
HETATM   13  N   UNL     1     -10.630  15.184  69.992  1.00  0.00    -0.411 N  
HETATM   14  H   UNL     1      -9.808  14.608  70.175  1.00  0.00     0.000 HD 
BRANCH  13  15
HETATM   15  C   UNL     1     -10.619  16.026  68.889  1.00  0.00    -0.257 A  
HETATM   16  C   UNL     1     -10.389  17.380  69.000  1.00  0.00    -0.319 A  
HETATM   17  C   UNL     1     -10.358  17.851  67.682  1.00  0.00    -0.381 A  
HETATM   18  N   UNL     1     -10.533  16.880  66.791  1.00  0.00    -0.292 NA 
HETATM   19  N   UNL     1     -10.731  15.742  67.521  1.00  0.00    -0.313 NA 
BRANCH  19  20
HETATM   20  C   UNL     1     -10.963  14.510  66.838  1.00  0.00    -0.316 A  
HETATM   21  C   UNL     1      -9.890  13.622  66.643  1.00  0.00    -0.284 A  
HETATM   22  C   UNL     1     -10.069  12.428  65.938  1.00  0.00    -0.272 A  
HETATM   23  C   UNL     1     -11.315  12.111  65.407  1.00  0.00    -0.388 A  
HETATM   24  C   UNL     1     -12.387  12.972  65.607  1.00  0.00    -0.504 A  
HETATM   25  C   UNL     1     -12.217  14.153  66.337  1.00  0.00    -0.473 A  
ENDBRANCH  19  20
ENDBRANCH  13  15
ENDBRANCH  10  13
ENDBRANCH   7  10
TORSDOF 4
ENDMDL
MODEL       10
REMARK 921   NORMALIZED FREE ENERGY PREDICTED BY IDOCK:   -7.06 KCAL/MOL
REMARK 922        TOTAL FREE ENERGY PREDICTED BY IDOCK:   -9.45 KCAL/MOL
REMARK 923 INTER-LIGAND FREE ENERGY PREDICTED BY IDOCK:   -8.88 KCAL/MOL
REMARK 924 INTRA-LIGAND FREE ENERGY PREDICTED BY IDOCK:   -0.57 KCAL/MOL
REMARK 927      BINDING AFFINITY PREDICTED BY RF-SCORE:    0.00 PKD
ROOT
HETATM    1  N   UNL     1     -11.695  16.257  63.774  1.00  0.00    -1.488 NA 
HETATM    2  H2  UNL     1     -12.704  16.403  63.766  1.00  0.00     0.000 HD 
HETATM    3  C   UNL     1     -11.405  15.236  64.681  1.00  0.00    -0.358 A  
HETATM    4  H1  UNL     1     -11.240  17.166  63.860  1.00  0.00     0.000 HD 
HETATM    5  C   UNL     1     -12.027  13.990  64.563  1.00  0.00    -0.470 A  
HETATM    6  C   UNL     1     -11.680  12.930  65.405  1.00  0.00    -0.413 A  
HETATM    7  C   UNL     1     -10.660  13.105  66.340  1.00  0.00    -0.286 A  
HETATM    8  C   UNL     1      -9.977  14.321  66.424  1.00  0.00    -0.302 A  
HETATM    9  C   UNL     1     -10.338  15.375  65.577  1.00  0.00    -0.412 A  
ENDROOT
BRANCH   7  10
HETATM   10  S   UNL     1     -10.293  11.801  67.507  1.00  0.00    -0.200 S  
HETATM   11  O   UNL     1      -9.974  10.640  66.704  1.00  0.00    -0.197 OA 
HETATM   12  O   UNL     1      -9.319  12.337  68.434  1.00  0.00    -0.203 OA 
BRANCH  10  13
HETATM   13  N   UNL     1     -11.741  11.578  68.232  1.00  0.00    -0.313 N  
HETATM   14  H   UNL     1     -12.583  11.888  67.746  1.00  0.00     0.000 HD 
BRANCH  13  15
HETATM   15  C   UNL     1     -11.873  10.986  69.480  1.00  0.00    -0.333 A  
HETATM   16  C   UNL     1     -11.525   9.673  69.710  1.00  0.00    -0.095 A  
HETATM   17  C   UNL     1     -11.705   9.488  71.086  1.00  0.00    -0.363 A  
HETATM   18  N   UNL     1     -12.116  10.594  71.699  1.00  0.00    -0.170 NA 
HETATM   19  N   UNL     1     -12.259  11.529  70.712  1.00  0.00    -0.381 NA 
BRANCH  19  20
HETATM   20  C   UNL     1     -12.706  12.840  71.058  1.00  0.00    -0.243 A  
HETATM   21  C   UNL     1     -12.278  13.936  70.287  1.00  0.00    -0.428 A  
HETATM   22  C   UNL     1     -12.658  15.239  70.623  1.00  0.00    -0.471 A  
HETATM   23  C   UNL     1     -13.457  15.467  71.739  1.00  0.00    -0.576 A  
HETATM   24  C   UNL     1     -13.900  14.391  72.499  1.00  0.00    -0.559 A  
HETATM   25  C   UNL     1     -13.545  13.085  72.148  1.00  0.00    -0.618 A  
ENDBRANCH  19  20
ENDBRANCH  13  15
ENDBRANCH  10  13
ENDBRANCH   7  10
TORSDOF 4
ENDMDL
MODEL       11
REMARK 921   NORMALIZED FREE ENERGY PREDICTED BY IDOCK:   -7.06 KCAL/MOL
REMARK 922        TOTAL FREE ENERGY PREDICTED BY IDOCK:   -9.44 KCAL/MOL
REMARK 923 INTER-LIGAND FREE ENERGY PREDICTED BY IDOCK:   -8.77 KCAL/MOL
REMARK 924 INTRA-LIGAND FREE ENERGY PREDICTED BY IDOCK:   -0.67 KCAL/MOL
REMARK 927      BINDING AFFINITY PREDICTED BY RF-SCORE:    0.00 PKD
ROOT
HETATM    1  N   UNL     1     -13.520   9.957  72.215  1.00  0.00    -0.596 NA 
HETATM    2  H2  UNL     1     -12.750   9.316  72.410  1.00  0.00     0.000 HD 
HETATM    3  C   UNL     1     -12.987  11.137  71.693  1.00  0.00    -0.443 A  
HETATM    4  H1  UNL     1     -14.128   9.985  73.034  1.00  0.00     0.000 HD 
HETATM    5  C   UNL     1     -12.154  11.099  70.571  1.00  0.00    -0.474 A  
HETATM    6  C   UNL     1     -11.688  12.276  69.980  1.00  0.00    -0.319 A  
HETATM    7  C   UNL     1     -12.106  13.507  70.487  1.00  0.00    -0.335 A  
HETATM    8  C   UNL     1     -12.996  13.565  71.562  1.00  0.00    -0.440 A  
HETATM    9  C   UNL     1     -13.451  12.377  72.146  1.00  0.00    -0.481 A  
ENDROOT
BRANCH   7  10
HETATM   10  S   UNL     1     -11.419  15.018  69.823  1.00  0.00    -0.316 S  
HETATM   11  O   UNL     1     -12.016  16.088  70.594  1.00  0.00    -0.366 OA 
HETATM   12  O   UNL     1      -9.981  14.847  69.806  1.00  0.00    -0.100 OA 
BRANCH  10  13
HETATM   13  N   UNL     1     -12.032  15.033  68.309  1.00  0.00    -0.541 N  
HETATM   14  H   UNL     1     -13.045  15.045  68.192  1.00  0.00     0.000 HD 
BRANCH  13  15
HETATM   15  C   UNL     1     -11.232  15.030  67.174  1.00  0.00    -0.336 A  
HETATM   16  C   UNL     1     -11.065  13.905  66.397  1.00  0.00    -0.309 A  
HETATM   17  C   UNL     1     -10.286  14.328  65.312  1.00  0.00    -0.395 A  
HETATM   18  N   UNL     1      -9.991  15.623  65.373  1.00  0.00    -0.357 NA 
HETATM   19  N   UNL     1     -10.541  16.071  66.541  1.00  0.00    -0.305 NA 
BRANCH  19  20
HETATM   20  C   UNL     1     -10.383  17.444  66.901  1.00  0.00    -0.317 A  
HETATM   21  C   UNL     1     -10.582  18.436  65.925  1.00  0.00    -0.313 A  
HETATM   22  C   UNL     1     -10.391  19.787  66.229  1.00  0.00    -0.626 A  
HETATM   23  C   UNL     1      -9.986  20.165  67.505  1.00  0.00    -0.571 A  
HETATM   24  C   UNL     1      -9.802  19.195  68.483  1.00  0.00    -0.483 A  
HETATM   25  C   UNL     1     -10.020  17.846  68.189  1.00  0.00    -0.350 A  
ENDBRANCH  19  20
ENDBRANCH  13  15
ENDBRANCH  10  13
ENDBRANCH   7  10
TORSDOF 4
ENDMDL
MODEL       12
REMARK 921   NORMALIZED FREE ENERGY PREDICTED BY IDOCK:   -7.02 KCAL/MOL
REMARK 922        TOTAL FREE ENERGY PREDICTED BY IDOCK:   -9.40 KCAL/MOL
REMARK 923 INTER-LIGAND FREE ENERGY PREDICTED BY IDOCK:   -8.83 KCAL/MOL
REMARK 924 INTRA-LIGAND FREE ENERGY PREDICTED BY IDOCK:   -0.57 KCAL/MOL
REMARK 927      BINDING AFFINITY PREDICTED BY RF-SCORE:    0.00 PKD
ROOT
HETATM    1  N   UNL     1      -9.871  20.292  65.817  1.00  0.00    -0.589 NA 
HETATM    2  H2  UNL     1     -10.612  20.360  65.120  1.00  0.00     0.000 HD 
HETATM    3  C   UNL     1     -10.165  19.227  66.670  1.00  0.00    -0.421 A  
HETATM    4  H1  UNL     1      -9.703  21.224  66.197  1.00  0.00     0.000 HD 
HETATM    5  C   UNL     1     -10.395  17.950  66.149  1.00  0.00    -0.352 A  
HETATM    6  C   UNL     1     -10.599  16.855  66.993  1.00  0.00    -0.230 A  
HETATM    7  C   UNL     1     -10.519  17.031  68.375  1.00  0.00    -0.370 A  
HETATM    8  C   UNL     1     -10.218  18.286  68.912  1.00  0.00    -0.299 A  
HETATM    9  C   UNL     1     -10.020  19.374  68.054  1.00  0.00    -0.488 A  
ENDROOT
BRANCH   7  10
HETATM   10  S   UNL     1     -10.904  15.670  69.467  1.00  0.00    -0.300 S  
HETATM   11  O   UNL     1      -9.648  14.986  69.692  1.00  0.00    -0.151 OA 
HETATM   12  O   UNL     1     -11.639  16.228  70.582  1.00  0.00    -0.359 OA 
BRANCH  10  13
HETATM   13  N   UNL     1     -11.866  14.743  68.526  1.00  0.00    -0.467 N  
HETATM   14  H   UNL     1     -12.484  15.202  67.858  1.00  0.00     0.000 HD 
BRANCH  13  15
HETATM   15  C   UNL     1     -11.878  13.357  68.600  1.00  0.00    -0.362 A  
HETATM   16  C   UNL     1     -12.009  12.685  69.795  1.00  0.00    -0.365 A  
HETATM   17  C   UNL     1     -12.078  11.332  69.444  1.00  0.00    -0.315 A  
HETATM   18  N   UNL     1     -12.016  11.144  68.129  1.00  0.00    -0.632 NA 
HETATM   19  N   UNL     1     -11.857  12.388  67.587  1.00  0.00    -0.465 NA 
BRANCH  19  20
HETATM   20  C   UNL     1     -11.746  12.519  66.170  1.00  0.00    -0.409 A  
HETATM   21  C   UNL     1     -12.437  13.557  65.520  1.00  0.00    -0.538 A  
HETATM   22  C   UNL     1     -12.389  13.688  64.129  1.00  0.00    -0.385 A  
HETATM   23  C   UNL     1     -11.663  12.779  63.367  1.00  0.00    -0.556 A  
HETATM   24  C   UNL     1     -10.962  11.758  63.998  1.00  0.00    -0.451 A  
HETATM   25  C   UNL     1     -10.985  11.643  65.392  1.00  0.00    -0.328 A  
ENDBRANCH  19  20
ENDBRANCH  13  15
ENDBRANCH  10  13
ENDBRANCH   7  10
TORSDOF 4
ENDMDL
MODEL       13
REMARK 921   NORMALIZED FREE ENERGY PREDICTED BY IDOCK:   -7.00 KCAL/MOL
REMARK 922        TOTAL FREE ENERGY PREDICTED BY IDOCK:   -9.37 KCAL/MOL
REMARK 923 INTER-LIGAND FREE ENERGY PREDICTED BY IDOCK:   -8.62 KCAL/MOL
REMARK 924 INTRA-LIGAND FREE ENERGY PREDICTED BY IDOCK:   -0.75 KCAL/MOL
REMARK 927      BINDING AFFINITY PREDICTED BY RF-SCORE:    0.00 PKD
ROOT
HETATM    1  N   UNL     1     -11.471  11.274  63.200  1.00  0.00    -0.831 NA 
HETATM    2  H2  UNL     1     -11.764  11.841  62.404  1.00  0.00     0.000 HD 
HETATM    3  C   UNL     1     -11.394  12.099  64.323  1.00  0.00    -0.360 A  
HETATM    4  H1  UNL     1     -10.667  10.715  62.916  1.00  0.00     0.000 HD 
HETATM    5  C   UNL     1     -12.497  12.865  64.712  1.00  0.00    -0.517 A  
HETATM    6  C   UNL     1     -12.469  13.624  65.885  1.00  0.00    -0.502 A  
HETATM    7  C   UNL     1     -11.341  13.573  66.706  1.00  0.00    -0.328 A  
HETATM    8  C   UNL     1     -10.258  12.757  66.370  1.00  0.00    -0.263 A  
HETATM    9  C   UNL     1     -10.300  12.005  65.190  1.00  0.00    -0.313 A  
ENDROOT
BRANCH   7  10
HETATM   10  S   UNL     1     -11.239  14.635  68.140  1.00  0.00    -0.303 S  
HETATM   11  O   UNL     1     -10.131  14.127  68.921  1.00  0.00    -0.220 OA 
HETATM   12  O   UNL     1     -11.219  15.996  67.647  1.00  0.00    -0.288 OA 
BRANCH  10  13
HETATM   13  N   UNL     1     -12.642  14.303  68.908  1.00  0.00    -0.438 N  
HETATM   14  H   UNL     1     -13.462  14.071  68.348  1.00  0.00     0.000 HD 
BRANCH  13  15
HETATM   15  C   UNL     1     -12.765  14.325  70.290  1.00  0.00    -0.249 A  
HETATM   16  C   UNL     1     -13.022  15.485  70.987  1.00  0.00    -0.550 A  
HETATM   17  C   UNL     1     -13.173  15.080  72.319  1.00  0.00    -0.375 A  
HETATM   18  N   UNL     1     -13.044  13.766  72.469  1.00  0.00    -0.434 NA 
HETATM   19  N   UNL     1     -12.757  13.281  71.224  1.00  0.00    -0.358 NA 
BRANCH  19  20
HETATM   20  C   UNL     1     -12.547  11.878  71.057  1.00  0.00    -0.283 A  
HETATM   21  C   UNL     1     -13.233  10.978  71.893  1.00  0.00    -0.503 A  
HETATM   22  C   UNL     1     -13.018   9.601  71.789  1.00  0.00    -0.514 A  
HETATM   23  C   UNL     1     -12.109   9.103  70.862  1.00  0.00    -0.270 A  
HETATM   24  C   UNL     1     -11.437   9.981  70.019  1.00  0.00    -0.310 A  
HETATM   25  C   UNL     1     -11.672  11.357  70.101  1.00  0.00    -0.414 A  
ENDBRANCH  19  20
ENDBRANCH  13  15
ENDBRANCH  10  13
ENDBRANCH   7  10
TORSDOF 4
ENDMDL
MODEL       14
REMARK 921   NORMALIZED FREE ENERGY PREDICTED BY IDOCK:   -6.89 KCAL/MOL
REMARK 922        TOTAL FREE ENERGY PREDICTED BY IDOCK:   -9.23 KCAL/MOL
REMARK 923 INTER-LIGAND FREE ENERGY PREDICTED BY IDOCK:   -7.20 KCAL/MOL
REMARK 924 INTRA-LIGAND FREE ENERGY PREDICTED BY IDOCK:   -2.03 KCAL/MOL
REMARK 927      BINDING AFFINITY PREDICTED BY RF-SCORE:    0.00 PKD
ROOT
HETATM    1  N   UNL     1     -10.252  15.148  70.179  1.00  0.00    -0.509 NA 
HETATM    2  H2  UNL     1     -10.238  14.331  70.789  1.00  0.00     0.000 HD 
HETATM    3  C   UNL     1     -10.619  14.733  68.897  1.00  0.00    -0.250 A  
HETATM    4  H1  UNL     1      -9.388  15.670  70.323  1.00  0.00     0.000 HD 
HETATM    5  C   UNL     1     -11.803  14.017  68.700  1.00  0.00    -0.396 A  
HETATM    6  C   UNL     1     -12.232  13.675  67.414  1.00  0.00    -0.283 A  
HETATM    7  C   UNL     1     -11.492  14.101  66.311  1.00  0.00    -0.352 A  
HETATM    8  C   UNL     1     -10.344  14.879  66.485  1.00  0.00    -0.295 A  
HETATM    9  C   UNL     1      -9.926  15.210  67.779  1.00  0.00    -0.225 A  
ENDROOT
BRANCH   7  10
HETATM   10  S   UNL     1     -11.957  13.564  64.671  1.00  0.00    -0.422 S  
HETATM   11  O   UNL     1     -12.729  12.355  64.862  1.00  0.00    -0.620 OA 
HETATM   12  O   UNL     1     -12.549  14.710  64.011  1.00  0.00    -0.819 OA 
BRANCH  10  13
HETATM   13  N   UNL     1     -10.509  13.185  64.015  1.00  0.00    -0.543 N  
HETATM   14  H   UNL     1      -9.892  13.943  63.722  1.00  0.00     0.000 HD 
BRANCH  13  15
HETATM   15  C   UNL     1     -10.083  11.876  63.840  1.00  0.00    -0.370 A  
HETATM   16  C   UNL     1      -9.907  11.322  62.591  1.00  0.00    -0.130 A  
HETATM   17  C   UNL     1      -9.383  10.046  62.833  1.00  0.00    -0.260 A  
HETATM   18  N   UNL     1      -9.216   9.802  64.129  1.00  0.00    -0.255 NA 
HETATM   19  N   UNL     1      -9.677  10.915  64.775  1.00  0.00    -0.248 NA 
BRANCH  19  20
HETATM   20  C   UNL     1      -9.641  10.954  66.202  1.00  0.00    -0.202 A  
HETATM   21  C   UNL     1     -10.683  10.354  66.931  1.00  0.00    -0.272 A  
HETATM   22  C   UNL     1     -10.705  10.413  68.328  1.00  0.00    -0.275 A  
HETATM   23  C   UNL     1      -9.697  11.082  69.014  1.00  0.00    -0.151 A  
HETATM   24  C   UNL     1      -8.653  11.665  68.306  1.00  0.00    -0.162 A  
HETATM   25  C   UNL     1      -8.614  11.582  66.910  1.00  0.00    -0.163 A  
ENDBRANCH  19  20
ENDBRANCH  13  15
ENDBRANCH  10  13
ENDBRANCH   7  10
TORSDOF 4
ENDMDL
MODEL       15
REMARK 921   NORMALIZED FREE ENERGY PREDICTED BY IDOCK:   -6.87 KCAL/MOL
REMARK 922        TOTAL FREE ENERGY PREDICTED BY IDOCK:   -9.21 KCAL/MOL
REMARK 923 INTER-LIGAND FREE ENERGY PREDICTED BY IDOCK:   -7.19 KCAL/MOL
REMARK 924 INTRA-LIGAND FREE ENERGY PREDICTED BY IDOCK:   -2.02 KCAL/MOL
REMARK 927      BINDING AFFINITY PREDICTED BY RF-SCORE:    0.00 PKD
ROOT
HETATM    1  N   UNL     1      -6.624  21.351  66.130  1.00  0.00    -0.607 NA 
HETATM    2  H2  UNL     1      -7.390  21.597  65.503  1.00  0.00     0.000 HD 
HETATM    3  C   UNL     1      -6.774  20.015  66.505  1.00  0.00    -0.212 A  
HETATM    4  H1  UNL     1      -6.545  22.079  66.840  1.00  0.00     0.000 HD 
HETATM    5  C   UNL     1      -6.881  19.018  65.531  1.00  0.00    -0.274 A  
HETATM    6  C   UNL     1      -6.938  17.667  65.887  1.00  0.00    -0.259 A  
HETATM    7  C   UNL     1      -6.832  17.310  67.232  1.00  0.00    -0.167 A  
HETATM    8  C   UNL     1      -6.652  18.288  68.213  1.00  0.00    -0.210 A  
HETATM    9  C   UNL     1      -6.600  19.637  67.840  1.00  0.00    -0.270 A  
ENDROOT
BRANCH   7  10
HETATM   10  S   UNL     1      -7.032  15.600  67.713  1.00  0.00    -0.175 S  
HETATM   11  O   UNL     1      -5.785  14.951  67.366  1.00  0.00    -0.342 OA 
HETATM   12  O   UNL     1      -7.493  15.607  69.085  1.00  0.00    -0.168 OA 
BRANCH  10  13
HETATM   13  N   UNL     1      -8.207  15.096  66.695  1.00  0.00    -0.368 N  
HETATM   14  H   UNL     1      -7.953  14.855  65.737  1.00  0.00     0.000 HD 
BRANCH  13  15
HETATM   15  C   UNL     1      -9.536  14.984  67.079  1.00  0.00    -0.225 A  
HETATM   16  C   UNL     1     -10.146  13.763  67.267  1.00  0.00    -0.239 A  
HETATM   17  C   UNL     1     -11.428  14.069  67.740  1.00  0.00    -0.322 A  
HETATM   18  N   UNL     1     -11.624  15.377  67.866  1.00  0.00    -0.307 NA 
HETATM   19  N   UNL     1     -10.472  15.966  67.428  1.00  0.00    -0.300 NA 
BRANCH  19  20
HETATM   20  C   UNL     1     -10.376  17.391  67.431  1.00  0.00    -0.343 A  
HETATM   21  C   UNL     1     -10.208  18.065  68.653  1.00  0.00    -0.385 A  
HETATM   22  C   UNL     1     -10.156  19.461  68.699  1.00  0.00    -0.515 A  
HETATM   23  C   UNL     1     -10.286  20.204  67.530  1.00  0.00    -0.520 A  
HETATM   24  C   UNL     1     -10.436  19.549  66.313  1.00  0.00    -0.609 A  
HETATM   25  C   UNL     1     -10.459  18.151  66.262  1.00  0.00    -0.374 A  
ENDBRANCH  19  20
ENDBRANCH  13  15
ENDBRANCH  10  13
ENDBRANCH   7  10
TORSDOF 4
ENDMDL
MODEL       16
REMARK 921   NORMALIZED FREE ENERGY PREDICTED BY IDOCK:   -6.85 KCAL/MOL
REMARK 922        TOTAL FREE ENERGY PREDICTED BY IDOCK:   -9.18 KCAL/MOL
REMARK 923 INTER-LIGAND FREE ENERGY PREDICTED BY IDOCK:   -8.36 KCAL/MOL
REMARK 924 INTRA-LIGAND FREE ENERGY PREDICTED BY IDOCK:   -0.82 KCAL/MOL
REMARK 927      BINDING AFFINITY PREDICTED BY RF-SCORE:    0.00 PKD
ROOT
HETATM    1  N   UNL     1     -12.483   9.706  70.260  1.00  0.00    -0.466 NA 
HETATM    2  H2  UNL     1     -11.719   9.045  70.120  1.00  0.00     0.000 HD 
HETATM    3  C   UNL     1     -12.023  10.984  69.936  1.00  0.00    -0.351 A  
HETATM    4  H1  UNL     1     -12.901   9.525  71.172  1.00  0.00     0.000 HD 
HETATM    5  C   UNL     1     -11.451  11.232  68.685  1.00  0.00    -0.362 A  
HETATM    6  C   UNL     1     -11.070  12.523  68.311  1.00  0.00    -0.294 A  
HETATM    7  C   UNL     1     -11.315  13.587  69.180  1.00  0.00    -0.282 A  
HETATM    8  C   UNL     1     -11.952  13.369  70.404  1.00  0.00    -0.358 A  
HETATM    9  C   UNL     1     -12.324  12.069  70.767  1.00  0.00    -0.403 A  
ENDROOT
BRANCH   7  10
HETATM   10  S   UNL     1     -10.719  15.222  68.770  1.00  0.00    -0.252 S  
HETATM   11  O   UNL     1     -11.904  16.035  68.598  1.00  0.00    -0.367 OA 
HETATM   12  O   UNL     1      -9.737  15.569  69.775  1.00  0.00    -0.287 OA 
BRANCH  10  13
HETATM   13  N   UNL     1     -10.017  14.972  67.316  1.00  0.00    -0.232 N  
HETATM   14  H   UNL     1      -9.178  14.394  67.272  1.00  0.00     0.000 HD 
BRANCH  13  15
HETATM   15  C   UNL     1     -10.514  15.513  66.138  1.00  0.00    -0.313 A  
HETATM   16  C   UNL     1     -11.272  14.777  65.254  1.00  0.00    -0.366 A  
HETATM   17  C   UNL     1     -11.659  15.689  64.265  1.00  0.00    -0.189 A  
HETATM   18  N   UNL     1     -11.207  16.916  64.499  1.00  0.00    -1.066 NA 
HETATM   19  N   UNL     1     -10.464  16.822  65.642  1.00  0.00    -0.527 NA 
BRANCH  19  20
HETATM   20  C   UNL     1      -9.826  17.993  66.154  1.00  0.00    -0.249 A  
HETATM   21  C   UNL     1      -8.424  18.020  66.261  1.00  0.00    -0.214 A  
HETATM   22  C   UNL     1      -7.769  19.131  66.800  1.00  0.00    -0.259 A  
HETATM   23  C   UNL     1      -8.503  20.222  67.253  1.00  0.00    -0.415 A  
HETATM   24  C   UNL     1      -9.888  20.215  67.138  1.00  0.00    -0.586 A  
HETATM   25  C   UNL     1     -10.543  19.117  66.572  1.00  0.00    -0.523 A  
ENDBRANCH  19  20
ENDBRANCH  13  15
ENDBRANCH  10  13
ENDBRANCH   7  10
TORSDOF 4
ENDMDL
MODEL       17
REMARK 921   NORMALIZED FREE ENERGY PREDICTED BY IDOCK:   -6.84 KCAL/MOL
REMARK 922        TOTAL FREE ENERGY PREDICTED BY IDOCK:   -9.18 KCAL/MOL
REMARK 923 INTER-LIGAND FREE ENERGY PREDICTED BY IDOCK:   -8.61 KCAL/MOL
REMARK 924 INTRA-LIGAND FREE ENERGY PREDICTED BY IDOCK:   -0.56 KCAL/MOL
REMARK 927      BINDING AFFINITY PREDICTED BY RF-SCORE:    0.00 PKD
ROOT
HETATM    1  N   UNL     1      -9.709  20.860  67.304  1.00  0.00    -0.615 NA 
HETATM    2  H2  UNL     1      -8.790  20.999  67.726  1.00  0.00     0.000 HD 
HETATM    3  C   UNL     1      -9.921  19.488  67.156  1.00  0.00    -0.373 A  
HETATM    4  H1  UNL     1      -9.790  21.482  66.500  1.00  0.00     0.000 HD 
HETATM    5  C   UNL     1      -9.811  18.635  68.259  1.00  0.00    -0.410 A  
HETATM    6  C   UNL     1     -10.111  17.275  68.149  1.00  0.00    -0.325 A  
HETATM    7  C   UNL     1     -10.579  16.773  66.934  1.00  0.00    -0.219 A  
HETATM    8  C   UNL     1     -10.765  17.624  65.841  1.00  0.00    -0.113 A  
HETATM    9  C   UNL     1     -10.456  18.984  65.966  1.00  0.00    -0.530 A  
ENDROOT
BRANCH   7  10
HETATM   10  S   UNL     1     -10.844  15.016  66.743  1.00  0.00    -0.320 S  
HETATM   11  O   UNL     1     -11.389  14.848  65.412  1.00  0.00    -0.343 OA 
HETATM   12  O   UNL     1      -9.602  14.367  67.109  1.00  0.00    -0.236 OA 
BRANCH  10  13
HETATM   13  N   UNL     1     -12.012  14.728  67.848  1.00  0.00    -0.548 N  
HETATM   14  H   UNL     1     -12.745  15.425  67.978  1.00  0.00     0.000 HD 
BRANCH  13  15
HETATM   15  C   UNL     1     -12.050  13.573  68.618  1.00  0.00    -0.268 A  
HETATM   16  C   UNL     1     -11.745  12.334  68.099  1.00  0.00    -0.408 A  
HETATM   17  C   UNL     1     -11.798  11.462  69.193  1.00  0.00    -0.345 A  
HETATM   18  N   UNL     1     -12.093  12.087  70.328  1.00  0.00    -0.340 NA 
HETATM   19  N   UNL     1     -12.287  13.396  69.987  1.00  0.00    -0.269 NA 
BRANCH  19  20
HETATM   20  C   UNL     1     -12.635  14.335  71.005  1.00  0.00    -0.358 A  
HETATM   21  C   UNL     1     -11.630  15.145  71.564  1.00  0.00    -0.443 A  
HETATM   22  C   UNL     1     -11.925  16.042  72.594  1.00  0.00    -0.646 A  
HETATM   23  C   UNL     1     -13.221  16.133  73.091  1.00  0.00    -0.518 A  
HETATM   24  C   UNL     1     -14.226  15.350  72.537  1.00  0.00    -0.500 A  
HETATM   25  C   UNL     1     -13.939  14.473  71.486  1.00  0.00    -0.487 A  
ENDBRANCH  19  20
ENDBRANCH  13  15
ENDBRANCH  10  13
ENDBRANCH   7  10
TORSDOF 4
ENDMDL
MODEL       18
REMARK 921   NORMALIZED FREE ENERGY PREDICTED BY IDOCK:   -6.82 KCAL/MOL
REMARK 922        TOTAL FREE ENERGY PREDICTED BY IDOCK:   -9.15 KCAL/MOL
REMARK 923 INTER-LIGAND FREE ENERGY PREDICTED BY IDOCK:   -8.38 KCAL/MOL
REMARK 924 INTRA-LIGAND FREE ENERGY PREDICTED BY IDOCK:   -0.77 KCAL/MOL
REMARK 927      BINDING AFFINITY PREDICTED BY RF-SCORE:    0.00 PKD
ROOT
HETATM    1  N   UNL     1     -12.418  14.057  63.089  1.00  0.00    -1.070 NA 
HETATM    2  H2  UNL     1     -12.794  13.432  62.376  1.00  0.00     0.000 HD 
HETATM    3  C   UNL     1     -12.093  13.296  64.214  1.00  0.00    -0.416 A  
HETATM    4  H1  UNL     1     -13.041  14.859  63.173  1.00  0.00     0.000 HD 
HETATM    5  C   UNL     1     -11.238  12.197  64.099  1.00  0.00    -0.433 A  
HETATM    6  C   UNL     1     -10.828  11.482  65.228  1.00  0.00    -0.319 A  
HETATM    7  C   UNL     1     -11.240  11.906  66.492  1.00  0.00    -0.327 A  
HETATM    8  C   UNL     1     -12.036  13.046  66.632  1.00  0.00    -0.453 A  
HETATM    9  C   UNL     1     -12.440  13.749  65.492  1.00  0.00    -0.548 A  
ENDROOT
BRANCH   7  10
HETATM   10  S   UNL     1     -10.831  10.928  67.932  1.00  0.00    -0.269 S  
HETATM   11  O   UNL     1     -10.439   9.632  67.422  1.00  0.00    -0.228 OA 
HETATM   12  O   UNL     1      -9.901  11.715  68.716  1.00  0.00    -0.193 OA 
BRANCH  10  13
HETATM   13  N   UNL     1     -12.279  10.803  68.678  1.00  0.00    -0.358 N  
HETATM   14  H   UNL     1     -13.125  10.960  68.132  1.00  0.00     0.000 HD 
BRANCH  13  15
HETATM   15  C   UNL     1     -12.405  10.492  70.025  1.00  0.00    -0.219 A  
HETATM   16  C   UNL     1     -12.218   9.214  70.505  1.00  0.00     0.055 A  
HETATM   17  C   UNL     1     -12.330   9.331  71.895  1.00  0.00    -0.382 A  
HETATM   18  N   UNL     1     -12.551  10.583  72.285  1.00  0.00     0.052 NA 
HETATM   19  N   UNL     1     -12.635  11.316  71.135  1.00  0.00    -0.403 NA 
BRANCH  19  20
HETATM   20  C   UNL     1     -12.882  12.719  71.223  1.00  0.00    -0.262 A  
HETATM   21  C   UNL     1     -13.770  13.199  72.203  1.00  0.00    -0.588 A  
HETATM   22  C   UNL     1     -14.072  14.562  72.289  1.00  0.00    -0.594 A  
HETATM   23  C   UNL     1     -13.504  15.461  71.392  1.00  0.00    -0.607 A  
HETATM   24  C   UNL     1     -12.613  15.001  70.429  1.00  0.00    -0.399 A  
HETATM   25  C   UNL     1     -12.287  13.643  70.360  1.00  0.00    -0.415 A  
ENDBRANCH  19  20
ENDBRANCH  13  15
ENDBRANCH  10  13
ENDBRANCH   7  10
TORSDOF 4
ENDMDL
MODEL       19
REMARK 921   NORMALIZED FREE ENERGY PREDICTED BY IDOCK:   -6.80 KCAL/MOL
REMARK 922        TOTAL FREE ENERGY PREDICTED BY IDOCK:   -9.12 KCAL/MOL
REMARK 923 INTER-LIGAND FREE ENERGY PREDICTED BY IDOCK:   -8.45 KCAL/MOL
REMARK 924 INTRA-LIGAND FREE ENERGY PREDICTED BY IDOCK:   -0.68 KCAL/MOL
REMARK 927      BINDING AFFINITY PREDICTED BY RF-SCORE:    0.00 PKD
ROOT
HETATM    1  N   UNL     1     -12.409  13.931  63.102  1.00  0.00    -1.106 NA 
HETATM    2  H2  UNL     1     -12.235  13.160  62.458  1.00  0.00     0.000 HD 
HETATM    3  C   UNL     1     -11.980  13.546  64.374  1.00  0.00    -0.422 A  
HETATM    4  H1  UNL     1     -13.364  14.259  62.959  1.00  0.00     0.000 HD 
HETATM    5  C   UNL     1     -10.670  13.097  64.570  1.00  0.00    -0.416 A  
HETATM    6  C   UNL     1     -10.196  12.797  65.850  1.00  0.00    -0.300 A  
HETATM    7  C   UNL     1     -11.028  13.000  66.952  1.00  0.00    -0.265 A  
HETATM    8  C   UNL     1     -12.315  13.517  66.782  1.00  0.00    -0.326 A  
HETATM    9  C   UNL     1     -12.776  13.809  65.493  1.00  0.00    -0.530 A  
ENDROOT
BRANCH   7  10
HETATM   10  S   UNL     1     -10.481  12.500  68.579  1.00  0.00    -0.209 S  
HETATM   11  O   UNL     1     -11.688  12.345  69.363  1.00  0.00    -0.291 OA 
HETATM   12  O   UNL     1      -9.586  11.378  68.389  1.00  0.00    -0.185 OA 
BRANCH  10  13
HETATM   13  N   UNL     1      -9.672  13.826  69.086  1.00  0.00    -0.394 N  
HETATM   14  H   UNL     1      -8.822  13.699  69.636  1.00  0.00     0.000 HD 
BRANCH  13  15
HETATM   15  C   UNL     1     -10.092  15.118  68.801  1.00  0.00    -0.226 A  
HETATM   16  C   UNL     1      -9.590  15.835  67.737  1.00  0.00    -0.214 A  
HETATM   17  C   UNL     1     -10.325  17.027  67.727  1.00  0.00    -0.335 A  
HETATM   18  N   UNL     1     -11.239  17.069  68.692  1.00  0.00    -0.133 NA 
HETATM   19  N   UNL     1     -11.088  15.905  69.392  1.00  0.00    -0.296 NA 
BRANCH  19  20
HETATM   20  C   UNL     1     -11.933  15.657  70.516  1.00  0.00    -0.385 A  
HETATM   21  C   UNL     1     -11.549  16.132  71.783  1.00  0.00    -0.503 A  
HETATM   22  C   UNL     1     -12.328  15.868  72.913  1.00  0.00    -0.593 A  
HETATM   23  C   UNL     1     -13.492  15.115  72.798  1.00  0.00    -0.603 A  
HETATM   24  C   UNL     1     -13.892  14.654  71.549  1.00  0.00    -0.508 A  
HETATM   25  C   UNL     1     -13.129  14.942  70.413  1.00  0.00    -0.206 A  
ENDBRANCH  19  20
ENDBRANCH  13  15
ENDBRANCH  10  13
ENDBRANCH   7  10
TORSDOF 4
ENDMDL
MODEL       20
REMARK 921   NORMALIZED FREE ENERGY PREDICTED BY IDOCK:   -6.77 KCAL/MOL
REMARK 922        TOTAL FREE ENERGY PREDICTED BY IDOCK:   -9.09 KCAL/MOL
REMARK 923 INTER-LIGAND FREE ENERGY PREDICTED BY IDOCK:   -8.41 KCAL/MOL
REMARK 924 INTRA-LIGAND FREE ENERGY PREDICTED BY IDOCK:   -0.68 KCAL/MOL
REMARK 927      BINDING AFFINITY PREDICTED BY RF-SCORE:    0.00 PKD
ROOT
HETATM    1  N   UNL     1     -13.642  15.944  73.934  1.00  0.00    -0.723 NA 
HETATM    2  H2  UNL     1     -13.599  16.924  74.214  1.00  0.00     0.000 HD 
HETATM    3  C   UNL     1     -13.106  15.829  72.650  1.00  0.00    -0.491 A  
HETATM    4  H1  UNL     1     -14.579  15.594  74.133  1.00  0.00     0.000 HD 
HETATM    5  C   UNL     1     -11.821  16.307  72.378  1.00  0.00    -0.606 A  
HETATM    6  C   UNL     1     -11.233  16.118  71.124  1.00  0.00    -0.257 A  
HETATM    7  C   UNL     1     -11.920  15.394  70.149  1.00  0.00    -0.349 A  
HETATM    8  C   UNL     1     -13.175  14.846  70.427  1.00  0.00    -0.124 A  
HETATM    9  C   UNL     1     -13.752  15.048  71.686  1.00  0.00    -0.553 A  
ENDROOT
BRANCH   7  10
HETATM   10  S   UNL     1     -11.237  15.253  68.503  1.00  0.00    -0.320 S  
HETATM   11  O   UNL     1     -11.145  16.609  68.004  1.00  0.00    -0.343 OA 
HETATM   12  O   UNL     1     -10.047  14.436  68.617  1.00  0.00    -0.233 OA 
BRANCH  10  13
HETATM   13  N   UNL     1     -12.426  14.462  67.709  1.00  0.00    -0.526 N  
HETATM   14  H   UNL     1     -13.396  14.687  67.933  1.00  0.00     0.000 HD 
BRANCH  13  15
HETATM   15  C   UNL     1     -12.173  13.498  66.744  1.00  0.00    -0.340 A  
HETATM   16  C   UNL     1     -12.184  13.786  65.397  1.00  0.00    -0.465 A  
HETATM   17  C   UNL     1     -11.789  12.598  64.770  1.00  0.00    -0.380 A  
HETATM   18  N   UNL     1     -11.525  11.628  65.640  1.00  0.00    -0.207 NA 
HETATM   19  N   UNL     1     -11.790  12.157  66.872  1.00  0.00    -0.601 NA 
BRANCH  19  20
HETATM   20  C   UNL     1     -11.610  11.341  68.030  1.00  0.00    -0.272 A  
HETATM   21  C   UNL     1     -12.239  11.710  69.233  1.00  0.00    -0.228 A  
HETATM   22  C   UNL     1     -12.048  10.962  70.398  1.00  0.00    -0.453 A  
HETATM   23  C   UNL     1     -11.218   9.845  70.383  1.00  0.00    -0.379 A  
HETATM   24  C   UNL     1     -10.604   9.461  69.197  1.00  0.00    -0.234 A  
HETATM   25  C   UNL     1     -10.816  10.191  68.024  1.00  0.00    -0.320 A  
ENDBRANCH  19  20
ENDBRANCH  13  15
ENDBRANCH  10  13
ENDBRANCH   7  10
TORSDOF 4
ENDMDL
MODEL       21
REMARK 921   NORMALIZED FREE ENERGY PREDICTED BY IDOCK:   -6.77 KCAL/MOL
REMARK 922        TOTAL FREE ENERGY PREDICTED BY IDOCK:   -9.08 KCAL/MOL
REMARK 923 INTER-LIGAND FREE ENERGY PREDICTED BY IDOCK:   -8.43 KCAL/MOL
REMARK 924 INTRA-LIGAND FREE ENERGY PREDICTED BY IDOCK:   -0.65 KCAL/MOL
REMARK 927      BINDING AFFINITY PREDICTED BY RF-SCORE:    0.00 PKD
ROOT
HETATM    1  N   UNL     1     -13.221   8.741  73.176  1.00  0.00    -0.833 NA 
HETATM    2  H2  UNL     1     -14.240   8.759  73.199  1.00  0.00     0.000 HD 
HETATM    3  C   UNL     1     -12.792   9.471  72.066  1.00  0.00    -0.414 A  
HETATM    4  H1  UNL     1     -12.915   7.777  73.307  1.00  0.00     0.000 HD 
HETATM    5  C   UNL     1     -13.212  10.793  71.888  1.00  0.00    -0.524 A  
HETATM    6  C   UNL     1     -12.720  11.568  70.834  1.00  0.00    -0.372 A  
HETATM    7  C   UNL     1     -11.756  11.029  69.981  1.00  0.00    -0.355 A  
HETATM    8  C   UNL     1     -11.272   9.735  70.187  1.00  0.00    -0.324 A  
HETATM    9  C   UNL     1     -11.777   8.970  71.245  1.00  0.00    -0.382 A  
ENDROOT
BRANCH   7  10
HETATM   10  S   UNL     1     -11.213  11.961  68.555  1.00  0.00    -0.282 S  
HETATM   11  O   UNL     1      -9.790  12.155  68.737  1.00  0.00    -0.145 OA 
HETATM   12  O   UNL     1     -11.710  11.262  67.389  1.00  0.00    -0.580 OA 
BRANCH  10  13
HETATM   13  N   UNL     1     -11.986  13.385  68.767  1.00  0.00    -0.343 N  
HETATM   14  H   UNL     1     -12.810  13.409  69.368  1.00  0.00     0.000 HD 
BRANCH  13  15
HETATM   15  C   UNL     1     -11.569  14.563  68.163  1.00  0.00    -0.331 A  
HETATM   16  C   UNL     1     -11.416  15.736  68.870  1.00  0.00    -0.381 A  
HETATM   17  C   UNL     1     -10.893  16.649  67.945  1.00  0.00    -0.321 A  
HETATM   18  N   UNL     1     -10.706  16.106  66.746  1.00  0.00    -0.282 NA 
HETATM   19  N   UNL     1     -11.151  14.819  66.851  1.00  0.00    -0.332 NA 
BRANCH  19  20
HETATM   20  C   UNL     1     -11.091  13.968  65.706  1.00  0.00    -0.305 A  
HETATM   21  C   UNL     1     -12.252  13.766  64.938  1.00  0.00    -0.443 A  
HETATM   22  C   UNL     1     -12.242  12.904  63.838  1.00  0.00    -0.525 A  
HETATM   23  C   UNL     1     -11.079  12.221  63.497  1.00  0.00    -0.533 A  
HETATM   24  C   UNL     1      -9.920  12.424  64.237  1.00  0.00    -0.232 A  
HETATM   25  C   UNL     1      -9.921  13.308  65.321  1.00  0.00    -0.192 A  
ENDBRANCH  19  20
ENDBRANCH  13  15
ENDBRANCH  10  13
ENDBRANCH   7  10
TORSDOF 4
ENDMDL
MODEL       22
REMARK 921   NORMALIZED FREE ENERGY PREDICTED BY IDOCK:   -6.75 KCAL/MOL
REMARK 922        TOTAL FREE ENERGY PREDICTED BY IDOCK:   -9.07 KCAL/MOL
REMARK 923 INTER-LIGAND FREE ENERGY PREDICTED BY IDOCK:   -8.48 KCAL/MOL
REMARK 924 INTRA-LIGAND FREE ENERGY PREDICTED BY IDOCK:   -0.58 KCAL/MOL
REMARK 927      BINDING AFFINITY PREDICTED BY RF-SCORE:    0.00 PKD
ROOT
HETATM    1  N   UNL     1     -12.999   9.254  70.998  1.00  0.00    -0.525 NA 
HETATM    2  H2  UNL     1     -13.994   9.135  71.191  1.00  0.00     0.000 HD 
HETATM    3  C   UNL     1     -12.765  10.600  70.709  1.00  0.00    -0.378 A  
HETATM    4  H1  UNL     1     -12.711   8.529  70.341  1.00  0.00     0.000 HD 
HETATM    5  C   UNL     1     -13.160  11.593  71.609  1.00  0.00    -0.456 A  
HETATM    6  C   UNL     1     -12.851  12.937  71.380  1.00  0.00    -0.377 A  
HETATM    7  C   UNL     1     -12.092  13.282  70.261  1.00  0.00    -0.335 A  
HETATM    8  C   UNL     1     -11.627  12.295  69.388  1.00  0.00    -0.378 A  
HETATM    9  C   UNL     1     -11.948  10.954  69.630  1.00  0.00    -0.414 A  
ENDROOT
BRANCH   7  10
HETATM   10  S   UNL     1     -11.799  15.006  69.886  1.00  0.00    -0.347 S  
HETATM   11  O   UNL     1     -12.780  15.742  70.653  1.00  0.00    -0.439 OA 
HETATM   12  O   UNL     1     -10.385  15.240  70.094  1.00  0.00    -0.266 OA 
BRANCH  10  13
HETATM   13  N   UNL     1     -12.184  15.077  68.300  1.00  0.00    -0.556 N  
HETATM   14  H   UNL     1     -13.043  14.626  67.985  1.00  0.00     0.000 HD 
BRANCH  13  15
HETATM   15  C   UNL     1     -11.392  15.726  67.363  1.00  0.00    -0.106 A  
HETATM   16  C   UNL     1     -10.781  16.932  67.626  1.00  0.00    -0.290 A  
HETATM   17  C   UNL     1     -10.005  17.199  66.492  1.00  0.00    -0.302 A  
HETATM   18  N   UNL     1     -10.092  16.237  65.579  1.00  0.00    -0.536 NA 
HETATM   19  N   UNL     1     -10.976  15.327  66.086  1.00  0.00    -0.325 NA 
BRANCH  19  20
HETATM   20  C   UNL     1     -11.292  14.164  65.320  1.00  0.00    -0.328 A  
HETATM   21  C   UNL     1     -10.743  12.925  65.696  1.00  0.00    -0.295 A  
HETATM   22  C   UNL     1     -10.992  11.774  64.943  1.00  0.00    -0.358 A  
HETATM   23  C   UNL     1     -11.780  11.846  63.799  1.00  0.00    -0.554 A  
HETATM   24  C   UNL     1     -12.342  13.061  63.426  1.00  0.00    -0.478 A  
HETATM   25  C   UNL     1     -12.117  14.208  64.194  1.00  0.00    -0.437 A  
ENDBRANCH  19  20
ENDBRANCH  13  15
ENDBRANCH  10  13
ENDBRANCH   7  10
TORSDOF 4
ENDMDL
MODEL       23
REMARK 921   NORMALIZED FREE ENERGY PREDICTED BY IDOCK:   -6.68 KCAL/MOL
REMARK 922        TOTAL FREE ENERGY PREDICTED BY IDOCK:   -8.98 KCAL/MOL
REMARK 923 INTER-LIGAND FREE ENERGY PREDICTED BY IDOCK:   -7.15 KCAL/MOL
REMARK 924 INTRA-LIGAND FREE ENERGY PREDICTED BY IDOCK:   -1.83 KCAL/MOL
REMARK 927      BINDING AFFINITY PREDICTED BY RF-SCORE:    0.00 PKD
ROOT
HETATM    1  N   UNL     1     -10.515   9.656  66.754  1.00  0.00    -0.214 NA 
HETATM    2  H2  UNL     1     -11.272   9.541  66.079  1.00  0.00     0.000 HD 
HETATM    3  C   UNL     1     -10.669  10.895  67.380  1.00  0.00    -0.257 A  
HETATM    4  H1  UNL     1      -9.637   9.418  66.294  1.00  0.00     0.000 HD 
HETATM    5  C   UNL     1     -11.873  11.220  68.011  1.00  0.00    -0.244 A  
HETATM    6  C   UNL     1     -12.013  12.415  68.723  1.00  0.00    -0.276 A  
HETATM    7  C   UNL     1     -10.916  13.269  68.847  1.00  0.00    -0.240 A  
HETATM    8  C   UNL     1      -9.684  12.926  68.284  1.00  0.00    -0.217 A  
HETATM    9  C   UNL     1      -9.561  11.727  67.572  1.00  0.00    -0.179 A  
ENDROOT
BRANCH   7  10
HETATM   10  S   UNL     1     -11.114  14.858  69.642  1.00  0.00    -0.279 S  
HETATM   11  O   UNL     1     -12.050  14.636  70.724  1.00  0.00    -0.281 OA 
HETATM   12  O   UNL     1      -9.782  15.351  69.921  1.00  0.00    -0.267 OA 
BRANCH  10  13
HETATM   13  N   UNL     1     -11.839  15.735  68.470  1.00  0.00    -0.469 N  
HETATM   14  H   UNL     1     -12.848  15.874  68.517  1.00  0.00     0.000 HD 
BRANCH  13  15
HETATM   15  C   UNL     1     -11.138  16.300  67.413  1.00  0.00    -0.095 A  
HETATM   16  C   UNL     1     -10.504  17.518  67.519  1.00  0.00    -0.355 A  
HETATM   17  C   UNL     1      -9.839  17.687  66.298  1.00  0.00    -0.288 A  
HETATM   18  N   UNL     1     -10.013  16.655  65.478  1.00  0.00    -0.573 NA 
HETATM   19  N   UNL     1     -10.845  15.796  66.139  1.00  0.00    -0.283 NA 
BRANCH  19  20
HETATM   20  C   UNL     1     -11.233  14.578  65.502  1.00  0.00    -0.335 A  
HETATM   21  C   UNL     1     -10.289  13.877  64.731  1.00  0.00    -0.419 A  
HETATM   22  C   UNL     1     -10.646  12.705  64.056  1.00  0.00    -0.457 A  
HETATM   23  C   UNL     1     -11.949  12.226  64.130  1.00  0.00    -0.518 A  
HETATM   24  C   UNL     1     -12.887  12.901  64.903  1.00  0.00    -0.370 A  
HETATM   25  C   UNL     1     -12.525  14.057  65.602  1.00  0.00    -0.531 A  
ENDBRANCH  19  20
ENDBRANCH  13  15
ENDBRANCH  10  13
ENDBRANCH   7  10
TORSDOF 4
ENDMDL
MODEL       24
REMARK 921   NORMALIZED FREE ENERGY PREDICTED BY IDOCK:   -6.62 KCAL/MOL
REMARK 922        TOTAL FREE ENERGY PREDICTED BY IDOCK:   -8.91 KCAL/MOL
REMARK 923 INTER-LIGAND FREE ENERGY PREDICTED BY IDOCK:   -8.13 KCAL/MOL
REMARK 924 INTRA-LIGAND FREE ENERGY PREDICTED BY IDOCK:   -0.78 KCAL/MOL
REMARK 927      BINDING AFFINITY PREDICTED BY RF-SCORE:    0.00 PKD
ROOT
HETATM    1  N   UNL     1     -11.783   7.799  73.003  1.00  0.00    -0.616 NA 
HETATM    2  H2  UNL     1     -12.663   7.288  72.936  1.00  0.00     0.000 HD 
HETATM    3  C   UNL     1     -11.772   8.786  72.015  1.00  0.00    -0.372 A  
HETATM    4  H1  UNL     1     -11.023   7.122  73.061  1.00  0.00     0.000 HD 
HETATM    5  C   UNL     1     -12.814   9.715  71.936  1.00  0.00    -0.515 A  
HETATM    6  C   UNL     1     -12.774  10.765  71.015  1.00  0.00    -0.513 A  
HETATM    7  C   UNL     1     -11.651  10.918  70.201  1.00  0.00    -0.338 A  
HETATM    8  C   UNL     1     -10.568  10.042  70.317  1.00  0.00    -0.354 A  
HETATM    9  C   UNL     1     -10.625   8.993  71.241  1.00  0.00    -0.378 A  
ENDROOT
BRANCH   7  10
HETATM   10  S   UNL     1     -11.640  12.177  68.932  1.00  0.00    -0.344 S  
HETATM   11  O   UNL     1     -12.239  11.560  67.768  1.00  0.00    -0.560 OA 
HETATM   12  O   UNL     1     -12.234  13.360  69.518  1.00  0.00    -0.286 OA 
BRANCH  10  13
HETATM   13  N   UNL     1     -10.040  12.383  68.673  1.00  0.00    -0.369 N  
HETATM   14  H   UNL     1      -9.396  11.662  68.998  1.00  0.00     0.000 HD 
BRANCH  13  15
HETATM   15  C   UNL     1      -9.520  13.499  68.032  1.00  0.00    -0.220 A  
HETATM   16  C   UNL     1      -8.655  14.370  68.658  1.00  0.00    -0.161 A  
HETATM   17  C   UNL     1      -8.285  15.286  67.666  1.00  0.00    -0.161 A  
HETATM   18  N   UNL     1      -8.849  15.020  66.492  1.00  0.00    -0.273 NA 
HETATM   19  N   UNL     1      -9.647  13.932  66.706  1.00  0.00    -0.273 NA 
BRANCH  19  20
HETATM   20  C   UNL     1     -10.406  13.403  65.618  1.00  0.00    -0.290 A  
HETATM   21  C   UNL     1     -11.567  14.078  65.199  1.00  0.00    -0.344 A  
HETATM   22  C   UNL     1     -12.360  13.565  64.169  1.00  0.00    -0.387 A  
HETATM   23  C   UNL     1     -12.014  12.368  63.551  1.00  0.00    -0.627 A  
HETATM   24  C   UNL     1     -10.861  11.700  63.944  1.00  0.00    -0.471 A  
HETATM   25  C   UNL     1     -10.050  12.226  64.955  1.00  0.00    -0.277 A  
ENDBRANCH  19  20
ENDBRANCH  13  15
ENDBRANCH  10  13
ENDBRANCH   7  10
TORSDOF 4
ENDMDL
MODEL       25
REMARK 921   NORMALIZED FREE ENERGY PREDICTED BY IDOCK:   -6.59 KCAL/MOL
REMARK 922        TOTAL FREE ENERGY PREDICTED BY IDOCK:   -8.87 KCAL/MOL
REMARK 923 INTER-LIGAND FREE ENERGY PREDICTED BY IDOCK:   -8.13 KCAL/MOL
REMARK 924 INTRA-LIGAND FREE ENERGY PREDICTED BY IDOCK:   -0.74 KCAL/MOL
REMARK 927      BINDING AFFINITY PREDICTED BY RF-SCORE:    0.00 PKD
ROOT
HETATM    1  N   UNL     1      -9.526  18.086  66.046  1.00  0.00    -0.523 NA 
HETATM    2  H2  UNL     1     -10.351  18.518  65.628  1.00  0.00     0.000 HD 
HETATM    3  C   UNL     1      -9.821  16.749  66.319  1.00  0.00    -0.309 A  
HETATM    4  H1  UNL     1      -9.185  18.699  66.786  1.00  0.00     0.000 HD 
HETATM    5  C   UNL     1     -10.289  15.909  65.305  1.00  0.00    -0.354 A  
HETATM    6  C   UNL     1     -10.500  14.547  65.538  1.00  0.00    -0.373 A  
HETATM    7  C   UNL     1     -10.188  14.011  66.788  1.00  0.00    -0.264 A  
HETATM    8  C   UNL     1      -9.650  14.821  67.792  1.00  0.00    -0.209 A  
HETATM    9  C   UNL     1      -9.448  16.184  67.544  1.00  0.00    -0.223 A  
ENDROOT
BRANCH   7  10
HETATM   10  S   UNL     1     -10.572  12.301  67.140  1.00  0.00    -0.229 S  
HETATM   11  O   UNL     1     -11.978  12.148  66.834  1.00  0.00    -0.603 OA 
HETATM   12  O   UNL     1      -9.583  11.503  66.445  1.00  0.00    -0.198 OA 
BRANCH  10  13
HETATM   13  N   UNL     1     -10.358  12.232  68.758  1.00  0.00    -0.373 N  
HETATM   14  H   UNL     1      -9.628  12.807  69.179  1.00  0.00     0.000 HD 
BRANCH  13  15
HETATM   15  C   UNL     1     -11.127  11.424  69.584  1.00  0.00    -0.174 A  
HETATM   16  C   UNL     1     -10.985  10.054  69.611  1.00  0.00    -0.301 A  
HETATM   17  C   UNL     1     -11.849   9.621  70.624  1.00  0.00    -0.256 A  
HETATM   18  N   UNL     1     -12.482  10.629  71.217  1.00  0.00    -0.390 NA 
HETATM   19  N   UNL     1     -12.074  11.756  70.562  1.00  0.00    -0.374 NA 
BRANCH  19  20
HETATM   20  C   UNL     1     -12.596  13.022  70.968  1.00  0.00    -0.299 A  
HETATM   21  C   UNL     1     -13.343  13.107  72.156  1.00  0.00    -0.621 A  
HETATM   22  C   UNL     1     -13.909  14.320  72.560  1.00  0.00    -0.575 A  
HETATM   23  C   UNL     1     -13.749  15.459  71.778  1.00  0.00    -0.610 A  
HETATM   24  C   UNL     1     -12.998  15.392  70.610  1.00  0.00    -0.450 A  
HETATM   25  C   UNL     1     -12.408  14.187  70.219  1.00  0.00    -0.421 A  
ENDBRANCH  19  20
ENDBRANCH  13  15
ENDBRANCH  10  13
ENDBRANCH   7  10
TORSDOF 4
ENDMDL
MODEL       26
REMARK 921   NORMALIZED FREE ENERGY PREDICTED BY IDOCK:   -6.59 KCAL/MOL
REMARK 922        TOTAL FREE ENERGY PREDICTED BY IDOCK:   -8.87 KCAL/MOL
REMARK 923 INTER-LIGAND FREE ENERGY PREDICTED BY IDOCK:   -7.90 KCAL/MOL
REMARK 924 INTRA-LIGAND FREE ENERGY PREDICTED BY IDOCK:   -0.96 KCAL/MOL
REMARK 927      BINDING AFFINITY PREDICTED BY RF-SCORE:    0.00 PKD
ROOT
HETATM    1  N   UNL     1     -13.615  16.003  73.882  1.00  0.00    -0.740 NA 
HETATM    2  H2  UNL     1     -13.731  17.013  73.960  1.00  0.00     0.000 HD 
HETATM    3  C   UNL     1     -13.086  15.718  72.621  1.00  0.00    -0.491 A  
HETATM    4  H1  UNL     1     -14.478  15.556  74.190  1.00  0.00     0.000 HD 
HETATM    5  C   UNL     1     -11.903  16.330  72.199  1.00  0.00    -0.585 A  
HETATM    6  C   UNL     1     -11.310  15.987  70.980  1.00  0.00    -0.423 A  
HETATM    7  C   UNL     1     -11.882  14.981  70.201  1.00  0.00    -0.314 A  
HETATM    8  C   UNL     1     -13.025  14.307  70.641  1.00  0.00    -0.318 A  
HETATM    9  C   UNL     1     -13.608  14.665  71.862  1.00  0.00    -0.483 A  
ENDROOT
BRANCH   7  10
HETATM   10  S   UNL     1     -11.210  14.621  68.584  1.00  0.00    -0.291 S  
HETATM   11  O   UNL     1     -12.290  14.004  67.843  1.00  0.00    -0.238 OA 
HETATM   12  O   UNL     1     -10.605  15.846  68.105  1.00  0.00    -0.261 OA 
BRANCH  10  13
HETATM   13  N   UNL     1     -10.077  13.496  68.930  1.00  0.00    -0.425 N  
HETATM   14  H   UNL     1      -9.456  13.657  69.723  1.00  0.00     0.000 HD 
BRANCH  13  15
HETATM   15  C   UNL     1      -9.924  12.331  68.191  1.00  0.00    -0.210 A  
HETATM   16  C   UNL     1      -9.265  12.310  66.982  1.00  0.00    -0.205 A  
HETATM   17  C   UNL     1      -9.235  10.960  66.611  1.00  0.00    -0.168 A  
HETATM   18  N   UNL     1      -9.810  10.172  67.514  1.00  0.00    -0.172 NA 
HETATM   19  N   UNL     1     -10.275  11.008  68.489  1.00  0.00    -0.184 NA 
BRANCH  19  20
HETATM   20  C   UNL     1     -10.962  10.452  69.611  1.00  0.00    -0.277 A  
HETATM   21  C   UNL     1     -12.271  10.881  69.895  1.00  0.00    -0.408 A  
HETATM   22  C   UNL     1     -12.957  10.394  71.011  1.00  0.00    -0.490 A  
HETATM   23  C   UNL     1     -12.343   9.483  71.865  1.00  0.00    -0.450 A  
HETATM   24  C   UNL     1     -11.056   9.038  71.586  1.00  0.00    -0.433 A  
HETATM   25  C   UNL     1     -10.379   9.503  70.454  1.00  0.00    -0.334 A  
ENDBRANCH  19  20
ENDBRANCH  13  15
ENDBRANCH  10  13
ENDBRANCH   7  10
TORSDOF 4
ENDMDL
MODEL       27
REMARK 921   NORMALIZED FREE ENERGY PREDICTED BY IDOCK:   -6.54 KCAL/MOL
REMARK 922        TOTAL FREE ENERGY PREDICTED BY IDOCK:   -8.80 KCAL/MOL
REMARK 923 INTER-LIGAND FREE ENERGY PREDICTED BY IDOCK:   -7.92 KCAL/MOL
REMARK 924 INTRA-LIGAND FREE ENERGY PREDICTED BY IDOCK:   -0.88 KCAL/MOL
REMARK 927      BINDING AFFINITY PREDICTED BY RF-SCORE:    0.00 PKD
ROOT
HETATM    1  N   UNL     1     -13.785  15.878  73.158  1.00  0.00    -0.689 NA 
HETATM    2  H2  UNL     1     -14.306  16.666  72.772  1.00  0.00     0.000 HD 
HETATM    3  C   UNL     1     -13.336  15.088  72.098  1.00  0.00    -0.387 A  
HETATM    4  H1  UNL     1     -14.337  15.466  73.909  1.00  0.00     0.000 HD 
HETATM    5  C   UNL     1     -12.579  15.654  71.068  1.00  0.00    -0.515 A  
HETATM    6  C   UNL     1     -12.042  14.861  70.050  1.00  0.00    -0.387 A  
HETATM    7  C   UNL     1     -12.223  13.478  70.093  1.00  0.00    -0.330 A  
HETATM    8  C   UNL     1     -12.915  12.887  71.153  1.00  0.00    -0.259 A  
HETATM    9  C   UNL     1     -13.449  13.695  72.164  1.00  0.00    -0.606 A  
ENDROOT
BRANCH   7  10
HETATM   10  S   UNL     1     -11.655  12.467  68.733  1.00  0.00    -0.345 S  
HETATM   11  O   UNL     1     -10.212  12.586  68.737  1.00  0.00    -0.188 OA 
HETATM   12  O   UNL     1     -12.279  11.170  68.892  1.00  0.00    -0.522 OA 
BRANCH  10  13
HETATM   13  N   UNL     1     -12.262  13.263  67.442  1.00  0.00    -0.263 N  
HETATM   14  H   UNL     1     -13.175  13.707  67.528  1.00  0.00     0.000 HD 
BRANCH  13  15
HETATM   15  C   UNL     1     -11.586  13.359  66.233  1.00  0.00    -0.344 A  
HETATM   16  C   UNL     1     -11.794  12.469  65.203  1.00  0.00    -0.450 A  
HETATM   17  C   UNL     1     -11.020  12.956  64.143  1.00  0.00    -0.408 A  
HETATM   18  N   UNL     1     -10.379  14.078  64.455  1.00  0.00    -0.332 NA 
HETATM   19  N   UNL     1     -10.691  14.328  65.762  1.00  0.00    -0.295 NA 
BRANCH  19  20
HETATM   20  C   UNL     1     -10.137  15.479  66.400  1.00  0.00    -0.288 A  
HETATM   21  C   UNL     1     -10.408  16.754  65.871  1.00  0.00    -0.341 A  
HETATM   22  C   UNL     1      -9.846  17.899  66.441  1.00  0.00    -0.339 A  
HETATM   23  C   UNL     1      -8.996  17.789  67.537  1.00  0.00    -0.244 A  
HETATM   24  C   UNL     1      -8.733  16.536  68.079  1.00  0.00    -0.189 A  
HETATM   25  C   UNL     1      -9.317  15.392  67.528  1.00  0.00    -0.204 A  
ENDBRANCH  19  20
ENDBRANCH  13  15
ENDBRANCH  10  13
ENDBRANCH   7  10
TORSDOF 4
ENDMDL
MODEL       28
REMARK 921   NORMALIZED FREE ENERGY PREDICTED BY IDOCK:   -6.53 KCAL/MOL
REMARK 922        TOTAL FREE ENERGY PREDICTED BY IDOCK:   -8.79 KCAL/MOL
REMARK 923 INTER-LIGAND FREE ENERGY PREDICTED BY IDOCK:   -9.05 KCAL/MOL
REMARK 924 INTRA-LIGAND FREE ENERGY PREDICTED BY IDOCK:    0.26 KCAL/MOL
REMARK 927      BINDING AFFINITY PREDICTED BY RF-SCORE:    0.00 PKD
ROOT
HETATM    1  N   UNL     1      -9.068   9.293  63.844  1.00  0.00    -0.422 NA 
HETATM    2  H2  UNL     1      -8.224   9.581  63.349  1.00  0.00     0.000 HD 
HETATM    3  C   UNL     1      -9.723  10.439  64.299  1.00  0.00    -0.326 A  
HETATM    4  H1  UNL     1      -8.819   8.549  64.496  1.00  0.00     0.000 HD 
HETATM    5  C   UNL     1     -10.064  11.458  63.404  1.00  0.00    -0.444 A  
HETATM    6  C   UNL     1     -10.802  12.568  63.825  1.00  0.00    -0.489 A  
HETATM    7  C   UNL     1     -11.248  12.632  65.146  1.00  0.00    -0.301 A  
HETATM    8  C   UNL     1     -10.978  11.588  66.035  1.00  0.00    -0.316 A  
HETATM    9  C   UNL     1     -10.235  10.485  65.600  1.00  0.00    -0.315 A  
ENDROOT
BRANCH   7  10
HETATM   10  S   UNL     1     -12.080  14.102  65.730  1.00  0.00    -0.423 S  
HETATM   11  O   UNL     1     -11.299  15.214  65.232  1.00  0.00    -0.349 OA 
HETATM   12  O   UNL     1     -13.473  13.965  65.359  1.00  0.00    -0.672 OA 
BRANCH  10  13
HETATM   13  N   UNL     1     -11.882  13.982  67.348  1.00  0.00    -0.389 N  
HETATM   14  H   UNL     1     -12.141  13.110  67.808  1.00  0.00     0.000 HD 
BRANCH  13  15
HETATM   15  C   UNL     1     -11.378  15.018  68.122  1.00  0.00    -0.330 A  
HETATM   16  C   UNL     1     -10.555  15.992  67.600  1.00  0.00    -0.309 A  
HETATM   17  C   UNL     1     -10.351  16.894  68.651  1.00  0.00    -0.332 A  
HETATM   18  N   UNL     1     -11.003  16.543  69.756  1.00  0.00    -0.338 NA 
HETATM   19  N   UNL     1     -11.621  15.361  69.458  1.00  0.00    -0.308 NA 
BRANCH  19  20
HETATM   20  C   UNL     1     -12.404  14.716  70.463  1.00  0.00    -0.337 A  
HETATM   21  C   UNL     1     -12.276  13.327  70.645  1.00  0.00    -0.417 A  
HETATM   22  C   UNL     1     -13.060  12.654  71.586  1.00  0.00    -0.421 A  
HETATM   23  C   UNL     1     -13.990  13.353  72.348  1.00  0.00    -0.605 A  
HETATM   24  C   UNL     1     -14.115  14.728  72.189  1.00  0.00    -0.604 A  
HETATM   25  C   UNL     1     -13.311  15.408  71.268  1.00  0.00    -0.598 A  
ENDBRANCH  19  20
ENDBRANCH  13  15
ENDBRANCH  10  13
ENDBRANCH   7  10
TORSDOF 4
ENDMDL
MODEL       29
REMARK 921   NORMALIZED FREE ENERGY PREDICTED BY IDOCK:   -6.52 KCAL/MOL
REMARK 922        TOTAL FREE ENERGY PREDICTED BY IDOCK:   -8.77 KCAL/MOL
REMARK 923 INTER-LIGAND FREE ENERGY PREDICTED BY IDOCK:   -7.50 KCAL/MOL
REMARK 924 INTRA-LIGAND FREE ENERGY PREDICTED BY IDOCK:   -1.28 KCAL/MOL
REMARK 927      BINDING AFFINITY PREDICTED BY RF-SCORE:    0.00 PKD
ROOT
HETATM    1  N   UNL     1     -13.716  15.485  71.288  1.00  0.00    -0.629 NA 
HETATM    2  H2  UNL     1     -13.513  15.717  72.261  1.00  0.00     0.000 HD 
HETATM    3  C   UNL     1     -13.086  14.276  70.985  1.00  0.00    -0.328 A  
HETATM    4  H1  UNL     1     -13.542  16.312  70.719  1.00  0.00     0.000 HD 
HETATM    5  C   UNL     1     -13.326  13.141  71.765  1.00  0.00    -0.477 A  
HETATM    6  C   UNL     1     -12.778  11.902  71.421  1.00  0.00    -0.395 A  
HETATM    7  C   UNL     1     -12.026  11.788  70.252  1.00  0.00    -0.343 A  
HETATM    8  C   UNL     1     -11.837  12.896  69.421  1.00  0.00    -0.371 A  
HETATM    9  C   UNL     1     -12.388  14.131  69.781  1.00  0.00    -0.350 A  
ENDROOT
BRANCH   7  10
HETATM   10  S   UNL     1     -11.214  10.243  69.867  1.00  0.00    -0.318 S  
HETATM   11  O   UNL     1      -9.796  10.519  69.944  1.00  0.00    -0.107 OA 
HETATM   12  O   UNL     1     -11.808   9.238  70.723  1.00  0.00    -0.281 OA 
BRANCH  10  13
HETATM   13  N   UNL     1     -11.639  10.017  68.305  1.00  0.00    -0.483 N  
HETATM   14  H   UNL     1     -12.630   9.970  68.070  1.00  0.00     0.000 HD 
BRANCH  13  15
HETATM   15  C   UNL     1     -10.707   9.886  67.285  1.00  0.00    -0.238 A  
HETATM   16  C   UNL     1     -10.053   8.699  67.036  1.00  0.00    -0.342 A  
HETATM   17  C   UNL     1      -9.290   8.942  65.887  1.00  0.00    -0.236 A  
HETATM   18  N   UNL     1      -9.452  10.176  65.421  1.00  0.00    -0.217 NA 
HETATM   19  N   UNL     1     -10.303  10.791  66.295  1.00  0.00    -0.248 NA 
BRANCH  19  20
HETATM   20  C   UNL     1     -10.668  12.153  66.067  1.00  0.00    -0.273 A  
HETATM   21  C   UNL     1      -9.729  13.167  66.327  1.00  0.00    -0.269 A  
HETATM   22  C   UNL     1     -10.066  14.513  66.160  1.00  0.00    -0.319 A  
HETATM   23  C   UNL     1     -11.345  14.866  65.745  1.00  0.00    -0.314 A  
HETATM   24  C   UNL     1     -12.277  13.873  65.468  1.00  0.00    -0.467 A  
HETATM   25  C   UNL     1     -11.933  12.524  65.607  1.00  0.00    -0.492 A  
ENDBRANCH  19  20
ENDBRANCH  13  15
ENDBRANCH  10  13
ENDBRANCH   7  10
TORSDOF 4
ENDMDL
MODEL       30
REMARK 921   NORMALIZED FREE ENERGY PREDICTED BY IDOCK:   -6.50 KCAL/MOL
REMARK 922        TOTAL FREE ENERGY PREDICTED BY IDOCK:   -8.76 KCAL/MOL
REMARK 923 INTER-LIGAND FREE ENERGY PREDICTED BY IDOCK:   -8.01 KCAL/MOL
REMARK 924 INTRA-LIGAND FREE ENERGY PREDICTED BY IDOCK:   -0.75 KCAL/MOL
REMARK 927      BINDING AFFINITY PREDICTED BY RF-SCORE:    0.00 PKD
ROOT
HETATM    1  N   UNL     1      -7.783  21.319  67.036  1.00  0.00    -0.741 NA 
HETATM    2  H2  UNL     1      -8.172  22.066  67.611  1.00  0.00     0.000 HD 
HETATM    3  C   UNL     1      -8.363  20.112  67.432  1.00  0.00    -0.338 A  
HETATM    4  H1  UNL     1      -6.768  21.421  67.021  1.00  0.00     0.000 HD 
HETATM    5  C   UNL     1      -9.753  19.971  67.452  1.00  0.00    -0.550 A  
HETATM    6  C   UNL     1     -10.349  18.743  67.756  1.00  0.00    -0.467 A  
HETATM    7  C   UNL     1      -9.539  17.631  67.990  1.00  0.00    -0.289 A  
HETATM    8  C   UNL     1      -8.149  17.736  67.903  1.00  0.00    -0.235 A  
HETATM    9  C   UNL     1      -7.568  18.973  67.602  1.00  0.00    -0.261 A  
ENDROOT
BRANCH   7  10
HETATM   10  S   UNL     1     -10.281  16.088  68.505  1.00  0.00    -0.246 S  
HETATM   11  O   UNL     1      -9.531  15.666  69.668  1.00  0.00    -0.282 OA 
HETATM   12  O   UNL     1     -11.706  16.326  68.603  1.00  0.00    -0.314 OA 
BRANCH  10  13
HETATM   13  N   UNL     1      -9.929  15.107  67.247  1.00  0.00    -0.229 N  
HETATM   14  H   UNL     1      -8.951  14.979  66.985  1.00  0.00     0.000 HD 
BRANCH  13  15
HETATM   15  C   UNL     1     -10.904  14.440  66.518  1.00  0.00    -0.310 A  
HETATM   16  C   UNL     1     -11.289  14.848  65.260  1.00  0.00    -0.358 A  
HETATM   17  C   UNL     1     -12.200  13.877  64.828  1.00  0.00    -0.415 A  
HETATM   18  N   UNL     1     -12.375  12.910  65.724  1.00  0.00    -0.550 NA 
HETATM   19  N   UNL     1     -11.604  13.258  66.796  1.00  0.00    -0.346 NA 
BRANCH  19  20
HETATM   20  C   UNL     1     -11.587  12.410  67.945  1.00  0.00    -0.356 A  
HETATM   21  C   UNL     1     -11.225  11.059  67.794  1.00  0.00    -0.374 A  
HETATM   22  C   UNL     1     -11.242  10.188  68.888  1.00  0.00    -0.220 A  
HETATM   23  C   UNL     1     -11.633  10.648  70.141  1.00  0.00    -0.414 A  
HETATM   24  C   UNL     1     -11.977  11.984  70.306  1.00  0.00    -0.398 A  
HETATM   25  C   UNL     1     -11.933  12.864  69.220  1.00  0.00    -0.313 A  
ENDBRANCH  19  20
ENDBRANCH  13  15
ENDBRANCH  10  13
ENDBRANCH   7  10
TORSDOF 4
ENDMDL
MODEL       31
REMARK 921   NORMALIZED FREE ENERGY PREDICTED BY IDOCK:   -6.50 KCAL/MOL
REMARK 922        TOTAL FREE ENERGY PREDICTED BY IDOCK:   -8.75 KCAL/MOL
REMARK 923 INTER-LIGAND FREE ENERGY PREDICTED BY IDOCK:   -8.65 KCAL/MOL
REMARK 924 INTRA-LIGAND FREE ENERGY PREDICTED BY IDOCK:   -0.10 KCAL/MOL
REMARK 927      BINDING AFFINITY PREDICTED BY RF-SCORE:    0.00 PKD
ROOT
HETATM    1  N   UNL     1      -9.013   9.068  64.403  1.00  0.00    -0.424 NA 
HETATM    2  H2  UNL     1      -8.159   9.245  63.875  1.00  0.00     0.000 HD 
HETATM    3  C   UNL     1      -9.713  10.270  64.523  1.00  0.00    -0.329 A  
HETATM    4  H1  UNL     1      -8.771   8.529  65.234  1.00  0.00     0.000 HD 
HETATM    5  C   UNL     1     -10.046  11.008  63.383  1.00  0.00    -0.424 A  
HETATM    6  C   UNL     1     -10.826  12.164  63.477  1.00  0.00    -0.518 A  
HETATM    7  C   UNL     1     -11.323  12.554  64.721  1.00  0.00    -0.313 A  
HETATM    8  C   UNL     1     -11.061  11.789  65.860  1.00  0.00    -0.355 A  
HETATM    9  C   UNL     1     -10.275  10.636  65.751  1.00  0.00    -0.317 A  
ENDROOT
BRANCH   7  10
HETATM   10  S   UNL     1     -12.213  14.097  64.875  1.00  0.00    -0.438 S  
HETATM   11  O   UNL     1     -12.384  14.584  63.523  1.00  0.00    -0.648 OA 
HETATM   12  O   UNL     1     -13.369  13.827  65.705  1.00  0.00    -0.561 OA 
BRANCH  10  13
HETATM   13  N   UNL     1     -11.128  15.037  65.657  1.00  0.00    -0.344 N  
HETATM   14  H   UNL     1     -10.322  15.385  65.139  1.00  0.00     0.000 HD 
BRANCH  13  15
HETATM   15  C   UNL     1     -11.259  15.380  66.995  1.00  0.00    -0.229 A  
HETATM   16  C   UNL     1     -11.860  14.547  67.913  1.00  0.00    -0.370 A  
HETATM   17  C   UNL     1     -11.705  15.194  69.145  1.00  0.00    -0.325 A  
HETATM   18  N   UNL     1     -11.042  16.341  69.037  1.00  0.00    -0.325 NA 
HETATM   19  N   UNL     1     -10.784  16.492  67.703  1.00  0.00    -0.329 NA 
BRANCH  19  20
HETATM   20  C   UNL     1     -10.082  17.654  67.260  1.00  0.00    -0.331 A  
HETATM   21  C   UNL     1     -10.762  18.883  67.192  1.00  0.00    -0.506 A  
HETATM   22  C   UNL     1     -10.120  20.030  66.719  1.00  0.00    -0.607 A  
HETATM   23  C   UNL     1      -8.796  19.966  66.295  1.00  0.00    -0.402 A  
HETATM   24  C   UNL     1      -8.108  18.761  66.372  1.00  0.00    -0.296 A  
HETATM   25  C   UNL     1      -8.740  17.618  66.872  1.00  0.00    -0.262 A  
ENDBRANCH  19  20
ENDBRANCH  13  15
ENDBRANCH  10  13
ENDBRANCH   7  10
TORSDOF 4
ENDMDL
MODEL       32
REMARK 921   NORMALIZED FREE ENERGY PREDICTED BY IDOCK:   -6.50 KCAL/MOL
REMARK 922        TOTAL FREE ENERGY PREDICTED BY IDOCK:   -8.75 KCAL/MOL
REMARK 923 INTER-LIGAND FREE ENERGY PREDICTED BY IDOCK:   -7.91 KCAL/MOL
REMARK 924 INTRA-LIGAND FREE ENERGY PREDICTED BY IDOCK:   -0.84 KCAL/MOL
REMARK 927      BINDING AFFINITY PREDICTED BY RF-SCORE:    0.00 PKD
ROOT
HETATM    1  N   UNL     1     -13.951  15.838  72.835  1.00  0.00    -0.611 NA 
HETATM    2  H2  UNL     1     -13.777  15.695  73.830  1.00  0.00     0.000 HD 
HETATM    3  C   UNL     1     -13.345  14.796  72.129  1.00  0.00    -0.374 A  
HETATM    4  H1  UNL     1     -13.733  16.808  72.607  1.00  0.00     0.000 HD 
HETATM    5  C   UNL     1     -13.645  13.467  72.441  1.00  0.00    -0.708 A  
HETATM    6  C   UNL     1     -13.120  12.415  71.684  1.00  0.00    -0.408 A  
HETATM    7  C   UNL     1     -12.330  12.701  70.571  1.00  0.00    -0.268 A  
HETATM    8  C   UNL     1     -12.080  14.025  70.201  1.00  0.00    -0.419 A  
HETATM    9  C   UNL     1     -12.609  15.068  70.971  1.00  0.00    -0.416 A  
ENDROOT
BRANCH   7  10
HETATM   10  S   UNL     1     -11.549  11.368  69.672  1.00  0.00    -0.349 S  
HETATM   11  O   UNL     1     -11.257  10.351  70.660  1.00  0.00    -0.319 OA 
HETATM   12  O   UNL     1     -12.410  11.066  68.547  1.00  0.00    -0.536 OA 
BRANCH  10  13
HETATM   13  N   UNL     1     -10.154  12.063  69.180  1.00  0.00    -0.411 N  
HETATM   14  H   UNL     1      -9.799  12.865  69.699  1.00  0.00     0.000 HD 
BRANCH  13  15
HETATM   15  C   UNL     1      -9.432  11.606  68.086  1.00  0.00    -0.191 A  
HETATM   16  C   UNL     1      -8.466  10.631  68.198  1.00  0.00    -0.122 A  
HETATM   17  C   UNL     1      -8.051  10.381  66.884  1.00  0.00    -0.118 A  
HETATM   18  N   UNL     1      -8.708  11.119  65.994  1.00  0.00    -0.189 NA 
HETATM   19  N   UNL     1      -9.548  11.912  66.724  1.00  0.00    -0.199 NA 
BRANCH  19  20
HETATM   20  C   UNL     1     -10.393  12.840  66.042  1.00  0.00    -0.276 A  
HETATM   21  C   UNL     1     -10.007  14.190  65.962  1.00  0.00    -0.340 A  
HETATM   22  C   UNL     1     -10.831  15.134  65.343  1.00  0.00    -0.393 A  
HETATM   23  C   UNL     1     -12.055  14.748  64.807  1.00  0.00    -0.387 A  
HETATM   24  C   UNL     1     -12.441  13.414  64.865  1.00  0.00    -0.447 A  
HETATM   25  C   UNL     1     -11.606  12.463  65.458  1.00  0.00    -0.432 A  
ENDBRANCH  19  20
ENDBRANCH  13  15
ENDBRANCH  10  13
ENDBRANCH   7  10
TORSDOF 4
ENDMDL
MODEL       33
REMARK 921   NORMALIZED FREE ENERGY PREDICTED BY IDOCK:   -6.48 KCAL/MOL
REMARK 922        TOTAL FREE ENERGY PREDICTED BY IDOCK:   -8.73 KCAL/MOL
REMARK 923 INTER-LIGAND FREE ENERGY PREDICTED BY IDOCK:   -8.09 KCAL/MOL
REMARK 924 INTRA-LIGAND FREE ENERGY PREDICTED BY IDOCK:   -0.64 KCAL/MOL
REMARK 927      BINDING AFFINITY PREDICTED BY RF-SCORE:    0.00 PKD
ROOT
HETATM    1  N   UNL     1     -14.186   8.762  73.222  1.00  0.00    -1.147 NA 
HETATM    2  H2  UNL     1     -15.150   9.040  73.035  1.00  0.00     0.000 HD 
HETATM    3  C   UNL     1     -13.378   9.259  72.197  1.00  0.00    -0.468 A  
HETATM    4  H1  UNL     1     -14.177   7.768  73.447  1.00  0.00     0.000 HD 
HETATM    5  C   UNL     1     -13.391  10.623  71.889  1.00  0.00    -0.454 A  
HETATM    6  C   UNL     1     -12.521  11.151  70.930  1.00  0.00    -0.509 A  
HETATM    7  C   UNL     1     -11.593  10.313  70.312  1.00  0.00    -0.316 A  
HETATM    8  C   UNL     1     -11.518   8.961  70.660  1.00  0.00    -0.280 A  
HETATM    9  C   UNL     1     -12.397   8.446  71.619  1.00  0.00    -0.359 A  
ENDROOT
BRANCH   7  10
HETATM   10  S   UNL     1     -10.565  10.947  68.995  1.00  0.00    -0.225 S  
HETATM   11  O   UNL     1     -10.902  12.349  68.880  1.00  0.00    -0.230 OA 
HETATM   12  O   UNL     1      -9.207  10.547  69.301  1.00  0.00    -0.191 OA 
BRANCH  10  13
HETATM   13  N   UNL     1     -11.142  10.141  67.696  1.00  0.00    -0.400 N  
HETATM   14  H   UNL     1     -12.096   9.781  67.729  1.00  0.00     0.000 HD 
BRANCH  13  15
HETATM   15  C   UNL     1     -10.389   9.924  66.551  1.00  0.00    -0.188 A  
HETATM   16  C   UNL     1      -9.637   8.784  66.370  1.00  0.00    -0.316 A  
HETATM   17  C   UNL     1      -9.120   8.894  65.074  1.00  0.00    -0.050 A  
HETATM   18  N   UNL     1      -9.519  10.003  64.460  1.00  0.00    -0.290 NA 
HETATM   19  N   UNL     1     -10.282  10.675  65.373  1.00  0.00    -0.281 NA 
BRANCH  19  20
HETATM   20  C   UNL     1     -10.856  11.931  65.008  1.00  0.00    -0.300 A  
HETATM   21  C   UNL     1     -11.739  11.990  63.915  1.00  0.00    -0.537 A  
HETATM   22  C   UNL     1     -12.284  13.209  63.501  1.00  0.00    -0.552 A  
HETATM   23  C   UNL     1     -11.945  14.386  64.162  1.00  0.00    -0.373 A  
HETATM   24  C   UNL     1     -11.087  14.338  65.254  1.00  0.00    -0.335 A  
HETATM   25  C   UNL     1     -10.563  13.116  65.687  1.00  0.00    -0.289 A  
ENDBRANCH  19  20
ENDBRANCH  13  15
ENDBRANCH  10  13
ENDBRANCH   7  10
TORSDOF 4
ENDMDL
MODEL       34
REMARK 921   NORMALIZED FREE ENERGY PREDICTED BY IDOCK:   -6.45 KCAL/MOL
REMARK 922        TOTAL FREE ENERGY PREDICTED BY IDOCK:   -8.69 KCAL/MOL
REMARK 923 INTER-LIGAND FREE ENERGY PREDICTED BY IDOCK:   -7.80 KCAL/MOL
REMARK 924 INTRA-LIGAND FREE ENERGY PREDICTED BY IDOCK:   -0.90 KCAL/MOL
REMARK 927      BINDING AFFINITY PREDICTED BY RF-SCORE:    0.00 PKD
ROOT
HETATM    1  N   UNL     1     -10.279  10.884  62.583  1.00  0.00    -0.754 NA 
HETATM    2  H2  UNL     1     -10.006  11.739  62.099  1.00  0.00     0.000 HD 
HETATM    3  C   UNL     1     -10.511  11.194  63.925  1.00  0.00    -0.381 A  
HETATM    4  H1  UNL     1      -9.618  10.149  62.332  1.00  0.00     0.000 HD 
HETATM    5  C   UNL     1     -11.416  12.202  64.269  1.00  0.00    -0.437 A  
HETATM    6  C   UNL     1     -11.731  12.461  65.606  1.00  0.00    -0.468 A  
HETATM    7  C   UNL     1     -11.170  11.666  66.606  1.00  0.00    -0.299 A  
HETATM    8  C   UNL     1     -10.319  10.608  66.277  1.00  0.00    -0.296 A  
HETATM    9  C   UNL     1     -10.012  10.363  64.934  1.00  0.00    -0.409 A  
ENDROOT
BRANCH   7  10
HETATM   10  S   UNL     1     -11.461  12.067  68.324  1.00  0.00    -0.326 S  
HETATM   11  O   UNL     1     -12.400  11.075  68.801  1.00  0.00    -0.533 OA 
HETATM   12  O   UNL     1     -10.159  12.197  68.945  1.00  0.00    -0.130 OA 
BRANCH  10  13
HETATM   13  N   UNL     1     -12.211  13.514  68.212  1.00  0.00    -0.313 N  
HETATM   14  H   UNL     1     -12.836  13.681  67.423  1.00  0.00     0.000 HD 
BRANCH  13  15
HETATM   15  C   UNL     1     -12.033  14.527  69.144  1.00  0.00    -0.309 A  
HETATM   16  C   UNL     1     -12.688  14.533  70.357  1.00  0.00    -0.378 A  
HETATM   17  C   UNL     1     -12.174  15.641  71.040  1.00  0.00    -0.412 A  
HETATM   18  N   UNL     1     -11.250  16.288  70.336  1.00  0.00    -0.375 NA 
HETATM   19  N   UNL     1     -11.171  15.631  69.141  1.00  0.00    -0.291 NA 
BRANCH  19  20
HETATM   20  C   UNL     1     -10.258  16.102  68.149  1.00  0.00    -0.247 A  
HETATM   21  C   UNL     1     -10.428  17.392  67.617  1.00  0.00    -0.368 A  
HETATM   22  C   UNL     1      -9.582  17.869  66.611  1.00  0.00    -0.311 A  
HETATM   23  C   UNL     1      -8.564  17.061  66.114  1.00  0.00    -0.252 A  
HETATM   24  C   UNL     1      -8.375  15.790  66.643  1.00  0.00    -0.319 A  
HETATM   25  C   UNL     1      -9.203  15.322  67.669  1.00  0.00    -0.187 A  
ENDBRANCH  19  20
ENDBRANCH  13  15
ENDBRANCH  10  13
ENDBRANCH   7  10
TORSDOF 4
ENDMDL
MODEL       35
REMARK 921   NORMALIZED FREE ENERGY PREDICTED BY IDOCK:   -6.44 KCAL/MOL
REMARK 922        TOTAL FREE ENERGY PREDICTED BY IDOCK:   -8.68 KCAL/MOL
REMARK 923 INTER-LIGAND FREE ENERGY PREDICTED BY IDOCK:   -7.87 KCAL/MOL
REMARK 924 INTRA-LIGAND FREE ENERGY PREDICTED BY IDOCK:   -0.82 KCAL/MOL
REMARK 927      BINDING AFFINITY PREDICTED BY RF-SCORE:    0.00 PKD
ROOT
HETATM    1  N   UNL     1     -11.483  16.246  63.849  1.00  0.00    -1.539 NA 
HETATM    2  H2  UNL     1     -12.426  16.390  63.488  1.00  0.00     0.000 HD 
HETATM    3  C   UNL     1     -11.563  15.403  64.960  1.00  0.00    -0.189 A  
HETATM    4  H1  UNL     1     -11.027  17.155  63.925  1.00  0.00     0.000 HD 
HETATM    5  C   UNL     1     -12.188  14.158  64.856  1.00  0.00    -0.451 A  
HETATM    6  C   UNL     1     -12.195  13.264  65.930  1.00  0.00    -0.497 A  
HETATM    7  C   UNL     1     -11.520  13.601  67.104  1.00  0.00    -0.342 A  
HETATM    8  C   UNL     1     -10.828  14.811  67.201  1.00  0.00    -0.311 A  
HETATM    9  C   UNL     1     -10.834  15.697  66.117  1.00  0.00    -0.264 A  
ENDROOT
BRANCH   7  10
HETATM   10  S   UNL     1     -11.628  12.526  68.528  1.00  0.00    -0.341 S  
HETATM   11  O   UNL     1     -12.240  13.322  69.571  1.00  0.00    -0.269 OA 
HETATM   12  O   UNL     1     -12.261  11.304  68.078  1.00  0.00    -0.621 OA 
BRANCH  10  13
HETATM   13  N   UNL     1     -10.053  12.280  68.887  1.00  0.00    -0.427 N  
HETATM   14  H   UNL     1      -9.582  12.946  69.499  1.00  0.00     0.000 HD 
BRANCH  13  15
HETATM   15  C   UNL     1      -9.329  11.203  68.394  1.00  0.00    -0.185 A  
HETATM   16  C   UNL     1      -8.628  11.270  67.209  1.00  0.00    -0.143 A  
HETATM   17  C   UNL     1      -7.963  10.042  67.115  1.00  0.00    -0.109 A  
HETATM   18  N   UNL     1      -8.197   9.254  68.160  1.00  0.00    -0.118 NA 
HETATM   19  N   UNL     1      -9.072   9.944  68.951  1.00  0.00    -0.149 NA 
BRANCH  19  20
HETATM   20  C   UNL     1      -9.530   9.346  70.164  1.00  0.00    -0.240 A  
HETATM   21  C   UNL     1     -10.912   9.220  70.387  1.00  0.00    -0.302 A  
HETATM   22  C   UNL     1     -11.398   8.682  71.583  1.00  0.00    -0.377 A  
HETATM   23  C   UNL     1     -10.512   8.277  72.577  1.00  0.00    -0.406 A  
HETATM   24  C   UNL     1      -9.143   8.382  72.362  1.00  0.00    -0.326 A  
HETATM   25  C   UNL     1      -8.655   8.892  71.155  1.00  0.00    -0.263 A  
ENDBRANCH  19  20
ENDBRANCH  13  15
ENDBRANCH  10  13
ENDBRANCH   7  10
TORSDOF 4
ENDMDL
MODEL       36
REMARK 921   NORMALIZED FREE ENERGY PREDICTED BY IDOCK:   -6.40 KCAL/MOL
REMARK 922        TOTAL FREE ENERGY PREDICTED BY IDOCK:   -8.63 KCAL/MOL
REMARK 923 INTER-LIGAND FREE ENERGY PREDICTED BY IDOCK:   -7.82 KCAL/MOL
REMARK 924 INTRA-LIGAND FREE ENERGY PREDICTED BY IDOCK:   -0.81 KCAL/MOL
REMARK 927      BINDING AFFINITY PREDICTED BY RF-SCORE:    0.00 PKD
ROOT
HETATM    1  N   UNL     1     -13.397  10.322  72.396  1.00  0.00    -0.573 NA 
HETATM    2  H2  UNL     1     -12.683   9.611  72.558  1.00  0.00     0.000 HD 
HETATM    3  C   UNL     1     -12.835  11.341  71.623  1.00  0.00    -0.405 A  
HETATM    4  H1  UNL     1     -13.842  10.539  73.288  1.00  0.00     0.000 HD 
HETATM    5  C   UNL     1     -12.226  11.043  70.401  1.00  0.00    -0.461 A  
HETATM    6  C   UNL     1     -11.742  12.059  69.572  1.00  0.00    -0.408 A  
HETATM    7  C   UNL     1     -11.919  13.391  69.948  1.00  0.00    -0.338 A  
HETATM    8  C   UNL     1     -12.590  13.709  71.132  1.00  0.00    -0.452 A  
HETATM    9  C   UNL     1     -13.066  12.680  71.953  1.00  0.00    -0.470 A  
ENDROOT
BRANCH   7  10
HETATM   10  S   UNL     1     -11.194  14.695  68.964  1.00  0.00    -0.284 S  
HETATM   11  O   UNL     1     -10.767  14.061  67.734  1.00  0.00    -0.240 OA 
HETATM   12  O   UNL     1     -12.159  15.774  68.930  1.00  0.00    -0.333 OA 
BRANCH  10  13
HETATM   13  N   UNL     1      -9.882  15.099  69.850  1.00  0.00    -0.476 N  
HETATM   14  H   UNL     1      -9.946  15.052  70.867  1.00  0.00     0.000 HD 
BRANCH  13  15
HETATM   15  C   UNL     1      -8.685  15.506  69.277  1.00  0.00    -0.260 A  
HETATM   16  C   UNL     1      -7.527  14.768  69.395  1.00  0.00    -0.147 A  
HETATM   17  C   UNL     1      -6.587  15.446  68.609  1.00  0.00    -0.098 A  
HETATM   18  N   UNL     1      -7.098  16.521  68.018  1.00  0.00    -0.140 NA 
HETATM   19  N   UNL     1      -8.393  16.595  68.447  1.00  0.00    -0.199 NA 
BRANCH  19  20
HETATM   20  C   UNL     1      -9.216  17.668  67.987  1.00  0.00    -0.271 A  
HETATM   21  C   UNL     1      -9.720  17.633  66.674  1.00  0.00    -0.304 A  
HETATM   22  C   UNL     1     -10.490  18.687  66.175  1.00  0.00    -0.473 A  
HETATM   23  C   UNL     1     -10.757  19.795  66.972  1.00  0.00    -0.542 A  
HETATM   24  C   UNL     1     -10.279  19.835  68.277  1.00  0.00    -0.569 A  
HETATM   25  C   UNL     1      -9.532  18.769  68.788  1.00  0.00    -0.380 A  
ENDBRANCH  19  20
ENDBRANCH  13  15
ENDBRANCH  10  13
ENDBRANCH   7  10
TORSDOF 4
ENDMDL
MODEL       37
REMARK 921   NORMALIZED FREE ENERGY PREDICTED BY IDOCK:   -6.39 KCAL/MOL
REMARK 922        TOTAL FREE ENERGY PREDICTED BY IDOCK:   -8.62 KCAL/MOL
REMARK 923 INTER-LIGAND FREE ENERGY PREDICTED BY IDOCK:   -7.88 KCAL/MOL
REMARK 924 INTRA-LIGAND FREE ENERGY PREDICTED BY IDOCK:   -0.74 KCAL/MOL
REMARK 927      BINDING AFFINITY PREDICTED BY RF-SCORE:    0.00 PKD
ROOT
HETATM    1  N   UNL     1      -8.637   6.664  71.536  1.00  0.00    -0.124 NA 
HETATM    2  H2  UNL     1      -9.239   5.842  71.592  1.00  0.00     0.000 HD 
HETATM    3  C   UNL     1      -9.414   7.751  71.131  1.00  0.00    -0.154 A  
HETATM    4  H1  UNL     1      -7.797   6.410  71.016  1.00  0.00     0.000 HD 
HETATM    5  C   UNL     1     -10.565   8.099  71.843  1.00  0.00    -0.324 A  
HETATM    6  C   UNL     1     -11.302   9.238  71.509  1.00  0.00    -0.455 A  
HETATM    7  C   UNL     1     -10.849  10.068  70.482  1.00  0.00    -0.314 A  
HETATM    8  C   UNL     1      -9.661   9.776  69.807  1.00  0.00    -0.256 A  
HETATM    9  C   UNL     1      -8.937   8.629  70.151  1.00  0.00    -0.157 A  
ENDROOT
BRANCH   7  10
HETATM   10  S   UNL     1     -11.847  11.456  69.959  1.00  0.00    -0.370 S  
HETATM   11  O   UNL     1     -12.478  11.037  68.725  1.00  0.00    -0.468 OA 
HETATM   12  O   UNL     1     -12.656  11.837  71.098  1.00  0.00    -0.378 OA 
BRANCH  10  13
HETATM   13  N   UNL     1     -10.712  12.585  69.632  1.00  0.00    -0.288 N  
HETATM   14  H   UNL     1      -9.749  12.405  69.915  1.00  0.00     0.000 HD 
BRANCH  13  15
HETATM   15  C   UNL     1     -11.004  13.778  68.986  1.00  0.00    -0.243 A  
HETATM   16  C   UNL     1     -10.683  13.995  67.664  1.00  0.00    -0.261 A  
HETATM   17  C   UNL     1     -11.223  15.251  67.363  1.00  0.00    -0.311 A  
HETATM   18  N   UNL     1     -11.858  15.793  68.398  1.00  0.00    -0.272 NA 
HETATM   19  N   UNL     1     -11.704  14.908  69.427  1.00  0.00    -0.302 NA 
BRANCH  19  20
HETATM   20  C   UNL     1     -12.275  15.218  70.699  1.00  0.00    -0.364 A  
HETATM   21  C   UNL     1     -11.439  15.675  71.734  1.00  0.00    -0.505 A  
HETATM   22  C   UNL     1     -11.955  15.943  73.005  1.00  0.00    -0.596 A  
HETATM   23  C   UNL     1     -13.307  15.747  73.265  1.00  0.00    -0.649 A  
HETATM   24  C   UNL     1     -14.147  15.312  72.247  1.00  0.00    -0.651 A  
HETATM   25  C   UNL     1     -13.638  15.070  70.967  1.00  0.00    -0.442 A  
ENDBRANCH  19  20
ENDBRANCH  13  15
ENDBRANCH  10  13
ENDBRANCH   7  10
TORSDOF 4
ENDMDL
MODEL       38
REMARK 921   NORMALIZED FREE ENERGY PREDICTED BY IDOCK:   -6.39 KCAL/MOL
REMARK 922        TOTAL FREE ENERGY PREDICTED BY IDOCK:   -8.62 KCAL/MOL
REMARK 923 INTER-LIGAND FREE ENERGY PREDICTED BY IDOCK:   -7.71 KCAL/MOL
REMARK 924 INTRA-LIGAND FREE ENERGY PREDICTED BY IDOCK:   -0.91 KCAL/MOL
REMARK 927      BINDING AFFINITY PREDICTED BY RF-SCORE:    0.00 PKD
ROOT
HETATM    1  N   UNL     1     -10.816   4.797  66.671  1.00  0.00    -0.331 NA 
HETATM    2  H2  UNL     1     -11.654   4.280  66.938  1.00  0.00     0.000 HD 
HETATM    3  C   UNL     1     -10.796   6.000  67.381  1.00  0.00    -0.303 A  
HETATM    4  H1  UNL     1     -10.751   4.800  65.653  1.00  0.00     0.000 HD 
HETATM    5  C   UNL     1     -10.885   5.995  68.776  1.00  0.00    -0.391 A  
HETATM    6  C   UNL     1     -10.773   7.181  69.508  1.00  0.00    -0.255 A  
HETATM    7  C   UNL     1     -10.517   8.377  68.837  1.00  0.00    -0.189 A  
HETATM    8  C   UNL     1     -10.354   8.389  67.449  1.00  0.00    -0.355 A  
HETATM    9  C   UNL     1     -10.472   7.194  66.730  1.00  0.00    -0.300 A  
ENDROOT
BRANCH   7  10
HETATM   10  S   UNL     1     -10.500   9.917  69.745  1.00  0.00    -0.279 S  
HETATM   11  O   UNL     1     -10.743   9.557  71.125  1.00  0.00    -0.316 OA 
HETATM   12  O   UNL     1      -9.278  10.602  69.375  1.00  0.00    -0.158 OA 
BRANCH  10  13
HETATM   13  N   UNL     1     -11.813  10.680  69.143  1.00  0.00    -0.489 N  
HETATM   14  H   UNL     1     -12.628  10.122  68.888  1.00  0.00     0.000 HD 
BRANCH  13  15
HETATM   15  C   UNL     1     -11.866  12.055  68.962  1.00  0.00    -0.315 A  
HETATM   16  C   UNL     1     -11.963  12.932  70.021  1.00  0.00    -0.380 A  
HETATM   17  C   UNL     1     -11.887  14.205  69.443  1.00  0.00    -0.330 A  
HETATM   18  N   UNL     1     -11.734  14.156  68.124  1.00  0.00    -0.336 NA 
HETATM   19  N   UNL     1     -11.752  12.829  67.800  1.00  0.00    -0.351 NA 
BRANCH  19  20
HETATM   20  C   UNL     1     -11.619  12.446  66.431  1.00  0.00    -0.384 A  
HETATM   21  C   UNL     1     -10.538  11.631  66.049  1.00  0.00    -0.303 A  
HETATM   22  C   UNL     1     -10.349  11.274  64.711  1.00  0.00    -0.366 A  
HETATM   23  C   UNL     1     -11.226  11.737  63.734  1.00  0.00    -0.518 A  
HETATM   24  C   UNL     1     -12.307  12.530  64.101  1.00  0.00    -0.548 A  
HETATM   25  C   UNL     1     -12.514  12.864  65.443  1.00  0.00    -0.511 A  
ENDBRANCH  19  20
ENDBRANCH  13  15
ENDBRANCH  10  13
ENDBRANCH   7  10
TORSDOF 4
ENDMDL
MODEL       39
REMARK 921   NORMALIZED FREE ENERGY PREDICTED BY IDOCK:   -6.37 KCAL/MOL
REMARK 922        TOTAL FREE ENERGY PREDICTED BY IDOCK:   -8.60 KCAL/MOL
REMARK 923 INTER-LIGAND FREE ENERGY PREDICTED BY IDOCK:   -7.72 KCAL/MOL
REMARK 924 INTRA-LIGAND FREE ENERGY PREDICTED BY IDOCK:   -0.87 KCAL/MOL
REMARK 927      BINDING AFFINITY PREDICTED BY RF-SCORE:    0.00 PKD
ROOT
HETATM    1  N   UNL     1     -12.492  14.338  63.206  1.00  0.00    -1.068 NA 
HETATM    2  H2  UNL     1     -12.962  13.775  62.497  1.00  0.00     0.000 HD 
HETATM    3  C   UNL     1     -12.211  13.518  64.302  1.00  0.00    -0.396 A  
HETATM    4  H1  UNL     1     -13.020  15.201  63.332  1.00  0.00     0.000 HD 
HETATM    5  C   UNL     1     -11.487  12.335  64.129  1.00  0.00    -0.453 A  
HETATM    6  C   UNL     1     -11.117  11.551  65.225  1.00  0.00    -0.257 A  
HETATM    7  C   UNL     1     -11.430  11.987  66.514  1.00  0.00    -0.349 A  
HETATM    8  C   UNL     1     -12.089  13.203  66.710  1.00  0.00    -0.389 A  
HETATM    9  C   UNL     1     -12.457  13.975  65.601  1.00  0.00    -0.531 A  
ENDROOT
BRANCH   7  10
HETATM   10  S   UNL     1     -11.077  10.935  67.915  1.00  0.00    -0.318 S  
HETATM   11  O   UNL     1      -9.738  11.288  68.338  1.00  0.00    -0.181 OA 
HETATM   12  O   UNL     1     -12.190  11.076  68.830  1.00  0.00    -0.546 OA 
BRANCH  10  13
HETATM   13  N   UNL     1     -11.056   9.452  67.230  1.00  0.00    -0.293 N  
HETATM   14  H   UNL     1     -11.797   9.208  66.573  1.00  0.00     0.000 HD 
BRANCH  13  15
HETATM   15  C   UNL     1     -10.073   8.511  67.503  1.00  0.00    -0.221 A  
HETATM   16  C   UNL     1      -9.084   8.198  66.598  1.00  0.00    -0.202 A  
HETATM   17  C   UNL     1      -8.246   7.302  67.273  1.00  0.00    -0.115 A  
HETATM   18  N   UNL     1      -8.649   7.071  68.519  1.00  0.00    -0.124 NA 
HETATM   19  N   UNL     1      -9.802   7.787  68.671  1.00  0.00    -0.164 NA 
BRANCH  19  20
HETATM   20  C   UNL     1     -10.492   7.734  69.921  1.00  0.00    -0.232 A  
HETATM   21  C   UNL     1     -11.355   6.655  70.183  1.00  0.00    -0.440 A  
HETATM   22  C   UNL     1     -12.082   6.594  71.375  1.00  0.00    -0.400 A  
HETATM   23  C   UNL     1     -11.969   7.613  72.315  1.00  0.00    -0.329 A  
HETATM   24  C   UNL     1     -11.107   8.676  72.075  1.00  0.00    -0.437 A  
HETATM   25  C   UNL     1     -10.357   8.725  70.896  1.00  0.00    -0.281 A  
ENDBRANCH  19  20
ENDBRANCH  13  15
ENDBRANCH  10  13
ENDBRANCH   7  10
TORSDOF 4
ENDMDL
MODEL       40
REMARK 921   NORMALIZED FREE ENERGY PREDICTED BY IDOCK:   -6.37 KCAL/MOL
REMARK 922        TOTAL FREE ENERGY PREDICTED BY IDOCK:   -8.59 KCAL/MOL
REMARK 923 INTER-LIGAND FREE ENERGY PREDICTED BY IDOCK:   -7.76 KCAL/MOL
REMARK 924 INTRA-LIGAND FREE ENERGY PREDICTED BY IDOCK:   -0.83 KCAL/MOL
REMARK 927      BINDING AFFINITY PREDICTED BY RF-SCORE:    0.00 PKD
ROOT
HETATM    1  N   UNL     1      -9.120   6.506  65.888  1.00  0.00    -0.325 NA 
HETATM    2  H2  UNL     1      -9.642   5.637  66.010  1.00  0.00     0.000 HD 
HETATM    3  C   UNL     1      -9.683   7.476  66.721  1.00  0.00    -0.216 A  
HETATM    4  H1  UNL     1      -9.019   6.682  64.889  1.00  0.00     0.000 HD 
HETATM    5  C   UNL     1      -9.821   7.234  68.091  1.00  0.00    -0.165 A  
HETATM    6  C   UNL     1     -10.295   8.228  68.952  1.00  0.00    -0.230 A  
HETATM    7  C   UNL     1     -10.582   9.494  68.443  1.00  0.00    -0.219 A  
HETATM    8  C   UNL     1     -10.381   9.776  67.089  1.00  0.00    -0.311 A  
HETATM    9  C   UNL     1      -9.910   8.769  66.238  1.00  0.00    -0.342 A  
ENDROOT
BRANCH   7  10
HETATM   10  S   UNL     1     -11.309  10.734  69.506  1.00  0.00    -0.314 S  
HETATM   11  O   UNL     1     -12.623  10.995  68.958  1.00  0.00    -0.378 OA 
HETATM   12  O   UNL     1     -11.169  10.249  70.864  1.00  0.00    -0.336 OA 
BRANCH  10  13
HETATM   13  N   UNL     1     -10.342  12.022  69.235  1.00  0.00    -0.421 N  
HETATM   14  H   UNL     1      -9.358  11.957  69.494  1.00  0.00     0.000 HD 
BRANCH  13  15
HETATM   15  C   UNL     1     -10.804  13.202  68.667  1.00  0.00    -0.259 A  
HETATM   16  C   UNL     1     -10.631  13.491  67.331  1.00  0.00    -0.254 A  
HETATM   17  C   UNL     1     -11.312  14.698  67.132  1.00  0.00    -0.356 A  
HETATM   18  N   UNL     1     -11.893  15.143  68.242  1.00  0.00    -0.306 NA 
HETATM   19  N   UNL     1     -11.561  14.245  69.216  1.00  0.00    -0.286 NA 
BRANCH  19  20
HETATM   20  C   UNL     1     -12.034  14.457  70.547  1.00  0.00    -0.325 A  
HETATM   21  C   UNL     1     -11.500  15.515  71.304  1.00  0.00    -0.462 A  
HETATM   22  C   UNL     1     -11.906  15.724  72.625  1.00  0.00    -0.596 A  
HETATM   23  C   UNL     1     -12.838  14.875  73.213  1.00  0.00    -0.646 A  
HETATM   24  C   UNL     1     -13.386  13.836  72.469  1.00  0.00    -0.656 A  
HETATM   25  C   UNL     1     -13.003  13.642  71.138  1.00  0.00    -0.353 A  
ENDBRANCH  19  20
ENDBRANCH  13  15
ENDBRANCH  10  13
ENDBRANCH   7  10
TORSDOF 4
ENDMDL
MODEL       41
REMARK 921   NORMALIZED FREE ENERGY PREDICTED BY IDOCK:   -6.34 KCAL/MOL
REMARK 922        TOTAL FREE ENERGY PREDICTED BY IDOCK:   -8.55 KCAL/MOL
REMARK 923 INTER-LIGAND FREE ENERGY PREDICTED BY IDOCK:   -8.38 KCAL/MOL
REMARK 924 INTRA-LIGAND FREE ENERGY PREDICTED BY IDOCK:   -0.17 KCAL/MOL
REMARK 927      BINDING AFFINITY PREDICTED BY RF-SCORE:    0.00 PKD
ROOT
HETATM    1  N   UNL     1      -9.387   8.463  67.761  1.00  0.00    -0.134 NA 
HETATM    2  H2  UNL     1      -8.381   8.507  67.597  1.00  0.00     0.000 HD 
HETATM    3  C   UNL     1      -9.963   9.641  67.280  1.00  0.00    -0.197 A  
HETATM    4  H1  UNL     1      -9.541   8.172  68.726  1.00  0.00     0.000 HD 
HETATM    5  C   UNL     1      -9.751  10.039  65.957  1.00  0.00    -0.301 A  
HETATM    6  C   UNL     1     -10.394  11.164  65.432  1.00  0.00    -0.331 A  
HETATM    7  C   UNL     1     -11.300  11.866  66.227  1.00  0.00    -0.334 A  
HETATM    8  C   UNL     1     -11.579  11.440  67.528  1.00  0.00    -0.298 A  
HETATM    9  C   UNL     1     -10.924  10.314  68.041  1.00  0.00    -0.345 A  
ENDROOT
BRANCH   7  10
HETATM   10  S   UNL     1     -12.031  13.378  65.614  1.00  0.00    -0.428 S  
HETATM   11  O   UNL     1     -10.948  14.108  64.990  1.00  0.00    -0.342 OA 
HETATM   12  O   UNL     1     -13.192  12.992  64.838  1.00  0.00    -0.735 OA 
BRANCH  10  13
HETATM   13  N   UNL     1     -12.465  14.130  66.998  1.00  0.00    -0.548 N  
HETATM   14  H   UNL     1     -13.440  14.079  67.296  1.00  0.00     0.000 HD 
BRANCH  13  15
HETATM   15  C   UNL     1     -11.565  14.834  67.785  1.00  0.00    -0.357 A  
HETATM   16  C   UNL     1     -10.536  15.572  67.242  1.00  0.00    -0.279 A  
HETATM   17  C   UNL     1      -9.928  16.202  68.335  1.00  0.00    -0.230 A  
HETATM   18  N   UNL     1     -10.526  15.912  69.486  1.00  0.00    -0.258 NA 
HETATM   19  N   UNL     1     -11.526  15.036  69.170  1.00  0.00    -0.283 NA 
BRANCH  19  20
HETATM   20  C   UNL     1     -12.355  14.524  70.214  1.00  0.00    -0.349 A  
HETATM   21  C   UNL     1     -13.257  15.388  70.861  1.00  0.00    -0.512 A  
HETATM   22  C   UNL     1     -14.051  14.933  71.917  1.00  0.00    -0.613 A  
HETATM   23  C   UNL     1     -13.947  13.616  72.352  1.00  0.00    -0.651 A  
HETATM   24  C   UNL     1     -13.072  12.747  71.710  1.00  0.00    -0.455 A  
HETATM   25  C   UNL     1     -12.298  13.193  70.634  1.00  0.00    -0.405 A  
ENDBRANCH  19  20
ENDBRANCH  13  15
ENDBRANCH  10  13
ENDBRANCH   7  10
TORSDOF 4
ENDMDL
MODEL       42
REMARK 921   NORMALIZED FREE ENERGY PREDICTED BY IDOCK:   -6.33 KCAL/MOL
REMARK 922        TOTAL FREE ENERGY PREDICTED BY IDOCK:   -8.55 KCAL/MOL
REMARK 923 INTER-LIGAND FREE ENERGY PREDICTED BY IDOCK:   -7.76 KCAL/MOL
REMARK 924 INTRA-LIGAND FREE ENERGY PREDICTED BY IDOCK:   -0.79 KCAL/MOL
REMARK 927      BINDING AFFINITY PREDICTED BY RF-SCORE:    0.00 PKD
ROOT
HETATM    1  N   UNL     1     -13.037  15.600  71.349  1.00  0.00    -0.500 NA 
HETATM    2  H2  UNL     1     -13.277  14.833  71.977  1.00  0.00     0.000 HD 
HETATM    3  C   UNL     1     -12.040  15.158  70.476  1.00  0.00    -0.343 A  
HETATM    4  H1  UNL     1     -12.894  16.440  71.908  1.00  0.00     0.000 HD 
HETATM    5  C   UNL     1     -12.236  14.005  69.709  1.00  0.00    -0.396 A  
HETATM    6  C   UNL     1     -11.289  13.601  68.764  1.00  0.00    -0.326 A  
HETATM    7  C   UNL     1     -10.158  14.390  68.548  1.00  0.00    -0.244 A  
HETATM    8  C   UNL     1      -9.982  15.583  69.254  1.00  0.00    -0.264 A  
HETATM    9  C   UNL     1     -10.937  15.972  70.200  1.00  0.00    -0.369 A  
ENDROOT
BRANCH   7  10
HETATM   10  S   UNL     1      -8.879  13.820  67.437  1.00  0.00    -0.221 S  
HETATM   11  O   UNL     1      -7.700  13.648  68.258  1.00  0.00    -0.120 OA 
HETATM   12  O   UNL     1      -9.432  12.696  66.710  1.00  0.00    -0.224 OA 
BRANCH  10  13
HETATM   13  N   UNL     1      -8.676  15.115  66.461  1.00  0.00    -0.399 N  
HETATM   14  H   UNL     1      -7.749  15.533  66.391  1.00  0.00     0.000 HD 
BRANCH  13  15
HETATM   15  C   UNL     1      -9.713  15.671  65.725  1.00  0.00    -0.345 A  
HETATM   16  C   UNL     1     -10.534  14.909  64.922  1.00  0.00    -0.389 A  
HETATM   17  C   UNL     1     -11.498  15.804  64.440  1.00  0.00    -0.263 A  
HETATM   18  N   UNL     1     -11.327  17.036  64.908  1.00  0.00    -0.511 NA 
HETATM   19  N   UNL     1     -10.202  16.983  65.682  1.00  0.00    -0.599 NA 
BRANCH  19  20
HETATM   20  C   UNL     1      -9.745  18.173  66.325  1.00  0.00    -0.276 A  
HETATM   21  C   UNL     1     -10.607  18.853  67.203  1.00  0.00    -0.531 A  
HETATM   22  C   UNL     1     -10.211  20.046  67.815  1.00  0.00    -0.549 A  
HETATM   23  C   UNL     1      -8.956  20.583  67.548  1.00  0.00    -0.379 A  
HETATM   24  C   UNL     1      -8.088  19.913  66.694  1.00  0.00    -0.351 A  
HETATM   25  C   UNL     1      -8.472  18.704  66.104  1.00  0.00    -0.161 A  
ENDBRANCH  19  20
ENDBRANCH  13  15
ENDBRANCH  10  13
ENDBRANCH   7  10
TORSDOF 4
ENDMDL
MODEL       43
REMARK 921   NORMALIZED FREE ENERGY PREDICTED BY IDOCK:   -6.30 KCAL/MOL
REMARK 922        TOTAL FREE ENERGY PREDICTED BY IDOCK:   -8.51 KCAL/MOL
REMARK 923 INTER-LIGAND FREE ENERGY PREDICTED BY IDOCK:   -7.07 KCAL/MOL
REMARK 924 INTRA-LIGAND FREE ENERGY PREDICTED BY IDOCK:   -1.44 KCAL/MOL
REMARK 927      BINDING AFFINITY PREDICTED BY RF-SCORE:    0.00 PKD
ROOT
HETATM    1  N   UNL     1     -12.287  13.780  63.317  1.00  0.00    -1.124 NA 
HETATM    2  H2  UNL     1     -13.300  13.703  63.223  1.00  0.00     0.000 HD 
HETATM    3  C   UNL     1     -11.999  14.272  64.592  1.00  0.00    -0.455 A  
HETATM    4  H1  UNL     1     -11.922  14.251  62.490  1.00  0.00     0.000 HD 
HETATM    5  C   UNL     1     -12.499  13.626  65.726  1.00  0.00    -0.524 A  
HETATM    6  C   UNL     1     -12.145  14.049  67.011  1.00  0.00    -0.455 A  
HETATM    7  C   UNL     1     -11.238  15.100  67.158  1.00  0.00    -0.320 A  
HETATM    8  C   UNL     1     -10.673  15.711  66.036  1.00  0.00    -0.322 A  
HETATM    9  C   UNL     1     -11.040  15.278  64.756  1.00  0.00    -0.407 A  
ENDROOT
BRANCH   7  10
HETATM   10  S   UNL     1     -10.876  15.736  68.789  1.00  0.00    -0.294 S  
HETATM   11  O   UNL     1     -10.306  17.049  68.576  1.00  0.00    -0.313 OA 
HETATM   12  O   UNL     1     -12.086  15.584  69.571  1.00  0.00    -0.344 OA 
BRANCH  10  13
HETATM   13  N   UNL     1      -9.708  14.714  69.300  1.00  0.00    -0.406 N  
HETATM   14  H   UNL     1      -9.836  14.231  70.189  1.00  0.00     0.000 HD 
BRANCH  13  15
HETATM   15  C   UNL     1      -8.549  14.475  68.574  1.00  0.00    -0.175 A  
HETATM   16  C   UNL     1      -7.466  15.324  68.620  1.00  0.00    -0.126 A  
HETATM   17  C   UNL     1      -6.481  14.695  67.849  1.00  0.00    -0.164 A  
HETATM   18  N   UNL     1      -6.886  13.527  67.362  1.00  0.00    -0.176 NA 
HETATM   19  N   UNL     1      -8.182  13.387  67.772  1.00  0.00    -0.157 NA 
BRANCH  19  20
HETATM   20  C   UNL     1      -8.908  12.217  67.392  1.00  0.00    -0.185 A  
HETATM   21  C   UNL     1      -9.359  11.335  68.390  1.00  0.00    -0.181 A  
HETATM   22  C   UNL     1     -10.032  10.157  68.052  1.00  0.00    -0.173 A  
HETATM   23  C   UNL     1     -10.253   9.837  66.717  1.00  0.00    -0.300 A  
HETATM   24  C   UNL     1      -9.827  10.710  65.722  1.00  0.00    -0.296 A  
HETATM   25  C   UNL     1      -9.179  11.902  66.058  1.00  0.00    -0.176 A  
ENDBRANCH  19  20
ENDBRANCH  13  15
ENDBRANCH  10  13
ENDBRANCH   7  10
TORSDOF 4
ENDMDL
MODEL       44
REMARK 921   NORMALIZED FREE ENERGY PREDICTED BY IDOCK:   -6.30 KCAL/MOL
REMARK 922        TOTAL FREE ENERGY PREDICTED BY IDOCK:   -8.50 KCAL/MOL
REMARK 923 INTER-LIGAND FREE ENERGY PREDICTED BY IDOCK:   -8.43 KCAL/MOL
REMARK 924 INTRA-LIGAND FREE ENERGY PREDICTED BY IDOCK:   -0.08 KCAL/MOL
REMARK 927      BINDING AFFINITY PREDICTED BY RF-SCORE:    0.00 PKD
ROOT
HETATM    1  N   UNL     1     -12.567  11.599  62.983  1.00  0.00    -0.886 NA 
HETATM    2  H2  UNL     1     -13.287  12.134  62.499  1.00  0.00     0.000 HD 
HETATM    3  C   UNL     1     -12.010  12.408  63.976  1.00  0.00    -0.460 A  
HETATM    4  H1  UNL     1     -11.970  11.159  62.283  1.00  0.00     0.000 HD 
HETATM    5  C   UNL     1     -12.828  13.011  64.935  1.00  0.00    -0.368 A  
HETATM    6  C   UNL     1     -12.280  13.747  65.989  1.00  0.00    -0.495 A  
HETATM    7  C   UNL     1     -10.892  13.836  66.112  1.00  0.00    -0.279 A  
HETATM    8  C   UNL     1     -10.058  13.179  65.203  1.00  0.00    -0.239 A  
HETATM    9  C   UNL     1     -10.622  12.449  64.151  1.00  0.00    -0.414 A  
ENDROOT
BRANCH   7  10
HETATM   10  S   UNL     1     -10.179  14.877  67.377  1.00  0.00    -0.234 S  
HETATM   11  O   UNL     1      -8.943  15.379  66.816  1.00  0.00    -0.219 OA 
HETATM   12  O   UNL     1     -11.218  15.798  67.790  1.00  0.00    -0.336 OA 
BRANCH  10  13
HETATM   13  N   UNL     1      -9.841  13.797  68.555  1.00  0.00    -0.276 N  
HETATM   14  H   UNL     1      -9.052  13.981  69.175  1.00  0.00     0.000 HD 
BRANCH  13  15
HETATM   15  C   UNL     1     -10.582  12.639  68.748  1.00  0.00    -0.186 A  
HETATM   16  C   UNL     1     -10.264  11.452  68.125  1.00  0.00    -0.200 A  
HETATM   17  C   UNL     1     -11.168  10.518  68.646  1.00  0.00    -0.270 A  
HETATM   18  N   UNL     1     -11.988  11.052  69.546  1.00  0.00    -0.324 NA 
HETATM   19  N   UNL     1     -11.663  12.378  69.599  1.00  0.00    -0.313 NA 
BRANCH  19  20
HETATM   20  C   UNL     1     -12.388  13.235  70.482  1.00  0.00    -0.316 A  
HETATM   21  C   UNL     1     -12.968  12.693  71.642  1.00  0.00    -0.400 A  
HETATM   22  C   UNL     1     -13.723  13.493  72.505  1.00  0.00    -0.664 A  
HETATM   23  C   UNL     1     -13.921  14.839  72.215  1.00  0.00    -0.598 A  
HETATM   24  C   UNL     1     -13.339  15.391  71.080  1.00  0.00    -0.580 A  
HETATM   25  C   UNL     1     -12.559  14.599  70.231  1.00  0.00    -0.370 A  
ENDBRANCH  19  20
ENDBRANCH  13  15
ENDBRANCH  10  13
ENDBRANCH   7  10
TORSDOF 4
ENDMDL
MODEL       45
REMARK 921   NORMALIZED FREE ENERGY PREDICTED BY IDOCK:   -6.29 KCAL/MOL
REMARK 922        TOTAL FREE ENERGY PREDICTED BY IDOCK:   -8.50 KCAL/MOL
REMARK 923 INTER-LIGAND FREE ENERGY PREDICTED BY IDOCK:   -7.81 KCAL/MOL
REMARK 924 INTRA-LIGAND FREE ENERGY PREDICTED BY IDOCK:   -0.69 KCAL/MOL
REMARK 927      BINDING AFFINITY PREDICTED BY RF-SCORE:    0.00 PKD
ROOT
HETATM    1  N   UNL     1      -6.915  20.749  65.196  1.00  0.00    -0.534 NA 
HETATM    2  H2  UNL     1      -6.975  21.605  65.748  1.00  0.00     0.000 HD 
HETATM    3  C   UNL     1      -7.587  19.735  65.882  1.00  0.00    -0.323 A  
HETATM    4  H1  UNL     1      -5.945  20.620  64.909  1.00  0.00     0.000 HD 
HETATM    5  C   UNL     1      -8.917  19.913  66.275  1.00  0.00    -0.419 A  
HETATM    6  C   UNL     1      -9.633  18.875  66.879  1.00  0.00    -0.348 A  
HETATM    7  C   UNL     1      -9.026  17.630  67.042  1.00  0.00    -0.250 A  
HETATM    8  C   UNL     1      -7.722  17.413  66.589  1.00  0.00    -0.293 A  
HETATM    9  C   UNL     1      -7.016  18.463  65.990  1.00  0.00    -0.310 A  
ENDROOT
BRANCH   7  10
HETATM   10  S   UNL     1      -9.883  16.334  67.927  1.00  0.00    -0.240 S  
HETATM   11  O   UNL     1      -9.119  16.119  69.137  1.00  0.00    -0.243 OA 
HETATM   12  O   UNL     1     -11.272  16.735  68.004  1.00  0.00    -0.295 OA 
BRANCH  10  13
HETATM   13  N   UNL     1      -9.688  15.056  66.928  1.00  0.00    -0.231 N  
HETATM   14  H   UNL     1      -8.749  14.685  66.787  1.00  0.00     0.000 HD 
BRANCH  13  15
HETATM   15  C   UNL     1     -10.748  14.455  66.262  1.00  0.00    -0.307 A  
HETATM   16  C   UNL     1     -11.026  14.715  64.938  1.00  0.00    -0.419 A  
HETATM   17  C   UNL     1     -12.082  13.855  64.616  1.00  0.00    -0.431 A  
HETATM   18  N   UNL     1     -12.444  13.088  65.639  1.00  0.00    -0.525 NA 
HETATM   19  N   UNL     1     -11.649  13.469  66.683  1.00  0.00    -0.346 NA 
BRANCH  19  20
HETATM   20  C   UNL     1     -11.808  12.825  67.948  1.00  0.00    -0.339 A  
HETATM   21  C   UNL     1     -12.011  13.610  69.097  1.00  0.00    -0.394 A  
HETATM   22  C   UNL     1     -12.124  13.017  70.357  1.00  0.00    -0.391 A  
HETATM   23  C   UNL     1     -12.023  11.636  70.491  1.00  0.00    -0.413 A  
HETATM   24  C   UNL     1     -11.840  10.847  69.361  1.00  0.00    -0.400 A  
HETATM   25  C   UNL     1     -11.755  11.436  68.096  1.00  0.00    -0.355 A  
ENDBRANCH  19  20
ENDBRANCH  13  15
ENDBRANCH  10  13
ENDBRANCH   7  10
TORSDOF 4
ENDMDL
MODEL       46
REMARK 921   NORMALIZED FREE ENERGY PREDICTED BY IDOCK:   -6.25 KCAL/MOL
REMARK 922        TOTAL FREE ENERGY PREDICTED BY IDOCK:   -8.44 KCAL/MOL
REMARK 923 INTER-LIGAND FREE ENERGY PREDICTED BY IDOCK:   -7.85 KCAL/MOL
REMARK 924 INTRA-LIGAND FREE ENERGY PREDICTED BY IDOCK:   -0.59 KCAL/MOL
REMARK 927      BINDING AFFINITY PREDICTED BY RF-SCORE:    0.00 PKD
ROOT
HETATM    1  N   UNL     1     -11.605  16.172  63.895  1.00  0.00    -1.469 NA 
HETATM    2  H2  UNL     1     -10.784  16.351  63.317  1.00  0.00     0.000 HD 
HETATM    3  C   UNL     1     -11.384  15.000  64.621  1.00  0.00    -0.352 A  
HETATM    4  H1  UNL     1     -12.435  16.266  63.310  1.00  0.00     0.000 HD 
HETATM    5  C   UNL     1     -10.246  14.873  65.423  1.00  0.00    -0.409 A  
HETATM    6  C   UNL     1     -10.056  13.746  66.229  1.00  0.00    -0.304 A  
HETATM    7  C   UNL     1     -11.044  12.761  66.271  1.00  0.00    -0.288 A  
HETATM    8  C   UNL     1     -12.221  12.907  65.532  1.00  0.00    -0.527 A  
HETATM    9  C   UNL     1     -12.395  14.039  64.727  1.00  0.00    -0.437 A  
ENDROOT
BRANCH   7  10
HETATM   10  S   UNL     1     -10.758  11.258  67.195  1.00  0.00    -0.266 S  
HETATM   11  O   UNL     1     -12.047  10.884  67.736  1.00  0.00    -0.433 OA 
HETATM   12  O   UNL     1     -10.050  10.356  66.310  1.00  0.00    -0.215 OA 
BRANCH  10  13
HETATM   13  N   UNL     1      -9.792  11.782  68.404  1.00  0.00    -0.198 N  
HETATM   14  H   UNL     1      -9.730  12.784  68.580  1.00  0.00     0.000 HD 
BRANCH  13  15
HETATM   15  C   UNL     1      -9.052  10.920  69.201  1.00  0.00    -0.042 A  
HETATM   16  C   UNL     1      -7.675  10.911  69.192  1.00  0.00    -0.127 A  
HETATM   17  C   UNL     1      -7.313   9.994  70.187  1.00  0.00    -0.163 A  
HETATM   18  N   UNL     1      -8.368   9.468  70.801  1.00  0.00    -0.278 NA 
HETATM   19  N   UNL     1      -9.460  10.005  70.181  1.00  0.00    -0.159 NA 
BRANCH  19  20
HETATM   20  C   UNL     1     -10.765   9.620  70.616  1.00  0.00    -0.322 A  
HETATM   21  C   UNL     1     -11.688  10.616  70.981  1.00  0.00    -0.329 A  
HETATM   22  C   UNL     1     -12.958  10.275  71.456  1.00  0.00    -0.556 A  
HETATM   23  C   UNL     1     -13.319   8.938  71.585  1.00  0.00    -0.414 A  
HETATM   24  C   UNL     1     -12.422   7.945  71.212  1.00  0.00    -0.283 A  
HETATM   25  C   UNL     1     -11.162   8.284  70.710  1.00  0.00    -0.284 A  
ENDBRANCH  19  20
ENDBRANCH  13  15
ENDBRANCH  10  13
ENDBRANCH   7  10
TORSDOF 4
ENDMDL
MODEL       47
REMARK 921   NORMALIZED FREE ENERGY PREDICTED BY IDOCK:   -6.24 KCAL/MOL
REMARK 922        TOTAL FREE ENERGY PREDICTED BY IDOCK:   -8.43 KCAL/MOL
REMARK 923 INTER-LIGAND FREE ENERGY PREDICTED BY IDOCK:   -7.76 KCAL/MOL
REMARK 924 INTRA-LIGAND FREE ENERGY PREDICTED BY IDOCK:   -0.67 KCAL/MOL
REMARK 927      BINDING AFFINITY PREDICTED BY RF-SCORE:    0.00 PKD
ROOT
HETATM    1  N   UNL     1     -13.458   9.168  73.026  1.00  0.00    -0.887 NA 
HETATM    2  H2  UNL     1     -14.457   9.370  72.990  1.00  0.00     0.000 HD 
HETATM    3  C   UNL     1     -12.868   9.658  71.859  1.00  0.00    -0.425 A  
HETATM    4  H1  UNL     1     -13.338   8.191  73.292  1.00  0.00     0.000 HD 
HETATM    5  C   UNL     1     -13.033  10.997  71.495  1.00  0.00    -0.553 A  
HETATM    6  C   UNL     1     -12.375  11.527  70.381  1.00  0.00    -0.390 A  
HETATM    7  C   UNL     1     -11.500  10.717  69.656  1.00  0.00    -0.305 A  
HETATM    8  C   UNL     1     -11.267   9.396  70.048  1.00  0.00    -0.217 A  
HETATM    9  C   UNL     1     -11.937   8.880  71.163  1.00  0.00    -0.344 A  
ENDROOT
BRANCH   7  10
HETATM   10  S   UNL     1     -10.751  11.341  68.157  1.00  0.00    -0.221 S  
HETATM   11  O   UNL     1      -9.442  11.819  68.547  1.00  0.00    -0.200 OA 
HETATM   12  O   UNL     1     -10.879  10.296  67.164  1.00  0.00    -0.262 OA 
BRANCH  10  13
HETATM   13  N   UNL     1     -11.711  12.616  67.804  1.00  0.00    -0.350 N  
HETATM   14  H   UNL     1     -12.373  12.938  68.509  1.00  0.00     0.000 HD 
BRANCH  13  15
HETATM   15  C   UNL     1     -11.663  13.277  66.585  1.00  0.00    -0.377 A  
HETATM   16  C   UNL     1     -12.389  12.857  65.492  1.00  0.00    -0.517 A  
HETATM   17  C   UNL     1     -12.155  13.825  64.509  1.00  0.00    -0.428 A  
HETATM   18  N   UNL     1     -11.359  14.801  64.936  1.00  0.00    -0.395 NA 
HETATM   19  N   UNL     1     -11.015  14.462  66.213  1.00  0.00    -0.313 NA 
BRANCH  19  20
HETATM   20  C   UNL     1     -10.143  15.322  66.949  1.00  0.00    -0.256 A  
HETATM   21  C   UNL     1     -10.698  16.283  67.814  1.00  0.00    -0.325 A  
HETATM   22  C   UNL     1      -9.878  17.172  68.515  1.00  0.00    -0.297 A  
HETATM   23  C   UNL     1      -8.497  17.124  68.352  1.00  0.00    -0.241 A  
HETATM   24  C   UNL     1      -7.936  16.169  67.513  1.00  0.00    -0.171 A  
HETATM   25  C   UNL     1      -8.753  15.259  66.833  1.00  0.00    -0.288 A  
ENDBRANCH  19  20
ENDBRANCH  13  15
ENDBRANCH  10  13
ENDBRANCH   7  10
TORSDOF 4
ENDMDL
MODEL       48
REMARK 921   NORMALIZED FREE ENERGY PREDICTED BY IDOCK:   -6.23 KCAL/MOL
REMARK 922        TOTAL FREE ENERGY PREDICTED BY IDOCK:   -8.42 KCAL/MOL
REMARK 923 INTER-LIGAND FREE ENERGY PREDICTED BY IDOCK:   -7.87 KCAL/MOL
REMARK 924 INTRA-LIGAND FREE ENERGY PREDICTED BY IDOCK:   -0.55 KCAL/MOL
REMARK 927      BINDING AFFINITY PREDICTED BY RF-SCORE:    0.00 PKD
ROOT
HETATM    1  N   UNL     1     -12.170  11.126  68.108  1.00  0.00    -0.645 NA 
HETATM    2  H2  UNL     1     -11.464  10.414  67.917  1.00  0.00     0.000 HD 
HETATM    3  C   UNL     1     -11.736  12.334  67.557  1.00  0.00    -0.332 A  
HETATM    4  H1  UNL     1     -12.421  11.072  69.095  1.00  0.00     0.000 HD 
HETATM    5  C   UNL     1     -11.392  12.407  66.204  1.00  0.00    -0.398 A  
HETATM    6  C   UNL     1     -11.046  13.627  65.615  1.00  0.00    -0.300 A  
HETATM    7  C   UNL     1     -11.096  14.793  66.379  1.00  0.00    -0.340 A  
HETATM    8  C   UNL     1     -11.507  14.749  67.714  1.00  0.00    -0.363 A  
HETATM    9  C   UNL     1     -11.847  13.520  68.290  1.00  0.00    -0.401 A  
ENDROOT
BRANCH   7  10
HETATM   10  S   UNL     1     -10.533  16.338  65.676  1.00  0.00    -0.327 S  
HETATM   11  O   UNL     1      -9.112  16.172  65.461  1.00  0.00    -0.344 OA 
HETATM   12  O   UNL     1     -11.410  16.629  64.561  1.00  0.00    -0.877 OA 
BRANCH  10  13
HETATM   13  N   UNL     1     -10.777  17.380  66.910  1.00  0.00    -0.197 N  
HETATM   14  H   UNL     1     -11.483  17.152  67.610  1.00  0.00     0.000 HD 
BRANCH  13  15
HETATM   15  C   UNL     1     -10.064  18.564  67.046  1.00  0.00    -0.360 A  
HETATM   16  C   UNL     1     -10.541  19.767  66.573  1.00  0.00    -0.580 A  
HETATM   17  C   UNL     1      -9.599  20.716  66.987  1.00  0.00    -0.344 A  
HETATM   18  N   UNL     1      -8.606  20.175  67.687  1.00  0.00    -0.322 NA 
HETATM   19  N   UNL     1      -8.858  18.833  67.706  1.00  0.00    -0.287 NA 
BRANCH  19  20
HETATM   20  C   UNL     1      -7.949  17.965  68.384  1.00  0.00    -0.298 A  
HETATM   21  C   UNL     1      -8.336  16.640  68.652  1.00  0.00    -0.246 A  
HETATM   22  C   UNL     1      -7.490  15.776  69.354  1.00  0.00    -0.216 A  
HETATM   23  C   UNL     1      -6.254  16.225  69.809  1.00  0.00    -0.192 A  
HETATM   24  C   UNL     1      -5.853  17.527  69.535  1.00  0.00    -0.235 A  
HETATM   25  C   UNL     1      -6.686  18.385  68.809  1.00  0.00    -0.267 A  
ENDBRANCH  19  20
ENDBRANCH  13  15
ENDBRANCH  10  13
ENDBRANCH   7  10
TORSDOF 4
ENDMDL
MODEL       49
REMARK 921   NORMALIZED FREE ENERGY PREDICTED BY IDOCK:   -6.22 KCAL/MOL
REMARK 922        TOTAL FREE ENERGY PREDICTED BY IDOCK:   -8.41 KCAL/MOL
REMARK 923 INTER-LIGAND FREE ENERGY PREDICTED BY IDOCK:   -7.45 KCAL/MOL
REMARK 924 INTRA-LIGAND FREE ENERGY PREDICTED BY IDOCK:   -0.96 KCAL/MOL
REMARK 927      BINDING AFFINITY PREDICTED BY RF-SCORE:    0.00 PKD
ROOT
HETATM    1  N   UNL     1     -10.392  20.126  66.849  1.00  0.00    -0.421 NA 
HETATM    2  H2  UNL     1     -10.571  20.319  65.863  1.00  0.00     0.000 HD 
HETATM    3  C   UNL     1      -9.904  18.822  66.960  1.00  0.00    -0.325 A  
HETATM    4  H1  UNL     1     -11.208  20.417  67.386  1.00  0.00     0.000 HD 
HETATM    5  C   UNL     1      -8.784  18.424  66.223  1.00  0.00    -0.209 A  
HETATM    6  C   UNL     1      -8.227  17.153  66.392  1.00  0.00    -0.327 A  
HETATM    7  C   UNL     1      -8.767  16.291  67.348  1.00  0.00    -0.182 A  
HETATM    8  C   UNL     1      -9.840  16.699  68.143  1.00  0.00    -0.250 A  
HETATM    9  C   UNL     1     -10.390  17.974  67.960  1.00  0.00    -0.397 A  
ENDROOT
BRANCH   7  10
HETATM   10  S   UNL     1      -8.147  14.620  67.485  1.00  0.00    -0.196 S  
HETATM   11  O   UNL     1      -6.747  14.694  67.124  1.00  0.00    -0.233 OA 
HETATM   12  O   UNL     1      -8.538  14.139  68.793  1.00  0.00    -0.152 OA 
BRANCH  10  13
HETATM   13  N   UNL     1      -8.973  13.855  66.301  1.00  0.00    -0.473 N  
HETATM   14  H   UNL     1      -8.489  13.150  65.745  1.00  0.00     0.000 HD 
BRANCH  13  15
HETATM   15  C   UNL     1     -10.305  14.124  66.019  1.00  0.00    -0.309 A  
HETATM   16  C   UNL     1     -10.703  14.701  64.833  1.00  0.00    -0.447 A  
HETATM   17  C   UNL     1     -12.102  14.712  64.889  1.00  0.00    -0.382 A  
HETATM   18  N   UNL     1     -12.571  14.169  66.009  1.00  0.00    -0.449 NA 
HETATM   19  N   UNL     1     -11.469  13.828  66.740  1.00  0.00    -0.333 NA 
BRANCH  19  20
HETATM   20  C   UNL     1     -11.647  13.222  68.022  1.00  0.00    -0.336 A  
HETATM   21  C   UNL     1     -11.553  11.824  68.139  1.00  0.00    -0.391 A  
HETATM   22  C   UNL     1     -11.767  11.193  69.368  1.00  0.00    -0.402 A  
HETATM   23  C   UNL     1     -12.090  11.946  70.492  1.00  0.00    -0.422 A  
HETATM   24  C   UNL     1     -12.170  13.330  70.393  1.00  0.00    -0.404 A  
HETATM   25  C   UNL     1     -11.928  13.965  69.171  1.00  0.00    -0.404 A  
ENDBRANCH  19  20
ENDBRANCH  13  15
ENDBRANCH  10  13
ENDBRANCH   7  10
TORSDOF 4
ENDMDL
MODEL       50
REMARK 921   NORMALIZED FREE ENERGY PREDICTED BY IDOCK:   -6.21 KCAL/MOL
REMARK 922        TOTAL FREE ENERGY PREDICTED BY IDOCK:   -8.39 KCAL/MOL
REMARK 923 INTER-LIGAND FREE ENERGY PREDICTED BY IDOCK:   -7.06 KCAL/MOL
REMARK 924 INTRA-LIGAND FREE ENERGY PREDICTED BY IDOCK:   -1.33 KCAL/MOL
REMARK 927      BINDING AFFINITY PREDICTED BY RF-SCORE:    0.00 PKD
ROOT
HETATM    1  N   UNL     1      -9.075   6.723  65.904  1.00  0.00    -0.340 NA 
HETATM    2  H2  UNL     1      -9.600   5.859  66.040  1.00  0.00     0.000 HD 
HETATM    3  C   UNL     1      -9.657   7.719  66.691  1.00  0.00    -0.220 A  
HETATM    4  H1  UNL     1      -8.949   6.867  64.902  1.00  0.00     0.000 HD 
HETATM    5  C   UNL     1      -9.830   7.522  68.064  1.00  0.00    -0.177 A  
HETATM    6  C   UNL     1     -10.324   8.543  68.881  1.00  0.00    -0.226 A  
HETATM    7  C   UNL     1     -10.598   9.792  68.324  1.00  0.00    -0.229 A  
HETATM    8  C   UNL     1     -10.363  10.030  66.967  1.00  0.00    -0.305 A  
HETATM    9  C   UNL     1      -9.872   8.996  66.161  1.00  0.00    -0.349 A  
ENDROOT
BRANCH   7  10
HETATM   10  S   UNL     1     -11.350  11.065  69.328  1.00  0.00    -0.310 S  
HETATM   11  O   UNL     1     -12.644  11.317  68.732  1.00  0.00    -0.312 OA 
HETATM   12  O   UNL     1     -11.256  10.618  70.702  1.00  0.00    -0.289 OA 
BRANCH  10  13
HETATM   13  N   UNL     1     -10.367  12.340  69.051  1.00  0.00    -0.423 N  
HETATM   14  H   UNL     1      -9.360  12.213  69.156  1.00  0.00     0.000 HD 
BRANCH  13  15
HETATM   15  C   UNL     1     -10.844  13.590  68.679  1.00  0.00    -0.259 A  
HETATM   16  C   UNL     1     -10.954  14.630  69.575  1.00  0.00    -0.269 A  
HETATM   17  C   UNL     1     -11.367  15.726  68.807  1.00  0.00    -0.362 A  
HETATM   18  N   UNL     1     -11.494  15.424  67.518  1.00  0.00    -0.281 NA 
HETATM   19  N   UNL     1     -11.206  14.092  67.423  1.00  0.00    -0.306 NA 
BRANCH  19  20
HETATM   20  C   UNL     1     -11.267  13.459  66.144  1.00  0.00    -0.295 A  
HETATM   21  C   UNL     1     -12.503  12.979  65.675  1.00  0.00    -0.452 A  
HETATM   22  C   UNL     1     -12.593  12.313  64.449  1.00  0.00    -0.447 A  
HETATM   23  C   UNL     1     -11.451  12.105  63.682  1.00  0.00    -0.566 A  
HETATM   24  C   UNL     1     -10.227  12.589  64.127  1.00  0.00    -0.376 A  
HETATM   25  C   UNL     1     -10.140  13.281  65.339  1.00  0.00    -0.267 A  
ENDBRANCH  19  20
ENDBRANCH  13  15
ENDBRANCH  10  13
ENDBRANCH   7  10
TORSDOF 4
ENDMDL
MODEL       51
REMARK 921   NORMALIZED FREE ENERGY PREDICTED BY IDOCK:   -6.19 KCAL/MOL
REMARK 922        TOTAL FREE ENERGY PREDICTED BY IDOCK:   -8.38 KCAL/MOL
REMARK 923 INTER-LIGAND FREE ENERGY PREDICTED BY IDOCK:   -7.63 KCAL/MOL
REMARK 924 INTRA-LIGAND FREE ENERGY PREDICTED BY IDOCK:   -0.74 KCAL/MOL
REMARK 927      BINDING AFFINITY PREDICTED BY RF-SCORE:    0.00 PKD
ROOT
HETATM    1  N   UNL     1     -12.533  14.254  63.545  1.00  0.00    -1.102 NA 
HETATM    2  H2  UNL     1     -12.398  15.153  64.007  1.00  0.00     0.000 HD 
HETATM    3  C   UNL     1     -11.793  13.290  64.232  1.00  0.00    -0.417 A  
HETATM    4  H1  UNL     1     -12.401  14.386  62.542  1.00  0.00     0.000 HD 
HETATM    5  C   UNL     1     -11.975  13.109  65.606  1.00  0.00    -0.462 A  
HETATM    6  C   UNL     1     -11.311  12.088  66.292  1.00  0.00    -0.415 A  
HETATM    7  C   UNL     1     -10.497  11.205  65.582  1.00  0.00    -0.248 A  
HETATM    8  C   UNL     1     -10.360  11.326  64.196  1.00  0.00    -0.410 A  
HETATM    9  C   UNL     1     -11.028  12.356  63.525  1.00  0.00    -0.506 A  
ENDROOT
BRANCH   7  10
HETATM   10  S   UNL     1      -9.543   9.976  66.462  1.00  0.00    -0.198 S  
HETATM   11  O   UNL     1      -8.970   9.124  65.441  1.00  0.00    -0.187 OA 
HETATM   12  O   UNL     1      -8.683  10.696  67.377  1.00  0.00    -0.126 OA 
BRANCH  10  13
HETATM   13  N   UNL     1     -10.706   9.155  67.264  1.00  0.00    -0.350 N  
HETATM   14  H   UNL     1     -11.663   9.197  66.914  1.00  0.00     0.000 HD 
BRANCH  13  15
HETATM   15  C   UNL     1     -10.447   8.403  68.402  1.00  0.00    -0.164 A  
HETATM   16  C   UNL     1      -9.709   7.240  68.361  1.00  0.00    -0.151 A  
HETATM   17  C   UNL     1      -9.587   6.844  69.699  1.00  0.00    -0.146 A  
HETATM   18  N   UNL     1     -10.179   7.690  70.536  1.00  0.00    -0.200 NA 
HETATM   19  N   UNL     1     -10.749   8.649  69.747  1.00  0.00    -0.228 NA 
BRANCH  19  20
HETATM   20  C   UNL     1     -11.480   9.711  70.363  1.00  0.00    -0.263 A  
HETATM   21  C   UNL     1     -11.335  11.019  69.869  1.00  0.00    -0.364 A  
HETATM   22  C   UNL     1     -11.999  12.090  70.476  1.00  0.00    -0.338 A  
HETATM   23  C   UNL     1     -12.803  11.872  71.590  1.00  0.00    -0.417 A  
HETATM   24  C   UNL     1     -12.967  10.581  72.077  1.00  0.00    -0.490 A  
HETATM   25  C   UNL     1     -12.327   9.505  71.455  1.00  0.00    -0.451 A  
ENDBRANCH  19  20
ENDBRANCH  13  15
ENDBRANCH  10  13
ENDBRANCH   7  10
TORSDOF 4
ENDMDL
MODEL       52
REMARK 921   NORMALIZED FREE ENERGY PREDICTED BY IDOCK:   -6.18 KCAL/MOL
REMARK 922        TOTAL FREE ENERGY PREDICTED BY IDOCK:   -8.36 KCAL/MOL
REMARK 923 INTER-LIGAND FREE ENERGY PREDICTED BY IDOCK:   -7.80 KCAL/MOL
REMARK 924 INTRA-LIGAND FREE ENERGY PREDICTED BY IDOCK:   -0.56 KCAL/MOL
REMARK 927      BINDING AFFINITY PREDICTED BY RF-SCORE:    0.00 PKD
ROOT
HETATM    1  N   UNL     1     -11.768   7.602  73.166  1.00  0.00    -0.636 NA 
HETATM    2  H2  UNL     1     -12.586   7.010  73.016  1.00  0.00     0.000 HD 
HETATM    3  C   UNL     1     -11.725   8.557  72.147  1.00  0.00    -0.378 A  
HETATM    4  H1  UNL     1     -10.964   7.000  73.341  1.00  0.00     0.000 HD 
HETATM    5  C   UNL     1     -12.828   9.382  71.908  1.00  0.00    -0.497 A  
HETATM    6  C   UNL     1     -12.768  10.404  70.956  1.00  0.00    -0.490 A  
HETATM    7  C   UNL     1     -11.573  10.635  70.275  1.00  0.00    -0.336 A  
HETATM    8  C   UNL     1     -10.439   9.867  70.553  1.00  0.00    -0.330 A  
HETATM    9  C   UNL     1     -10.515   8.845  71.506  1.00  0.00    -0.393 A  
ENDROOT
BRANCH   7  10
HETATM   10  S   UNL     1     -11.519  11.852  68.966  1.00  0.00    -0.322 S  
HETATM   11  O   UNL     1     -12.149  11.223  67.825  1.00  0.00    -0.631 OA 
HETATM   12  O   UNL     1     -12.063  13.076  69.516  1.00  0.00    -0.293 OA 
BRANCH  10  13
HETATM   13  N   UNL     1      -9.914  11.986  68.694  1.00  0.00    -0.348 N  
HETATM   14  H   UNL     1      -9.339  12.464  69.388  1.00  0.00     0.000 HD 
BRANCH  13  15
HETATM   15  C   UNL     1      -9.299  11.477  67.558  1.00  0.00    -0.166 A  
HETATM   16  C   UNL     1      -8.381  10.451  67.616  1.00  0.00    -0.114 A  
HETATM   17  C   UNL     1      -8.077  10.163  66.280  1.00  0.00    -0.124 A  
HETATM   18  N   UNL     1      -8.756  10.924  65.428  1.00  0.00    -0.181 NA 
HETATM   19  N   UNL     1      -9.497  11.772  66.203  1.00  0.00    -0.223 NA 
BRANCH  19  20
HETATM   20  C   UNL     1     -10.338  12.736  65.568  1.00  0.00    -0.284 A  
HETATM   21  C   UNL     1     -10.261  14.082  65.967  1.00  0.00    -0.313 A  
HETATM   22  C   UNL     1     -11.102  15.045  65.401  1.00  0.00    -0.377 A  
HETATM   23  C   UNL     1     -12.038  14.677  64.440  1.00  0.00    -0.481 A  
HETATM   24  C   UNL     1     -12.112  13.353  64.025  1.00  0.00    -0.506 A  
HETATM   25  C   UNL     1     -11.253  12.393  64.570  1.00  0.00    -0.371 A  
ENDBRANCH  19  20
ENDBRANCH  13  15
ENDBRANCH  10  13
ENDBRANCH   7  10
TORSDOF 4
ENDMDL
MODEL       53
REMARK 921   NORMALIZED FREE ENERGY PREDICTED BY IDOCK:   -6.17 KCAL/MOL
REMARK 922        TOTAL FREE ENERGY PREDICTED BY IDOCK:   -8.34 KCAL/MOL
REMARK 923 INTER-LIGAND FREE ENERGY PREDICTED BY IDOCK:   -7.59 KCAL/MOL
REMARK 924 INTRA-LIGAND FREE ENERGY PREDICTED BY IDOCK:   -0.75 KCAL/MOL
REMARK 927      BINDING AFFINITY PREDICTED BY RF-SCORE:    0.00 PKD
ROOT
HETATM    1  N   UNL     1     -11.033   8.795  67.396  1.00  0.00    -0.418 NA 
HETATM    2  H2  UNL     1     -12.011   8.614  67.168  1.00  0.00     0.000 HD 
HETATM    3  C   UNL     1     -10.873  10.169  67.586  1.00  0.00    -0.290 A  
HETATM    4  H1  UNL     1     -10.450   8.297  66.724  1.00  0.00     0.000 HD 
HETATM    5  C   UNL     1     -11.672  10.852  68.507  1.00  0.00    -0.307 A  
HETATM    6  C   UNL     1     -11.463  12.207  68.777  1.00  0.00    -0.359 A  
HETATM    7  C   UNL     1     -10.406  12.873  68.155  1.00  0.00    -0.240 A  
HETATM    8  C   UNL     1      -9.552  12.189  67.286  1.00  0.00    -0.185 A  
HETATM    9  C   UNL     1      -9.777  10.832  67.023  1.00  0.00    -0.205 A  
ENDROOT
BRANCH   7  10
HETATM   10  S   UNL     1     -10.205  14.633  68.391  1.00  0.00    -0.241 S  
HETATM   11  O   UNL     1     -11.545  15.181  68.383  1.00  0.00    -0.318 OA 
HETATM   12  O   UNL     1      -9.356  14.801  69.552  1.00  0.00    -0.049 OA 
BRANCH  10  13
HETATM   13  N   UNL     1      -9.431  15.072  67.021  1.00  0.00    -0.221 N  
HETATM   14  H   UNL     1      -8.426  14.909  66.954  1.00  0.00     0.000 HD 
BRANCH  13  15
HETATM   15  C   UNL     1     -10.082  15.659  65.945  1.00  0.00    -0.353 A  
HETATM   16  C   UNL     1     -10.864  14.931  65.075  1.00  0.00    -0.439 A  
HETATM   17  C   UNL     1     -11.417  15.880  64.206  1.00  0.00    -0.191 A  
HETATM   18  N   UNL     1     -11.039  17.120  64.501  1.00  0.00    -0.979 NA 
HETATM   19  N   UNL     1     -10.182  17.001  65.559  1.00  0.00    -0.617 NA 
BRANCH  19  20
HETATM   20  C   UNL     1      -9.589  18.179  66.107  1.00  0.00    -0.170 A  
HETATM   21  C   UNL     1     -10.417  19.250  66.489  1.00  0.00    -0.552 A  
HETATM   22  C   UNL     1      -9.869  20.436  66.986  1.00  0.00    -0.594 A  
HETATM   23  C   UNL     1      -8.489  20.575  67.097  1.00  0.00    -0.357 A  
HETATM   24  C   UNL     1      -7.661  19.518  66.739  1.00  0.00    -0.268 A  
HETATM   25  C   UNL     1      -8.208  18.320  66.268  1.00  0.00    -0.241 A  
ENDBRANCH  19  20
ENDBRANCH  13  15
ENDBRANCH  10  13
ENDBRANCH   7  10
TORSDOF 4
ENDMDL
MODEL       54
REMARK 921   NORMALIZED FREE ENERGY PREDICTED BY IDOCK:   -6.15 KCAL/MOL
REMARK 922        TOTAL FREE ENERGY PREDICTED BY IDOCK:   -8.33 KCAL/MOL
REMARK 923 INTER-LIGAND FREE ENERGY PREDICTED BY IDOCK:   -6.39 KCAL/MOL
REMARK 924 INTRA-LIGAND FREE ENERGY PREDICTED BY IDOCK:   -1.94 KCAL/MOL
REMARK 927      BINDING AFFINITY PREDICTED BY RF-SCORE:    0.00 PKD
ROOT
HETATM    1  N   UNL     1      -7.785  10.687  63.743  1.00  0.00    -0.353 NA 
HETATM    2  H2  UNL     1      -6.817  10.366  63.731  1.00  0.00     0.000 HD 
HETATM    3  C   UNL     1      -8.348  10.341  64.973  1.00  0.00    -0.168 A  
HETATM    4  H1  UNL     1      -8.230  10.395  62.873  1.00  0.00     0.000 HD 
HETATM    5  C   UNL     1      -7.738  10.742  66.165  1.00  0.00    -0.149 A  
HETATM    6  C   UNL     1      -8.337  10.484  67.402  1.00  0.00    -0.121 A  
HETATM    7  C   UNL     1      -9.587   9.865  67.440  1.00  0.00    -0.155 A  
HETATM    8  C   UNL     1     -10.245   9.523  66.256  1.00  0.00    -0.290 A  
HETATM    9  C   UNL     1      -9.630   9.784  65.026  1.00  0.00    -0.333 A  
ENDROOT
BRANCH   7  10
HETATM   10  S   UNL     1     -10.305   9.415  69.014  1.00  0.00    -0.214 S  
HETATM   11  O   UNL     1     -10.496   7.981  68.958  1.00  0.00    -0.218 OA 
HETATM   12  O   UNL     1      -9.460   9.997  70.037  1.00  0.00    -0.224 OA 
BRANCH  10  13
HETATM   13  N   UNL     1     -11.757  10.160  68.950  1.00  0.00    -0.508 N  
HETATM   14  H   UNL     1     -12.539   9.669  68.514  1.00  0.00     0.000 HD 
BRANCH  13  15
HETATM   15  C   UNL     1     -11.973  11.432  69.462  1.00  0.00    -0.341 A  
HETATM   16  C   UNL     1     -12.428  11.639  70.746  1.00  0.00    -0.425 A  
HETATM   17  C   UNL     1     -12.417  13.029  70.912  1.00  0.00    -0.310 A  
HETATM   18  N   UNL     1     -11.974  13.667  69.833  1.00  0.00    -0.330 NA 
HETATM   19  N   UNL     1     -11.724  12.694  68.907  1.00  0.00    -0.311 NA 
BRANCH  19  20
HETATM   20  C   UNL     1     -11.239  13.070  67.618  1.00  0.00    -0.280 A  
HETATM   21  C   UNL     1     -11.999  12.749  66.479  1.00  0.00    -0.428 A  
HETATM   22  C   UNL     1     -11.533  13.060  65.198  1.00  0.00    -0.338 A  
HETATM   23  C   UNL     1     -10.300  13.683  65.035  1.00  0.00    -0.393 A  
HETATM   24  C   UNL     1      -9.548  14.021  66.154  1.00  0.00    -0.263 A  
HETATM   25  C   UNL     1     -10.025  13.736  67.437  1.00  0.00    -0.237 A  
ENDBRANCH  19  20
ENDBRANCH  13  15
ENDBRANCH  10  13
ENDBRANCH   7  10
TORSDOF 4
ENDMDL
MODEL       55
REMARK 921   NORMALIZED FREE ENERGY PREDICTED BY IDOCK:   -6.12 KCAL/MOL
REMARK 922        TOTAL FREE ENERGY PREDICTED BY IDOCK:   -8.29 KCAL/MOL
REMARK 923 INTER-LIGAND FREE ENERGY PREDICTED BY IDOCK:   -7.63 KCAL/MOL
REMARK 924 INTRA-LIGAND FREE ENERGY PREDICTED BY IDOCK:   -0.66 KCAL/MOL
REMARK 927      BINDING AFFINITY PREDICTED BY RF-SCORE:    0.00 PKD
ROOT
HETATM    1  N   UNL     1      -8.492   8.641  63.147  1.00  0.00    -0.372 NA 
HETATM    2  H2  UNL     1      -7.742   8.984  62.548  1.00  0.00     0.000 HD 
HETATM    3  C   UNL     1      -9.112   9.738  63.749  1.00  0.00    -0.230 A  
HETATM    4  H1  UNL     1      -8.123   7.881  63.719  1.00  0.00     0.000 HD 
HETATM    5  C   UNL     1      -9.618  10.779  62.965  1.00  0.00    -0.381 A  
HETATM    6  C   UNL     1     -10.323  11.838  63.542  1.00  0.00    -0.490 A  
HETATM    7  C   UNL     1     -10.569  11.827  64.916  1.00  0.00    -0.294 A  
HETATM    8  C   UNL     1     -10.134  10.759  65.705  1.00  0.00    -0.327 A  
HETATM    9  C   UNL     1      -9.426   9.707  65.112  1.00  0.00    -0.332 A  
ENDROOT
BRANCH   7  10
HETATM   10  S   UNL     1     -11.356  13.235  65.687  1.00  0.00    -0.310 S  
HETATM   11  O   UNL     1     -10.920  14.388  64.927  1.00  0.00    -0.366 OA 
HETATM   12  O   UNL     1     -12.765  12.919  65.787  1.00  0.00    -0.492 OA 
BRANCH  10  13
HETATM   13  N   UNL     1     -10.646  13.255  67.159  1.00  0.00    -0.258 N  
HETATM   14  H   UNL     1      -9.747  12.788  67.274  1.00  0.00     0.000 HD 
BRANCH  13  15
HETATM   15  C   UNL     1     -11.216  13.881  68.259  1.00  0.00    -0.272 A  
HETATM   16  C   UNL     1     -11.443  15.240  68.295  1.00  0.00    -0.359 A  
HETATM   17  C   UNL     1     -12.110  15.462  69.506  1.00  0.00    -0.305 A  
HETATM   18  N   UNL     1     -12.315  14.339  70.187  1.00  0.00    -0.340 NA 
HETATM   19  N   UNL     1     -11.736  13.348  69.445  1.00  0.00    -0.307 NA 
BRANCH  19  20
HETATM   20  C   UNL     1     -11.780  12.005  69.927  1.00  0.00    -0.299 A  
HETATM   21  C   UNL     1     -12.785  11.635  70.839  1.00  0.00    -0.351 A  
HETATM   22  C   UNL     1     -12.831  10.342  71.367  1.00  0.00    -0.544 A  
HETATM   23  C   UNL     1     -11.870   9.404  71.003  1.00  0.00    -0.396 A  
HETATM   24  C   UNL     1     -10.882   9.752  70.090  1.00  0.00    -0.340 A  
HETATM   25  C   UNL     1     -10.850  11.037  69.539  1.00  0.00    -0.267 A  
ENDBRANCH  19  20
ENDBRANCH  13  15
ENDBRANCH  10  13
ENDBRANCH   7  10
TORSDOF 4
ENDMDL
MODEL       56
REMARK 921   NORMALIZED FREE ENERGY PREDICTED BY IDOCK:   -6.09 KCAL/MOL
REMARK 922        TOTAL FREE ENERGY PREDICTED BY IDOCK:   -8.25 KCAL/MOL
REMARK 923 INTER-LIGAND FREE ENERGY PREDICTED BY IDOCK:   -7.64 KCAL/MOL
REMARK 924 INTRA-LIGAND FREE ENERGY PREDICTED BY IDOCK:   -0.61 KCAL/MOL
REMARK 927      BINDING AFFINITY PREDICTED BY RF-SCORE:    0.00 PKD
ROOT
HETATM    1  N   UNL     1     -12.398  13.771  63.338  1.00  0.00    -1.100 NA 
HETATM    2  H2  UNL     1     -12.888  13.316  62.568  1.00  0.00     0.000 HD 
HETATM    3  C   UNL     1     -11.862  12.781  64.164  1.00  0.00    -0.413 A  
HETATM    4  H1  UNL     1     -13.009  14.490  63.726  1.00  0.00     0.000 HD 
HETATM    5  C   UNL     1     -11.025  11.796  63.632  1.00  0.00    -0.513 A  
HETATM    6  C   UNL     1     -10.406  10.854  64.459  1.00  0.00    -0.417 A  
HETATM    7  C   UNL     1     -10.586  10.934  65.840  1.00  0.00    -0.178 A  
HETATM    8  C   UNL     1     -11.361  11.955  66.396  1.00  0.00    -0.400 A  
HETATM    9  C   UNL     1     -11.978  12.888  65.554  1.00  0.00    -0.482 A  
ENDROOT
BRANCH   7  10
HETATM   10  S   UNL     1      -9.907   9.662  66.897  1.00  0.00    -0.214 S  
HETATM   11  O   UNL     1     -10.897   8.607  66.921  1.00  0.00    -0.178 OA 
HETATM   12  O   UNL     1      -8.568   9.395  66.415  1.00  0.00    -0.130 OA 
BRANCH  10  13
HETATM   13  N   UNL     1      -9.876  10.410  68.350  1.00  0.00    -0.157 N  
HETATM   14  H   UNL     1     -10.350  11.308  68.447  1.00  0.00     0.000 HD 
BRANCH  13  15
HETATM   15  C   UNL     1      -9.232   9.875  69.457  1.00  0.00    -0.223 A  
HETATM   16  C   UNL     1      -7.872   9.995  69.644  1.00  0.00    -0.171 A  
HETATM   17  C   UNL     1      -7.630   9.426  70.900  1.00  0.00    -0.067 A  
HETATM   18  N   UNL     1      -8.742   8.992  71.485  1.00  0.00    -0.346 NA 
HETATM   19  N   UNL     1      -9.745   9.231  70.590  1.00  0.00    -0.253 NA 
BRANCH  19  20
HETATM   20  C   UNL     1     -11.082   8.859  70.929  1.00  0.00    -0.271 A  
HETATM   21  C   UNL     1     -12.015   9.863  71.242  1.00  0.00    -0.489 A  
HETATM   22  C   UNL     1     -13.319   9.534  71.623  1.00  0.00    -0.485 A  
HETATM   23  C   UNL     1     -13.706   8.200  71.711  1.00  0.00    -0.422 A  
HETATM   24  C   UNL     1     -12.797   7.199  71.387  1.00  0.00    -0.431 A  
HETATM   25  C   UNL     1     -11.501   7.527  70.978  1.00  0.00    -0.299 A  
ENDBRANCH  19  20
ENDBRANCH  13  15
ENDBRANCH  10  13
ENDBRANCH   7  10
TORSDOF 4
ENDMDL
MODEL       57
REMARK 921   NORMALIZED FREE ENERGY PREDICTED BY IDOCK:   -6.09 KCAL/MOL
REMARK 922        TOTAL FREE ENERGY PREDICTED BY IDOCK:   -8.25 KCAL/MOL
REMARK 923 INTER-LIGAND FREE ENERGY PREDICTED BY IDOCK:   -7.62 KCAL/MOL
REMARK 924 INTRA-LIGAND FREE ENERGY PREDICTED BY IDOCK:   -0.63 KCAL/MOL
REMARK 927      BINDING AFFINITY PREDICTED BY RF-SCORE:    0.00 PKD
ROOT
HETATM    1  N   UNL     1      -5.176  21.225  68.452  1.00  0.00    -0.461 NA 
HETATM    2  H2  UNL     1      -5.497  22.187  68.556  1.00  0.00     0.000 HD 
HETATM    3  C   UNL     1      -6.282  20.419  68.178  1.00  0.00    -0.288 A  
HETATM    4  H1  UNL     1      -4.561  21.006  69.236  1.00  0.00     0.000 HD 
HETATM    5  C   UNL     1      -7.124  20.720  67.103  1.00  0.00    -0.404 A  
HETATM    6  C   UNL     1      -8.181  19.872  66.758  1.00  0.00    -0.357 A  
HETATM    7  C   UNL     1      -8.363  18.683  67.465  1.00  0.00    -0.265 A  
HETATM    8  C   UNL     1      -7.487  18.331  68.495  1.00  0.00    -0.300 A  
HETATM    9  C   UNL     1      -6.436  19.192  68.832  1.00  0.00    -0.299 A  
ENDROOT
BRANCH   7  10
HETATM   10  S   UNL     1      -9.784  17.655  67.119  1.00  0.00    -0.302 S  
HETATM   11  O   UNL     1     -10.890  18.272  67.820  1.00  0.00    -0.386 OA 
HETATM   12  O   UNL     1      -9.834  17.488  65.681  1.00  0.00    -0.543 OA 
BRANCH  10  13
HETATM   13  N   UNL     1      -9.380  16.258  67.865  1.00  0.00    -0.209 N  
HETATM   14  H   UNL     1      -8.396  15.995  67.910  1.00  0.00     0.000 HD 
BRANCH  13  15
HETATM   15  C   UNL     1     -10.321  15.414  68.439  1.00  0.00    -0.229 A  
HETATM   16  C   UNL     1     -10.649  15.481  69.775  1.00  0.00    -0.301 A  
HETATM   17  C   UNL     1     -11.687  14.556  69.939  1.00  0.00    -0.299 A  
HETATM   18  N   UNL     1     -12.017  13.955  68.800  1.00  0.00    -0.356 NA 
HETATM   19  N   UNL     1     -11.156  14.450  67.861  1.00  0.00    -0.266 NA 
BRANCH  19  20
HETATM   20  C   UNL     1     -11.252  13.981  66.515  1.00  0.00    -0.322 A  
HETATM   21  C   UNL     1     -12.511  13.619  66.004  1.00  0.00    -0.477 A  
HETATM   22  C   UNL     1     -12.637  13.112  64.707  1.00  0.00    -0.426 A  
HETATM   23  C   UNL     1     -11.510  12.948  63.909  1.00  0.00    -0.504 A  
HETATM   24  C   UNL     1     -10.262  13.318  64.397  1.00  0.00    -0.300 A  
HETATM   25  C   UNL     1     -10.138  13.851  65.683  1.00  0.00    -0.332 A  
ENDBRANCH  19  20
ENDBRANCH  13  15
ENDBRANCH  10  13
ENDBRANCH   7  10
TORSDOF 4
ENDMDL
MODEL       58
REMARK 921   NORMALIZED FREE ENERGY PREDICTED BY IDOCK:   -6.06 KCAL/MOL
REMARK 922        TOTAL FREE ENERGY PREDICTED BY IDOCK:   -8.22 KCAL/MOL
REMARK 923 INTER-LIGAND FREE ENERGY PREDICTED BY IDOCK:   -7.88 KCAL/MOL
REMARK 924 INTRA-LIGAND FREE ENERGY PREDICTED BY IDOCK:   -0.34 KCAL/MOL
REMARK 927      BINDING AFFINITY PREDICTED BY RF-SCORE:    0.00 PKD
ROOT
HETATM    1  N   UNL     1     -13.725  16.335  73.826  1.00  0.00    -0.776 NA 
HETATM    2  H2  UNL     1     -14.194  15.647  74.415  1.00  0.00     0.000 HD 
HETATM    3  C   UNL     1     -13.147  15.668  72.744  1.00  0.00    -0.495 A  
HETATM    4  H1  UNL     1     -13.157  16.934  74.424  1.00  0.00     0.000 HD 
HETATM    5  C   UNL     1     -13.927  14.847  71.924  1.00  0.00    -0.585 A  
HETATM    6  C   UNL     1     -13.386  14.246  70.784  1.00  0.00    -0.174 A  
HETATM    7  C   UNL     1     -12.062  14.514  70.433  1.00  0.00    -0.322 A  
HETATM    8  C   UNL     1     -11.289  15.389  71.201  1.00  0.00    -0.427 A  
HETATM    9  C   UNL     1     -11.844  15.980  72.342  1.00  0.00    -0.639 A  
ENDROOT
BRANCH   7  10
HETATM   10  S   UNL     1     -11.319  13.654  69.053  1.00  0.00    -0.302 S  
HETATM   11  O   UNL     1     -12.325  13.649  68.012  1.00  0.00    -0.238 OA 
HETATM   12  O   UNL     1     -10.033  14.277  68.821  1.00  0.00    -0.231 OA 
BRANCH  10  13
HETATM   13  N   UNL     1     -11.147  12.142  69.649  1.00  0.00    -0.474 N  
HETATM   14  H   UNL     1     -11.193  12.007  70.659  1.00  0.00     0.000 HD 
BRANCH  13  15
HETATM   15  C   UNL     1     -10.940  11.035  68.839  1.00  0.00    -0.227 A  
HETATM   16  C   UNL     1     -10.816  11.138  67.471  1.00  0.00    -0.303 A  
HETATM   17  C   UNL     1     -10.520   9.840  67.036  1.00  0.00    -0.227 A  
HETATM   18  N   UNL     1     -10.439   8.974  68.041  1.00  0.00    -0.226 NA 
HETATM   19  N   UNL     1     -10.730   9.689  69.168  1.00  0.00    -0.221 NA 
BRANCH  19  20
HETATM   20  C   UNL     1     -10.735   9.023  70.431  1.00  0.00    -0.227 A  
HETATM   21  C   UNL     1     -11.963   8.636  70.997  1.00  0.00    -0.278 A  
HETATM   22  C   UNL     1     -12.009   8.023  72.253  1.00  0.00    -0.412 A  
HETATM   23  C   UNL     1     -10.836   7.801  72.966  1.00  0.00    -0.451 A  
HETATM   24  C   UNL     1      -9.615   8.164  72.409  1.00  0.00    -0.335 A  
HETATM   25  C   UNL     1      -9.563   8.751  71.141  1.00  0.00    -0.309 A  
ENDBRANCH  19  20
ENDBRANCH  13  15
ENDBRANCH  10  13
ENDBRANCH   7  10
TORSDOF 4
ENDMDL
MODEL       59
REMARK 921   NORMALIZED FREE ENERGY PREDICTED BY IDOCK:   -6.06 KCAL/MOL
REMARK 922        TOTAL FREE ENERGY PREDICTED BY IDOCK:   -8.21 KCAL/MOL
REMARK 923 INTER-LIGAND FREE ENERGY PREDICTED BY IDOCK:   -7.42 KCAL/MOL
REMARK 924 INTRA-LIGAND FREE ENERGY PREDICTED BY IDOCK:   -0.79 KCAL/MOL
REMARK 927      BINDING AFFINITY PREDICTED BY RF-SCORE:    0.00 PKD
ROOT
HETATM    1  N   UNL     1     -12.342  14.096  63.215  1.00  0.00    -1.133 NA 
HETATM    2  H2  UNL     1     -12.236  15.065  63.515  1.00  0.00     0.000 HD 
HETATM    3  C   UNL     1     -11.787  13.269  64.193  1.00  0.00    -0.443 A  
HETATM    4  H1  UNL     1     -12.033  14.026  62.245  1.00  0.00     0.000 HD 
HETATM    5  C   UNL     1     -12.211  13.365  65.521  1.00  0.00    -0.499 A  
HETATM    6  C   UNL     1     -11.734  12.483  66.495  1.00  0.00    -0.454 A  
HETATM    7  C   UNL     1     -10.863  11.459  66.122  1.00  0.00    -0.255 A  
HETATM    8  C   UNL     1     -10.485  11.302  64.785  1.00  0.00    -0.384 A  
HETATM    9  C   UNL     1     -10.968  12.196  63.823  1.00  0.00    -0.494 A  
ENDROOT
BRANCH   7  10
HETATM   10  S   UNL     1     -10.146  10.404  67.374  1.00  0.00    -0.207 S  
HETATM   11  O   UNL     1      -9.504   9.326  66.653  1.00  0.00    -0.166 OA 
HETATM   12  O   UNL     1      -9.370  11.263  68.244  1.00  0.00    -0.166 OA 
BRANCH  10  13
HETATM   13  N   UNL     1     -11.474   9.832  68.136  1.00  0.00    -0.456 N  
HETATM   14  H   UNL     1     -12.173   9.330  67.588  1.00  0.00     0.000 HD 
BRANCH  13  15
HETATM   15  C   UNL     1     -11.691  10.001  69.496  1.00  0.00     0.006 A  
HETATM   16  C   UNL     1     -12.368  11.089  70.003  1.00  0.00    -0.377 A  
HETATM   17  C   UNL     1     -12.465  10.845  71.378  1.00  0.00    -0.355 A  
HETATM   18  N   UNL     1     -11.914   9.687  71.730  1.00  0.00    -0.381 NA 
HETATM   19  N   UNL     1     -11.397   9.162  70.579  1.00  0.00    -0.264 NA 
BRANCH  19  20
HETATM   20  C   UNL     1     -10.720   7.905  70.632  1.00  0.00    -0.228 A  
HETATM   21  C   UNL     1      -9.330   7.866  70.424  1.00  0.00    -0.159 A  
HETATM   22  C   UNL     1      -8.641   6.649  70.423  1.00  0.00    -0.143 A  
HETATM   23  C   UNL     1      -9.330   5.456  70.616  1.00  0.00    -0.204 A  
HETATM   24  C   UNL     1     -10.702   5.484  70.839  1.00  0.00    -0.283 A  
HETATM   25  C   UNL     1     -11.388   6.702  70.869  1.00  0.00    -0.377 A  
ENDBRANCH  19  20
ENDBRANCH  13  15
ENDBRANCH  10  13
ENDBRANCH   7  10
TORSDOF 4
ENDMDL
MODEL       60
REMARK 921   NORMALIZED FREE ENERGY PREDICTED BY IDOCK:   -6.02 KCAL/MOL
REMARK 922        TOTAL FREE ENERGY PREDICTED BY IDOCK:   -8.17 KCAL/MOL
REMARK 923 INTER-LIGAND FREE ENERGY PREDICTED BY IDOCK:   -7.35 KCAL/MOL
REMARK 924 INTRA-LIGAND FREE ENERGY PREDICTED BY IDOCK:   -0.82 KCAL/MOL
REMARK 927      BINDING AFFINITY PREDICTED BY RF-SCORE:    0.00 PKD
ROOT
HETATM    1  N   UNL     1     -13.922   8.891  73.282  1.00  0.00    -1.217 NA 
HETATM    2  H2  UNL     1     -14.911   9.082  73.120  1.00  0.00     0.000 HD 
HETATM    3  C   UNL     1     -13.203   9.324  72.166  1.00  0.00    -0.461 A  
HETATM    4  H1  UNL     1     -13.831   7.931  73.612  1.00  0.00     0.000 HD 
HETATM    5  C   UNL     1     -13.329  10.641  71.714  1.00  0.00    -0.437 A  
HETATM    6  C   UNL     1     -12.547  11.117  70.657  1.00  0.00    -0.408 A  
HETATM    7  C   UNL     1     -11.591  10.279  70.083  1.00  0.00    -0.299 A  
HETATM    8  C   UNL     1     -11.401   8.982  70.569  1.00  0.00    -0.282 A  
HETATM    9  C   UNL     1     -12.194   8.519  71.626  1.00  0.00    -0.371 A  
ENDROOT
BRANCH   7  10
HETATM   10  S   UNL     1     -10.676  10.830  68.650  1.00  0.00    -0.227 S  
HETATM   11  O   UNL     1      -9.285  10.823  69.051  1.00  0.00    -0.180 OA 
HETATM   12  O   UNL     1     -11.117  10.014  67.537  1.00  0.00    -0.274 OA 
BRANCH  10  13
HETATM   13  N   UNL     1     -11.188  12.373  68.493  1.00  0.00    -0.257 N  
HETATM   14  H   UNL     1     -12.132  12.608  68.799  1.00  0.00     0.000 HD 
BRANCH  13  15
HETATM   15  C   UNL     1     -10.392  13.378  67.961  1.00  0.00    -0.241 A  
HETATM   16  C   UNL     1      -9.882  14.398  68.733  1.00  0.00    -0.214 A  
HETATM   17  C   UNL     1      -9.066  15.135  67.866  1.00  0.00    -0.179 A  
HETATM   18  N   UNL     1      -9.035  14.622  66.640  1.00  0.00    -0.256 NA 
HETATM   19  N   UNL     1      -9.880  13.549  66.668  1.00  0.00    -0.272 NA 
BRANCH  19  20
HETATM   20  C   UNL     1     -10.071  12.785  65.477  1.00  0.00    -0.264 A  
HETATM   21  C   UNL     1      -9.220  11.696  65.216  1.00  0.00    -0.039 A  
HETATM   22  C   UNL     1      -9.348  10.954  64.039  1.00  0.00    -0.266 A  
HETATM   23  C   UNL     1     -10.317  11.295  63.100  1.00  0.00    -0.338 A  
HETATM   24  C   UNL     1     -11.175  12.359  63.354  1.00  0.00    -0.492 A  
HETATM   25  C   UNL     1     -11.067  13.084  64.544  1.00  0.00    -0.378 A  
ENDBRANCH  19  20
ENDBRANCH  13  15
ENDBRANCH  10  13
ENDBRANCH   7  10
TORSDOF 4
ENDMDL
MODEL       61
REMARK 921   NORMALIZED FREE ENERGY PREDICTED BY IDOCK:   -6.02 KCAL/MOL
REMARK 922        TOTAL FREE ENERGY PREDICTED BY IDOCK:   -8.16 KCAL/MOL
REMARK 923 INTER-LIGAND FREE ENERGY PREDICTED BY IDOCK:   -6.86 KCAL/MOL
REMARK 924 INTRA-LIGAND FREE ENERGY PREDICTED BY IDOCK:   -1.30 KCAL/MOL
REMARK 927      BINDING AFFINITY PREDICTED BY RF-SCORE:    0.00 PKD
ROOT
HETATM    1  N   UNL     1     -13.397   9.728  72.178  1.00  0.00    -0.499 NA 
HETATM    2  H2  UNL     1     -14.393   9.687  72.393  1.00  0.00     0.000 HD 
HETATM    3  C   UNL     1     -13.116  10.982  71.631  1.00  0.00    -0.438 A  
HETATM    4  H1  UNL     1     -13.142   8.879  71.675  1.00  0.00     0.000 HD 
HETATM    5  C   UNL     1     -13.466  12.146  72.320  1.00  0.00    -0.298 A  
HETATM    6  C   UNL     1     -13.110  13.407  71.832  1.00  0.00    -0.476 A  
HETATM    7  C   UNL     1     -12.349  13.498  70.666  1.00  0.00    -0.358 A  
HETATM    8  C   UNL     1     -11.929  12.342  70.002  1.00  0.00    -0.372 A  
HETATM    9  C   UNL     1     -12.297  11.087  70.502  1.00  0.00    -0.462 A  
ENDROOT
BRANCH   7  10
HETATM   10  S   UNL     1     -11.997  15.102  69.960  1.00  0.00    -0.359 S  
HETATM   11  O   UNL     1     -13.012  15.989  70.487  1.00  0.00    -0.337 OA 
HETATM   12  O   UNL     1     -10.596  15.367  70.213  1.00  0.00    -0.301 OA 
BRANCH  10  13
HETATM   13  N   UNL     1     -12.274  14.842  68.371  1.00  0.00    -0.605 N  
HETATM   14  H   UNL     1     -13.184  14.480  68.087  1.00  0.00     0.000 HD 
BRANCH  13  15
HETATM   15  C   UNL     1     -11.322  15.092  67.392  1.00  0.00    -0.332 A  
HETATM   16  C   UNL     1     -11.172  16.333  66.813  1.00  0.00     0.217 A  
HETATM   17  C   UNL     1     -10.064  16.204  65.967  1.00  0.00    -0.351 A  
HETATM   18  N   UNL     1      -9.530  14.988  66.009  1.00  0.00    -0.310 NA 
HETATM   19  N   UNL     1     -10.318  14.270  66.864  1.00  0.00    -0.267 NA 
BRANCH  19  20
HETATM   20  C   UNL     1     -10.003  12.899  67.113  1.00  0.00    -0.240 A  
HETATM   21  C   UNL     1      -8.868  12.585  67.881  1.00  0.00    -0.185 A  
HETATM   22  C   UNL     1      -8.503  11.255  68.106  1.00  0.00    -0.145 A  
HETATM   23  C   UNL     1      -9.256  10.222  67.558  1.00  0.00    -0.153 A  
HETATM   24  C   UNL     1     -10.390  10.519  66.812  1.00  0.00    -0.301 A  
HETATM   25  C   UNL     1     -10.773  11.848  66.609  1.00  0.00    -0.291 A  
ENDBRANCH  19  20
ENDBRANCH  13  15
ENDBRANCH  10  13
ENDBRANCH   7  10
TORSDOF 4
ENDMDL
MODEL       62
REMARK 921   NORMALIZED FREE ENERGY PREDICTED BY IDOCK:   -6.01 KCAL/MOL
REMARK 922        TOTAL FREE ENERGY PREDICTED BY IDOCK:   -8.15 KCAL/MOL
REMARK 923 INTER-LIGAND FREE ENERGY PREDICTED BY IDOCK:   -7.58 KCAL/MOL
REMARK 924 INTRA-LIGAND FREE ENERGY PREDICTED BY IDOCK:   -0.58 KCAL/MOL
REMARK 927      BINDING AFFINITY PREDICTED BY RF-SCORE:    0.00 PKD
ROOT
HETATM    1  N   UNL     1     -12.451  13.817  62.850  1.00  0.00    -0.876 NA 
HETATM    2  H2  UNL     1     -12.586  13.089  62.148  1.00  0.00     0.000 HD 
HETATM    3  C   UNL     1     -12.144  13.203  64.067  1.00  0.00    -0.446 A  
HETATM    4  H1  UNL     1     -13.230  14.472  62.787  1.00  0.00     0.000 HD 
HETATM    5  C   UNL     1     -11.076  12.306  64.153  1.00  0.00    -0.423 A  
HETATM    6  C   UNL     1     -10.697  11.754  65.381  1.00  0.00    -0.333 A  
HETATM    7  C   UNL     1     -11.363  12.149  66.542  1.00  0.00    -0.350 A  
HETATM    8  C   UNL     1     -12.386  13.099  66.484  1.00  0.00    -0.252 A  
HETATM    9  C   UNL     1     -12.756  13.639  65.247  1.00  0.00    -0.478 A  
ENDROOT
BRANCH   7  10
HETATM   10  S   UNL     1     -10.976  11.358  68.098  1.00  0.00    -0.254 S  
HETATM   11  O   UNL     1     -12.252  10.995  68.677  1.00  0.00    -0.571 OA 
HETATM   12  O   UNL     1      -9.990  10.337  67.810  1.00  0.00    -0.165 OA 
BRANCH  10  13
HETATM   13  N   UNL     1     -10.324  12.589  68.950  1.00  0.00    -0.420 N  
HETATM   14  H   UNL     1      -9.331  12.551  69.181  1.00  0.00     0.000 HD 
BRANCH  13  15
HETATM   15  C   UNL     1     -11.064  13.684  69.375  1.00  0.00    -0.141 A  
HETATM   16  C   UNL     1     -12.045  13.579  70.336  1.00  0.00    -0.415 A  
HETATM   17  C   UNL     1     -12.477  14.893  70.556  1.00  0.00    -0.363 A  
HETATM   18  N   UNL     1     -11.816  15.776  69.813  1.00  0.00    -0.351 NA 
HETATM   19  N   UNL     1     -10.956  15.042  69.047  1.00  0.00    -0.238 NA 
BRANCH  19  20
HETATM   20  C   UNL     1     -10.101  15.716  68.122  1.00  0.00    -0.222 A  
HETATM   21  C   UNL     1      -8.820  16.117  68.539  1.00  0.00    -0.200 A  
HETATM   22  C   UNL     1      -7.974  16.819  67.676  1.00  0.00    -0.189 A  
HETATM   23  C   UNL     1      -8.399  17.144  66.392  1.00  0.00    -0.315 A  
HETATM   24  C   UNL     1      -9.658  16.739  65.963  1.00  0.00    -0.265 A  
HETATM   25  C   UNL     1     -10.494  16.011  66.814  1.00  0.00    -0.308 A  
ENDBRANCH  19  20
ENDBRANCH  13  15
ENDBRANCH  10  13
ENDBRANCH   7  10
TORSDOF 4
ENDMDL
MODEL       63
REMARK 921   NORMALIZED FREE ENERGY PREDICTED BY IDOCK:   -6.00 KCAL/MOL
REMARK 922        TOTAL FREE ENERGY PREDICTED BY IDOCK:   -8.14 KCAL/MOL
REMARK 923 INTER-LIGAND FREE ENERGY PREDICTED BY IDOCK:   -7.47 KCAL/MOL
REMARK 924 INTRA-LIGAND FREE ENERGY PREDICTED BY IDOCK:   -0.67 KCAL/MOL
REMARK 927      BINDING AFFINITY PREDICTED BY RF-SCORE:    0.00 PKD
ROOT
HETATM    1  N   UNL     1     -10.201   8.059  66.676  1.00  0.00    -0.422 NA 
HETATM    2  H2  UNL     1      -9.233   7.817  66.465  1.00  0.00     0.000 HD 
HETATM    3  C   UNL     1     -10.346   9.442  66.550  1.00  0.00    -0.198 A  
HETATM    4  H1  UNL     1     -10.466   7.592  67.543  1.00  0.00     0.000 HD 
HETATM    5  C   UNL     1      -9.983  10.083  65.362  1.00  0.00    -0.364 A  
HETATM    6  C   UNL     1     -10.208  11.451  65.183  1.00  0.00    -0.328 A  
HETATM    7  C   UNL     1     -10.853  12.174  66.188  1.00  0.00    -0.282 A  
HETATM    8  C   UNL     1     -11.288  11.535  67.352  1.00  0.00    -0.367 A  
HETATM    9  C   UNL     1     -11.052  10.166  67.517  1.00  0.00    -0.251 A  
ENDROOT
BRANCH   7  10
HETATM   10  S   UNL     1     -11.032  13.945  66.029  1.00  0.00    -0.288 S  
HETATM   11  O   UNL     1     -10.432  14.284  64.756  1.00  0.00    -0.431 OA 
HETATM   12  O   UNL     1     -12.427  14.244  66.279  1.00  0.00    -0.445 OA 
BRANCH  10  13
HETATM   13  N   UNL     1     -10.082  14.492  67.240  1.00  0.00    -0.246 N  
HETATM   14  H   UNL     1      -9.071  14.388  67.153  1.00  0.00     0.000 HD 
BRANCH  13  15
HETATM   15  C   UNL     1     -10.592  15.091  68.383  1.00  0.00    -0.239 A  
HETATM   16  C   UNL     1     -11.092  14.358  69.437  1.00  0.00    -0.294 A  
HETATM   17  C   UNL     1     -11.407  15.305  70.419  1.00  0.00    -0.296 A  
HETATM   18  N   UNL     1     -11.117  16.546  70.040  1.00  0.00    -0.303 NA 
HETATM   19  N   UNL     1     -10.641  16.439  68.764  1.00  0.00    -0.289 NA 
BRANCH  19  20
HETATM   20  C   UNL     1     -10.248  17.622  68.068  1.00  0.00    -0.362 A  
HETATM   21  C   UNL     1      -9.439  18.567  68.724  1.00  0.00    -0.334 A  
HETATM   22  C   UNL     1      -9.073  19.758  68.091  1.00  0.00    -0.385 A  
HETATM   23  C   UNL     1      -9.519  20.029  66.802  1.00  0.00    -0.530 A  
HETATM   24  C   UNL     1     -10.305  19.096  66.136  1.00  0.00    -0.561 A  
HETATM   25  C   UNL     1     -10.649  17.891  66.757  1.00  0.00    -0.253 A  
ENDBRANCH  19  20
ENDBRANCH  13  15
ENDBRANCH  10  13
ENDBRANCH   7  10
TORSDOF 4
ENDMDL
MODEL       64
REMARK 921   NORMALIZED FREE ENERGY PREDICTED BY IDOCK:   -5.96 KCAL/MOL
REMARK 922        TOTAL FREE ENERGY PREDICTED BY IDOCK:   -8.09 KCAL/MOL
REMARK 923 INTER-LIGAND FREE ENERGY PREDICTED BY IDOCK:   -7.28 KCAL/MOL
REMARK 924 INTRA-LIGAND FREE ENERGY PREDICTED BY IDOCK:   -0.82 KCAL/MOL
REMARK 927      BINDING AFFINITY PREDICTED BY RF-SCORE:    0.00 PKD
ROOT
HETATM    1  N   UNL     1     -12.410  13.747  62.987  1.00  0.00    -1.030 NA 
HETATM    2  H2  UNL     1     -12.572  12.858  62.513  1.00  0.00     0.000 HD 
HETATM    3  C   UNL     1     -12.069  13.481  64.315  1.00  0.00    -0.431 A  
HETATM    4  H1  UNL     1     -13.187  14.371  62.770  1.00  0.00     0.000 HD 
HETATM    5  C   UNL     1     -11.005  12.626  64.612  1.00  0.00    -0.346 A  
HETATM    6  C   UNL     1     -10.591  12.423  65.931  1.00  0.00    -0.289 A  
HETATM    7  C   UNL     1     -11.217  13.126  66.960  1.00  0.00    -0.294 A  
HETATM    8  C   UNL     1     -12.235  14.040  66.676  1.00  0.00    -0.463 A  
HETATM    9  C   UNL     1     -12.641  14.230  65.349  1.00  0.00    -0.422 A  
ENDROOT
BRANCH   7  10
HETATM   10  S   UNL     1     -10.787  12.782  68.661  1.00  0.00    -0.245 S  
HETATM   11  O   UNL     1     -12.032  12.839  69.396  1.00  0.00    -0.301 OA 
HETATM   12  O   UNL     1     -10.002  11.565  68.651  1.00  0.00    -0.210 OA 
BRANCH  10  13
HETATM   13  N   UNL     1      -9.869  14.077  69.047  1.00  0.00    -0.424 N  
HETATM   14  H   UNL     1     -10.189  14.698  69.790  1.00  0.00     0.000 HD 
BRANCH  13  15
HETATM   15  C   UNL     1      -8.672  14.367  68.406  1.00  0.00    -0.180 A  
HETATM   16  C   UNL     1      -7.685  13.423  68.231  1.00  0.00    -0.141 A  
HETATM   17  C   UNL     1      -6.702  14.065  67.468  1.00  0.00    -0.108 A  
HETATM   18  N   UNL     1      -7.035  15.314  67.158  1.00  0.00    -0.246 NA 
HETATM   19  N   UNL     1      -8.241  15.533  67.761  1.00  0.00    -0.142 NA 
BRANCH  19  20
HETATM   20  C   UNL     1      -8.865  16.810  67.621  1.00  0.00    -0.205 A  
HETATM   21  C   UNL     1      -9.924  16.959  66.707  1.00  0.00    -0.291 A  
HETATM   22  C   UNL     1     -10.528  18.204  66.509  1.00  0.00    -0.356 A  
HETATM   23  C   UNL     1     -10.076  19.319  67.209  1.00  0.00    -0.481 A  
HETATM   24  C   UNL     1      -9.042  19.181  68.127  1.00  0.00    -0.371 A  
HETATM   25  C   UNL     1      -8.456  17.931  68.347  1.00  0.00    -0.300 A  
ENDBRANCH  19  20
ENDBRANCH  13  15
ENDBRANCH  10  13
ENDBRANCH   7  10
TORSDOF 4
ENDMDL
MODEL       65
REMARK 921   NORMALIZED FREE ENERGY PREDICTED BY IDOCK:   -5.96 KCAL/MOL
REMARK 922        TOTAL FREE ENERGY PREDICTED BY IDOCK:   -8.09 KCAL/MOL
REMARK 923 INTER-LIGAND FREE ENERGY PREDICTED BY IDOCK:   -7.38 KCAL/MOL
REMARK 924 INTRA-LIGAND FREE ENERGY PREDICTED BY IDOCK:   -0.72 KCAL/MOL
REMARK 927      BINDING AFFINITY PREDICTED BY RF-SCORE:    0.00 PKD
ROOT
HETATM    1  N   UNL     1     -12.926  11.597  62.843  1.00  0.00    -0.792 NA 
HETATM    2  H2  UNL     1     -12.632  10.623  62.762  1.00  0.00     0.000 HD 
HETATM    3  C   UNL     1     -12.234  12.177  63.908  1.00  0.00    -0.489 A  
HETATM    4  H1  UNL     1     -13.945  11.628  62.813  1.00  0.00     0.000 HD 
HETATM    5  C   UNL     1     -10.838  12.134  63.948  1.00  0.00    -0.461 A  
HETATM    6  C   UNL     1     -10.126  12.790  64.957  1.00  0.00    -0.239 A  
HETATM    7  C   UNL     1     -10.821  13.541  65.906  1.00  0.00    -0.275 A  
HETATM    8  C   UNL     1     -12.212  13.655  65.839  1.00  0.00    -0.502 A  
HETATM    9  C   UNL     1     -12.910  12.989  64.825  1.00  0.00    -0.336 A  
ENDROOT
BRANCH   7  10
HETATM   10  S   UNL     1      -9.936  14.278  67.273  1.00  0.00    -0.255 S  
HETATM   11  O   UNL     1     -10.856  15.227  67.865  1.00  0.00    -0.271 OA 
HETATM   12  O   UNL     1      -9.409  13.185  68.063  1.00  0.00    -0.205 OA 
BRANCH  10  13
HETATM   13  N   UNL     1      -8.741  15.087  66.508  1.00  0.00    -0.425 N  
HETATM   14  H   UNL     1      -8.778  15.166  65.491  1.00  0.00     0.000 HD 
BRANCH  13  15
HETATM   15  C   UNL     1      -7.677  15.670  67.182  1.00  0.00    -0.223 A  
HETATM   16  C   UNL     1      -6.535  14.968  67.498  1.00  0.00    -0.121 A  
HETATM   17  C   UNL     1      -5.676  15.915  68.070  1.00  0.00    -0.126 A  
HETATM   18  N   UNL     1      -6.211  17.132  68.103  1.00  0.00    -0.133 NA 
HETATM   19  N   UNL     1      -7.468  16.995  67.586  1.00  0.00    -0.161 NA 
BRANCH  19  20
HETATM   20  C   UNL     1      -8.311  18.145  67.497  1.00  0.00    -0.237 A  
HETATM   21  C   UNL     1      -9.256  18.383  68.511  1.00  0.00    -0.348 A  
HETATM   22  C   UNL     1     -10.129  19.472  68.434  1.00  0.00    -0.546 A  
HETATM   23  C   UNL     1     -10.080  20.329  67.339  1.00  0.00    -0.534 A  
HETATM   24  C   UNL     1      -9.140  20.115  66.339  1.00  0.00    -0.382 A  
HETATM   25  C   UNL     1      -8.246  19.042  66.428  1.00  0.00    -0.314 A  
ENDBRANCH  19  20
ENDBRANCH  13  15
ENDBRANCH  10  13
ENDBRANCH   7  10
TORSDOF 4
ENDMDL
MODEL       66
REMARK 921   NORMALIZED FREE ENERGY PREDICTED BY IDOCK:   -5.94 KCAL/MOL
REMARK 922        TOTAL FREE ENERGY PREDICTED BY IDOCK:   -8.07 KCAL/MOL
REMARK 923 INTER-LIGAND FREE ENERGY PREDICTED BY IDOCK:   -7.00 KCAL/MOL
REMARK 924 INTRA-LIGAND FREE ENERGY PREDICTED BY IDOCK:   -1.06 KCAL/MOL
REMARK 927      BINDING AFFINITY PREDICTED BY RF-SCORE:    0.00 PKD
ROOT
HETATM    1  N   UNL     1     -12.650  15.855  71.177  1.00  0.00    -0.546 NA 
HETATM    2  H2  UNL     1     -13.551  15.463  70.904  1.00  0.00     0.000 HD 
HETATM    3  C   UNL     1     -11.741  15.633  70.141  1.00  0.00    -0.360 A  
HETATM    4  H1  UNL     1     -12.438  15.540  72.124  1.00  0.00     0.000 HD 
HETATM    5  C   UNL     1     -12.032  16.065  68.844  1.00  0.00    -0.129 A  
HETATM    6  C   UNL     1     -11.095  15.935  67.815  1.00  0.00    -0.288 A  
HETATM    7  C   UNL     1      -9.833  15.414  68.101  1.00  0.00    -0.213 A  
HETATM    8  C   UNL     1      -9.499  15.044  69.407  1.00  0.00    -0.132 A  
HETATM    9  C   UNL     1     -10.449  15.177  70.426  1.00  0.00    -0.107 A  
ENDROOT
BRANCH   7  10
HETATM   10  S   UNL     1      -8.671  15.123  66.774  1.00  0.00    -0.267 S  
HETATM   11  O   UNL     1      -8.952  16.139  65.782  1.00  0.00    -0.385 OA 
HETATM   12  O   UNL     1      -7.360  15.040  67.381  1.00  0.00    -0.189 OA 
BRANCH  10  13
HETATM   13  N   UNL     1      -9.157  13.667  66.212  1.00  0.00    -0.479 N  
HETATM   14  H   UNL     1      -8.480  12.906  66.179  1.00  0.00     0.000 HD 
BRANCH  13  15
HETATM   15  C   UNL     1     -10.453  13.424  65.777  1.00  0.00    -0.290 A  
HETATM   16  C   UNL     1     -10.951  13.967  64.613  1.00  0.00    -0.401 A  
HETATM   17  C   UNL     1     -12.229  13.413  64.475  1.00  0.00    -0.398 A  
HETATM   18  N   UNL     1     -12.526  12.567  65.457  1.00  0.00    -0.635 NA 
HETATM   19  N   UNL     1     -11.447  12.585  66.295  1.00  0.00    -0.348 NA 
BRANCH  19  20
HETATM   20  C   UNL     1     -11.468  11.773  67.470  1.00  0.00    -0.303 A  
HETATM   21  C   UNL     1     -11.918  12.329  68.681  1.00  0.00    -0.276 A  
HETATM   22  C   UNL     1     -11.908  11.578  69.860  1.00  0.00    -0.430 A  
HETATM   23  C   UNL     1     -11.438  10.269  69.851  1.00  0.00    -0.340 A  
HETATM   24  C   UNL     1     -11.007   9.702  68.657  1.00  0.00    -0.152 A  
HETATM   25  C   UNL     1     -11.042  10.442  67.471  1.00  0.00    -0.336 A  
ENDBRANCH  19  20
ENDBRANCH  13  15
ENDBRANCH  10  13
ENDBRANCH   7  10
TORSDOF 4
ENDMDL
MODEL       67
REMARK 921   NORMALIZED FREE ENERGY PREDICTED BY IDOCK:   -5.92 KCAL/MOL
REMARK 922        TOTAL FREE ENERGY PREDICTED BY IDOCK:   -8.04 KCAL/MOL
REMARK 923 INTER-LIGAND FREE ENERGY PREDICTED BY IDOCK:   -7.16 KCAL/MOL
REMARK 924 INTRA-LIGAND FREE ENERGY PREDICTED BY IDOCK:   -0.89 KCAL/MOL
REMARK 927      BINDING AFFINITY PREDICTED BY RF-SCORE:    0.00 PKD
ROOT
HETATM    1  N   UNL     1      -9.967   8.284  66.167  1.00  0.00    -0.468 NA 
HETATM    2  H2  UNL     1      -9.037   8.105  65.788  1.00  0.00     0.000 HD 
HETATM    3  C   UNL     1     -10.194   9.662  66.142  1.00  0.00    -0.205 A  
HETATM    4  H1  UNL     1     -10.064   7.763  67.038  1.00  0.00     0.000 HD 
HETATM    5  C   UNL     1     -10.062  10.376  64.948  1.00  0.00    -0.382 A  
HETATM    6  C   UNL     1     -10.375  11.737  64.884  1.00  0.00    -0.334 A  
HETATM    7  C   UNL     1     -10.878  12.376  66.019  1.00  0.00    -0.273 A  
HETATM    8  C   UNL     1     -11.085  11.661  67.201  1.00  0.00    -0.354 A  
HETATM    9  C   UNL     1     -10.763  10.300  67.250  1.00  0.00    -0.323 A  
ENDROOT
BRANCH   7  10
HETATM   10  S   UNL     1     -11.161  14.141  65.989  1.00  0.00    -0.326 S  
HETATM   11  O   UNL     1     -10.380  14.641  64.878  1.00  0.00    -0.411 OA 
HETATM   12  O   UNL     1     -12.597  14.330  66.014  1.00  0.00    -0.447 OA 
BRANCH  10  13
HETATM   13  N   UNL     1     -10.476  14.618  67.393  1.00  0.00    -0.253 N  
HETATM   14  H   UNL     1     -11.041  14.606  68.242  1.00  0.00     0.000 HD 
BRANCH  13  15
HETATM   15  C   UNL     1      -9.156  15.039  67.480  1.00  0.00    -0.185 A  
HETATM   16  C   UNL     1      -8.102  14.152  67.503  1.00  0.00    -0.199 A  
HETATM   17  C   UNL     1      -6.955  14.954  67.492  1.00  0.00    -0.176 A  
HETATM   18  N   UNL     1      -7.242  16.251  67.445  1.00  0.00    -0.152 NA 
HETATM   19  N   UNL     1      -8.606  16.327  67.471  1.00  0.00    -0.175 NA 
BRANCH  19  20
HETATM   20  C   UNL     1      -9.231  17.611  67.443  1.00  0.00    -0.247 A  
HETATM   21  C   UNL     1      -9.723  18.108  66.223  1.00  0.00    -0.280 A  
HETATM   22  C   UNL     1     -10.299  19.379  66.149  1.00  0.00    -0.595 A  
HETATM   23  C   UNL     1     -10.379  20.177  67.286  1.00  0.00    -0.494 A  
HETATM   24  C   UNL     1      -9.911  19.691  68.501  1.00  0.00    -0.542 A  
HETATM   25  C   UNL     1      -9.361  18.408  68.583  1.00  0.00    -0.339 A  
ENDBRANCH  19  20
ENDBRANCH  13  15
ENDBRANCH  10  13
ENDBRANCH   7  10
TORSDOF 4
ENDMDL
MODEL       68
REMARK 921   NORMALIZED FREE ENERGY PREDICTED BY IDOCK:   -5.91 KCAL/MOL
REMARK 922        TOTAL FREE ENERGY PREDICTED BY IDOCK:   -8.03 KCAL/MOL
REMARK 923 INTER-LIGAND FREE ENERGY PREDICTED BY IDOCK:   -6.77 KCAL/MOL
REMARK 924 INTRA-LIGAND FREE ENERGY PREDICTED BY IDOCK:   -1.26 KCAL/MOL
REMARK 927      BINDING AFFINITY PREDICTED BY RF-SCORE:    0.00 PKD
ROOT
HETATM    1  N   UNL     1      -5.999  13.174  70.956  1.00  0.00    -0.535 NA 
HETATM    2  H2  UNL     1      -6.084  12.449  70.243  1.00  0.00     0.000 HD 
HETATM    3  C   UNL     1      -6.194  14.415  70.346  1.00  0.00    -0.173 A  
HETATM    4  H1  UNL     1      -5.154  12.994  71.498  1.00  0.00     0.000 HD 
HETATM    5  C   UNL     1      -7.352  14.662  69.604  1.00  0.00    -0.064 A  
HETATM    6  C   UNL     1      -7.607  15.926  69.066  1.00  0.00    -0.202 A  
HETATM    7  C   UNL     1      -6.715  16.969  69.319  1.00  0.00    -0.234 A  
HETATM    8  C   UNL     1      -5.589  16.759  70.119  1.00  0.00    -0.218 A  
HETATM    9  C   UNL     1      -5.346  15.486  70.648  1.00  0.00    -0.140 A  
ENDROOT
BRANCH   7  10
HETATM   10  S   UNL     1      -6.960  18.556  68.533  1.00  0.00    -0.277 S  
HETATM   11  O   UNL     1      -6.307  19.520  69.393  1.00  0.00    -0.289 OA 
HETATM   12  O   UNL     1      -6.538  18.405  67.156  1.00  0.00    -0.181 OA 
BRANCH  10  13
HETATM   13  N   UNL     1      -8.579  18.741  68.640  1.00  0.00    -0.338 N  
HETATM   14  H   UNL     1      -9.012  18.732  69.564  1.00  0.00     0.000 HD 
BRANCH  13  15
HETATM   15  C   UNL     1      -9.392  18.909  67.527  1.00  0.00    -0.294 A  
HETATM   16  C   UNL     1      -9.562  20.134  66.920  1.00  0.00    -0.564 A  
HETATM   17  C   UNL     1     -10.355  19.873  65.796  1.00  0.00    -0.410 A  
HETATM   18  N   UNL     1     -10.656  18.584  65.675  1.00  0.00    -0.589 NA 
HETATM   19  N   UNL     1     -10.095  17.972  66.760  1.00  0.00    -0.337 NA 
BRANCH  19  20
HETATM   20  C   UNL     1     -10.256  16.562  66.922  1.00  0.00    -0.296 A  
HETATM   21  C   UNL     1      -9.625  15.691  66.016  1.00  0.00    -0.386 A  
HETATM   22  C   UNL     1      -9.798  14.307  66.116  1.00  0.00    -0.335 A  
HETATM   23  C   UNL     1     -10.612  13.775  67.110  1.00  0.00    -0.277 A  
HETATM   24  C   UNL     1     -11.228  14.624  68.022  1.00  0.00    -0.307 A  
HETATM   25  C   UNL     1     -11.033  16.007  67.942  1.00  0.00    -0.327 A  
ENDBRANCH  19  20
ENDBRANCH  13  15
ENDBRANCH  10  13
ENDBRANCH   7  10
TORSDOF 4
ENDMDL
MODEL       69
REMARK 921   NORMALIZED FREE ENERGY PREDICTED BY IDOCK:   -5.91 KCAL/MOL
REMARK 922        TOTAL FREE ENERGY PREDICTED BY IDOCK:   -8.02 KCAL/MOL
REMARK 923 INTER-LIGAND FREE ENERGY PREDICTED BY IDOCK:   -6.62 KCAL/MOL
REMARK 924 INTRA-LIGAND FREE ENERGY PREDICTED BY IDOCK:   -1.40 KCAL/MOL
REMARK 927      BINDING AFFINITY PREDICTED BY RF-SCORE:    0.00 PKD
ROOT
HETATM    1  N   UNL     1     -13.358   8.696  73.154  1.00  0.00    -0.780 NA 
HETATM    2  H2  UNL     1     -14.341   8.592  72.902  1.00  0.00     0.000 HD 
HETATM    3  C   UNL     1     -12.694   9.308  72.089  1.00  0.00    -0.390 A  
HETATM    4  H1  UNL     1     -13.026   7.805  73.523  1.00  0.00     0.000 HD 
HETATM    5  C   UNL     1     -13.150  10.529  71.584  1.00  0.00    -0.551 A  
HETATM    6  C   UNL     1     -12.444  11.201  70.582  1.00  0.00    -0.448 A  
HETATM    7  C   UNL     1     -11.240  10.669  70.119  1.00  0.00    -0.302 A  
HETATM    8  C   UNL     1     -10.732   9.487  70.664  1.00  0.00    -0.375 A  
HETATM    9  C   UNL     1     -11.453   8.823  71.664  1.00  0.00    -0.386 A  
ENDROOT
BRANCH   7  10
HETATM   10  S   UNL     1     -10.394  11.448  68.751  1.00  0.00    -0.185 S  
HETATM   11  O   UNL     1     -10.768  12.846  68.808  1.00  0.00    -0.247 OA 
HETATM   12  O   UNL     1      -9.001  11.063  68.851  1.00  0.00    -0.168 OA 
BRANCH  10  13
HETATM   13  N   UNL     1     -11.113  10.746  67.463  1.00  0.00    -0.308 N  
HETATM   14  H   UNL     1     -12.129  10.784  67.390  1.00  0.00     0.000 HD 
BRANCH  13  15
HETATM   15  C   UNL     1     -10.398  10.098  66.464  1.00  0.00    -0.202 A  
HETATM   16  C   UNL     1     -10.078  10.713  65.274  1.00  0.00    -0.363 A  
HETATM   17  C   UNL     1      -9.283   9.785  64.590  1.00  0.00    -0.255 A  
HETATM   18  N   UNL     1      -9.090   8.670  65.289  1.00  0.00    -0.105 NA 
HETATM   19  N   UNL     1      -9.802   8.831  66.443  1.00  0.00    -0.270 NA 
BRANCH  19  20
HETATM   20  C   UNL     1      -9.802   7.781  67.411  1.00  0.00    -0.175 A  
HETATM   21  C   UNL     1     -10.985   7.053  67.633  1.00  0.00    -0.259 A  
HETATM   22  C   UNL     1     -11.035   6.049  68.605  1.00  0.00    -0.361 A  
HETATM   23  C   UNL     1      -9.912   5.767  69.376  1.00  0.00    -0.244 A  
HETATM   24  C   UNL     1      -8.732   6.468  69.154  1.00  0.00    -0.129 A  
HETATM   25  C   UNL     1      -8.672   7.453  68.163  1.00  0.00    -0.122 A  
ENDBRANCH  19  20
ENDBRANCH  13  15
ENDBRANCH  10  13
ENDBRANCH   7  10
TORSDOF 4
ENDMDL
MODEL       70
REMARK 921   NORMALIZED FREE ENERGY PREDICTED BY IDOCK:   -5.91 KCAL/MOL
REMARK 922        TOTAL FREE ENERGY PREDICTED BY IDOCK:   -8.02 KCAL/MOL
REMARK 923 INTER-LIGAND FREE ENERGY PREDICTED BY IDOCK:   -7.11 KCAL/MOL
REMARK 924 INTRA-LIGAND FREE ENERGY PREDICTED BY IDOCK:   -0.91 KCAL/MOL
REMARK 927      BINDING AFFINITY PREDICTED BY RF-SCORE:    0.00 PKD
ROOT
HETATM    1  N   UNL     1     -12.187  11.558  70.521  1.00  0.00    -0.377 NA 
HETATM    2  H2  UNL     1     -11.395  11.029  70.883  1.00  0.00     0.000 HD 
HETATM    3  C   UNL     1     -11.743  12.339  69.452  1.00  0.00    -0.330 A  
HETATM    4  H1  UNL     1     -12.670  11.991  71.307  1.00  0.00     0.000 HD 
HETATM    5  C   UNL     1     -11.081  11.745  68.373  1.00  0.00    -0.286 A  
HETATM    6  C   UNL     1     -10.712  12.495  67.253  1.00  0.00    -0.259 A  
HETATM    7  C   UNL     1     -11.058  13.846  67.191  1.00  0.00    -0.300 A  
HETATM    8  C   UNL     1     -11.783  14.440  68.228  1.00  0.00    -0.376 A  
HETATM    9  C   UNL     1     -12.142  13.675  69.344  1.00  0.00    -0.364 A  
ENDROOT
BRANCH   7  10
HETATM   10  S   UNL     1     -10.482  14.847  65.827  1.00  0.00    -0.356 S  
HETATM   11  O   UNL     1     -10.666  14.033  64.644  1.00  0.00    -0.407 OA 
HETATM   12  O   UNL     1     -11.150  16.127  65.941  1.00  0.00    -0.133 OA 
BRANCH  10  13
HETATM   13  N   UNL     1      -8.887  14.979  66.153  1.00  0.00    -0.472 N  
HETATM   14  H   UNL     1      -8.220  14.835  65.394  1.00  0.00     0.000 HD 
BRANCH  13  15
HETATM   15  C   UNL     1      -8.401  15.278  67.418  1.00  0.00    -0.181 A  
HETATM   16  C   UNL     1      -7.758  14.341  68.198  1.00  0.00    -0.141 A  
HETATM   17  C   UNL     1      -7.338  15.045  69.333  1.00  0.00    -0.194 A  
HETATM   18  N   UNL     1      -7.663  16.333  69.283  1.00  0.00    -0.225 NA 
HETATM   19  N   UNL     1      -8.355  16.492  68.115  1.00  0.00    -0.181 NA 
BRANCH  19  20
HETATM   20  C   UNL     1      -8.856  17.785  67.776  1.00  0.00    -0.249 A  
HETATM   21  C   UNL     1      -8.305  18.468  66.676  1.00  0.00    -0.285 A  
HETATM   22  C   UNL     1      -8.739  19.754  66.343  1.00  0.00    -0.412 A  
HETATM   23  C   UNL     1      -9.716  20.382  67.108  1.00  0.00    -0.601 A  
HETATM   24  C   UNL     1     -10.280  19.712  68.187  1.00  0.00    -0.580 A  
HETATM   25  C   UNL     1      -9.868  18.414  68.505  1.00  0.00    -0.402 A  
ENDBRANCH  19  20
ENDBRANCH  13  15
ENDBRANCH  10  13
ENDBRANCH   7  10
TORSDOF 4
ENDMDL
MODEL       71
REMARK 921   NORMALIZED FREE ENERGY PREDICTED BY IDOCK:   -5.90 KCAL/MOL
REMARK 922        TOTAL FREE ENERGY PREDICTED BY IDOCK:   -8.02 KCAL/MOL
REMARK 923 INTER-LIGAND FREE ENERGY PREDICTED BY IDOCK:   -7.41 KCAL/MOL
REMARK 924 INTRA-LIGAND FREE ENERGY PREDICTED BY IDOCK:   -0.61 KCAL/MOL
REMARK 927      BINDING AFFINITY PREDICTED BY RF-SCORE:    0.00 PKD
ROOT
HETATM    1  N   UNL     1      -9.736  20.784  67.040  1.00  0.00    -0.659 NA 
HETATM    2  H2  UNL     1      -9.784  21.095  66.070  1.00  0.00     0.000 HD 
HETATM    3  C   UNL     1      -9.562  19.398  67.049  1.00  0.00    -0.329 A  
HETATM    4  H1  UNL     1     -10.510  21.208  67.551  1.00  0.00     0.000 HD 
HETATM    5  C   UNL     1      -8.502  18.817  66.348  1.00  0.00    -0.296 A  
HETATM    6  C   UNL     1      -8.258  17.443  66.421  1.00  0.00    -0.306 A  
HETATM    7  C   UNL     1      -9.054  16.650  67.249  1.00  0.00    -0.215 A  
HETATM    8  C   UNL     1     -10.073  17.226  68.013  1.00  0.00    -0.324 A  
HETATM    9  C   UNL     1     -10.307  18.603  67.926  1.00  0.00    -0.442 A  
ENDROOT
BRANCH   7  10
HETATM   10  S   UNL     1      -8.837  14.876  67.255  1.00  0.00    -0.213 S  
HETATM   11  O   UNL     1      -7.406  14.660  67.227  1.00  0.00    -0.193 OA 
HETATM   12  O   UNL     1      -9.630  14.365  68.354  1.00  0.00    -0.208 OA 
BRANCH  10  13
HETATM   13  N   UNL     1      -9.478  14.452  65.813  1.00  0.00    -0.533 N  
HETATM   14  H   UNL     1      -8.946  14.647  64.966  1.00  0.00     0.000 HD 
BRANCH  13  15
HETATM   15  C   UNL     1     -10.716  13.836  65.694  1.00  0.00    -0.288 A  
HETATM   16  C   UNL     1     -11.883  14.450  66.094  1.00  0.00    -0.391 A  
HETATM   17  C   UNL     1     -12.902  13.565  65.721  1.00  0.00    -0.264 A  
HETATM   18  N   UNL     1     -12.436  12.480  65.112  1.00  0.00    -0.628 NA 
HETATM   19  N   UNL     1     -11.076  12.612  65.115  1.00  0.00    -0.287 NA 
BRANCH  19  20
HETATM   20  C   UNL     1     -10.277  11.583  64.531  1.00  0.00    -0.288 A  
HETATM   21  C   UNL     1      -9.806  10.536  65.344  1.00  0.00    -0.335 A  
HETATM   22  C   UNL     1      -8.983   9.536  64.817  1.00  0.00    -0.263 A  
HETATM   23  C   UNL     1      -8.608   9.574  63.478  1.00  0.00    -0.221 A  
HETATM   24  C   UNL     1      -9.081  10.594  62.661  1.00  0.00    -0.321 A  
HETATM   25  C   UNL     1      -9.927  11.579  63.179  1.00  0.00    -0.404 A  
ENDBRANCH  19  20
ENDBRANCH  13  15
ENDBRANCH  10  13
ENDBRANCH   7  10
TORSDOF 4
ENDMDL
MODEL       72
REMARK 921   NORMALIZED FREE ENERGY PREDICTED BY IDOCK:   -5.90 KCAL/MOL
REMARK 922        TOTAL FREE ENERGY PREDICTED BY IDOCK:   -8.01 KCAL/MOL
REMARK 923 INTER-LIGAND FREE ENERGY PREDICTED BY IDOCK:   -7.24 KCAL/MOL
REMARK 924 INTRA-LIGAND FREE ENERGY PREDICTED BY IDOCK:   -0.77 KCAL/MOL
REMARK 927      BINDING AFFINITY PREDICTED BY RF-SCORE:    0.00 PKD
ROOT
HETATM    1  N   UNL     1      -8.169   6.679  71.095  1.00  0.00    -0.119 NA 
HETATM    2  H2  UNL     1      -8.741   5.893  71.404  1.00  0.00     0.000 HD 
HETATM    3  C   UNL     1      -9.020   7.720  70.718  1.00  0.00    -0.148 A  
HETATM    4  H1  UNL     1      -7.467   6.328  70.444  1.00  0.00     0.000 HD 
HETATM    5  C   UNL     1      -9.982   8.201  71.611  1.00  0.00    -0.252 A  
HETATM    6  C   UNL     1     -10.779   9.303  71.286  1.00  0.00    -0.422 A  
HETATM    7  C   UNL     1     -10.571   9.963  70.074  1.00  0.00    -0.288 A  
HETATM    8  C   UNL     1      -9.565   9.541  69.201  1.00  0.00    -0.170 A  
HETATM    9  C   UNL     1      -8.778   8.433  69.539  1.00  0.00    -0.137 A  
ENDROOT
BRANCH   7  10
HETATM   10  S   UNL     1     -11.664  11.291  69.589  1.00  0.00    -0.382 S  
HETATM   11  O   UNL     1     -12.278  10.857  68.352  1.00  0.00    -0.540 OA 
HETATM   12  O   UNL     1     -12.486  11.594  70.743  1.00  0.00    -0.360 OA 
BRANCH  10  13
HETATM   13  N   UNL     1     -10.611  12.501  69.277  1.00  0.00    -0.437 N  
HETATM   14  H   UNL     1      -9.622  12.350  69.476  1.00  0.00     0.000 HD 
BRANCH  13  15
HETATM   15  C   UNL     1     -11.005  13.725  68.755  1.00  0.00    -0.264 A  
HETATM   16  C   UNL     1     -11.132  14.851  69.538  1.00  0.00    -0.301 A  
HETATM   17  C   UNL     1     -11.442  15.881  68.641  1.00  0.00    -0.391 A  
HETATM   18  N   UNL     1     -11.493  15.460  67.381  1.00  0.00    -0.258 NA 
HETATM   19  N   UNL     1     -11.258  14.115  67.434  1.00  0.00    -0.306 NA 
BRANCH  19  20
HETATM   20  C   UNL     1     -11.259  13.363  66.220  1.00  0.00    -0.305 A  
HETATM   21  C   UNL     1     -12.459  13.224  65.499  1.00  0.00    -0.531 A  
HETATM   22  C   UNL     1     -12.507  12.457  64.332  1.00  0.00    -0.520 A  
HETATM   23  C   UNL     1     -11.365  11.807  63.875  1.00  0.00    -0.494 A  
HETATM   24  C   UNL     1     -10.170  11.949  64.569  1.00  0.00    -0.320 A  
HETATM   25  C   UNL     1     -10.112  12.740  65.721  1.00  0.00    -0.296 A  
ENDBRANCH  19  20
ENDBRANCH  13  15
ENDBRANCH  10  13
ENDBRANCH   7  10
TORSDOF 4
ENDMDL
MODEL       73
REMARK 921   NORMALIZED FREE ENERGY PREDICTED BY IDOCK:   -5.89 KCAL/MOL
REMARK 922        TOTAL FREE ENERGY PREDICTED BY IDOCK:   -8.01 KCAL/MOL
REMARK 923 INTER-LIGAND FREE ENERGY PREDICTED BY IDOCK:   -7.72 KCAL/MOL
REMARK 924 INTRA-LIGAND FREE ENERGY PREDICTED BY IDOCK:   -0.29 KCAL/MOL
REMARK 927      BINDING AFFINITY PREDICTED BY RF-SCORE:    0.00 PKD
ROOT
HETATM    1  N   UNL     1      -9.471   9.596  63.649  1.00  0.00    -0.464 NA 
HETATM    2  H2  UNL     1      -8.643   9.973  63.188  1.00  0.00     0.000 HD 
HETATM    3  C   UNL     1      -9.790  10.424  64.727  1.00  0.00    -0.340 A  
HETATM    4  H1  UNL     1      -9.330   8.596  63.793  1.00  0.00     0.000 HD 
HETATM    5  C   UNL     1      -9.983  11.794  64.530  1.00  0.00    -0.273 A  
HETATM    6  C   UNL     1     -10.393  12.622  65.579  1.00  0.00    -0.305 A  
HETATM    7  C   UNL     1     -10.664  12.060  66.827  1.00  0.00    -0.243 A  
HETATM    8  C   UNL     1     -10.546  10.681  67.024  1.00  0.00    -0.317 A  
HETATM    9  C   UNL     1     -10.131   9.867  65.964  1.00  0.00    -0.314 A  
ENDROOT
BRANCH   7  10
HETATM   10  S   UNL     1     -11.065  13.121  68.209  1.00  0.00    -0.283 S  
HETATM   11  O   UNL     1      -9.870  13.898  68.460  1.00  0.00    -0.226 OA 
HETATM   12  O   UNL     1     -12.308  13.783  67.875  1.00  0.00    -0.245 OA 
BRANCH  10  13
HETATM   13  N   UNL     1     -11.273  12.040  69.416  1.00  0.00    -0.399 N  
HETATM   14  H   UNL     1     -10.791  11.143  69.357  1.00  0.00     0.000 HD 
BRANCH  13  15
HETATM   15  C   UNL     1     -12.078  12.291  70.519  1.00  0.00    -0.282 A  
HETATM   16  C   UNL     1     -12.449  13.567  70.882  1.00  0.00    -0.448 A  
HETATM   17  C   UNL     1     -13.326  13.395  71.960  1.00  0.00    -0.479 A  
HETATM   18  N   UNL     1     -13.521  12.114  72.257  1.00  0.00    -0.380 NA 
HETATM   19  N   UNL     1     -12.728  11.412  71.394  1.00  0.00    -0.403 NA 
BRANCH  19  20
HETATM   20  C   UNL     1     -12.710   9.986  71.473  1.00  0.00    -0.429 A  
HETATM   21  C   UNL     1     -13.888   9.303  71.821  1.00  0.00    -0.391 A  
HETATM   22  C   UNL     1     -13.896   7.911  71.953  1.00  0.00    -0.402 A  
HETATM   23  C   UNL     1     -12.728   7.184  71.752  1.00  0.00    -0.374 A  
HETATM   24  C   UNL     1     -11.560   7.846  71.391  1.00  0.00    -0.304 A  
HETATM   25  C   UNL     1     -11.557   9.235  71.231  1.00  0.00    -0.419 A  
ENDBRANCH  19  20
ENDBRANCH  13  15
ENDBRANCH  10  13
ENDBRANCH   7  10
TORSDOF 4
ENDMDL
MODEL       74
REMARK 921   NORMALIZED FREE ENERGY PREDICTED BY IDOCK:   -5.89 KCAL/MOL
REMARK 922        TOTAL FREE ENERGY PREDICTED BY IDOCK:   -8.00 KCAL/MOL
REMARK 923 INTER-LIGAND FREE ENERGY PREDICTED BY IDOCK:   -6.29 KCAL/MOL
REMARK 924 INTRA-LIGAND FREE ENERGY PREDICTED BY IDOCK:   -1.71 KCAL/MOL
REMARK 927      BINDING AFFINITY PREDICTED BY RF-SCORE:    0.00 PKD
ROOT
HETATM    1  N   UNL     1     -12.511  13.941  62.903  1.00  0.00    -0.877 NA 
HETATM    2  H2  UNL     1     -12.678  13.292  62.134  1.00  0.00     0.000 HD 
HETATM    3  C   UNL     1     -11.979  13.223  63.976  1.00  0.00    -0.465 A  
HETATM    4  H1  UNL     1     -13.347  14.511  63.029  1.00  0.00     0.000 HD 
HETATM    5  C   UNL     1     -10.833  12.441  63.802  1.00  0.00    -0.500 A  
HETATM    6  C   UNL     1     -10.234  11.791  64.885  1.00  0.00    -0.315 A  
HETATM    7  C   UNL     1     -10.759  11.970  66.165  1.00  0.00    -0.275 A  
HETATM    8  C   UNL     1     -11.861  12.805  66.368  1.00  0.00    -0.472 A  
HETATM    9  C   UNL     1     -12.452  13.446  65.273  1.00  0.00    -0.532 A  
ENDROOT
BRANCH   7  10
HETATM   10  S   UNL     1     -10.084  11.045  67.538  1.00  0.00    -0.185 S  
HETATM   11  O   UNL     1     -10.630  11.662  68.728  1.00  0.00    -0.206 OA 
HETATM   12  O   UNL     1     -10.337   9.647  67.260  1.00  0.00    -0.217 OA 
BRANCH  10  13
HETATM   13  N   UNL     1      -8.491  11.392  67.429  1.00  0.00    -0.139 N  
HETATM   14  H   UNL     1      -7.935  10.916  66.719  1.00  0.00     0.000 HD 
BRANCH  13  15
HETATM   15  C   UNL     1      -7.863  12.308  68.262  1.00  0.00    -0.153 A  
HETATM   16  C   UNL     1      -6.826  11.951  69.096  1.00  0.00    -0.099 A  
HETATM   17  C   UNL     1      -6.405  13.151  69.683  1.00  0.00    -0.086 A  
HETATM   18  N   UNL     1      -7.099  14.199  69.250  1.00  0.00    -0.108 NA 
HETATM   19  N   UNL     1      -8.034  13.692  68.392  1.00  0.00    -0.144 NA 
BRANCH  19  20
HETATM   20  C   UNL     1      -8.953  14.584  67.761  1.00  0.00    -0.190 A  
HETATM   21  C   UNL     1      -8.806  14.866  66.391  1.00  0.00    -0.196 A  
HETATM   22  C   UNL     1      -9.659  15.770  65.751  1.00  0.00    -0.355 A  
HETATM   23  C   UNL     1     -10.660  16.414  66.470  1.00  0.00    -0.235 A  
HETATM   24  C   UNL     1     -10.827  16.132  67.821  1.00  0.00    -0.318 A  
HETATM   25  C   UNL     1      -9.993  15.207  68.456  1.00  0.00    -0.223 A  
ENDBRANCH  19  20
ENDBRANCH  13  15
ENDBRANCH  10  13
ENDBRANCH   7  10
TORSDOF 4
ENDMDL
MODEL       75
REMARK 921   NORMALIZED FREE ENERGY PREDICTED BY IDOCK:   -5.88 KCAL/MOL
REMARK 922        TOTAL FREE ENERGY PREDICTED BY IDOCK:   -7.99 KCAL/MOL
REMARK 923 INTER-LIGAND FREE ENERGY PREDICTED BY IDOCK:   -7.33 KCAL/MOL
REMARK 924 INTRA-LIGAND FREE ENERGY PREDICTED BY IDOCK:   -0.66 KCAL/MOL
REMARK 927      BINDING AFFINITY PREDICTED BY RF-SCORE:    0.00 PKD
ROOT
HETATM    1  N   UNL     1     -10.739   5.252  66.109  1.00  0.00    -0.631 NA 
HETATM    2  H2  UNL     1     -11.548   4.643  66.233  1.00  0.00     0.000 HD 
HETATM    3  C   UNL     1     -10.779   6.242  67.093  1.00  0.00    -0.359 A  
HETATM    4  H1  UNL     1     -10.679   5.508  65.124  1.00  0.00     0.000 HD 
HETATM    5  C   UNL     1     -10.861   5.890  68.443  1.00  0.00    -0.322 A  
HETATM    6  C   UNL     1     -10.807   6.864  69.445  1.00  0.00    -0.283 A  
HETATM    7  C   UNL     1     -10.616   8.200  69.091  1.00  0.00    -0.166 A  
HETATM    8  C   UNL     1     -10.460   8.561  67.750  1.00  0.00    -0.287 A  
HETATM    9  C   UNL     1     -10.519   7.575  66.758  1.00  0.00    -0.319 A  
ENDROOT
BRANCH   7  10
HETATM   10  S   UNL     1     -10.675   9.468  70.349  1.00  0.00    -0.309 S  
HETATM   11  O   UNL     1     -10.697   8.761  71.612  1.00  0.00    -0.272 OA 
HETATM   12  O   UNL     1      -9.603  10.395  70.052  1.00  0.00    -0.061 OA 
BRANCH  10  13
HETATM   13  N   UNL     1     -12.137  10.145  70.080  1.00  0.00    -0.452 N  
HETATM   14  H   UNL     1     -12.802   9.651  69.484  1.00  0.00     0.000 HD 
BRANCH  13  15
HETATM   15  C   UNL     1     -12.513  11.364  70.628  1.00  0.00    -0.327 A  
HETATM   16  C   UNL     1     -13.057  11.466  71.889  1.00  0.00    -0.505 A  
HETATM   17  C   UNL     1     -13.202  12.841  72.110  1.00  0.00    -0.441 A  
HETATM   18  N   UNL     1     -12.768  13.568  71.086  1.00  0.00    -0.354 NA 
HETATM   19  N   UNL     1     -12.367  12.668  70.139  1.00  0.00    -0.208 NA 
BRANCH  19  20
HETATM   20  C   UNL     1     -11.853  13.150  68.897  1.00  0.00    -0.320 A  
HETATM   21  C   UNL     1     -11.658  14.532  68.725  1.00  0.00    -0.343 A  
HETATM   22  C   UNL     1     -11.201  15.044  67.507  1.00  0.00    -0.333 A  
HETATM   23  C   UNL     1     -10.945  14.187  66.442  1.00  0.00    -0.311 A  
HETATM   24  C   UNL     1     -11.117  12.818  66.604  1.00  0.00    -0.313 A  
HETATM   25  C   UNL     1     -11.548  12.301  67.830  1.00  0.00    -0.416 A  
ENDBRANCH  19  20
ENDBRANCH  13  15
ENDBRANCH  10  13
ENDBRANCH   7  10
TORSDOF 4
ENDMDL
MODEL       76
REMARK 921   NORMALIZED FREE ENERGY PREDICTED BY IDOCK:   -5.87 KCAL/MOL
REMARK 922        TOTAL FREE ENERGY PREDICTED BY IDOCK:   -7.98 KCAL/MOL
REMARK 923 INTER-LIGAND FREE ENERGY PREDICTED BY IDOCK:   -7.43 KCAL/MOL
REMARK 924 INTRA-LIGAND FREE ENERGY PREDICTED BY IDOCK:   -0.55 KCAL/MOL
REMARK 927      BINDING AFFINITY PREDICTED BY RF-SCORE:    0.00 PKD
ROOT
HETATM    1  N   UNL     1      -7.690   7.470  65.047  1.00  0.00    -0.109 NA 
HETATM    2  H2  UNL     1      -7.846   6.562  65.483  1.00  0.00     0.000 HD 
HETATM    3  C   UNL     1      -8.453   8.422  65.727  1.00  0.00    -0.156 A  
HETATM    4  H1  UNL     1      -7.784   7.361  64.037  1.00  0.00     0.000 HD 
HETATM    5  C   UNL     1      -8.323   8.571  67.110  1.00  0.00    -0.111 A  
HETATM    6  C   UNL     1      -9.009   9.579  67.793  1.00  0.00    -0.126 A  
HETATM    7  C   UNL     1      -9.793  10.481  67.073  1.00  0.00    -0.183 A  
HETATM    8  C   UNL     1      -9.878  10.392  65.681  1.00  0.00    -0.321 A  
HETATM    9  C   UNL     1      -9.187   9.374  65.012  1.00  0.00    -0.280 A  
ENDROOT
BRANCH   7  10
HETATM   10  S   UNL     1     -10.777  11.694  67.943  1.00  0.00    -0.214 S  
HETATM   11  O   UNL     1     -10.145  12.969  67.677  1.00  0.00    -0.211 OA 
HETATM   12  O   UNL     1     -12.153  11.467  67.555  1.00  0.00    -0.614 OA 
BRANCH  10  13
HETATM   13  N   UNL     1     -10.524  11.278  69.503  1.00  0.00    -0.442 N  
HETATM   14  H   UNL     1      -9.592  11.406  69.897  1.00  0.00     0.000 HD 
BRANCH  13  15
HETATM   15  C   UNL     1     -11.524  10.759  70.314  1.00  0.00    -0.319 A  
HETATM   16  C   UNL     1     -11.656   9.407  70.542  1.00  0.00    -0.291 A  
HETATM   17  C   UNL     1     -12.696   9.299  71.474  1.00  0.00    -0.350 A  
HETATM   18  N   UNL     1     -13.182  10.482  71.833  1.00  0.00    -0.452 NA 
HETATM   19  N   UNL     1     -12.490  11.403  71.098  1.00  0.00    -0.380 NA 
BRANCH  19  20
HETATM   20  C   UNL     1     -12.796  12.789  71.255  1.00  0.00    -0.262 A  
HETATM   21  C   UNL     1     -13.627  13.192  72.315  1.00  0.00    -0.677 A  
HETATM   22  C   UNL     1     -13.986  14.534  72.472  1.00  0.00    -0.510 A  
HETATM   23  C   UNL     1     -13.532  15.489  71.568  1.00  0.00    -0.582 A  
HETATM   24  C   UNL     1     -12.696  15.105  70.526  1.00  0.00    -0.416 A  
HETATM   25  C   UNL     1     -12.313  13.768  70.383  1.00  0.00    -0.423 A  
ENDBRANCH  19  20
ENDBRANCH  13  15
ENDBRANCH  10  13
ENDBRANCH   7  10
TORSDOF 4
ENDMDL
MODEL       77
REMARK 921   NORMALIZED FREE ENERGY PREDICTED BY IDOCK:   -5.86 KCAL/MOL
REMARK 922        TOTAL FREE ENERGY PREDICTED BY IDOCK:   -7.97 KCAL/MOL
REMARK 923 INTER-LIGAND FREE ENERGY PREDICTED BY IDOCK:   -7.04 KCAL/MOL
REMARK 924 INTRA-LIGAND FREE ENERGY PREDICTED BY IDOCK:   -0.93 KCAL/MOL
REMARK 927      BINDING AFFINITY PREDICTED BY RF-SCORE:    0.00 PKD
ROOT
HETATM    1  N   UNL     1     -14.090  15.753  72.378  1.00  0.00    -0.492 NA 
HETATM    2  H2  UNL     1     -14.569  16.296  71.660  1.00  0.00     0.000 HD 
HETATM    3  C   UNL     1     -13.543  14.617  71.777  1.00  0.00    -0.394 A  
HETATM    4  H1  UNL     1     -14.714  15.661  73.179  1.00  0.00     0.000 HD 
HETATM    5  C   UNL     1     -12.688  14.743  70.679  1.00  0.00    -0.415 A  
HETATM    6  C   UNL     1     -12.058  13.626  70.124  1.00  0.00    -0.431 A  
HETATM    7  C   UNL     1     -12.247  12.374  70.711  1.00  0.00    -0.242 A  
HETATM    8  C   UNL     1     -13.041  12.239  71.853  1.00  0.00    -0.469 A  
HETATM    9  C   UNL     1     -13.667  13.368  72.395  1.00  0.00    -0.698 A  
ENDROOT
BRANCH   7  10
HETATM   10  S   UNL     1     -11.553  10.919  69.938  1.00  0.00    -0.360 S  
HETATM   11  O   UNL     1     -11.160  10.050  71.028  1.00  0.00    -0.343 OA 
HETATM   12  O   UNL     1     -12.520  10.468  68.960  1.00  0.00    -0.217 OA 
BRANCH  10  13
HETATM   13  N   UNL     1     -10.217  11.523  69.218  1.00  0.00    -0.425 N  
HETATM   14  H   UNL     1      -9.464  11.881  69.806  1.00  0.00     0.000 HD 
BRANCH  13  15
HETATM   15  C   UNL     1     -10.063  11.569  67.839  1.00  0.00    -0.189 A  
HETATM   16  C   UNL     1     -10.105  10.435  67.057  1.00  0.00    -0.264 A  
HETATM   17  C   UNL     1     -10.014  10.902  65.740  1.00  0.00    -0.247 A  
HETATM   18  N   UNL     1      -9.940  12.228  65.674  1.00  0.00    -0.253 NA 
HETATM   19  N   UNL     1      -9.934  12.660  66.970  1.00  0.00    -0.217 NA 
BRANCH  19  20
HETATM   20  C   UNL     1      -9.849  14.061  67.234  1.00  0.00    -0.242 A  
HETATM   21  C   UNL     1      -8.735  14.562  67.930  1.00  0.00    -0.165 A  
HETATM   22  C   UNL     1      -8.640  15.920  68.247  1.00  0.00    -0.176 A  
HETATM   23  C   UNL     1      -9.661  16.794  67.886  1.00  0.00    -0.236 A  
HETATM   24  C   UNL     1     -10.760  16.314  67.184  1.00  0.00    -0.247 A  
HETATM   25  C   UNL     1     -10.843  14.961  66.841  1.00  0.00    -0.319 A  
ENDBRANCH  19  20
ENDBRANCH  13  15
ENDBRANCH  10  13
ENDBRANCH   7  10
TORSDOF 4
ENDMDL
MODEL       78
REMARK 921   NORMALIZED FREE ENERGY PREDICTED BY IDOCK:   -5.86 KCAL/MOL
REMARK 922        TOTAL FREE ENERGY PREDICTED BY IDOCK:   -7.97 KCAL/MOL
REMARK 923 INTER-LIGAND FREE ENERGY PREDICTED BY IDOCK:   -7.09 KCAL/MOL
REMARK 924 INTRA-LIGAND FREE ENERGY PREDICTED BY IDOCK:   -0.88 KCAL/MOL
REMARK 927      BINDING AFFINITY PREDICTED BY RF-SCORE:    0.00 PKD
ROOT
HETATM    1  N   UNL     1      -9.278   6.661  65.677  1.00  0.00    -0.376 NA 
HETATM    2  H2  UNL     1      -8.278   6.506  65.550  1.00  0.00     0.000 HD 
HETATM    3  C   UNL     1      -9.469   7.984  66.080  1.00  0.00    -0.122 A  
HETATM    4  H1  UNL     1      -9.654   5.894  66.235  1.00  0.00     0.000 HD 
HETATM    5  C   UNL     1      -8.955   9.035  65.316  1.00  0.00    -0.233 A  
HETATM    6  C   UNL     1      -9.216  10.366  65.653  1.00  0.00    -0.220 A  
HETATM    7  C   UNL     1     -10.047  10.646  66.739  1.00  0.00    -0.224 A  
HETATM    8  C   UNL     1     -10.628   9.607  67.471  1.00  0.00    -0.339 A  
HETATM    9  C   UNL     1     -10.354   8.280  67.123  1.00  0.00    -0.387 A  
ENDROOT
BRANCH   7  10
HETATM   10  S   UNL     1     -10.285  12.339  67.260  1.00  0.00    -0.211 S  
HETATM   11  O   UNL     1      -9.234  12.602  68.219  1.00  0.00    -0.201 OA 
HETATM   12  O   UNL     1     -10.387  13.133  66.054  1.00  0.00    -0.276 OA 
BRANCH  10  13
HETATM   13  N   UNL     1     -11.720  12.255  68.037  1.00  0.00    -0.352 N  
HETATM   14  H   UNL     1     -12.453  11.663  67.647  1.00  0.00     0.000 HD 
BRANCH  13  15
HETATM   15  C   UNL     1     -11.984  12.957  69.205  1.00  0.00    -0.260 A  
HETATM   16  C   UNL     1     -12.100  14.329  69.228  1.00  0.00    -0.351 A  
HETATM   17  C   UNL     1     -12.463  14.640  70.544  1.00  0.00    -0.347 A  
HETATM   18  N   UNL     1     -12.590  13.557  71.305  1.00  0.00    -0.358 NA 
HETATM   19  N   UNL     1     -12.264  12.502  70.500  1.00  0.00    -0.352 NA 
BRANCH  19  20
HETATM   20  C   UNL     1     -12.295  11.181  71.042  1.00  0.00    -0.382 A  
HETATM   21  C   UNL     1     -11.191  10.332  70.845  1.00  0.00    -0.311 A  
HETATM   22  C   UNL     1     -11.205   9.018  71.320  1.00  0.00    -0.385 A  
HETATM   23  C   UNL     1     -12.324   8.528  71.985  1.00  0.00    -0.423 A  
HETATM   24  C   UNL     1     -13.415   9.362  72.201  1.00  0.00    -0.543 A  
HETATM   25  C   UNL     1     -13.392  10.686  71.752  1.00  0.00    -0.437 A  
ENDBRANCH  19  20
ENDBRANCH  13  15
ENDBRANCH  10  13
ENDBRANCH   7  10
TORSDOF 4
ENDMDL
MODEL       79
REMARK 921   NORMALIZED FREE ENERGY PREDICTED BY IDOCK:   -5.86 KCAL/MOL
REMARK 922        TOTAL FREE ENERGY PREDICTED BY IDOCK:   -7.97 KCAL/MOL
REMARK 923 INTER-LIGAND FREE ENERGY PREDICTED BY IDOCK:   -6.94 KCAL/MOL
REMARK 924 INTRA-LIGAND FREE ENERGY PREDICTED BY IDOCK:   -1.02 KCAL/MOL
REMARK 927      BINDING AFFINITY PREDICTED BY RF-SCORE:    0.00 PKD
ROOT
HETATM    1  N   UNL     1     -12.222  13.364  62.734  1.00  0.00    -0.771 NA 
HETATM    2  H2  UNL     1     -11.900  14.295  62.466  1.00  0.00     0.000 HD 
HETATM    3  C   UNL     1     -11.993  13.197  64.101  1.00  0.00    -0.436 A  
HETATM    4  H1  UNL     1     -11.850  12.691  62.064  1.00  0.00     0.000 HD 
HETATM    5  C   UNL     1     -12.503  14.120  65.019  1.00  0.00    -0.434 A  
HETATM    6  C   UNL     1     -12.364  13.918  66.395  1.00  0.00    -0.468 A  
HETATM    7  C   UNL     1     -11.753  12.752  66.857  1.00  0.00    -0.380 A  
HETATM    8  C   UNL     1     -11.302  11.784  65.955  1.00  0.00    -0.335 A  
HETATM    9  C   UNL     1     -11.445  12.002  64.580  1.00  0.00    -0.385 A  
ENDROOT
BRANCH   7  10
HETATM   10  S   UNL     1     -11.453  12.540  68.606  1.00  0.00    -0.329 S  
HETATM   11  O   UNL     1     -10.018  12.417  68.742  1.00  0.00    -0.152 OA 
HETATM   12  O   UNL     1     -12.160  13.610  69.279  1.00  0.00    -0.334 OA 
BRANCH  10  13
HETATM   13  N   UNL     1     -12.153  11.093  68.897  1.00  0.00    -0.370 N  
HETATM   14  H   UNL     1     -13.019  10.862  68.411  1.00  0.00     0.000 HD 
BRANCH  13  15
HETATM   15  C   UNL     1     -11.618  10.164  69.779  1.00  0.00    -0.182 A  
HETATM   16  C   UNL     1     -11.954  10.141  71.115  1.00  0.00    -0.480 A  
HETATM   17  C   UNL     1     -11.297   9.017  71.633  1.00  0.00    -0.360 A  
HETATM   18  N   UNL     1     -10.610   8.358  70.705  1.00  0.00    -0.203 NA 
HETATM   19  N   UNL     1     -10.768   9.073  69.552  1.00  0.00    -0.227 NA 
BRANCH  19  20
HETATM   20  C   UNL     1     -10.130   8.617  68.359  1.00  0.00    -0.191 A  
HETATM   21  C   UNL     1      -9.072   9.368  67.817  1.00  0.00    -0.134 A  
HETATM   22  C   UNL     1      -8.454   8.977  66.626  1.00  0.00    -0.126 A  
HETATM   23  C   UNL     1      -8.890   7.841  65.953  1.00  0.00    -0.176 A  
HETATM   24  C   UNL     1      -9.924   7.081  66.487  1.00  0.00    -0.163 A  
HETATM   25  C   UNL     1     -10.524   7.454  67.693  1.00  0.00    -0.310 A  
ENDBRANCH  19  20
ENDBRANCH  13  15
ENDBRANCH  10  13
ENDBRANCH   7  10
TORSDOF 4
ENDMDL
MODEL       80
REMARK 921   NORMALIZED FREE ENERGY PREDICTED BY IDOCK:   -5.83 KCAL/MOL
REMARK 922        TOTAL FREE ENERGY PREDICTED BY IDOCK:   -7.93 KCAL/MOL
REMARK 923 INTER-LIGAND FREE ENERGY PREDICTED BY IDOCK:   -7.01 KCAL/MOL
REMARK 924 INTRA-LIGAND FREE ENERGY PREDICTED BY IDOCK:   -0.91 KCAL/MOL
REMARK 927      BINDING AFFINITY PREDICTED BY RF-SCORE:    0.00 PKD
ROOT
HETATM    1  N   UNL     1     -10.315  10.648  62.587  1.00  0.00    -0.721 NA 
HETATM    2  H2  UNL     1     -10.054  11.495  62.080  1.00  0.00     0.000 HD 
HETATM    3  C   UNL     1     -10.497  10.980  63.931  1.00  0.00    -0.354 A  
HETATM    4  H1  UNL     1      -9.668   9.905  62.323  1.00  0.00     0.000 HD 
HETATM    5  C   UNL     1     -11.384  11.998  64.292  1.00  0.00    -0.433 A  
HETATM    6  C   UNL     1     -11.648  12.280  65.635  1.00  0.00    -0.433 A  
HETATM    7  C   UNL     1     -11.058  11.496  66.627  1.00  0.00    -0.295 A  
HETATM    8  C   UNL     1     -10.225  10.428  66.283  1.00  0.00    -0.286 A  
HETATM    9  C   UNL     1      -9.967  10.161  64.934  1.00  0.00    -0.358 A  
ENDROOT
BRANCH   7  10
HETATM   10  S   UNL     1     -11.285  11.924  68.348  1.00  0.00    -0.285 S  
HETATM   11  O   UNL     1      -9.982  11.774  68.960  1.00  0.00    -0.096 OA 
HETATM   12  O   UNL     1     -11.957  13.207  68.370  1.00  0.00    -0.341 OA 
BRANCH  10  13
HETATM   13  N   UNL     1     -12.270  10.729  68.867  1.00  0.00    -0.456 N  
HETATM   14  H   UNL     1     -12.921  10.310  68.204  1.00  0.00     0.000 HD 
BRANCH  13  15
HETATM   15  C   UNL     1     -12.257  10.260  70.173  1.00  0.00    -0.176 A  
HETATM   16  C   UNL     1     -12.892  10.926  71.199  1.00  0.00    -0.508 A  
HETATM   17  C   UNL     1     -12.738  10.097  72.317  1.00  0.00    -0.082 A  
HETATM   18  N   UNL     1     -12.077   8.979  72.034  1.00  0.00    -0.370 NA 
HETATM   19  N   UNL     1     -11.739   9.076  70.714  1.00  0.00    -0.270 NA 
BRANCH  19  20
HETATM   20  C   UNL     1     -11.000   8.015  70.107  1.00  0.00    -0.226 A  
HETATM   21  C   UNL     1     -11.450   6.692  70.258  1.00  0.00    -0.449 A  
HETATM   22  C   UNL     1     -10.727   5.624  69.717  1.00  0.00    -0.401 A  
HETATM   23  C   UNL     1      -9.540   5.861  69.031  1.00  0.00    -0.157 A  
HETATM   24  C   UNL     1      -9.094   7.167  68.860  1.00  0.00    -0.131 A  
HETATM   25  C   UNL     1      -9.830   8.238  69.376  1.00  0.00    -0.185 A  
ENDBRANCH  19  20
ENDBRANCH  13  15
ENDBRANCH  10  13
ENDBRANCH   7  10
TORSDOF 4
ENDMDL
MODEL       81
REMARK 921   NORMALIZED FREE ENERGY PREDICTED BY IDOCK:   -5.80 KCAL/MOL
REMARK 922        TOTAL FREE ENERGY PREDICTED BY IDOCK:   -7.89 KCAL/MOL
REMARK 923 INTER-LIGAND FREE ENERGY PREDICTED BY IDOCK:   -7.25 KCAL/MOL
REMARK 924 INTRA-LIGAND FREE ENERGY PREDICTED BY IDOCK:   -0.64 KCAL/MOL
REMARK 927      BINDING AFFINITY PREDICTED BY RF-SCORE:    0.00 PKD
ROOT
HETATM    1  N   UNL     1     -11.778  14.662  72.035  1.00  0.00    -0.352 NA 
HETATM    2  H2  UNL     1     -10.993  14.163  72.452  1.00  0.00     0.000 HD 
HETATM    3  C   UNL     1     -11.783  14.406  70.662  1.00  0.00    -0.252 A  
HETATM    4  H1  UNL     1     -11.766  15.622  72.379  1.00  0.00     0.000 HD 
HETATM    5  C   UNL     1     -11.799  13.090  70.192  1.00  0.00    -0.324 A  
HETATM    6  C   UNL     1     -11.898  12.816  68.824  1.00  0.00    -0.346 A  
HETATM    7  C   UNL     1     -12.036  13.873  67.924  1.00  0.00    -0.358 A  
HETATM    8  C   UNL     1     -12.094  15.191  68.382  1.00  0.00    -0.107 A  
HETATM    9  C   UNL     1     -11.990  15.450  69.754  1.00  0.00    -0.381 A  
ENDROOT
BRANCH   7  10
HETATM   10  S   UNL     1     -12.034  13.546  66.166  1.00  0.00    -0.430 S  
HETATM   11  O   UNL     1     -11.789  12.125  66.036  1.00  0.00    -0.522 OA 
HETATM   12  O   UNL     1     -13.250  14.127  65.636  1.00  0.00    -0.615 OA 
BRANCH  10  13
HETATM   13  N   UNL     1     -10.715  14.372  65.669  1.00  0.00    -0.305 N  
HETATM   14  H   UNL     1     -10.714  14.770  64.730  1.00  0.00     0.000 HD 
BRANCH  13  15
HETATM   15  C   UNL     1      -9.597  14.555  66.470  1.00  0.00    -0.293 A  
HETATM   16  C   UNL     1      -8.717  13.532  66.748  1.00  0.00    -0.100 A  
HETATM   17  C   UNL     1      -7.689  14.130  67.487  1.00  0.00    -0.185 A  
HETATM   18  N   UNL     1      -7.879  15.435  67.657  1.00  0.00    -0.143 NA 
HETATM   19  N   UNL     1      -9.076  15.713  67.061  1.00  0.00    -0.208 NA 
BRANCH  19  20
HETATM   20  C   UNL     1      -9.569  17.054  67.085  1.00  0.00    -0.253 A  
HETATM   21  C   UNL     1      -9.558  17.767  68.298  1.00  0.00    -0.312 A  
HETATM   22  C   UNL     1     -10.075  19.064  68.369  1.00  0.00    -0.471 A  
HETATM   23  C   UNL     1     -10.620  19.661  67.237  1.00  0.00    -0.598 A  
HETATM   24  C   UNL     1     -10.621  18.974  66.029  1.00  0.00    -0.499 A  
HETATM   25  C   UNL     1     -10.079  17.687  65.949  1.00  0.00    -0.192 A  
ENDBRANCH  19  20
ENDBRANCH  13  15
ENDBRANCH  10  13
ENDBRANCH   7  10
TORSDOF 4
ENDMDL
MODEL       82
REMARK 921   NORMALIZED FREE ENERGY PREDICTED BY IDOCK:   -5.78 KCAL/MOL
REMARK 922        TOTAL FREE ENERGY PREDICTED BY IDOCK:   -7.86 KCAL/MOL
REMARK 923 INTER-LIGAND FREE ENERGY PREDICTED BY IDOCK:   -7.17 KCAL/MOL
REMARK 924 INTRA-LIGAND FREE ENERGY PREDICTED BY IDOCK:   -0.69 KCAL/MOL
REMARK 927      BINDING AFFINITY PREDICTED BY RF-SCORE:    0.00 PKD
ROOT
HETATM    1  N   UNL     1     -12.400  13.523  62.851  1.00  0.00    -0.900 NA 
HETATM    2  H2  UNL     1     -12.216  14.523  62.768  1.00  0.00     0.000 HD 
HETATM    3  C   UNL     1     -12.040  13.115  64.137  1.00  0.00    -0.430 A  
HETATM    4  H1  UNL     1     -12.007  13.056  62.034  1.00  0.00     0.000 HD 
HETATM    5  C   UNL     1     -12.580  13.755  65.256  1.00  0.00    -0.510 A  
HETATM    6  C   UNL     1     -12.303  13.300  66.548  1.00  0.00    -0.311 A  
HETATM    7  C   UNL     1     -11.519  12.158  66.718  1.00  0.00    -0.356 A  
HETATM    8  C   UNL     1     -11.031  11.463  65.608  1.00  0.00    -0.254 A  
HETATM    9  C   UNL     1     -11.314  11.933  64.320  1.00  0.00    -0.425 A  
ENDROOT
BRANCH   7  10
HETATM   10  S   UNL     1     -11.052  11.639  68.363  1.00  0.00    -0.258 S  
HETATM   11  O   UNL     1     -10.504  12.818  69.001  1.00  0.00    -0.130 OA 
HETATM   12  O   UNL     1     -12.205  10.973  68.931  1.00  0.00    -0.519 OA 
BRANCH  10  13
HETATM   13  N   UNL     1      -9.847  10.580  68.055  1.00  0.00    -0.146 N  
HETATM   14  H   UNL     1      -9.833  10.105  67.153  1.00  0.00     0.000 HD 
BRANCH  13  15
HETATM   15  C   UNL     1      -8.841  10.299  68.970  1.00  0.00    -0.168 A  
HETATM   16  C   UNL     1      -7.628  10.952  68.951  1.00  0.00    -0.128 A  
HETATM   17  C   UNL     1      -6.941  10.470  70.072  1.00  0.00    -0.146 A  
HETATM   18  N   UNL     1      -7.657   9.592  70.768  1.00  0.00    -0.310 NA 
HETATM   19  N   UNL     1      -8.829   9.447  70.081  1.00  0.00    -0.204 NA 
BRANCH  19  20
HETATM   20  C   UNL     1      -9.819   8.546  70.580  1.00  0.00    -0.186 A  
HETATM   21  C   UNL     1     -10.246   8.668  71.915  1.00  0.00    -0.404 A  
HETATM   22  C   UNL     1     -11.179   7.776  72.451  1.00  0.00    -0.392 A  
HETATM   23  C   UNL     1     -11.688   6.744  71.670  1.00  0.00    -0.357 A  
HETATM   24  C   UNL     1     -11.287   6.624  70.344  1.00  0.00    -0.421 A  
HETATM   25  C   UNL     1     -10.376   7.532  69.797  1.00  0.00    -0.221 A  
ENDBRANCH  19  20
ENDBRANCH  13  15
ENDBRANCH  10  13
ENDBRANCH   7  10
TORSDOF 4
ENDMDL
MODEL       83
REMARK 921   NORMALIZED FREE ENERGY PREDICTED BY IDOCK:   -5.76 KCAL/MOL
REMARK 922        TOTAL FREE ENERGY PREDICTED BY IDOCK:   -7.85 KCAL/MOL
REMARK 923 INTER-LIGAND FREE ENERGY PREDICTED BY IDOCK:   -5.93 KCAL/MOL
REMARK 924 INTRA-LIGAND FREE ENERGY PREDICTED BY IDOCK:   -1.91 KCAL/MOL
REMARK 927      BINDING AFFINITY PREDICTED BY RF-SCORE:    0.00 PKD
ROOT
HETATM    1  N   UNL     1     -10.872  13.393  67.088  1.00  0.00    -0.274 NA 
HETATM    2  H2  UNL     1     -11.863  13.174  67.193  1.00  0.00     0.000 HD 
HETATM    3  C   UNL     1     -10.726  14.781  67.091  1.00  0.00    -0.299 A  
HETATM    4  H1  UNL     1     -10.502  12.838  66.317  1.00  0.00     0.000 HD 
HETATM    5  C   UNL     1     -11.234  15.541  68.149  1.00  0.00    -0.343 A  
HETATM    6  C   UNL     1     -11.016  16.920  68.215  1.00  0.00    -0.298 A  
HETATM    7  C   UNL     1     -10.234  17.536  67.236  1.00  0.00    -0.335 A  
HETATM    8  C   UNL     1      -9.659  16.781  66.211  1.00  0.00    -0.313 A  
HETATM    9  C   UNL     1      -9.889  15.401  66.157  1.00  0.00    -0.337 A  
ENDROOT
BRANCH   7  10
HETATM   10  S   UNL     1     -10.054  19.314  67.236  1.00  0.00    -0.415 S  
HETATM   11  O   UNL     1     -11.090  19.810  66.356  1.00  0.00    -0.297 OA 
HETATM   12  O   UNL     1     -10.017  19.727  68.623  1.00  0.00    -0.427 OA 
BRANCH  10  13
HETATM   13  N   UNL     1      -8.597  19.506  66.521  1.00  0.00    -0.332 N  
HETATM   14  H   UNL     1      -8.541  19.454  65.504  1.00  0.00     0.000 HD 
BRANCH  13  15
HETATM   15  C   UNL     1      -7.432  19.737  67.240  1.00  0.00    -0.250 A  
HETATM   16  C   UNL     1      -6.899  20.999  67.390  1.00  0.00    -0.434 A  
HETATM   17  C   UNL     1      -5.806  20.829  68.247  1.00  0.00    -0.330 A  
HETATM   18  N   UNL     1      -5.655  19.566  68.636  1.00  0.00    -0.204 NA 
HETATM   19  N   UNL     1      -6.636  18.865  67.993  1.00  0.00    -0.220 NA 
BRANCH  19  20
HETATM   20  C   UNL     1      -6.731  17.455  68.201  1.00  0.00    -0.178 A  
HETATM   21  C   UNL     1      -6.163  16.583  67.256  1.00  0.00    -0.209 A  
HETATM   22  C   UNL     1      -6.276  15.197  67.402  1.00  0.00     0.040 A  
HETATM   23  C   UNL     1      -6.968  14.664  68.484  1.00  0.00    -0.110 A  
HETATM   24  C   UNL     1      -7.520  15.515  69.434  1.00  0.00    -0.219 A  
HETATM   25  C   UNL     1      -7.383  16.901  69.305  1.00  0.00    -0.150 A  
ENDBRANCH  19  20
ENDBRANCH  13  15
ENDBRANCH  10  13
ENDBRANCH   7  10
TORSDOF 4
ENDMDL
MODEL       84
REMARK 921   NORMALIZED FREE ENERGY PREDICTED BY IDOCK:   -5.74 KCAL/MOL
REMARK 922        TOTAL FREE ENERGY PREDICTED BY IDOCK:   -7.82 KCAL/MOL
REMARK 923 INTER-LIGAND FREE ENERGY PREDICTED BY IDOCK:   -6.97 KCAL/MOL
REMARK 924 INTRA-LIGAND FREE ENERGY PREDICTED BY IDOCK:   -0.84 KCAL/MOL
REMARK 927      BINDING AFFINITY PREDICTED BY RF-SCORE:    0.00 PKD
ROOT
HETATM    1  N   UNL     1      -8.992   5.342  66.396  1.00  0.00    -0.127 NA 
HETATM    2  H2  UNL     1      -7.978   5.227  66.390  1.00  0.00     0.000 HD 
HETATM    3  C   UNL     1      -9.280   6.692  66.610  1.00  0.00    -0.157 A  
HETATM    4  H1  UNL     1      -9.392   4.628  67.004  1.00  0.00     0.000 HD 
HETATM    5  C   UNL     1      -8.731   7.670  65.776  1.00  0.00    -0.151 A  
HETATM    6  C   UNL     1      -9.081   9.016  65.918  1.00  0.00    -0.264 A  
HETATM    7  C   UNL     1     -10.033   9.377  66.872  1.00  0.00    -0.229 A  
HETATM    8  C   UNL     1     -10.646   8.404  67.665  1.00  0.00    -0.265 A  
HETATM    9  C   UNL     1     -10.281   7.061  67.514  1.00  0.00    -0.257 A  
ENDROOT
BRANCH   7  10
HETATM   10  S   UNL     1     -10.396  11.105  67.152  1.00  0.00    -0.223 S  
HETATM   11  O   UNL     1     -11.837  11.188  67.256  1.00  0.00    -0.525 OA 
HETATM   12  O   UNL     1      -9.560  11.531  68.255  1.00  0.00    -0.177 OA 
BRANCH  10  13
HETATM   13  N   UNL     1      -9.914  11.785  65.746  1.00  0.00    -0.231 N  
HETATM   14  H   UNL     1      -8.927  11.738  65.494  1.00  0.00     0.000 HD 
BRANCH  13  15
HETATM   15  C   UNL     1     -10.791  12.424  64.881  1.00  0.00    -0.297 A  
HETATM   16  C   UNL     1     -11.338  11.788  63.788  1.00  0.00    -0.524 A  
HETATM   17  C   UNL     1     -12.231  12.717  63.240  1.00  0.00    -0.417 A  
HETATM   18  N   UNL     1     -12.272  13.852  63.931  1.00  0.00    -0.629 NA 
HETATM   19  N   UNL     1     -11.359  13.703  64.936  1.00  0.00    -0.331 NA 
BRANCH  19  20
HETATM   20  C   UNL     1     -11.160  14.776  65.858  1.00  0.00    -0.340 A  
HETATM   21  C   UNL     1     -10.522  15.949  65.418  1.00  0.00    -0.429 A  
HETATM   22  C   UNL     1     -10.269  17.001  66.304  1.00  0.00    -0.336 A  
HETATM   23  C   UNL     1     -10.637  16.892  67.641  1.00  0.00    -0.325 A  
HETATM   24  C   UNL     1     -11.284  15.744  68.084  1.00  0.00    -0.344 A  
HETATM   25  C   UNL     1     -11.563  14.703  67.194  1.00  0.00    -0.394 A  
ENDBRANCH  19  20
ENDBRANCH  13  15
ENDBRANCH  10  13
ENDBRANCH   7  10
TORSDOF 4
ENDMDL
MODEL       85
REMARK 921   NORMALIZED FREE ENERGY PREDICTED BY IDOCK:   -5.71 KCAL/MOL
REMARK 922        TOTAL FREE ENERGY PREDICTED BY IDOCK:   -7.78 KCAL/MOL
REMARK 923 INTER-LIGAND FREE ENERGY PREDICTED BY IDOCK:   -7.24 KCAL/MOL
REMARK 924 INTRA-LIGAND FREE ENERGY PREDICTED BY IDOCK:   -0.54 KCAL/MOL
REMARK 927      BINDING AFFINITY PREDICTED BY RF-SCORE:    0.00 PKD
ROOT
HETATM    1  N   UNL     1     -12.398  14.309  63.248  1.00  0.00    -1.092 NA 
HETATM    2  H2  UNL     1     -12.489  15.232  63.674  1.00  0.00     0.000 HD 
HETATM    3  C   UNL     1     -11.814  13.450  64.181  1.00  0.00    -0.442 A  
HETATM    4  H1  UNL     1     -11.984  14.423  62.323  1.00  0.00     0.000 HD 
HETATM    5  C   UNL     1     -12.383  13.294  65.448  1.00  0.00    -0.528 A  
HETATM    6  C   UNL     1     -11.866  12.369  66.360  1.00  0.00    -0.421 A  
HETATM    7  C   UNL     1     -10.800  11.554  65.977  1.00  0.00    -0.276 A  
HETATM    8  C   UNL     1     -10.265  11.646  64.689  1.00  0.00    -0.327 A  
HETATM    9  C   UNL     1     -10.791  12.579  63.789  1.00  0.00    -0.489 A  
ENDROOT
BRANCH   7  10
HETATM   10  S   UNL     1     -10.047  10.459  67.173  1.00  0.00    -0.218 S  
HETATM   11  O   UNL     1      -9.536   9.342  66.408  1.00  0.00    -0.182 OA 
HETATM   12  O   UNL     1      -9.149  11.270  67.969  1.00  0.00    -0.145 OA 
BRANCH  10  13
HETATM   13  N   UNL     1     -11.339   9.972  68.047  1.00  0.00    -0.521 N  
HETATM   14  H   UNL     1     -12.262  10.006  67.614  1.00  0.00     0.000 HD 
BRANCH  13  15
HETATM   15  C   UNL     1     -11.233   9.515  69.353  1.00  0.00    -0.035 A  
HETATM   16  C   UNL     1     -11.631  10.275  70.432  1.00  0.00    -0.411 A  
HETATM   17  C   UNL     1     -11.463   9.440  71.543  1.00  0.00    -0.397 A  
HETATM   18  N   UNL     1     -11.013   8.234  71.210  1.00  0.00    -0.237 NA 
HETATM   19  N   UNL     1     -10.831   8.271  69.856  1.00  0.00    -0.240 NA 
BRANCH  19  20
HETATM   20  C   UNL     1     -10.336   7.109  69.190  1.00  0.00    -0.200 A  
HETATM   21  C   UNL     1     -10.881   6.748  67.945  1.00  0.00    -0.320 A  
HETATM   22  C   UNL     1     -10.454   5.591  67.286  1.00  0.00    -0.300 A  
HETATM   23  C   UNL     1      -9.490   4.773  67.865  1.00  0.00    -0.181 A  
HETATM   24  C   UNL     1      -8.932   5.128  69.087  1.00  0.00    -0.125 A  
HETATM   25  C   UNL     1      -9.337   6.299  69.735  1.00  0.00    -0.152 A  
ENDBRANCH  19  20
ENDBRANCH  13  15
ENDBRANCH  10  13
ENDBRANCH   7  10
TORSDOF 4
ENDMDL
MODEL       86
REMARK 921   NORMALIZED FREE ENERGY PREDICTED BY IDOCK:   -5.70 KCAL/MOL
REMARK 922        TOTAL FREE ENERGY PREDICTED BY IDOCK:   -7.77 KCAL/MOL
REMARK 923 INTER-LIGAND FREE ENERGY PREDICTED BY IDOCK:   -7.36 KCAL/MOL
REMARK 924 INTRA-LIGAND FREE ENERGY PREDICTED BY IDOCK:   -0.41 KCAL/MOL
REMARK 927      BINDING AFFINITY PREDICTED BY RF-SCORE:    0.00 PKD
ROOT
HETATM    1  N   UNL     1     -14.168   8.945  73.330  1.00  0.00    -1.237 NA 
HETATM    2  H2  UNL     1     -15.109   8.932  72.936  1.00  0.00     0.000 HD 
HETATM    3  C   UNL     1     -13.257   9.125  72.287  1.00  0.00    -0.461 A  
HETATM    4  H1  UNL     1     -14.075   8.152  73.963  1.00  0.00     0.000 HD 
HETATM    5  C   UNL     1     -13.385  10.213  71.419  1.00  0.00    -0.413 A  
HETATM    6  C   UNL     1     -12.430  10.460  70.429  1.00  0.00    -0.348 A  
HETATM    7  C   UNL     1     -11.307   9.637  70.342  1.00  0.00    -0.277 A  
HETATM    8  C   UNL     1     -11.126   8.588  71.247  1.00  0.00    -0.320 A  
HETATM    9  C   UNL     1     -12.093   8.351  72.231  1.00  0.00    -0.456 A  
ENDROOT
BRANCH   7  10
HETATM   10  S   UNL     1     -10.144   9.862  69.003  1.00  0.00    -0.202 S  
HETATM   11  O   UNL     1      -8.890   9.322  69.483  1.00  0.00    -0.135 OA 
HETATM   12  O   UNL     1     -10.767   9.312  67.817  1.00  0.00    -0.259 OA 
BRANCH  10  13
HETATM   13  N   UNL     1     -10.037  11.490  68.917  1.00  0.00    -0.361 N  
HETATM   14  H   UNL     1      -9.499  11.982  69.629  1.00  0.00     0.000 HD 
BRANCH  13  15
HETATM   15  C   UNL     1     -10.648  12.231  67.915  1.00  0.00    -0.212 A  
HETATM   16  C   UNL     1     -11.553  13.233  68.190  1.00  0.00    -0.373 A  
HETATM   17  C   UNL     1     -11.857  13.797  66.944  1.00  0.00    -0.413 A  
HETATM   18  N   UNL     1     -11.190  13.220  65.949  1.00  0.00    -0.288 NA 
HETATM   19  N   UNL     1     -10.459  12.221  66.527  1.00  0.00    -0.224 NA 
BRANCH  19  20
HETATM   20  C   UNL     1      -9.632  11.400  65.701  1.00  0.00    -0.231 A  
HETATM   21  C   UNL     1     -10.156  10.886  64.501  1.00  0.00    -0.404 A  
HETATM   22  C   UNL     1      -9.392  10.041  63.691  1.00  0.00    -0.301 A  
HETATM   23  C   UNL     1      -8.102   9.687  64.072  1.00  0.00    -0.152 A  
HETATM   24  C   UNL     1      -7.567  10.201  65.247  1.00  0.00    -0.144 A  
HETATM   25  C   UNL     1      -8.319  11.069  66.045  1.00  0.00    -0.147 A  
ENDBRANCH  19  20
ENDBRANCH  13  15
ENDBRANCH  10  13
ENDBRANCH   7  10
TORSDOF 4
ENDMDL
MODEL       87
REMARK 921   NORMALIZED FREE ENERGY PREDICTED BY IDOCK:   -5.70 KCAL/MOL
REMARK 922        TOTAL FREE ENERGY PREDICTED BY IDOCK:   -7.77 KCAL/MOL
REMARK 923 INTER-LIGAND FREE ENERGY PREDICTED BY IDOCK:   -7.08 KCAL/MOL
REMARK 924 INTRA-LIGAND FREE ENERGY PREDICTED BY IDOCK:   -0.68 KCAL/MOL
REMARK 927      BINDING AFFINITY PREDICTED BY RF-SCORE:    0.00 PKD
ROOT
HETATM    1  N   UNL     1     -13.832  15.713  73.002  1.00  0.00    -0.615 NA 
HETATM    2  H2  UNL     1     -13.699  15.469  73.984  1.00  0.00     0.000 HD 
HETATM    3  C   UNL     1     -13.251  14.713  72.219  1.00  0.00    -0.378 A  
HETATM    4  H1  UNL     1     -13.562  16.688  72.874  1.00  0.00     0.000 HD 
HETATM    5  C   UNL     1     -13.622  13.377  72.394  1.00  0.00    -0.708 A  
HETATM    6  C   UNL     1     -13.121  12.376  71.557  1.00  0.00    -0.362 A  
HETATM    7  C   UNL     1     -12.280  12.726  70.499  1.00  0.00    -0.307 A  
HETATM    8  C   UNL     1     -11.957  14.065  70.265  1.00  0.00    -0.409 A  
HETATM    9  C   UNL     1     -12.464  15.056  71.114  1.00  0.00    -0.400 A  
ENDROOT
BRANCH   7  10
HETATM   10  S   UNL     1     -11.531  11.446  69.501  1.00  0.00    -0.329 S  
HETATM   11  O   UNL     1     -12.634  10.678  68.962  1.00  0.00    -0.232 OA 
HETATM   12  O   UNL     1     -10.600  12.107  68.611  1.00  0.00    -0.223 OA 
BRANCH  10  13
HETATM   13  N   UNL     1     -10.747  10.555  70.625  1.00  0.00    -0.327 N  
HETATM   14  H   UNL     1      -9.951  10.970  71.108  1.00  0.00     0.000 HD 
BRANCH  13  15
HETATM   15  C   UNL     1     -11.120   9.258  70.949  1.00  0.00    -0.306 A  
HETATM   16  C   UNL     1     -11.816   8.960  72.100  1.00  0.00    -0.417 A  
HETATM   17  C   UNL     1     -12.085   7.588  72.013  1.00  0.00    -0.291 A  
HETATM   18  N   UNL     1     -11.620   7.049  70.891  1.00  0.00    -0.311 NA 
HETATM   19  N   UNL     1     -10.987   8.063  70.230  1.00  0.00    -0.249 NA 
BRANCH  19  20
HETATM   20  C   UNL     1     -10.364   7.791  68.974  1.00  0.00    -0.211 A  
HETATM   21  C   UNL     1      -9.187   8.479  68.629  1.00  0.00    -0.142 A  
HETATM   22  C   UNL     1      -8.576   8.273  67.389  1.00  0.00    -0.125 A  
HETATM   23  C   UNL     1      -9.136   7.389  66.472  1.00  0.00    -0.195 A  
HETATM   24  C   UNL     1     -10.290   6.690  66.808  1.00  0.00    -0.280 A  
HETATM   25  C   UNL     1     -10.887   6.874  68.059  1.00  0.00    -0.266 A  
ENDBRANCH  19  20
ENDBRANCH  13  15
ENDBRANCH  10  13
ENDBRANCH   7  10
TORSDOF 4
ENDMDL
MODEL       88
REMARK 921   NORMALIZED FREE ENERGY PREDICTED BY IDOCK:   -5.68 KCAL/MOL
REMARK 922        TOTAL FREE ENERGY PREDICTED BY IDOCK:   -7.74 KCAL/MOL
REMARK 923 INTER-LIGAND FREE ENERGY PREDICTED BY IDOCK:   -7.20 KCAL/MOL
REMARK 924 INTRA-LIGAND FREE ENERGY PREDICTED BY IDOCK:   -0.54 KCAL/MOL
REMARK 927      BINDING AFFINITY PREDICTED BY RF-SCORE:    0.00 PKD
ROOT
HETATM    1  N   UNL     1     -13.997  15.840  72.944  1.00  0.00    -0.611 NA 
HETATM    2  H2  UNL     1     -14.580  16.517  72.453  1.00  0.00     0.000 HD 
HETATM    3  C   UNL     1     -13.558  14.887  72.023  1.00  0.00    -0.407 A  
HETATM    4  H1  UNL     1     -14.487  15.549  73.790  1.00  0.00     0.000 HD 
HETATM    5  C   UNL     1     -12.886  15.285  70.863  1.00  0.00    -0.511 A  
HETATM    6  C   UNL     1     -12.358  14.342  69.977  1.00  0.00    -0.403 A  
HETATM    7  C   UNL     1     -12.460  12.984  70.284  1.00  0.00    -0.147 A  
HETATM    8  C   UNL     1     -13.064  12.570  71.474  1.00  0.00    -0.373 A  
HETATM    9  C   UNL     1     -13.591  13.527  72.349  1.00  0.00    -0.709 A  
ENDROOT
BRANCH   7  10
HETATM   10  S   UNL     1     -11.905  11.764  69.101  1.00  0.00    -0.313 S  
HETATM   11  O   UNL     1     -12.665  10.567  69.392  1.00  0.00    -0.160 OA 
HETATM   12  O   UNL     1     -11.993  12.384  67.795  1.00  0.00    -0.429 OA 
BRANCH  10  13
HETATM   13  N   UNL     1     -10.349  11.541  69.548  1.00  0.00    -0.419 N  
HETATM   14  H   UNL     1      -9.922  12.216  70.183  1.00  0.00     0.000 HD 
BRANCH  13  15
HETATM   15  C   UNL     1      -9.584  10.473  69.100  1.00  0.00    -0.199 A  
HETATM   16  C   UNL     1      -8.553  10.634  68.201  1.00  0.00    -0.123 A  
HETATM   17  C   UNL     1      -7.975   9.365  68.083  1.00  0.00    -0.091 A  
HETATM   18  N   UNL     1      -8.570   8.462  68.857  1.00  0.00    -0.134 NA 
HETATM   19  N   UNL     1      -9.595   9.123  69.473  1.00  0.00    -0.163 NA 
BRANCH  19  20
HETATM   20  C   UNL     1     -10.440   8.407  70.374  1.00  0.00    -0.214 A  
HETATM   21  C   UNL     1     -10.767   8.986  71.614  1.00  0.00    -0.441 A  
HETATM   22  C   UNL     1     -11.553   8.296  72.540  1.00  0.00    -0.454 A  
HETATM   23  C   UNL     1     -12.013   7.016  72.250  1.00  0.00    -0.250 A  
HETATM   24  C   UNL     1     -11.711   6.439  71.022  1.00  0.00    -0.358 A  
HETATM   25  C   UNL     1     -10.948   7.139  70.082  1.00  0.00    -0.293 A  
ENDBRANCH  19  20
ENDBRANCH  13  15
ENDBRANCH  10  13
ENDBRANCH   7  10
TORSDOF 4
ENDMDL
MODEL       89
REMARK 921   NORMALIZED FREE ENERGY PREDICTED BY IDOCK:   -5.67 KCAL/MOL
REMARK 922        TOTAL FREE ENERGY PREDICTED BY IDOCK:   -7.73 KCAL/MOL
REMARK 923 INTER-LIGAND FREE ENERGY PREDICTED BY IDOCK:   -7.61 KCAL/MOL
REMARK 924 INTRA-LIGAND FREE ENERGY PREDICTED BY IDOCK:   -0.12 KCAL/MOL
REMARK 927      BINDING AFFINITY PREDICTED BY RF-SCORE:    0.00 PKD
ROOT
HETATM    1  N   UNL     1     -12.416  16.185  71.627  1.00  0.00    -0.571 NA 
HETATM    2  H2  UNL     1     -11.991  15.873  72.500  1.00  0.00     0.000 HD 
HETATM    3  C   UNL     1     -12.086  15.270  70.625  1.00  0.00    -0.354 A  
HETATM    4  H1  UNL     1     -12.208  17.177  71.507  1.00  0.00     0.000 HD 
HETATM    5  C   UNL     1     -12.371  13.912  70.790  1.00  0.00    -0.449 A  
HETATM    6  C   UNL     1     -12.134  12.996  69.761  1.00  0.00    -0.325 A  
HETATM    7  C   UNL     1     -11.654  13.456  68.534  1.00  0.00    -0.333 A  
HETATM    8  C   UNL     1     -11.432  14.820  68.327  1.00  0.00    -0.338 A  
HETATM    9  C   UNL     1     -11.671  15.724  69.369  1.00  0.00    -0.379 A  
ENDROOT
BRANCH   7  10
HETATM   10  S   UNL     1     -11.225  12.284  67.255  1.00  0.00    -0.321 S  
HETATM   11  O   UNL     1     -12.280  12.382  66.268  1.00  0.00    -0.620 OA 
HETATM   12  O   UNL     1      -9.852  12.561  66.884  1.00  0.00    -0.219 OA 
BRANCH  10  13
HETATM   13  N   UNL     1     -11.350  10.859  68.044  1.00  0.00    -0.310 N  
HETATM   14  H   UNL     1     -12.207  10.316  67.937  1.00  0.00     0.000 HD 
BRANCH  13  15
HETATM   15  C   UNL     1     -10.341  10.358  68.854  1.00  0.00    -0.209 A  
HETATM   16  C   UNL     1      -9.009  10.615  68.612  1.00  0.00    -0.170 A  
HETATM   17  C   UNL     1      -8.328  10.031  69.687  1.00  0.00    -0.176 A  
HETATM   18  N   UNL     1      -9.151   9.461  70.561  1.00  0.00    -0.253 NA 
HETATM   19  N   UNL     1     -10.406   9.623  70.045  1.00  0.00    -0.238 NA 
BRANCH  19  20
HETATM   20  C   UNL     1     -11.525   9.099  70.761  1.00  0.00    -0.282 A  
HETATM   21  C   UNL     1     -11.782   7.717  70.714  1.00  0.00    -0.260 A  
HETATM   22  C   UNL     1     -12.895   7.175  71.365  1.00  0.00    -0.431 A  
HETATM   23  C   UNL     1     -13.771   8.003  72.058  1.00  0.00    -0.321 A  
HETATM   24  C   UNL     1     -13.518   9.368  72.125  1.00  0.00    -0.543 A  
HETATM   25  C   UNL     1     -12.391   9.909  71.499  1.00  0.00    -0.504 A  
ENDBRANCH  19  20
ENDBRANCH  13  15
ENDBRANCH  10  13
ENDBRANCH   7  10
TORSDOF 4
ENDMDL
MODEL       90
REMARK 921   NORMALIZED FREE ENERGY PREDICTED BY IDOCK:   -5.67 KCAL/MOL
REMARK 922        TOTAL FREE ENERGY PREDICTED BY IDOCK:   -7.73 KCAL/MOL
REMARK 923 INTER-LIGAND FREE ENERGY PREDICTED BY IDOCK:   -7.36 KCAL/MOL
REMARK 924 INTRA-LIGAND FREE ENERGY PREDICTED BY IDOCK:   -0.37 KCAL/MOL
REMARK 927      BINDING AFFINITY PREDICTED BY RF-SCORE:    0.00 PKD
ROOT
HETATM    1  N   UNL     1      -7.988   9.030  62.741  1.00  0.00    -0.134 NA 
HETATM    2  H2  UNL     1      -7.853   8.086  63.104  1.00  0.00     0.000 HD 
HETATM    3  C   UNL     1      -8.802   9.731  63.634  1.00  0.00    -0.236 A  
HETATM    4  H1  UNL     1      -8.244   8.962  61.757  1.00  0.00     0.000 HD 
HETATM    5  C   UNL     1      -8.450   9.825  64.983  1.00  0.00    -0.161 A  
HETATM    6  C   UNL     1      -9.202  10.600  65.871  1.00  0.00    -0.209 A  
HETATM    7  C   UNL     1     -10.288  11.332  65.389  1.00  0.00    -0.272 A  
HETATM    8  C   UNL     1     -10.611  11.308  64.029  1.00  0.00    -0.450 A  
HETATM    9  C   UNL     1      -9.850  10.524  63.154  1.00  0.00    -0.295 A  
ENDROOT
BRANCH   7  10
HETATM   10  S   UNL     1     -11.334  12.223  66.531  1.00  0.00    -0.367 S  
HETATM   11  O   UNL     1     -12.199  13.042  65.708  1.00  0.00    -0.434 OA 
HETATM   12  O   UNL     1     -11.901  11.238  67.429  1.00  0.00    -0.590 OA 
BRANCH  10  13
HETATM   13  N   UNL     1     -10.256  13.178  67.303  1.00  0.00    -0.241 N  
HETATM   14  H   UNL     1      -9.468  12.739  67.778  1.00  0.00     0.000 HD 
BRANCH  13  15
HETATM   15  C   UNL     1     -10.369  14.561  67.341  1.00  0.00    -0.252 A  
HETATM   16  C   UNL     1      -9.988  15.358  66.284  1.00  0.00    -0.308 A  
HETATM   17  C   UNL     1     -10.348  16.657  66.663  1.00  0.00    -0.296 A  
HETATM   18  N   UNL     1     -10.930  16.695  67.857  1.00  0.00    -0.318 NA 
HETATM   19  N   UNL     1     -10.923  15.406  68.311  1.00  0.00    -0.276 NA 
BRANCH  19  20
HETATM   20  C   UNL     1     -11.479  15.119  69.595  1.00  0.00    -0.293 A  
HETATM   21  C   UNL     1     -12.027  13.846  69.835  1.00  0.00    -0.405 A  
HETATM   22  C   UNL     1     -12.622  13.544  71.064  1.00  0.00    -0.438 A  
HETATM   23  C   UNL     1     -12.690  14.510  72.063  1.00  0.00    -0.410 A  
HETATM   24  C   UNL     1     -12.137  15.766  71.843  1.00  0.00    -0.548 A  
HETATM   25  C   UNL     1     -11.517  16.061  70.625  1.00  0.00    -0.427 A  
ENDBRANCH  19  20
ENDBRANCH  13  15
ENDBRANCH  10  13
ENDBRANCH   7  10
TORSDOF 4
ENDMDL
MODEL       91
REMARK 921   NORMALIZED FREE ENERGY PREDICTED BY IDOCK:   -5.62 KCAL/MOL
REMARK 922        TOTAL FREE ENERGY PREDICTED BY IDOCK:   -7.67 KCAL/MOL
REMARK 923 INTER-LIGAND FREE ENERGY PREDICTED BY IDOCK:   -7.03 KCAL/MOL
REMARK 924 INTRA-LIGAND FREE ENERGY PREDICTED BY IDOCK:   -0.65 KCAL/MOL
REMARK 927      BINDING AFFINITY PREDICTED BY RF-SCORE:    0.00 PKD
ROOT
HETATM    1  N   UNL     1      -5.790  20.904  68.986  1.00  0.00    -0.347 NA 
HETATM    2  H2  UNL     1      -6.239  21.693  69.452  1.00  0.00     0.000 HD 
HETATM    3  C   UNL     1      -6.739  19.894  68.820  1.00  0.00    -0.323 A  
HETATM    4  H1  UNL     1      -4.910  20.710  69.463  1.00  0.00     0.000 HD 
HETATM    5  C   UNL     1      -7.945  20.161  68.166  1.00  0.00    -0.186 A  
HETATM    6  C   UNL     1      -8.866  19.141  67.909  1.00  0.00    -0.345 A  
HETATM    7  C   UNL     1      -8.549  17.829  68.264  1.00  0.00    -0.277 A  
HETATM    8  C   UNL     1      -7.317  17.532  68.853  1.00  0.00    -0.245 A  
HETATM    9  C   UNL     1      -6.408  18.565  69.108  1.00  0.00    -0.264 A  
ENDROOT
BRANCH   7  10
HETATM   10  S   UNL     1      -9.767  16.536  68.058  1.00  0.00    -0.241 S  
HETATM   11  O   UNL     1     -11.012  17.218  67.775  1.00  0.00    -0.318 OA 
HETATM   12  O   UNL     1      -9.217  15.597  67.103  1.00  0.00    -0.202 OA 
BRANCH  10  13
HETATM   13  N   UNL     1      -9.830  15.889  69.557  1.00  0.00    -0.273 N  
HETATM   14  H   UNL     1      -8.960  15.774  70.076  1.00  0.00     0.000 HD 
BRANCH  13  15
HETATM   15  C   UNL     1     -11.018  15.488  70.152  1.00  0.00    -0.321 A  
HETATM   16  C   UNL     1     -11.608  16.205  71.170  1.00  0.00    -0.453 A  
HETATM   17  C   UNL     1     -12.816  15.545  71.424  1.00  0.00    -0.465 A  
HETATM   18  N   UNL     1     -13.002  14.499  70.624  1.00  0.00    -0.344 NA 
HETATM   19  N   UNL     1     -11.879  14.426  69.849  1.00  0.00    -0.304 NA 
BRANCH  19  20
HETATM   20  C   UNL     1     -11.772  13.382  68.880  1.00  0.00    -0.328 A  
HETATM   21  C   UNL     1     -11.614  12.054  69.317  1.00  0.00    -0.380 A  
HETATM   22  C   UNL     1     -11.459  11.013  68.398  1.00  0.00    -0.378 A  
HETATM   23  C   UNL     1     -11.446  11.281  67.033  1.00  0.00    -0.177 A  
HETATM   24  C   UNL     1     -11.617  12.587  66.588  1.00  0.00    -0.442 A  
HETATM   25  C   UNL     1     -11.801  13.627  67.505  1.00  0.00    -0.416 A  
ENDBRANCH  19  20
ENDBRANCH  13  15
ENDBRANCH  10  13
ENDBRANCH   7  10
TORSDOF 4
ENDMDL
MODEL       92
REMARK 921   NORMALIZED FREE ENERGY PREDICTED BY IDOCK:   -5.61 KCAL/MOL
REMARK 922        TOTAL FREE ENERGY PREDICTED BY IDOCK:   -7.66 KCAL/MOL
REMARK 923 INTER-LIGAND FREE ENERGY PREDICTED BY IDOCK:   -6.29 KCAL/MOL
REMARK 924 INTRA-LIGAND FREE ENERGY PREDICTED BY IDOCK:   -1.37 KCAL/MOL
REMARK 927      BINDING AFFINITY PREDICTED BY RF-SCORE:    0.00 PKD
ROOT
HETATM    1  N   UNL     1      -9.755   4.380  69.480  1.00  0.00    -0.205 NA 
HETATM    2  H2  UNL     1     -10.297   3.730  68.911  1.00  0.00     0.000 HD 
HETATM    3  C   UNL     1      -9.789   5.635  68.867  1.00  0.00    -0.147 A  
HETATM    4  H1  UNL     1      -8.862   3.942  69.706  1.00  0.00     0.000 HD 
HETATM    5  C   UNL     1     -11.013   6.235  68.558  1.00  0.00    -0.421 A  
HETATM    6  C   UNL     1     -11.068   7.528  68.030  1.00  0.00     0.142 A  
HETATM    7  C   UNL     1      -9.884   8.247  67.860  1.00  0.00    -0.169 A  
HETATM    8  C   UNL     1      -8.657   7.691  68.231  1.00  0.00    -0.124 A  
HETATM    9  C   UNL     1      -8.619   6.393  68.755  1.00  0.00    -0.123 A  
ENDROOT
BRANCH   7  10
HETATM   10  S   UNL     1      -9.926   9.850  67.069  1.00  0.00    -0.212 S  
HETATM   11  O   UNL     1      -8.910  10.638  67.733  1.00  0.00    -0.131 OA 
HETATM   12  O   UNL     1      -9.846   9.609  65.643  1.00  0.00    -0.290 OA 
BRANCH  10  13
HETATM   13  N   UNL     1     -11.405  10.399  67.495  1.00  0.00    -0.327 N  
HETATM   14  H   UNL     1     -12.227   9.953  67.090  1.00  0.00     0.000 HD 
BRANCH  13  15
HETATM   15  C   UNL     1     -11.588  11.449  68.384  1.00  0.00    -0.315 A  
HETATM   16  C   UNL     1     -11.700  12.756  67.965  1.00  0.00    -0.405 A  
HETATM   17  C   UNL     1     -11.973  13.486  69.128  1.00  0.00    -0.333 A  
HETATM   18  N   UNL     1     -12.051  12.714  70.207  1.00  0.00    -0.341 NA 
HETATM   19  N   UNL     1     -11.781  11.447  69.772  1.00  0.00    -0.315 NA 
BRANCH  19  20
HETATM   20  C   UNL     1     -11.779  10.375  70.715  1.00  0.00    -0.368 A  
HETATM   21  C   UNL     1     -10.594   9.645  70.922  1.00  0.00    -0.386 A  
HETATM   22  C   UNL     1     -10.566   8.560  71.803  1.00  0.00    -0.371 A  
HETATM   23  C   UNL     1     -11.721   8.180  72.479  1.00  0.00    -0.457 A  
HETATM   24  C   UNL     1     -12.894   8.903  72.296  1.00  0.00    -0.475 A  
HETATM   25  C   UNL     1     -12.917  10.007  71.437  1.00  0.00    -0.517 A  
ENDBRANCH  19  20
ENDBRANCH  13  15
ENDBRANCH  10  13
ENDBRANCH   7  10
TORSDOF 4
ENDMDL
MODEL       93
REMARK 921   NORMALIZED FREE ENERGY PREDICTED BY IDOCK:   -5.60 KCAL/MOL
REMARK 922        TOTAL FREE ENERGY PREDICTED BY IDOCK:   -7.64 KCAL/MOL
REMARK 923 INTER-LIGAND FREE ENERGY PREDICTED BY IDOCK:   -6.93 KCAL/MOL
REMARK 924 INTRA-LIGAND FREE ENERGY PREDICTED BY IDOCK:   -0.71 KCAL/MOL
REMARK 927      BINDING AFFINITY PREDICTED BY RF-SCORE:    0.00 PKD
ROOT
HETATM    1  N   UNL     1     -10.109  10.171  62.332  1.00  0.00    -0.617 NA 
HETATM    2  H2  UNL     1     -10.416   9.223  62.553  1.00  0.00     0.000 HD 
HETATM    3  C   UNL     1      -9.991  10.884  63.527  1.00  0.00    -0.363 A  
HETATM    4  H1  UNL     1     -10.690  10.528  61.575  1.00  0.00     0.000 HD 
HETATM    5  C   UNL     1      -9.193  10.394  64.565  1.00  0.00    -0.287 A  
HETATM    6  C   UNL     1      -8.990  11.139  65.730  1.00  0.00    -0.207 A  
HETATM    7  C   UNL     1      -9.549  12.413  65.833  1.00  0.00    -0.187 A  
HETATM    8  C   UNL     1     -10.289  12.949  64.775  1.00  0.00    -0.345 A  
HETATM    9  C   UNL     1     -10.487  12.189  63.617  1.00  0.00    -0.495 A  
ENDROOT
BRANCH   7  10
HETATM   10  S   UNL     1      -9.405  13.324  67.364  1.00  0.00    -0.227 S  
HETATM   11  O   UNL     1      -9.389  12.324  68.410  1.00  0.00    -0.203 OA 
HETATM   12  O   UNL     1      -8.286  14.229  67.204  1.00  0.00    -0.199 OA 
BRANCH  10  13
HETATM   13  N   UNL     1     -10.822  14.135  67.410  1.00  0.00    -0.284 N  
HETATM   14  H   UNL     1     -11.385  14.183  66.562  1.00  0.00     0.000 HD 
BRANCH  13  15
HETATM   15  C   UNL     1     -11.292  14.763  68.556  1.00  0.00    -0.290 A  
HETATM   16  C   UNL     1     -12.130  14.131  69.449  1.00  0.00    -0.372 A  
HETATM   17  C   UNL     1     -12.290  15.041  70.500  1.00  0.00    -0.356 A  
HETATM   18  N   UNL     1     -11.598  16.161  70.313  1.00  0.00    -0.314 NA 
HETATM   19  N   UNL     1     -10.997  16.022  69.094  1.00  0.00    -0.274 NA 
BRANCH  19  20
HETATM   20  C   UNL     1     -10.179  17.083  68.598  1.00  0.00    -0.321 A  
HETATM   21  C   UNL     1     -10.757  18.069  67.778  1.00  0.00    -0.350 A  
HETATM   22  C   UNL     1      -9.977  19.096  67.238  1.00  0.00    -0.436 A  
HETATM   23  C   UNL     1      -8.611  19.146  67.496  1.00  0.00    -0.317 A  
HETATM   24  C   UNL     1      -8.032  18.187  68.318  1.00  0.00    -0.304 A  
HETATM   25  C   UNL     1      -8.814  17.175  68.883  1.00  0.00    -0.186 A  
ENDBRANCH  19  20
ENDBRANCH  13  15
ENDBRANCH  10  13
ENDBRANCH   7  10
TORSDOF 4
ENDMDL
MODEL       94
REMARK 921   NORMALIZED FREE ENERGY PREDICTED BY IDOCK:   -5.59 KCAL/MOL
REMARK 922        TOTAL FREE ENERGY PREDICTED BY IDOCK:   -7.63 KCAL/MOL
REMARK 923 INTER-LIGAND FREE ENERGY PREDICTED BY IDOCK:   -6.91 KCAL/MOL
REMARK 924 INTRA-LIGAND FREE ENERGY PREDICTED BY IDOCK:   -0.73 KCAL/MOL
REMARK 927      BINDING AFFINITY PREDICTED BY RF-SCORE:    0.00 PKD
ROOT
HETATM    1  N   UNL     1     -10.597   8.583  69.187  1.00  0.00    -0.323 NA 
HETATM    2  H2  UNL     1     -11.440   8.099  68.880  1.00  0.00     0.000 HD 
HETATM    3  C   UNL     1     -10.838   9.958  69.141  1.00  0.00    -0.221 A  
HETATM    4  H1  UNL     1      -9.799   8.185  68.692  1.00  0.00     0.000 HD 
HETATM    5  C   UNL     1     -11.931  10.505  69.820  1.00  0.00    -0.309 A  
HETATM    6  C   UNL     1     -12.134  11.887  69.862  1.00  0.00    -0.344 A  
HETATM    7  C   UNL     1     -11.202  12.733  69.262  1.00  0.00    -0.190 A  
HETATM    8  C   UNL     1     -10.065  12.209  68.641  1.00  0.00    -0.161 A  
HETATM    9  C   UNL     1      -9.878  10.822  68.604  1.00  0.00    -0.187 A  
ENDROOT
BRANCH   7  10
HETATM   10  S   UNL     1     -11.514  14.492  69.196  1.00  0.00    -0.312 S  
HETATM   11  O   UNL     1     -12.427  14.766  70.286  1.00  0.00    -0.333 OA 
HETATM   12  O   UNL     1     -10.220  15.141  69.149  1.00  0.00    -0.230 OA 
BRANCH  10  13
HETATM   13  N   UNL     1     -12.305  14.643  67.775  1.00  0.00    -0.566 N  
HETATM   14  H   UNL     1     -13.247  15.035  67.779  1.00  0.00     0.000 HD 
BRANCH  13  15
HETATM   15  C   UNL     1     -11.751  14.260  66.561  1.00  0.00    -0.394 A  
HETATM   16  C   UNL     1     -12.233  13.192  65.838  1.00  0.00    -0.497 A  
HETATM   17  C   UNL     1     -11.489  13.193  64.652  1.00  0.00    -0.333 A  
HETATM   18  N   UNL     1     -10.612  14.191  64.603  1.00  0.00    -0.414 NA 
HETATM   19  N   UNL     1     -10.734  14.846  65.796  1.00  0.00    -0.314 NA 
BRANCH  19  20
HETATM   20  C   UNL     1      -9.903  15.978  66.055  1.00  0.00    -0.337 A  
HETATM   21  C   UNL     1     -10.498  17.240  66.234  1.00  0.00    -0.268 A  
HETATM   22  C   UNL     1      -9.713  18.378  66.443  1.00  0.00    -0.343 A  
HETATM   23  C   UNL     1      -8.326  18.275  66.463  1.00  0.00    -0.287 A  
HETATM   24  C   UNL     1      -7.726  17.031  66.303  1.00  0.00    -0.346 A  
HETATM   25  C   UNL     1      -8.510  15.888  66.123  1.00  0.00    -0.196 A  
ENDBRANCH  19  20
ENDBRANCH  13  15
ENDBRANCH  10  13
ENDBRANCH   7  10
TORSDOF 4
ENDMDL
MODEL       95
REMARK 921   NORMALIZED FREE ENERGY PREDICTED BY IDOCK:   -5.58 KCAL/MOL
REMARK 922        TOTAL FREE ENERGY PREDICTED BY IDOCK:   -7.62 KCAL/MOL
REMARK 923 INTER-LIGAND FREE ENERGY PREDICTED BY IDOCK:   -6.78 KCAL/MOL
REMARK 924 INTRA-LIGAND FREE ENERGY PREDICTED BY IDOCK:   -0.83 KCAL/MOL
REMARK 927      BINDING AFFINITY PREDICTED BY RF-SCORE:    0.00 PKD
ROOT
HETATM    1  N   UNL     1      -9.635  20.964  67.278  1.00  0.00    -0.642 NA 
HETATM    2  H2  UNL     1      -8.807  21.148  67.845  1.00  0.00     0.000 HD 
HETATM    3  C   UNL     1      -9.860  19.586  67.262  1.00  0.00    -0.357 A  
HETATM    4  H1  UNL     1      -9.546  21.481  66.403  1.00  0.00     0.000 HD 
HETATM    5  C   UNL     1      -9.982  18.878  68.461  1.00  0.00    -0.463 A  
HETATM    6  C   UNL     1     -10.299  17.517  68.464  1.00  0.00    -0.380 A  
HETATM    7  C   UNL     1     -10.549  16.870  67.252  1.00  0.00    -0.270 A  
HETATM    8  C   UNL     1     -10.502  17.579  66.049  1.00  0.00    -0.274 A  
HETATM    9  C   UNL     1     -10.180  18.941  66.062  1.00  0.00    -0.437 A  
ENDROOT
BRANCH   7  10
HETATM   10  S   UNL     1     -10.829  15.105  67.231  1.00  0.00    -0.321 S  
HETATM   11  O   UNL     1      -9.849  14.545  68.136  1.00  0.00    -0.213 OA 
HETATM   12  O   UNL     1     -12.243  14.907  67.475  1.00  0.00    -0.150 OA 
BRANCH  10  13
HETATM   13  N   UNL     1     -10.433  14.718  65.694  1.00  0.00    -0.325 N  
HETATM   14  H   UNL     1      -9.745  15.293  65.207  1.00  0.00     0.000 HD 
BRANCH  13  15
HETATM   15  C   UNL     1     -10.993  13.640  65.022  1.00  0.00    -0.346 A  
HETATM   16  C   UNL     1     -11.726  13.795  63.866  1.00  0.00    -0.304 A  
HETATM   17  C   UNL     1     -12.023  12.492  63.449  1.00  0.00    -0.514 A  
HETATM   18  N   UNL     1     -11.508  11.570  64.257  1.00  0.00    -0.252 NA 
HETATM   19  N   UNL     1     -10.892  12.263  65.261  1.00  0.00    -0.284 NA 
BRANCH  19  20
HETATM   20  C   UNL     1     -10.244  11.540  66.308  1.00  0.00    -0.230 A  
HETATM   21  C   UNL     1     -11.026  10.913  67.295  1.00  0.00    -0.355 A  
HETATM   22  C   UNL     1     -10.425  10.236  68.360  1.00  0.00    -0.228 A  
HETATM   23  C   UNL     1      -9.039  10.186  68.463  1.00  0.00    -0.134 A  
HETATM   24  C   UNL     1      -8.255  10.787  67.485  1.00  0.00    -0.112 A  
HETATM   25  C   UNL     1      -8.854  11.440  66.403  1.00  0.00    -0.193 A  
ENDBRANCH  19  20
ENDBRANCH  13  15
ENDBRANCH  10  13
ENDBRANCH   7  10
TORSDOF 4
ENDMDL
MODEL       96
REMARK 921   NORMALIZED FREE ENERGY PREDICTED BY IDOCK:   -5.57 KCAL/MOL
REMARK 922        TOTAL FREE ENERGY PREDICTED BY IDOCK:   -7.61 KCAL/MOL
REMARK 923 INTER-LIGAND FREE ENERGY PREDICTED BY IDOCK:   -6.82 KCAL/MOL
REMARK 924 INTRA-LIGAND FREE ENERGY PREDICTED BY IDOCK:   -0.79 KCAL/MOL
REMARK 927      BINDING AFFINITY PREDICTED BY RF-SCORE:    0.00 PKD
ROOT
HETATM    1  N   UNL     1      -9.507   9.615  63.555  1.00  0.00    -0.483 NA 
HETATM    2  H2  UNL     1      -9.178  10.455  63.080  1.00  0.00     0.000 HD 
HETATM    3  C   UNL     1      -9.856   9.957  64.863  1.00  0.00    -0.212 A  
HETATM    4  H1  UNL     1      -8.838   8.865  63.381  1.00  0.00     0.000 HD 
HETATM    5  C   UNL     1     -10.774  10.984  65.101  1.00  0.00    -0.253 A  
HETATM    6  C   UNL     1     -11.205  11.277  66.398  1.00  0.00    -0.190 A  
HETATM    7  C   UNL     1     -10.751  10.497  67.462  1.00  0.00    -0.276 A  
HETATM    8  C   UNL     1      -9.890   9.420  67.234  1.00  0.00    -0.232 A  
HETATM    9  C   UNL     1      -9.464   9.142  65.930  1.00  0.00    -0.326 A  
ENDROOT
BRANCH   7  10
HETATM   10  S   UNL     1     -11.192  10.939  69.137  1.00  0.00    -0.281 S  
HETATM   11  O   UNL     1     -12.639  10.923  69.175  1.00  0.00    -0.361 OA 
HETATM   12  O   UNL     1     -10.431  10.069  70.009  1.00  0.00    -0.256 OA 
BRANCH  10  13
HETATM   13  N   UNL     1     -10.663  12.482  69.230  1.00  0.00    -0.442 N  
HETATM   14  H   UNL     1      -9.675  12.671  69.062  1.00  0.00     0.000 HD 
BRANCH  13  15
HETATM   15  C   UNL     1     -11.502  13.547  69.529  1.00  0.00    -0.255 A  
HETATM   16  C   UNL     1     -12.047  13.724  70.782  1.00  0.00    -0.395 A  
HETATM   17  C   UNL     1     -12.736  14.940  70.708  1.00  0.00    -0.363 A  
HETATM   18  N   UNL     1     -12.629  15.513  69.513  1.00  0.00    -0.059 NA 
HETATM   19  N   UNL     1     -11.894  14.646  68.754  1.00  0.00    -0.321 NA 
BRANCH  19  20
HETATM   20  C   UNL     1     -11.612  14.980  67.395  1.00  0.00    -0.291 A  
HETATM   21  C   UNL     1     -12.314  14.324  66.368  1.00  0.00    -0.378 A  
HETATM   22  C   UNL     1     -12.033  14.592  65.025  1.00  0.00    -0.364 A  
HETATM   23  C   UNL     1     -11.040  15.506  64.688  1.00  0.00    -0.373 A  
HETATM   24  C   UNL     1     -10.350  16.173  65.694  1.00  0.00    -0.405 A  
HETATM   25  C   UNL     1     -10.650  15.928  67.038  1.00  0.00    -0.306 A  
ENDBRANCH  19  20
ENDBRANCH  13  15
ENDBRANCH  10  13
ENDBRANCH   7  10
TORSDOF 4
ENDMDL
MODEL       97
REMARK 921   NORMALIZED FREE ENERGY PREDICTED BY IDOCK:   -5.57 KCAL/MOL
REMARK 922        TOTAL FREE ENERGY PREDICTED BY IDOCK:   -7.61 KCAL/MOL
REMARK 923 INTER-LIGAND FREE ENERGY PREDICTED BY IDOCK:   -6.33 KCAL/MOL
REMARK 924 INTRA-LIGAND FREE ENERGY PREDICTED BY IDOCK:   -1.28 KCAL/MOL
REMARK 927      BINDING AFFINITY PREDICTED BY RF-SCORE:    0.00 PKD
ROOT
HETATM    1  N   UNL     1     -12.013  14.315  67.911  1.00  0.00    -0.501 NA 
HETATM    2  H2  UNL     1     -12.486  14.104  67.032  1.00  0.00     0.000 HD 
HETATM    3  C   UNL     1     -12.021  13.163  68.700  1.00  0.00    -0.284 A  
HETATM    4  H1  UNL     1     -12.388  15.190  68.275  1.00  0.00     0.000 HD 
HETATM    5  C   UNL     1     -11.508  11.963  68.201  1.00  0.00    -0.384 A  
HETATM    6  C   UNL     1     -11.422  10.825  69.009  1.00  0.00    -0.368 A  
HETATM    7  C   UNL     1     -11.807  10.907  70.348  1.00  0.00    -0.357 A  
HETATM    8  C   UNL     1     -12.255  12.117  70.883  1.00  0.00    -0.310 A  
HETATM    9  C   UNL     1     -12.338  13.247  70.060  1.00  0.00    -0.269 A  
ENDROOT
BRANCH   7  10
HETATM   10  S   UNL     1     -11.825   9.431  71.357  1.00  0.00    -0.400 S  
HETATM   11  O   UNL     1     -10.496   9.331  71.922  1.00  0.00    -0.305 OA 
HETATM   12  O   UNL     1     -12.979   9.537  72.224  1.00  0.00    -0.401 OA 
BRANCH  10  13
HETATM   13  N   UNL     1     -12.029   8.258  70.238  1.00  0.00    -0.405 N  
HETATM   14  H   UNL     1     -12.857   8.289  69.644  1.00  0.00     0.000 HD 
BRANCH  13  15
HETATM   15  C   UNL     1     -11.122   7.221  70.063  1.00  0.00    -0.240 A  
HETATM   16  C   UNL     1     -11.220   6.035  70.757  1.00  0.00    -0.340 A  
HETATM   17  C   UNL     1     -10.204   5.227  70.234  1.00  0.00    -0.275 A  
HETATM   18  N   UNL     1      -9.518   5.832  69.270  1.00  0.00    -0.126 NA 
HETATM   19  N   UNL     1     -10.051   7.086  69.171  1.00  0.00    -0.175 NA 
BRANCH  19  20
HETATM   20  C   UNL     1      -9.510   7.996  68.213  1.00  0.00    -0.141 A  
HETATM   21  C   UNL     1     -10.135   8.125  66.959  1.00  0.00    -0.350 A  
HETATM   22  C   UNL     1      -9.608   8.972  65.980  1.00  0.00    -0.342 A  
HETATM   23  C   UNL     1      -8.444   9.690  66.232  1.00  0.00    -0.125 A  
HETATM   24  C   UNL     1      -7.826   9.585  67.473  1.00  0.00    -0.102 A  
HETATM   25  C   UNL     1      -8.368   8.761  68.464  1.00  0.00    -0.129 A  
ENDBRANCH  19  20
ENDBRANCH  13  15
ENDBRANCH  10  13
ENDBRANCH   7  10
TORSDOF 4
ENDMDL
MODEL       98
REMARK 921   NORMALIZED FREE ENERGY PREDICTED BY IDOCK:   -5.56 KCAL/MOL
REMARK 922        TOTAL FREE ENERGY PREDICTED BY IDOCK:   -7.59 KCAL/MOL
REMARK 923 INTER-LIGAND FREE ENERGY PREDICTED BY IDOCK:   -7.09 KCAL/MOL
REMARK 924 INTRA-LIGAND FREE ENERGY PREDICTED BY IDOCK:   -0.50 KCAL/MOL
REMARK 927      BINDING AFFINITY PREDICTED BY RF-SCORE:    0.00 PKD
ROOT
HETATM    1  N   UNL     1      -8.845   8.785  64.299  1.00  0.00    -0.417 NA 
HETATM    2  H2  UNL     1      -8.794   9.026  63.309  1.00  0.00     0.000 HD 
HETATM    3  C   UNL     1      -9.108   9.951  65.022  1.00  0.00    -0.218 A  
HETATM    4  H1  UNL     1      -8.037   8.208  64.531  1.00  0.00     0.000 HD 
HETATM    5  C   UNL     1     -10.216  10.742  64.704  1.00  0.00    -0.419 A  
HETATM    6  C   UNL     1     -10.547  11.860  65.475  1.00  0.00    -0.313 A  
HETATM    7  C   UNL     1      -9.789  12.157  66.608  1.00  0.00    -0.211 A  
HETATM    8  C   UNL     1      -8.722  11.336  66.982  1.00  0.00    -0.152 A  
HETATM    9  C   UNL     1      -8.401  10.222  66.198  1.00  0.00    -0.140 A  
ENDROOT
BRANCH   7  10
HETATM   10  S   UNL     1     -10.121  13.653  67.529  1.00  0.00    -0.240 S  
HETATM   11  O   UNL     1      -9.191  13.641  68.638  1.00  0.00    -0.154 OA 
HETATM   12  O   UNL     1     -10.101  14.741  66.573  1.00  0.00    -0.258 OA 
BRANCH  10  13
HETATM   13  N   UNL     1     -11.633  13.380  68.085  1.00  0.00    -0.319 N  
HETATM   14  H   UNL     1     -12.399  13.941  67.713  1.00  0.00     0.000 HD 
BRANCH  13  15
HETATM   15  C   UNL     1     -11.919  12.418  69.044  1.00  0.00    -0.241 A  
HETATM   16  C   UNL     1     -11.795  11.069  68.791  1.00  0.00    -0.352 A  
HETATM   17  C   UNL     1     -12.069  10.446  70.015  1.00  0.00    -0.222 A  
HETATM   18  N   UNL     1     -12.329  11.319  70.983  1.00  0.00    -0.380 NA 
HETATM   19  N   UNL     1     -12.274  12.550  70.393  1.00  0.00    -0.333 NA 
BRANCH  19  20
HETATM   20  C   UNL     1     -12.524  13.711  71.185  1.00  0.00    -0.359 A  
HETATM   21  C   UNL     1     -13.725  13.802  71.910  1.00  0.00    -0.512 A  
HETATM   22  C   UNL     1     -14.024  14.943  72.660  1.00  0.00    -0.457 A  
HETATM   23  C   UNL     1     -13.137  16.014  72.685  1.00  0.00    -0.479 A  
HETATM   24  C   UNL     1     -11.938  15.930  71.987  1.00  0.00    -0.602 A  
HETATM   25  C   UNL     1     -11.624  14.778  71.260  1.00  0.00    -0.314 A  
ENDBRANCH  19  20
ENDBRANCH  13  15
ENDBRANCH  10  13
ENDBRANCH   7  10
TORSDOF 4
ENDMDL
MODEL       99
REMARK 921   NORMALIZED FREE ENERGY PREDICTED BY IDOCK:   -5.55 KCAL/MOL
REMARK 922        TOTAL FREE ENERGY PREDICTED BY IDOCK:   -7.58 KCAL/MOL
REMARK 923 INTER-LIGAND FREE ENERGY PREDICTED BY IDOCK:   -5.67 KCAL/MOL
REMARK 924 INTRA-LIGAND FREE ENERGY PREDICTED BY IDOCK:   -1.91 KCAL/MOL
REMARK 927      BINDING AFFINITY PREDICTED BY RF-SCORE:    0.00 PKD
ROOT
HETATM    1  N   UNL     1      -8.208   5.576  67.787  1.00  0.00    -0.101 NA 
HETATM    2  H2  UNL     1      -7.970   5.262  68.728  1.00  0.00     0.000 HD 
HETATM    3  C   UNL     1      -8.785   6.844  67.880  1.00  0.00    -0.121 A  
HETATM    4  H1  UNL     1      -8.701   4.820  67.312  1.00  0.00     0.000 HD 
HETATM    5  C   UNL     1      -8.109   7.880  68.531  1.00  0.00    -0.123 A  
HETATM    6  C   UNL     1      -8.630   9.177  68.552  1.00  0.00    -0.129 A  
HETATM    7  C   UNL     1      -9.815   9.450  67.867  1.00  0.00    -0.165 A  
HETATM    8  C   UNL     1     -10.466   8.443  67.151  1.00  0.00    -0.380 A  
HETATM    9  C   UNL     1      -9.934   7.148  67.142  1.00  0.00    -0.270 A  
ENDROOT
BRANCH   7  10
HETATM   10  S   UNL     1     -10.558  11.071  67.992  1.00  0.00    -0.221 S  
HETATM   11  O   UNL     1      -9.694  11.953  67.237  1.00  0.00    -0.182 OA 
HETATM   12  O   UNL     1     -11.949  10.918  67.619  1.00  0.00    -0.512 OA 
BRANCH  10  13
HETATM   13  N   UNL     1     -10.403  11.393  69.586  1.00  0.00    -0.400 N  
HETATM   14  H   UNL     1      -9.520  11.776  69.923  1.00  0.00     0.000 HD 
BRANCH  13  15
HETATM   15  C   UNL     1     -11.422  11.166  70.501  1.00  0.00    -0.065 A  
HETATM   16  C   UNL     1     -12.344  12.136  70.829  1.00  0.00    -0.391 A  
HETATM   17  C   UNL     1     -13.248  11.499  71.687  1.00  0.00    -0.286 A  
HETATM   18  N   UNL     1     -12.948  10.219  71.883  1.00  0.00    -0.448 NA 
HETATM   19  N   UNL     1     -11.796  10.000  71.181  1.00  0.00    -0.369 NA 
BRANCH  19  20
HETATM   20  C   UNL     1     -11.206   8.700  71.204  1.00  0.00    -0.272 A  
HETATM   21  C   UNL     1     -11.912   7.617  70.649  1.00  0.00    -0.122 A  
HETATM   22  C   UNL     1     -11.386   6.323  70.694  1.00  0.00    -0.409 A  
HETATM   23  C   UNL     1     -10.158   6.089  71.304  1.00  0.00    -0.237 A  
HETATM   24  C   UNL     1      -9.443   7.153  71.841  1.00  0.00    -0.157 A  
HETATM   25  C   UNL     1      -9.954   8.453  71.771  1.00  0.00    -0.312 A  
ENDBRANCH  19  20
ENDBRANCH  13  15
ENDBRANCH  10  13
ENDBRANCH   7  10
TORSDOF 4
ENDMDL
MODEL      100
REMARK 921   NORMALIZED FREE ENERGY PREDICTED BY IDOCK:   -5.55 KCAL/MOL
REMARK 922        TOTAL FREE ENERGY PREDICTED BY IDOCK:   -7.58 KCAL/MOL
REMARK 923 INTER-LIGAND FREE ENERGY PREDICTED BY IDOCK:   -6.94 KCAL/MOL
REMARK 924 INTRA-LIGAND FREE ENERGY PREDICTED BY IDOCK:   -0.63 KCAL/MOL
REMARK 927      BINDING AFFINITY PREDICTED BY RF-SCORE:    0.00 PKD
ROOT
HETATM    1  N   UNL     1     -10.342   7.190  68.625  1.00  0.00    -0.183 NA 
HETATM    2  H2  UNL     1     -11.108   6.872  69.218  1.00  0.00     0.000 HD 
HETATM    3  C   UNL     1     -10.522   8.550  68.366  1.00  0.00    -0.171 A  
HETATM    4  H1  UNL     1     -10.238   6.530  67.855  1.00  0.00     0.000 HD 
HETATM    5  C   UNL     1     -10.664   9.455  69.422  1.00  0.00    -0.234 A  
HETATM    6  C   UNL     1     -10.751  10.830  69.185  1.00  0.00    -0.265 A  
HETATM    7  C   UNL     1     -10.640  11.307  67.879  1.00  0.00    -0.194 A  
HETATM    8  C   UNL     1     -10.425  10.423  66.818  1.00  0.00    -0.287 A  
HETATM    9  C   UNL     1     -10.344   9.049  67.071  1.00  0.00    -0.339 A  
ENDROOT
BRANCH   7  10
HETATM   10  S   UNL     1     -10.878  13.047  67.547  1.00  0.00    -0.252 S  
HETATM   11  O   UNL     1     -10.083  13.330  66.371  1.00  0.00    -0.276 OA 
HETATM   12  O   UNL     1     -12.308  13.275  67.532  1.00  0.00    -0.225 OA 
BRANCH  10  13
HETATM   13  N   UNL     1     -10.181  13.739  68.852  1.00  0.00    -0.399 N  
HETATM   14  H   UNL     1      -9.795  13.135  69.578  1.00  0.00     0.000 HD 
BRANCH  13  15
HETATM   15  C   UNL     1     -10.092  15.115  69.016  1.00  0.00    -0.244 A  
HETATM   16  C   UNL     1      -9.241  15.891  68.261  1.00  0.00    -0.189 A  
HETATM   17  C   UNL     1      -9.515  17.208  68.648  1.00  0.00    -0.275 A  
HETATM   18  N   UNL     1     -10.478  17.280  69.562  1.00  0.00    -0.192 NA 
HETATM   19  N   UNL     1     -10.827  15.987  69.830  1.00  0.00    -0.325 NA 
BRANCH  19  20
HETATM   20  C   UNL     1     -11.846  15.729  70.797  1.00  0.00    -0.404 A  
HETATM   21  C   UNL     1     -11.614  16.061  72.144  1.00  0.00    -0.499 A  
HETATM   22  C   UNL     1     -12.570  15.781  73.124  1.00  0.00    -0.607 A  
HETATM   23  C   UNL     1     -13.762  15.155  72.778  1.00  0.00    -0.556 A  
HETATM   24  C   UNL     1     -14.011  14.836  71.448  1.00  0.00    -0.512 A  
HETATM   25  C   UNL     1     -13.068  15.141  70.461  1.00  0.00    -0.320 A  
ENDBRANCH  19  20
ENDBRANCH  13  15
ENDBRANCH  10  13
ENDBRANCH   7  10
TORSDOF 4
ENDMDL
MODEL      101
REMARK 921   NORMALIZED FREE ENERGY PREDICTED BY IDOCK:   -5.52 KCAL/MOL
REMARK 922        TOTAL FREE ENERGY PREDICTED BY IDOCK:   -7.55 KCAL/MOL
REMARK 923 INTER-LIGAND FREE ENERGY PREDICTED BY IDOCK:   -7.04 KCAL/MOL
REMARK 924 INTRA-LIGAND FREE ENERGY PREDICTED BY IDOCK:   -0.50 KCAL/MOL
REMARK 927      BINDING AFFINITY PREDICTED BY RF-SCORE:    0.00 PKD
ROOT
HETATM    1  N   UNL     1     -10.309  20.390  68.238  1.00  0.00    -0.209 NA 
HETATM    2  H2  UNL     1      -9.549  20.479  68.912  1.00  0.00     0.000 HD 
HETATM    3  C   UNL     1     -10.263  19.106  67.690  1.00  0.00    -0.403 A  
HETATM    4  H1  UNL     1     -10.297  21.209  67.630  1.00  0.00     0.000 HD 
HETATM    5  C   UNL     1     -10.280  17.984  68.523  1.00  0.00    -0.392 A  
HETATM    6  C   UNL     1     -10.328  16.693  67.990  1.00  0.00    -0.303 A  
HETATM    7  C   UNL     1     -10.414  16.527  66.607  1.00  0.00    -0.266 A  
HETATM    8  C   UNL     1     -10.471  17.639  65.763  1.00  0.00    -0.208 A  
HETATM    9  C   UNL     1     -10.418  18.925  66.312  1.00  0.00    -0.510 A  
ENDROOT
BRANCH   7  10
HETATM   10  S   UNL     1     -10.347  14.884  65.906  1.00  0.00    -0.338 S  
HETATM   11  O   UNL     1     -10.566  15.059  64.485  1.00  0.00    -0.255 OA 
HETATM   12  O   UNL     1      -9.122  14.278  66.385  1.00  0.00    -0.235 OA 
BRANCH  10  13
HETATM   13  N   UNL     1     -11.659  14.176  66.574  1.00  0.00    -0.359 N  
HETATM   14  H   UNL     1     -12.559  14.652  66.504  1.00  0.00     0.000 HD 
BRANCH  13  15
HETATM   15  C   UNL     1     -11.601  12.956  67.232  1.00  0.00    -0.360 A  
HETATM   16  C   UNL     1     -12.021  12.804  68.536  1.00  0.00    -0.265 A  
HETATM   17  C   UNL     1     -11.900  11.434  68.797  1.00  0.00    -0.323 A  
HETATM   18  N   UNL     1     -11.457  10.753  67.744  1.00  0.00    -0.513 NA 
HETATM   19  N   UNL     1     -11.233  11.686  66.771  1.00  0.00    -0.310 NA 
BRANCH  19  20
HETATM   20  C   UNL     1     -10.735  11.259  65.503  1.00  0.00    -0.220 A  
HETATM   21  C   UNL     1      -9.743  10.263  65.455  1.00  0.00    -0.340 A  
HETATM   22  C   UNL     1      -9.199   9.854  64.234  1.00  0.00    -0.317 A  
HETATM   23  C   UNL     1      -9.625  10.441  63.047  1.00  0.00    -0.341 A  
HETATM   24  C   UNL     1     -10.617  11.414  63.080  1.00  0.00    -0.164 A  
HETATM   25  C   UNL     1     -11.183  11.805  64.297  1.00  0.00    -0.414 A  
ENDBRANCH  19  20
ENDBRANCH  13  15
ENDBRANCH  10  13
ENDBRANCH   7  10
TORSDOF 4
ENDMDL
MODEL      102
REMARK 921   NORMALIZED FREE ENERGY PREDICTED BY IDOCK:   -5.51 KCAL/MOL
REMARK 922        TOTAL FREE ENERGY PREDICTED BY IDOCK:   -7.53 KCAL/MOL
REMARK 923 INTER-LIGAND FREE ENERGY PREDICTED BY IDOCK:   -7.01 KCAL/MOL
REMARK 924 INTRA-LIGAND FREE ENERGY PREDICTED BY IDOCK:   -0.52 KCAL/MOL
REMARK 927      BINDING AFFINITY PREDICTED BY RF-SCORE:    0.00 PKD
ROOT
HETATM    1  N   UNL     1      -8.904  20.735  67.244  1.00  0.00    -0.514 NA 
HETATM    2  H2  UNL     1      -8.709  21.106  68.174  1.00  0.00     0.000 HD 
HETATM    3  C   UNL     1      -9.111  19.359  67.354  1.00  0.00    -0.299 A  
HETATM    4  H1  UNL     1      -8.202  21.100  66.601  1.00  0.00     0.000 HD 
HETATM    5  C   UNL     1     -10.073  18.859  68.236  1.00  0.00    -0.446 A  
HETATM    6  C   UNL     1     -10.358  17.492  68.291  1.00  0.00    -0.379 A  
HETATM    7  C   UNL     1      -9.709  16.622  67.413  1.00  0.00    -0.251 A  
HETATM    8  C   UNL     1      -8.797  17.113  66.475  1.00  0.00    -0.293 A  
HETATM    9  C   UNL     1      -8.519  18.484  66.435  1.00  0.00    -0.275 A  
ENDROOT
BRANCH   7  10
HETATM   10  S   UNL     1      -9.968  14.859  67.559  1.00  0.00    -0.218 S  
HETATM   11  O   UNL     1      -9.840  14.336  66.215  1.00  0.00    -0.284 OA 
HETATM   12  O   UNL     1      -9.085  14.396  68.608  1.00  0.00    -0.194 OA 
BRANCH  10  13
HETATM   13  N   UNL     1     -11.532  14.784  68.024  1.00  0.00    -0.318 N  
HETATM   14  H   UNL     1     -12.248  15.137  67.388  1.00  0.00     0.000 HD 
BRANCH  13  15
HETATM   15  C   UNL     1     -11.928  14.261  69.247  1.00  0.00    -0.335 A  
HETATM   16  C   UNL     1     -12.465  15.047  70.243  1.00  0.00    -0.385 A  
HETATM   17  C   UNL     1     -12.823  14.150  71.256  1.00  0.00    -0.359 A  
HETATM   18  N   UNL     1     -12.558  12.887  70.935  1.00  0.00    -0.320 NA 
HETATM   19  N   UNL     1     -11.970  12.937  69.703  1.00  0.00    -0.312 NA 
BRANCH  19  20
HETATM   20  C   UNL     1     -11.553  11.720  69.083  1.00  0.00    -0.310 A  
HETATM   21  C   UNL     1     -11.304  10.592  69.885  1.00  0.00    -0.380 A  
HETATM   22  C   UNL     1     -10.850   9.397  69.318  1.00  0.00    -0.190 A  
HETATM   23  C   UNL     1     -10.626   9.316  67.948  1.00  0.00    -0.288 A  
HETATM   24  C   UNL     1     -10.885  10.418  67.142  1.00  0.00    -0.301 A  
HETATM   25  C   UNL     1     -11.366  11.605  67.704  1.00  0.00    -0.362 A  
ENDBRANCH  19  20
ENDBRANCH  13  15
ENDBRANCH  10  13
ENDBRANCH   7  10
TORSDOF 4
ENDMDL
MODEL      103
REMARK 921   NORMALIZED FREE ENERGY PREDICTED BY IDOCK:   -5.50 KCAL/MOL
REMARK 922        TOTAL FREE ENERGY PREDICTED BY IDOCK:   -7.53 KCAL/MOL
REMARK 923 INTER-LIGAND FREE ENERGY PREDICTED BY IDOCK:   -6.62 KCAL/MOL
REMARK 924 INTRA-LIGAND FREE ENERGY PREDICTED BY IDOCK:   -0.91 KCAL/MOL
REMARK 927      BINDING AFFINITY PREDICTED BY RF-SCORE:    0.00 PKD
ROOT
HETATM    1  N   UNL     1     -11.821  15.785  72.042  1.00  0.00    -0.443 NA 
HETATM    2  H2  UNL     1     -12.399  16.625  72.063  1.00  0.00     0.000 HD 
HETATM    3  C   UNL     1     -11.870  15.250  70.753  1.00  0.00    -0.338 A  
HETATM    4  H1  UNL     1     -12.064  15.209  72.847  1.00  0.00     0.000 HD 
HETATM    5  C   UNL     1     -11.537  16.040  69.649  1.00  0.00    -0.299 A  
HETATM    6  C   UNL     1     -11.490  15.496  68.362  1.00  0.00    -0.370 A  
HETATM    7  C   UNL     1     -11.729  14.132  68.188  1.00  0.00    -0.355 A  
HETATM    8  C   UNL     1     -11.993  13.312  69.289  1.00  0.00    -0.354 A  
HETATM    9  C   UNL     1     -12.040  13.873  70.570  1.00  0.00    -0.426 A  
ENDROOT
BRANCH   7  10
HETATM   10  S   UNL     1     -11.799  13.448  66.538  1.00  0.00    -0.406 S  
HETATM   11  O   UNL     1     -12.160  12.057  66.709  1.00  0.00    -0.613 OA 
HETATM   12  O   UNL     1     -12.644  14.330  65.760  1.00  0.00    -0.454 OA 
BRANCH  10  13
HETATM   13  N   UNL     1     -10.239  13.550  66.062  1.00  0.00    -0.299 N  
HETATM   14  H   UNL     1     -10.040  13.726  65.078  1.00  0.00     0.000 HD 
BRANCH  13  15
HETATM   15  C   UNL     1      -9.175  13.406  66.941  1.00  0.00    -0.248 A  
HETATM   16  C   UNL     1      -8.352  14.458  67.278  1.00  0.00    -0.228 A  
HETATM   17  C   UNL     1      -7.484  13.942  68.247  1.00  0.00    -0.118 A  
HETATM   18  N   UNL     1      -7.736  12.667  68.528  1.00  0.00    -0.131 NA 
HETATM   19  N   UNL     1      -8.762  12.305  67.703  1.00  0.00    -0.166 NA 
BRANCH  19  20
HETATM   20  C   UNL     1      -9.260  10.967  67.761  1.00  0.00    -0.155 A  
HETATM   21  C   UNL     1      -9.188  10.158  66.613  1.00  0.00    -0.181 A  
HETATM   22  C   UNL     1      -9.707   8.860  66.619  1.00  0.00    -0.303 A  
HETATM   23  C   UNL     1     -10.317   8.358  67.764  1.00  0.00    -0.297 A  
HETATM   24  C   UNL     1     -10.380   9.142  68.910  1.00  0.00    -0.232 A  
HETATM   25  C   UNL     1      -9.836  10.430  68.915  1.00  0.00    -0.206 A  
ENDBRANCH  19  20
ENDBRANCH  13  15
ENDBRANCH  10  13
ENDBRANCH   7  10
TORSDOF 4
ENDMDL
MODEL      104
REMARK 921   NORMALIZED FREE ENERGY PREDICTED BY IDOCK:   -5.50 KCAL/MOL
REMARK 922        TOTAL FREE ENERGY PREDICTED BY IDOCK:   -7.53 KCAL/MOL
REMARK 923 INTER-LIGAND FREE ENERGY PREDICTED BY IDOCK:   -6.78 KCAL/MOL
REMARK 924 INTRA-LIGAND FREE ENERGY PREDICTED BY IDOCK:   -0.75 KCAL/MOL
REMARK 927      BINDING AFFINITY PREDICTED BY RF-SCORE:    0.00 PKD
ROOT
HETATM    1  N   UNL     1     -10.015   6.957  74.547  1.00  0.00    -0.483 NA 
HETATM    2  H2  UNL     1     -10.527   6.079  74.453  1.00  0.00     0.000 HD 
HETATM    3  C   UNL     1      -9.790   7.473  73.270  1.00  0.00    -0.288 A  
HETATM    4  H1  UNL     1      -9.235   6.805  75.186  1.00  0.00     0.000 HD 
HETATM    5  C   UNL     1     -10.860   7.681  72.395  1.00  0.00    -0.341 A  
HETATM    6  C   UNL     1     -10.665   8.283  71.149  1.00  0.00    -0.270 A  
HETATM    7  C   UNL     1      -9.390   8.731  70.798  1.00  0.00    -0.208 A  
HETATM    8  C   UNL     1      -8.323   8.597  71.690  1.00  0.00    -0.216 A  
HETATM    9  C   UNL     1      -8.534   7.988  72.932  1.00  0.00    -0.244 A  
ENDROOT
BRANCH   7  10
HETATM   10  S   UNL     1      -9.100   9.385  69.160  1.00  0.00    -0.154 S  
HETATM   11  O   UNL     1      -8.419  10.647  69.361  1.00  0.00    -0.136 OA 
HETATM   12  O   UNL     1      -8.467   8.329  68.398  1.00  0.00    -0.127 OA 
BRANCH  10  13
HETATM   13  N   UNL     1     -10.621   9.667  68.633  1.00  0.00    -0.216 N  
HETATM   14  H   UNL     1     -11.338   8.965  68.815  1.00  0.00     0.000 HD 
BRANCH  13  15
HETATM   15  C   UNL     1     -10.977  10.821  67.949  1.00  0.00    -0.289 A  
HETATM   16  C   UNL     1     -10.755  10.972  66.598  1.00  0.00    -0.305 A  
HETATM   17  C   UNL     1     -11.335  12.204  66.272  1.00  0.00    -0.357 A  
HETATM   18  N   UNL     1     -11.903  12.791  67.321  1.00  0.00    -0.373 NA 
HETATM   19  N   UNL     1     -11.662  11.964  68.381  1.00  0.00    -0.330 NA 
BRANCH  19  20
HETATM   20  C   UNL     1     -12.145  12.333  69.673  1.00  0.00    -0.212 A  
HETATM   21  C   UNL     1     -12.585  11.328  70.554  1.00  0.00    -0.331 A  
HETATM   22  C   UNL     1     -13.107  11.656  71.808  1.00  0.00    -0.487 A  
HETATM   23  C   UNL     1     -13.210  12.987  72.196  1.00  0.00    -0.558 A  
HETATM   24  C   UNL     1     -12.764  13.989  71.342  1.00  0.00    -0.442 A  
HETATM   25  C   UNL     1     -12.214  13.662  70.098  1.00  0.00    -0.413 A  
ENDBRANCH  19  20
ENDBRANCH  13  15
ENDBRANCH  10  13
ENDBRANCH   7  10
TORSDOF 4
ENDMDL
MODEL      105
REMARK 921   NORMALIZED FREE ENERGY PREDICTED BY IDOCK:   -5.50 KCAL/MOL
REMARK 922        TOTAL FREE ENERGY PREDICTED BY IDOCK:   -7.52 KCAL/MOL
REMARK 923 INTER-LIGAND FREE ENERGY PREDICTED BY IDOCK:   -6.91 KCAL/MOL
REMARK 924 INTRA-LIGAND FREE ENERGY PREDICTED BY IDOCK:   -0.62 KCAL/MOL
REMARK 927      BINDING AFFINITY PREDICTED BY RF-SCORE:    0.00 PKD
ROOT
HETATM    1  N   UNL     1     -12.189   7.384  72.556  1.00  0.00    -0.525 NA 
HETATM    2  H2  UNL     1     -13.100   7.785  72.780  1.00  0.00     0.000 HD 
HETATM    3  C   UNL     1     -11.706   8.007  71.404  1.00  0.00    -0.287 A  
HETATM    4  H1  UNL     1     -12.268   6.368  72.596  1.00  0.00     0.000 HD 
HETATM    5  C   UNL     1     -11.598   9.400  71.349  1.00  0.00    -0.451 A  
HETATM    6  C   UNL     1     -11.030  10.035  70.241  1.00  0.00    -0.377 A  
HETATM    7  C   UNL     1     -10.516   9.262  69.199  1.00  0.00    -0.217 A  
HETATM    8  C   UNL     1     -10.549   7.866  69.269  1.00  0.00    -0.195 A  
HETATM    9  C   UNL     1     -11.125   7.246  70.384  1.00  0.00    -0.291 A  
ENDROOT
BRANCH   7  10
HETATM   10  S   UNL     1      -9.904  10.060  67.721  1.00  0.00    -0.163 S  
HETATM   11  O   UNL     1      -8.862  10.959  68.169  1.00  0.00    -0.128 OA 
HETATM   12  O   UNL     1      -9.600   9.005  66.777  1.00  0.00    -0.169 OA 
BRANCH  10  13
HETATM   13  N   UNL     1     -11.203  10.928  67.243  1.00  0.00    -0.290 N  
HETATM   14  H   UNL     1     -12.128  10.636  67.557  1.00  0.00     0.000 HD 
BRANCH  13  15
HETATM   15  C   UNL     1     -11.100  12.045  66.425  1.00  0.00    -0.318 A  
HETATM   16  C   UNL     1     -10.915  11.944  65.063  1.00  0.00    -0.365 A  
HETATM   17  C   UNL     1     -10.964  13.262  64.594  1.00  0.00    -0.370 A  
HETATM   18  N   UNL     1     -11.182  14.141  65.568  1.00  0.00    -0.310 NA 
HETATM   19  N   UNL     1     -11.236  13.407  66.719  1.00  0.00    -0.302 NA 
BRANCH  19  20
HETATM   20  C   UNL     1     -11.451  14.080  67.961  1.00  0.00    -0.311 A  
HETATM   21  C   UNL     1     -11.973  13.359  69.050  1.00  0.00    -0.357 A  
HETATM   22  C   UNL     1     -12.240  13.994  70.266  1.00  0.00    -0.430 A  
HETATM   23  C   UNL     1     -12.003  15.357  70.408  1.00  0.00    -0.387 A  
HETATM   24  C   UNL     1     -11.471  16.077  69.345  1.00  0.00    -0.336 A  
HETATM   25  C   UNL     1     -11.177  15.438  68.137  1.00  0.00    -0.326 A  
ENDBRANCH  19  20
ENDBRANCH  13  15
ENDBRANCH  10  13
ENDBRANCH   7  10
TORSDOF 4
ENDMDL
MODEL      106
REMARK 921   NORMALIZED FREE ENERGY PREDICTED BY IDOCK:   -5.48 KCAL/MOL
REMARK 922        TOTAL FREE ENERGY PREDICTED BY IDOCK:   -7.50 KCAL/MOL
REMARK 923 INTER-LIGAND FREE ENERGY PREDICTED BY IDOCK:   -6.39 KCAL/MOL
REMARK 924 INTRA-LIGAND FREE ENERGY PREDICTED BY IDOCK:   -1.10 KCAL/MOL
REMARK 927      BINDING AFFINITY PREDICTED BY RF-SCORE:    0.00 PKD
ROOT
HETATM    1  N   UNL     1      -8.008   7.425  65.163  1.00  0.00    -0.123 NA 
HETATM    2  H2  UNL     1      -8.270   6.464  65.382  1.00  0.00     0.000 HD 
HETATM    3  C   UNL     1      -8.748   8.280  65.982  1.00  0.00    -0.155 A  
HETATM    4  H1  UNL     1      -8.027   7.539  64.150  1.00  0.00     0.000 HD 
HETATM    5  C   UNL     1      -8.723   8.123  67.371  1.00  0.00    -0.124 A  
HETATM    6  C   UNL     1      -9.382   9.025  68.210  1.00  0.00    -0.145 A  
HETATM    7  C   UNL     1     -10.030  10.128  67.652  1.00  0.00    -0.181 A  
HETATM    8  C   UNL     1     -10.005  10.341  66.271  1.00  0.00    -0.295 A  
HETATM    9  C   UNL     1      -9.344   9.426  65.444  1.00  0.00    -0.311 A  
ENDROOT
BRANCH   7  10
HETATM   10  S   UNL     1     -10.984  11.219  68.699  1.00  0.00    -0.239 S  
HETATM   11  O   UNL     1     -10.369  12.522  68.566  1.00  0.00    -0.232 OA 
HETATM   12  O   UNL     1     -12.374  11.028  68.339  1.00  0.00    -0.528 OA 
BRANCH  10  13
HETATM   13  N   UNL     1     -10.671  10.620  70.187  1.00  0.00    -0.463 N  
HETATM   14  H   UNL     1      -9.727  10.715  70.562  1.00  0.00     0.000 HD 
BRANCH  13  15
HETATM   15  C   UNL     1     -11.634   9.988  70.961  1.00  0.00    -0.393 A  
HETATM   16  C   UNL     1     -12.695  10.670  71.515  1.00  0.00    -0.549 A  
HETATM   17  C   UNL     1     -13.480   9.683  72.123  1.00  0.00    -0.429 A  
HETATM   18  N   UNL     1     -12.980   8.463  71.960  1.00  0.00    -0.350 NA 
HETATM   19  N   UNL     1     -11.813   8.633  71.269  1.00  0.00    -0.288 NA 
BRANCH  19  20
HETATM   20  C   UNL     1     -11.025   7.487  70.944  1.00  0.00    -0.253 A  
HETATM   21  C   UNL     1     -11.442   6.642  69.900  1.00  0.00    -0.414 A  
HETATM   22  C   UNL     1     -10.721   5.486  69.585  1.00  0.00    -0.349 A  
HETATM   23  C   UNL     1      -9.584   5.152  70.313  1.00  0.00    -0.249 A  
HETATM   24  C   UNL     1      -9.152   5.989  71.336  1.00  0.00    -0.149 A  
HETATM   25  C   UNL     1      -9.856   7.160  71.634  1.00  0.00    -0.170 A  
ENDBRANCH  19  20
ENDBRANCH  13  15
ENDBRANCH  10  13
ENDBRANCH   7  10
TORSDOF 4
ENDMDL
MODEL      107
REMARK 921   NORMALIZED FREE ENERGY PREDICTED BY IDOCK:   -5.47 KCAL/MOL
REMARK 922        TOTAL FREE ENERGY PREDICTED BY IDOCK:   -7.48 KCAL/MOL
REMARK 923 INTER-LIGAND FREE ENERGY PREDICTED BY IDOCK:   -6.04 KCAL/MOL
REMARK 924 INTRA-LIGAND FREE ENERGY PREDICTED BY IDOCK:   -1.44 KCAL/MOL
REMARK 927      BINDING AFFINITY PREDICTED BY RF-SCORE:    0.00 PKD
ROOT
HETATM    1  N   UNL     1      -8.611   8.194  63.710  1.00  0.00    -0.390 NA 
HETATM    2  H2  UNL     1      -7.856   7.507  63.716  1.00  0.00     0.000 HD 
HETATM    3  C   UNL     1      -8.412   9.074  64.776  1.00  0.00    -0.180 A  
HETATM    4  H1  UNL     1      -9.496   7.697  63.612  1.00  0.00     0.000 HD 
HETATM    5  C   UNL     1      -7.199   9.755  64.910  1.00  0.00    -0.129 A  
HETATM    6  C   UNL     1      -7.016  10.708  65.916  1.00  0.00    -0.116 A  
HETATM    7  C   UNL     1      -8.079  11.020  66.764  1.00  0.00    -0.151 A  
HETATM    8  C   UNL     1      -9.322  10.401  66.599  1.00  0.00    -0.185 A  
HETATM    9  C   UNL     1      -9.488   9.446  65.589  1.00  0.00    -0.328 A  
ENDROOT
BRANCH   7  10
HETATM   10  S   UNL     1      -7.823  12.140  68.133  1.00  0.00    -0.156 S  
HETATM   11  O   UNL     1      -7.299  11.326  69.209  1.00  0.00    -0.115 OA 
HETATM   12  O   UNL     1      -7.051  13.253  67.619  1.00  0.00    -0.133 OA 
BRANCH  10  13
HETATM   13  N   UNL     1      -9.351  12.594  68.490  1.00  0.00    -0.381 N  
HETATM   14  H   UNL     1      -9.964  11.923  68.954  1.00  0.00     0.000 HD 
BRANCH  13  15
HETATM   15  C   UNL     1      -9.852  13.853  68.189  1.00  0.00    -0.240 A  
HETATM   16  C   UNL     1      -9.654  14.939  69.014  1.00  0.00    -0.204 A  
HETATM   17  C   UNL     1     -10.212  16.022  68.324  1.00  0.00    -0.237 A  
HETATM   18  N   UNL     1     -10.711  15.670  67.143  1.00  0.00    -0.313 NA 
HETATM   19  N   UNL     1     -10.527  14.320  67.054  1.00  0.00    -0.270 NA 
BRANCH  19  20
HETATM   20  C   UNL     1     -10.977  13.633  65.884  1.00  0.00    -0.282 A  
HETATM   21  C   UNL     1     -12.313  13.202  65.813  1.00  0.00    -0.496 A  
HETATM   22  C   UNL     1     -12.776  12.487  64.705  1.00  0.00    -0.434 A  
HETATM   23  C   UNL     1     -11.910  12.182  63.660  1.00  0.00    -0.608 A  
HETATM   24  C   UNL     1     -10.591  12.617  63.711  1.00  0.00    -0.432 A  
HETATM   25  C   UNL     1     -10.133  13.357  64.805  1.00  0.00    -0.262 A  
ENDBRANCH  19  20
ENDBRANCH  13  15
ENDBRANCH  10  13
ENDBRANCH   7  10
TORSDOF 4
ENDMDL
MODEL      108
REMARK 921   NORMALIZED FREE ENERGY PREDICTED BY IDOCK:   -5.47 KCAL/MOL
REMARK 922        TOTAL FREE ENERGY PREDICTED BY IDOCK:   -7.48 KCAL/MOL
REMARK 923 INTER-LIGAND FREE ENERGY PREDICTED BY IDOCK:   -6.70 KCAL/MOL
REMARK 924 INTRA-LIGAND FREE ENERGY PREDICTED BY IDOCK:   -0.78 KCAL/MOL
REMARK 927      BINDING AFFINITY PREDICTED BY RF-SCORE:    0.00 PKD
ROOT
HETATM    1  N   UNL     1     -12.811  14.059  65.549  1.00  0.00    -0.668 NA 
HETATM    2  H2  UNL     1     -13.487  13.894  64.804  1.00  0.00     0.000 HD 
HETATM    3  C   UNL     1     -12.102  12.877  65.770  1.00  0.00    -0.457 A  
HETATM    4  H1  UNL     1     -13.292  14.522  66.321  1.00  0.00     0.000 HD 
HETATM    5  C   UNL     1     -11.443  12.243  64.712  1.00  0.00    -0.382 A  
HETATM    6  C   UNL     1     -10.652  11.112  64.932  1.00  0.00    -0.356 A  
HETATM    7  C   UNL     1     -10.477  10.642  66.234  1.00  0.00    -0.203 A  
HETATM    8  C   UNL     1     -11.069  11.305  67.312  1.00  0.00    -0.367 A  
HETATM    9  C   UNL     1     -11.861  12.435  67.075  1.00  0.00    -0.368 A  
ENDROOT
BRANCH   7  10
HETATM   10  S   UNL     1      -9.575   9.124  66.516  1.00  0.00    -0.249 S  
HETATM   11  O   UNL     1      -8.994   8.775  65.237  1.00  0.00    -0.194 OA 
HETATM   12  O   UNL     1      -8.724   9.355  67.664  1.00  0.00    -0.116 OA 
BRANCH  10  13
HETATM   13  N   UNL     1     -10.777   8.076  66.869  1.00  0.00    -0.418 N  
HETATM   14  H   UNL     1     -11.739   8.353  66.674  1.00  0.00     0.000 HD 
BRANCH  13  15
HETATM   15  C   UNL     1     -10.545   6.826  67.426  1.00  0.00    -0.302 A  
HETATM   16  C   UNL     1     -10.089   5.763  66.678  1.00  0.00    -0.235 A  
HETATM   17  C   UNL     1      -9.887   4.731  67.603  1.00  0.00    -0.152 A  
HETATM   18  N   UNL     1     -10.170   5.102  68.847  1.00  0.00    -0.178 NA 
HETATM   19  N   UNL     1     -10.614   6.391  68.755  1.00  0.00    -0.223 NA 
BRANCH  19  20
HETATM   20  C   UNL     1     -11.012   7.074  69.944  1.00  0.00    -0.263 A  
HETATM   21  C   UNL     1     -10.088   7.909  70.598  1.00  0.00    -0.197 A  
HETATM   22  C   UNL     1     -10.428   8.557  71.789  1.00  0.00    -0.370 A  
HETATM   23  C   UNL     1     -11.687   8.372  72.350  1.00  0.00    -0.452 A  
HETATM   24  C   UNL     1     -12.615   7.563  71.705  1.00  0.00    -0.376 A  
HETATM   25  C   UNL     1     -12.287   6.937  70.499  1.00  0.00    -0.177 A  
ENDBRANCH  19  20
ENDBRANCH  13  15
ENDBRANCH  10  13
ENDBRANCH   7  10
TORSDOF 4
ENDMDL
MODEL      109
REMARK 921   NORMALIZED FREE ENERGY PREDICTED BY IDOCK:   -5.46 KCAL/MOL
REMARK 922        TOTAL FREE ENERGY PREDICTED BY IDOCK:   -7.47 KCAL/MOL
REMARK 923 INTER-LIGAND FREE ENERGY PREDICTED BY IDOCK:   -6.77 KCAL/MOL
REMARK 924 INTRA-LIGAND FREE ENERGY PREDICTED BY IDOCK:   -0.70 KCAL/MOL
REMARK 927      BINDING AFFINITY PREDICTED BY RF-SCORE:    0.00 PKD
ROOT
HETATM    1  N   UNL     1     -12.759  16.177  71.703  1.00  0.00    -0.491 NA 
HETATM    2  H2  UNL     1     -12.531  16.429  72.664  1.00  0.00     0.000 HD 
HETATM    3  C   UNL     1     -12.700  14.787  71.586  1.00  0.00    -0.330 A  
HETATM    4  H1  UNL     1     -12.213  16.770  71.078  1.00  0.00     0.000 HD 
HETATM    5  C   UNL     1     -13.450  13.975  72.442  1.00  0.00    -0.639 A  
HETATM    6  C   UNL     1     -13.475  12.587  72.279  1.00  0.00    -0.490 A  
HETATM    7  C   UNL     1     -12.782  12.011  71.213  1.00  0.00    -0.279 A  
HETATM    8  C   UNL     1     -12.087  12.813  70.305  1.00  0.00    -0.373 A  
HETATM    9  C   UNL     1     -12.068  14.201  70.483  1.00  0.00    -0.420 A  
ENDROOT
BRANCH   7  10
HETATM   10  S   UNL     1     -12.700  10.232  71.068  1.00  0.00    -0.417 S  
HETATM   11  O   UNL     1     -12.916   9.722  72.406  1.00  0.00    -0.363 OA 
HETATM   12  O   UNL     1     -13.598   9.862  69.994  1.00  0.00     0.386 OA 
BRANCH  10  13
HETATM   13  N   UNL     1     -11.140   9.998  70.643  1.00  0.00    -0.319 N  
HETATM   14  H   UNL     1     -10.453  10.709  70.896  1.00  0.00     0.000 HD 
BRANCH  13  15
HETATM   15  C   UNL     1     -10.709   8.874  69.953  1.00  0.00    -0.227 A  
HETATM   16  C   UNL     1     -10.539   7.654  70.570  1.00  0.00    -0.229 A  
HETATM   17  C   UNL     1     -10.202   6.771  69.537  1.00  0.00    -0.184 A  
HETATM   18  N   UNL     1     -10.176   7.366  68.348  1.00  0.00    -0.179 NA 
HETATM   19  N   UNL     1     -10.455   8.681  68.589  1.00  0.00    -0.203 NA 
BRANCH  19  20
HETATM   20  C   UNL     1     -10.489   9.596  67.493  1.00  0.00    -0.262 A  
HETATM   21  C   UNL     1      -9.763   9.296  66.326  1.00  0.00    -0.340 A  
HETATM   22  C   UNL     1      -9.736  10.189  65.251  1.00  0.00    -0.365 A  
HETATM   23  C   UNL     1     -10.421  11.397  65.330  1.00  0.00    -0.340 A  
HETATM   24  C   UNL     1     -11.156  11.698  66.470  1.00  0.00    -0.357 A  
HETATM   25  C   UNL     1     -11.208  10.793  67.535  1.00  0.00    -0.346 A  
ENDBRANCH  19  20
ENDBRANCH  13  15
ENDBRANCH  10  13
ENDBRANCH   7  10
TORSDOF 4
ENDMDL
MODEL      110
REMARK 921   NORMALIZED FREE ENERGY PREDICTED BY IDOCK:   -5.46 KCAL/MOL
REMARK 922        TOTAL FREE ENERGY PREDICTED BY IDOCK:   -7.47 KCAL/MOL
REMARK 923 INTER-LIGAND FREE ENERGY PREDICTED BY IDOCK:   -5.60 KCAL/MOL
REMARK 924 INTRA-LIGAND FREE ENERGY PREDICTED BY IDOCK:   -1.87 KCAL/MOL
REMARK 927      BINDING AFFINITY PREDICTED BY RF-SCORE:    0.00 PKD
ROOT
HETATM    1  N   UNL     1      -7.353   6.516  67.501  1.00  0.00    -0.092 NA 
HETATM    2  H2  UNL     1      -7.557   7.076  66.673  1.00  0.00     0.000 HD 
HETATM    3  C   UNL     1      -8.325   6.785  68.466  1.00  0.00    -0.120 A  
HETATM    4  H1  UNL     1      -6.363   6.623  67.724  1.00  0.00     0.000 HD 
HETATM    5  C   UNL     1      -9.681   6.638  68.160  1.00  0.00    -0.130 A  
HETATM    6  C   UNL     1     -10.663   6.812  69.140  1.00  0.00    -0.287 A  
HETATM    7  C   UNL     1     -10.278   7.086  70.453  1.00  0.00    -0.196 A  
HETATM    8  C   UNL     1      -8.924   7.165  70.792  1.00  0.00    -0.152 A  
HETATM    9  C   UNL     1      -7.953   6.991  69.799  1.00  0.00    -0.124 A  
ENDROOT
BRANCH   7  10
HETATM   10  S   UNL     1     -11.522   7.438  71.687  1.00  0.00    -0.273 S  
HETATM   11  O   UNL     1     -12.125   6.161  72.006  1.00  0.00    -0.318 OA 
HETATM   12  O   UNL     1     -10.871   8.215  72.721  1.00  0.00    -0.353 OA 
BRANCH  10  13
HETATM   13  N   UNL     1     -12.587   8.346  70.844  1.00  0.00    -0.496 N  
HETATM   14  H   UNL     1     -13.275   7.873  70.258  1.00  0.00     0.000 HD 
BRANCH  13  15
HETATM   15  C   UNL     1     -12.595   9.733  70.892  1.00  0.00    -0.263 A  
HETATM   16  C   UNL     1     -13.353  10.432  71.806  1.00  0.00    -0.456 A  
HETATM   17  C   UNL     1     -13.015  11.776  71.602  1.00  0.00    -0.362 A  
HETATM   18  N   UNL     1     -12.100  11.931  70.650  1.00  0.00    -0.356 NA 
HETATM   19  N   UNL     1     -11.851  10.676  70.172  1.00  0.00    -0.308 NA 
BRANCH  19  20
HETATM   20  C   UNL     1     -10.904  10.511  69.115  1.00  0.00    -0.237 A  
HETATM   21  C   UNL     1      -9.533  10.465  69.424  1.00  0.00    -0.204 A  
HETATM   22  C   UNL     1      -8.575  10.351  68.412  1.00  0.00    -0.128 A  
HETATM   23  C   UNL     1      -8.971  10.296  67.079  1.00  0.00    -0.147 A  
HETATM   24  C   UNL     1     -10.324  10.323  66.762  1.00  0.00    -0.288 A  
HETATM   25  C   UNL     1     -11.284  10.408  67.775  1.00  0.00    -0.309 A  
ENDBRANCH  19  20
ENDBRANCH  13  15
ENDBRANCH  10  13
ENDBRANCH   7  10
TORSDOF 4
ENDMDL
MODEL      111
REMARK 921   NORMALIZED FREE ENERGY PREDICTED BY IDOCK:   -5.46 KCAL/MOL
REMARK 922        TOTAL FREE ENERGY PREDICTED BY IDOCK:   -7.47 KCAL/MOL
REMARK 923 INTER-LIGAND FREE ENERGY PREDICTED BY IDOCK:   -6.15 KCAL/MOL
REMARK 924 INTRA-LIGAND FREE ENERGY PREDICTED BY IDOCK:   -1.32 KCAL/MOL
REMARK 927      BINDING AFFINITY PREDICTED BY RF-SCORE:    0.00 PKD
ROOT
HETATM    1  N   UNL     1     -10.984  12.365  65.803  1.00  0.00    -0.288 NA 
HETATM    2  H2  UNL     1     -11.356  11.772  65.060  1.00  0.00     0.000 HD 
HETATM    3  C   UNL     1     -11.198  11.724  67.025  1.00  0.00    -0.322 A  
HETATM    4  H1  UNL     1     -11.322  13.315  65.654  1.00  0.00     0.000 HD 
HETATM    5  C   UNL     1     -10.733  10.421  67.228  1.00  0.00    -0.331 A  
HETATM    6  C   UNL     1     -10.856   9.799  68.474  1.00  0.00    -0.227 A  
HETATM    7  C   UNL     1     -11.402  10.511  69.542  1.00  0.00    -0.278 A  
HETATM    8  C   UNL     1     -11.805  11.839  69.376  1.00  0.00    -0.398 A  
HETATM    9  C   UNL     1     -11.679  12.446  68.122  1.00  0.00    -0.408 A  
ENDROOT
BRANCH   7  10
HETATM   10  S   UNL     1     -11.683   9.689  71.104  1.00  0.00    -0.401 S  
HETATM   11  O   UNL     1     -10.373   9.534  71.702  1.00  0.00    -0.232 OA 
HETATM   12  O   UNL     1     -12.712  10.442  71.790  1.00  0.00    -0.416 OA 
BRANCH  10  13
HETATM   13  N   UNL     1     -12.237   8.229  70.624  1.00  0.00    -0.489 N  
HETATM   14  H   UNL     1     -13.060   8.192  70.023  1.00  0.00     0.000 HD 
BRANCH  13  15
HETATM   15  C   UNL     1     -11.634   7.036  71.000  1.00  0.00    -0.320 A  
HETATM   16  C   UNL     1     -11.907   6.422  72.202  1.00  0.00    -0.361 A  
HETATM   17  C   UNL     1     -11.194   5.217  72.162  1.00  0.00    -0.069 A  
HETATM   18  N   UNL     1     -10.532   5.056  71.021  1.00  0.00    -0.185 NA 
HETATM   19  N   UNL     1     -10.764   6.191  70.298  1.00  0.00    -0.265 NA 
BRANCH  19  20
HETATM   20  C   UNL     1     -10.169   6.326  69.007  1.00  0.00    -0.184 A  
HETATM   21  C   UNL     1      -8.819   6.710  68.910  1.00  0.00    -0.131 A  
HETATM   22  C   UNL     1      -8.216   6.897  67.663  1.00  0.00    -0.117 A  
HETATM   23  C   UNL     1      -8.953   6.716  66.497  1.00  0.00    -0.155 A  
HETATM   24  C   UNL     1     -10.282   6.320  66.579  1.00  0.00    -0.163 A  
HETATM   25  C   UNL     1     -10.880   6.105  67.824  1.00  0.00    -0.413 A  
ENDBRANCH  19  20
ENDBRANCH  13  15
ENDBRANCH  10  13
ENDBRANCH   7  10
TORSDOF 4
ENDMDL
MODEL      112
REMARK 921   NORMALIZED FREE ENERGY PREDICTED BY IDOCK:   -5.45 KCAL/MOL
REMARK 922        TOTAL FREE ENERGY PREDICTED BY IDOCK:   -7.46 KCAL/MOL
REMARK 923 INTER-LIGAND FREE ENERGY PREDICTED BY IDOCK:   -6.67 KCAL/MOL
REMARK 924 INTRA-LIGAND FREE ENERGY PREDICTED BY IDOCK:   -0.79 KCAL/MOL
REMARK 927      BINDING AFFINITY PREDICTED BY RF-SCORE:    0.00 PKD
ROOT
HETATM    1  N   UNL     1     -10.080  12.889  63.800  1.00  0.00    -0.729 NA 
HETATM    2  H2  UNL     1     -10.883  12.642  63.222  1.00  0.00     0.000 HD 
HETATM    3  C   UNL     1     -10.081  12.069  64.930  1.00  0.00    -0.260 A  
HETATM    4  H1  UNL     1     -10.058  13.903  63.901  1.00  0.00     0.000 HD 
HETATM    5  C   UNL     1     -10.111  10.678  64.791  1.00  0.00    -0.412 A  
HETATM    6  C   UNL     1     -10.019   9.841  65.907  1.00  0.00    -0.345 A  
HETATM    7  C   UNL     1      -9.842  10.405  67.171  1.00  0.00    -0.181 A  
HETATM    8  C   UNL     1      -9.738  11.790  67.321  1.00  0.00    -0.188 A  
HETATM    9  C   UNL     1      -9.835  12.615  66.194  1.00  0.00    -0.265 A  
ENDROOT
BRANCH   7  10
HETATM   10  S   UNL     1      -9.852   9.356  68.619  1.00  0.00    -0.168 S  
HETATM   11  O   UNL     1     -11.033   8.528  68.491  1.00  0.00     0.002 OA 
HETATM   12  O   UNL     1      -8.541   8.747  68.698  1.00  0.00    -0.131 OA 
BRANCH  10  13
HETATM   13  N   UNL     1     -10.076  10.439  69.821  1.00  0.00    -0.394 N  
HETATM   14  H   UNL     1      -9.371  11.162  69.965  1.00  0.00     0.000 HD 
BRANCH  13  15
HETATM   15  C   UNL     1     -11.186  10.417  70.655  1.00  0.00    -0.275 A  
HETATM   16  C   UNL     1     -12.140  11.411  70.634  1.00  0.00    -0.469 A  
HETATM   17  C   UNL     1     -13.128  10.980  71.528  1.00  0.00    -0.396 A  
HETATM   18  N   UNL     1     -12.847   9.798  72.067  1.00  0.00    -0.405 NA 
HETATM   19  N   UNL     1     -11.627   9.446  71.563  1.00  0.00    -0.373 NA 
BRANCH  19  20
HETATM   20  C   UNL     1     -11.039   8.209  71.969  1.00  0.00    -0.306 A  
HETATM   21  C   UNL     1     -11.681   7.003  71.637  1.00  0.00    -0.332 A  
HETATM   22  C   UNL     1     -11.159   5.776  72.057  1.00  0.00    -0.318 A  
HETATM   23  C   UNL     1     -10.000   5.736  72.825  1.00  0.00    -0.196 A  
HETATM   24  C   UNL     1      -9.347   6.920  73.145  1.00  0.00    -0.167 A  
HETATM   25  C   UNL     1      -9.851   8.147  72.702  1.00  0.00    -0.364 A  
ENDBRANCH  19  20
ENDBRANCH  13  15
ENDBRANCH  10  13
ENDBRANCH   7  10
TORSDOF 4
ENDMDL
MODEL      113
REMARK 921   NORMALIZED FREE ENERGY PREDICTED BY IDOCK:   -5.43 KCAL/MOL
REMARK 922        TOTAL FREE ENERGY PREDICTED BY IDOCK:   -7.44 KCAL/MOL
REMARK 923 INTER-LIGAND FREE ENERGY PREDICTED BY IDOCK:   -6.65 KCAL/MOL
REMARK 924 INTRA-LIGAND FREE ENERGY PREDICTED BY IDOCK:   -0.79 KCAL/MOL
REMARK 927      BINDING AFFINITY PREDICTED BY RF-SCORE:    0.00 PKD
ROOT
HETATM    1  N   UNL     1      -8.788   4.664  66.360  1.00  0.00    -0.112 NA 
HETATM    2  H2  UNL     1      -7.772   4.573  66.375  1.00  0.00     0.000 HD 
HETATM    3  C   UNL     1      -9.146   5.732  67.185  1.00  0.00    -0.112 A  
HETATM    4  H1  UNL     1      -9.195   3.741  66.508  1.00  0.00     0.000 HD 
HETATM    5  C   UNL     1      -8.587   6.998  66.982  1.00  0.00    -0.122 A  
HETATM    6  C   UNL     1      -9.003   8.098  67.737  1.00  0.00    -0.134 A  
HETATM    7  C   UNL     1     -10.028   7.938  68.671  1.00  0.00    -0.191 A  
HETATM    8  C   UNL     1     -10.647   6.697  68.837  1.00  0.00    -0.264 A  
HETATM    9  C   UNL     1     -10.217   5.604  68.075  1.00  0.00    -0.234 A  
ENDROOT
BRANCH   7  10
HETATM   10  S   UNL     1     -10.480   9.303  69.732  1.00  0.00    -0.232 S  
HETATM   11  O   UNL     1     -11.035   8.700  70.925  1.00  0.00    -0.236 OA 
HETATM   12  O   UNL     1      -9.317  10.161  69.823  1.00  0.00    -0.211 OA 
BRANCH  10  13
HETATM   13  N   UNL     1     -11.677  10.015  68.877  1.00  0.00    -0.488 N  
HETATM   14  H   UNL     1     -12.327   9.423  68.361  1.00  0.00     0.000 HD 
BRANCH  13  15
HETATM   15  C   UNL     1     -11.845  11.392  68.823  1.00  0.00    -0.323 A  
HETATM   16  C   UNL     1     -12.095  12.146  69.949  1.00  0.00    -0.324 A  
HETATM   17  C   UNL     1     -12.099  13.472  69.501  1.00  0.00    -0.297 A  
HETATM   18  N   UNL     1     -11.852  13.570  68.198  1.00  0.00    -0.358 NA 
HETATM   19  N   UNL     1     -11.725  12.285  67.751  1.00  0.00    -0.407 NA 
BRANCH  19  20
HETATM   20  C   UNL     1     -11.464  12.055  66.366  1.00  0.00    -0.353 A  
HETATM   21  C   UNL     1     -12.291  12.658  65.402  1.00  0.00    -0.499 A  
HETATM   22  C   UNL     1     -12.094  12.419  64.039  1.00  0.00    -0.563 A  
HETATM   23  C   UNL     1     -11.079  11.565  63.620  1.00  0.00    -0.469 A  
HETATM   24  C   UNL     1     -10.244  10.975  64.562  1.00  0.00    -0.406 A  
HETATM   25  C   UNL     1     -10.421  11.236  65.925  1.00  0.00    -0.314 A  
ENDBRANCH  19  20
ENDBRANCH  13  15
ENDBRANCH  10  13
ENDBRANCH   7  10
TORSDOF 4
ENDMDL
MODEL      114
REMARK 921   NORMALIZED FREE ENERGY PREDICTED BY IDOCK:   -5.42 KCAL/MOL
REMARK 922        TOTAL FREE ENERGY PREDICTED BY IDOCK:   -7.42 KCAL/MOL
REMARK 923 INTER-LIGAND FREE ENERGY PREDICTED BY IDOCK:   -5.63 KCAL/MOL
REMARK 924 INTRA-LIGAND FREE ENERGY PREDICTED BY IDOCK:   -1.80 KCAL/MOL
REMARK 927      BINDING AFFINITY PREDICTED BY RF-SCORE:    0.00 PKD
ROOT
HETATM    1  N   UNL     1     -10.666  16.950  69.028  1.00  0.00    -0.328 NA 
HETATM    2  H2  UNL     1     -11.265  17.046  69.849  1.00  0.00     0.000 HD 
HETATM    3  C   UNL     1     -10.428  15.591  68.815  1.00  0.00    -0.234 A  
HETATM    4  H1  UNL     1      -9.887  17.600  69.123  1.00  0.00     0.000 HD 
HETATM    5  C   UNL     1     -11.497  14.700  68.685  1.00  0.00    -0.326 A  
HETATM    6  C   UNL     1     -11.278  13.353  68.379  1.00  0.00    -0.311 A  
HETATM    7  C   UNL     1      -9.976  12.907  68.148  1.00  0.00    -0.234 A  
HETATM    8  C   UNL     1      -8.902  13.799  68.202  1.00  0.00    -0.185 A  
HETATM    9  C   UNL     1      -9.137  15.144  68.513  1.00  0.00    -0.191 A  
ENDROOT
BRANCH   7  10
HETATM   10  S   UNL     1      -9.670  11.166  67.882  1.00  0.00    -0.179 S  
HETATM   11  O   UNL     1      -9.008  10.701  69.082  1.00  0.00    -0.170 OA 
HETATM   12  O   UNL     1     -10.929  10.582  67.472  1.00  0.00    -0.284 OA 
BRANCH  10  13
HETATM   13  N   UNL     1      -8.599  11.195  66.648  1.00  0.00    -0.160 N  
HETATM   14  H   UNL     1      -7.627  11.429  66.851  1.00  0.00     0.000 HD 
BRANCH  13  15
HETATM   15  C   UNL     1      -8.957  10.916  65.337  1.00  0.00    -0.193 A  
HETATM   16  C   UNL     1      -8.478   9.813  64.664  1.00  0.00    -0.179 A  
HETATM   17  C   UNL     1      -9.139   9.828  63.430  1.00  0.00    -0.229 A  
HETATM   18  N   UNL     1      -9.988  10.845  63.320  1.00  0.00    -0.345 NA 
HETATM   19  N   UNL     1      -9.865  11.553  64.482  1.00  0.00    -0.245 NA 
BRANCH  19  20
HETATM   20  C   UNL     1     -10.655  12.729  64.665  1.00  0.00    -0.349 A  
HETATM   21  C   UNL     1     -12.053  12.609  64.763  1.00  0.00    -0.495 A  
HETATM   22  C   UNL     1     -12.860  13.742  64.896  1.00  0.00    -0.242 A  
HETATM   23  C   UNL     1     -12.287  15.009  64.919  1.00  0.00    -0.087 A  
HETATM   24  C   UNL     1     -10.906  15.141  64.840  1.00  0.00    -0.437 A  
HETATM   25  C   UNL     1     -10.094  14.007  64.736  1.00  0.00    -0.224 A  
ENDBRANCH  19  20
ENDBRANCH  13  15
ENDBRANCH  10  13
ENDBRANCH   7  10
TORSDOF 4
ENDMDL
MODEL      115
REMARK 921   NORMALIZED FREE ENERGY PREDICTED BY IDOCK:   -5.38 KCAL/MOL
REMARK 922        TOTAL FREE ENERGY PREDICTED BY IDOCK:   -7.37 KCAL/MOL
REMARK 923 INTER-LIGAND FREE ENERGY PREDICTED BY IDOCK:   -5.34 KCAL/MOL
REMARK 924 INTRA-LIGAND FREE ENERGY PREDICTED BY IDOCK:   -2.03 KCAL/MOL
REMARK 927      BINDING AFFINITY PREDICTED BY RF-SCORE:    0.00 PKD
ROOT
HETATM    1  N   UNL     1      -8.580   4.047  68.284  1.00  0.00    -0.093 NA 
HETATM    2  H2  UNL     1      -8.856   4.285  67.331  1.00  0.00     0.000 HD 
HETATM    3  C   UNL     1      -9.039   5.051  69.139  1.00  0.00    -0.100 A  
HETATM    4  H1  UNL     1      -7.593   3.789  68.276  1.00  0.00     0.000 HD 
HETATM    5  C   UNL     1     -10.392   5.403  69.149  1.00  0.00    -0.300 A  
HETATM    6  C   UNL     1     -10.885   6.339  70.063  1.00  0.00    -0.387 A  
HETATM    7  C   UNL     1     -10.021   6.888  71.011  1.00  0.00    -0.188 A  
HETATM    8  C   UNL     1      -8.682   6.494  71.063  1.00  0.00    -0.138 A  
HETATM    9  C   UNL     1      -8.202   5.558  70.138  1.00  0.00    -0.102 A  
ENDROOT
BRANCH   7  10
HETATM   10  S   UNL     1     -10.607   8.179  72.101  1.00  0.00    -0.317 S  
HETATM   11  O   UNL     1     -11.117   7.497  73.271  1.00  0.00    -0.378 OA 
HETATM   12  O   UNL     1      -9.527   9.136  72.227  1.00  0.00    -0.229 OA 
BRANCH  10  13
HETATM   13  N   UNL     1     -11.854   8.802  71.248  1.00  0.00    -0.293 N  
HETATM   14  H   UNL     1     -12.724   8.273  71.199  1.00  0.00     0.000 HD 
BRANCH  13  15
HETATM   15  C   UNL     1     -11.778  10.020  70.588  1.00  0.00    -0.337 A  
HETATM   16  C   UNL     1     -12.418  11.149  71.052  1.00  0.00    -0.506 A  
HETATM   17  C   UNL     1     -12.021  12.172  70.184  1.00  0.00    -0.314 A  
HETATM   18  N   UNL     1     -11.179  11.746  69.247  1.00  0.00    -0.258 NA 
HETATM   19  N   UNL     1     -11.041  10.404  69.460  1.00  0.00    -0.247 NA 
BRANCH  19  20
HETATM   20  C   UNL     1     -10.194   9.647  68.594  1.00  0.00    -0.189 A  
HETATM   21  C   UNL     1     -10.754   9.007  67.474  1.00  0.00    -0.239 A  
HETATM   22  C   UNL     1      -9.965   8.220  66.631  1.00  0.00    -0.348 A  
HETATM   23  C   UNL     1      -8.611   8.049  66.900  1.00  0.00    -0.130 A  
HETATM   24  C   UNL     1      -8.042   8.690  67.995  1.00  0.00    -0.111 A  
HETATM   25  C   UNL     1      -8.824   9.500  68.824  1.00  0.00    -0.132 A  
ENDBRANCH  19  20
ENDBRANCH  13  15
ENDBRANCH  10  13
ENDBRANCH   7  10
TORSDOF 4
ENDMDL
MODEL      116
REMARK 921   NORMALIZED FREE ENERGY PREDICTED BY IDOCK:   -5.38 KCAL/MOL
REMARK 922        TOTAL FREE ENERGY PREDICTED BY IDOCK:   -7.37 KCAL/MOL
REMARK 923 INTER-LIGAND FREE ENERGY PREDICTED BY IDOCK:   -6.68 KCAL/MOL
REMARK 924 INTRA-LIGAND FREE ENERGY PREDICTED BY IDOCK:   -0.69 KCAL/MOL
REMARK 927      BINDING AFFINITY PREDICTED BY RF-SCORE:    0.00 PKD
ROOT
HETATM    1  N   UNL     1     -13.348  16.138  72.909  1.00  0.00    -0.420 NA 
HETATM    2  H2  UNL     1     -13.173  16.003  73.905  1.00  0.00     0.000 HD 
HETATM    3  C   UNL     1     -13.024  14.954  72.243  1.00  0.00    -0.341 A  
HETATM    4  H1  UNL     1     -12.923  17.020  72.625  1.00  0.00     0.000 HD 
HETATM    5  C   UNL     1     -13.607  13.744  72.632  1.00  0.00    -0.617 A  
HETATM    6  C   UNL     1     -13.367  12.567  71.918  1.00  0.00    -0.467 A  
HETATM    7  C   UNL     1     -12.576  12.614  70.769  1.00  0.00    -0.217 A  
HETATM    8  C   UNL     1     -12.044  13.827  70.324  1.00  0.00    -0.425 A  
HETATM    9  C   UNL     1     -12.291  14.997  71.052  1.00  0.00    -0.394 A  
ENDROOT
BRANCH   7  10
HETATM   10  S   UNL     1     -12.155  11.098  69.920  1.00  0.00    -0.342 S  
HETATM   11  O   UNL     1     -12.916  10.059  70.581  1.00  0.00    -0.289 OA 
HETATM   12  O   UNL     1     -12.341  11.350  68.506  1.00  0.00    -0.504 OA 
BRANCH  10  13
HETATM   13  N   UNL     1     -10.573  10.930  70.290  1.00  0.00    -0.333 N  
HETATM   14  H   UNL     1     -10.143  11.611  70.916  1.00  0.00     0.000 HD 
BRANCH  13  15
HETATM   15  C   UNL     1      -9.789   9.901  69.788  1.00  0.00    -0.236 A  
HETATM   16  C   UNL     1      -9.253   9.937  68.519  1.00  0.00    -0.136 A  
HETATM   17  C   UNL     1      -8.459   8.788  68.429  1.00  0.00    -0.130 A  
HETATM   18  N   UNL     1      -8.465   8.077  69.552  1.00  0.00    -0.130 NA 
HETATM   19  N   UNL     1      -9.313   8.734  70.399  1.00  0.00    -0.169 NA 
BRANCH  19  20
HETATM   20  C   UNL     1      -9.541   8.201  71.704  1.00  0.00    -0.180 A  
HETATM   21  C   UNL     1      -8.484   8.182  72.631  1.00  0.00    -0.251 A  
HETATM   22  C   UNL     1      -8.658   7.626  73.902  1.00  0.00    -0.287 A  
HETATM   23  C   UNL     1      -9.882   7.070  74.260  1.00  0.00    -0.249 A  
HETATM   24  C   UNL     1     -10.939   7.098  73.358  1.00  0.00    -0.277 A  
HETATM   25  C   UNL     1     -10.776   7.679  72.097  1.00  0.00    -0.289 A  
ENDBRANCH  19  20
ENDBRANCH  13  15
ENDBRANCH  10  13
ENDBRANCH   7  10
TORSDOF 4
ENDMDL
MODEL      117
REMARK 921   NORMALIZED FREE ENERGY PREDICTED BY IDOCK:   -5.36 KCAL/MOL
REMARK 922        TOTAL FREE ENERGY PREDICTED BY IDOCK:   -7.34 KCAL/MOL
REMARK 923 INTER-LIGAND FREE ENERGY PREDICTED BY IDOCK:   -6.55 KCAL/MOL
REMARK 924 INTRA-LIGAND FREE ENERGY PREDICTED BY IDOCK:   -0.79 KCAL/MOL
REMARK 927      BINDING AFFINITY PREDICTED BY RF-SCORE:    0.00 PKD
ROOT
HETATM    1  N   UNL     1     -14.115  13.840  72.472  1.00  0.00    -0.730 NA 
HETATM    2  H2  UNL     1     -14.018  13.627  73.465  1.00  0.00     0.000 HD 
HETATM    3  C   UNL     1     -13.292  12.970  71.754  1.00  0.00    -0.378 A  
HETATM    4  H1  UNL     1     -14.029  14.848  72.351  1.00  0.00     0.000 HD 
HETATM    5  C   UNL     1     -13.411  11.588  71.921  1.00  0.00    -0.408 A  
HETATM    6  C   UNL     1     -12.660  10.701  71.143  1.00  0.00    -0.526 A  
HETATM    7  C   UNL     1     -11.820  11.207  70.150  1.00  0.00    -0.365 A  
HETATM    8  C   UNL     1     -11.743  12.583  69.920  1.00  0.00    -0.327 A  
HETATM    9  C   UNL     1     -12.498  13.457  70.710  1.00  0.00    -0.418 A  
ENDROOT
BRANCH   7  10
HETATM   10  S   UNL     1     -10.760  10.095  69.235  1.00  0.00    -0.245 S  
HETATM   11  O   UNL     1      -9.444  10.697  69.269  1.00  0.00    -0.197 OA 
HETATM   12  O   UNL     1     -10.971   8.773  69.788  1.00  0.00    -0.223 OA 
BRANCH  10  13
HETATM   13  N   UNL     1     -11.371  10.211  67.724  1.00  0.00    -0.453 N  
HETATM   14  H   UNL     1     -12.354  10.461  67.613  1.00  0.00     0.000 HD 
BRANCH  13  15
HETATM   15  C   UNL     1     -10.610   9.982  66.587  1.00  0.00    -0.125 A  
HETATM   16  C   UNL     1     -10.433  10.943  65.616  1.00  0.00    -0.274 A  
HETATM   17  C   UNL     1      -9.538  10.374  64.702  1.00  0.00    -0.300 A  
HETATM   18  N   UNL     1      -9.152   9.154  65.062  1.00  0.00    -0.194 NA 
HETATM   19  N   UNL     1      -9.833   8.878  66.214  1.00  0.00    -0.282 NA 
BRANCH  19  20
HETATM   20  C   UNL     1      -9.637   7.614  66.851  1.00  0.00    -0.193 A  
HETATM   21  C   UNL     1      -8.456   7.390  67.581  1.00  0.00    -0.120 A  
HETATM   22  C   UNL     1      -8.209   6.151  68.179  1.00  0.00    -0.114 A  
HETATM   23  C   UNL     1      -9.129   5.115  68.044  1.00  0.00    -0.123 A  
HETATM   24  C   UNL     1     -10.307   5.329  67.339  1.00  0.00    -0.237 A  
HETATM   25  C   UNL     1     -10.569   6.577  66.765  1.00  0.00    -0.323 A  
ENDBRANCH  19  20
ENDBRANCH  13  15
ENDBRANCH  10  13
ENDBRANCH   7  10
TORSDOF 4
ENDMDL
MODEL      118
REMARK 921   NORMALIZED FREE ENERGY PREDICTED BY IDOCK:   -5.35 KCAL/MOL
REMARK 922        TOTAL FREE ENERGY PREDICTED BY IDOCK:   -7.33 KCAL/MOL
REMARK 923 INTER-LIGAND FREE ENERGY PREDICTED BY IDOCK:   -6.65 KCAL/MOL
REMARK 924 INTRA-LIGAND FREE ENERGY PREDICTED BY IDOCK:   -0.69 KCAL/MOL
REMARK 927      BINDING AFFINITY PREDICTED BY RF-SCORE:    0.00 PKD
ROOT
HETATM    1  N   UNL     1      -8.840  19.636  66.222  1.00  0.00    -0.370 NA 
HETATM    2  H2  UNL     1      -7.860  19.710  66.497  1.00  0.00     0.000 HD 
HETATM    3  C   UNL     1      -9.383  18.505  66.835  1.00  0.00    -0.294 A  
HETATM    4  H1  UNL     1      -8.898  19.750  65.211  1.00  0.00     0.000 HD 
HETATM    5  C   UNL     1      -9.303  18.348  68.222  1.00  0.00    -0.342 A  
HETATM    6  C   UNL     1      -9.922  17.270  68.861  1.00  0.00    -0.307 A  
HETATM    7  C   UNL     1     -10.675  16.369  68.108  1.00  0.00    -0.336 A  
HETATM    8  C   UNL     1     -10.826  16.551  66.730  1.00  0.00    -0.070 A  
HETATM    9  C   UNL     1     -10.197  17.633  66.104  1.00  0.00    -0.345 A  
ENDROOT
BRANCH   7  10
HETATM   10  S   UNL     1     -11.365  14.918  68.891  1.00  0.00    -0.301 S  
HETATM   11  O   UNL     1     -11.913  15.378  70.149  1.00  0.00    -0.302 OA 
HETATM   12  O   UNL     1     -12.222  14.286  67.910  1.00  0.00    -0.311 OA 
BRANCH  10  13
HETATM   13  N   UNL     1     -10.030  14.020  69.177  1.00  0.00    -0.432 N  
HETATM   14  H   UNL     1      -9.398  14.309  69.924  1.00  0.00     0.000 HD 
BRANCH  13  15
HETATM   15  C   UNL     1      -9.719  12.882  68.446  1.00  0.00    -0.186 A  
HETATM   16  C   UNL     1      -8.869  12.914  67.362  1.00  0.00    -0.199 A  
HETATM   17  C   UNL     1      -8.734  11.577  66.970  1.00  0.00    -0.169 A  
HETATM   18  N   UNL     1      -9.422  10.747  67.747  1.00  0.00    -0.154 NA 
HETATM   19  N   UNL     1     -10.069  11.541  68.651  1.00  0.00    -0.214 NA 
BRANCH  19  20
HETATM   20  C   UNL     1     -10.913  10.934  69.630  1.00  0.00    -0.252 A  
HETATM   21  C   UNL     1     -10.590   9.653  70.114  1.00  0.00    -0.320 A  
HETATM   22  C   UNL     1     -11.418   9.009  71.038  1.00  0.00    -0.358 A  
HETATM   23  C   UNL     1     -12.583   9.626  71.482  1.00  0.00    -0.483 A  
HETATM   24  C   UNL     1     -12.904  10.898  71.024  1.00  0.00    -0.472 A  
HETATM   25  C   UNL     1     -12.063  11.556  70.121  1.00  0.00    -0.432 A  
ENDBRANCH  19  20
ENDBRANCH  13  15
ENDBRANCH  10  13
ENDBRANCH   7  10
TORSDOF 4
ENDMDL
MODEL      119
REMARK 921   NORMALIZED FREE ENERGY PREDICTED BY IDOCK:   -5.33 KCAL/MOL
REMARK 922        TOTAL FREE ENERGY PREDICTED BY IDOCK:   -7.31 KCAL/MOL
REMARK 923 INTER-LIGAND FREE ENERGY PREDICTED BY IDOCK:   -7.27 KCAL/MOL
REMARK 924 INTRA-LIGAND FREE ENERGY PREDICTED BY IDOCK:   -0.04 KCAL/MOL
REMARK 927      BINDING AFFINITY PREDICTED BY RF-SCORE:    0.00 PKD
ROOT
HETATM    1  N   UNL     1     -13.728  14.358  72.877  1.00  0.00    -0.598 NA 
HETATM    2  H2  UNL     1     -13.181  14.009  73.664  1.00  0.00     0.000 HD 
HETATM    3  C   UNL     1     -13.054  14.037  71.697  1.00  0.00    -0.359 A  
HETATM    4  H1  UNL     1     -13.992  15.323  73.073  1.00  0.00     0.000 HD 
HETATM    5  C   UNL     1     -12.693  12.714  71.429  1.00  0.00    -0.347 A  
HETATM    6  C   UNL     1     -12.102  12.361  70.212  1.00  0.00    -0.377 A  
HETATM    7  C   UNL     1     -11.920  13.338  69.233  1.00  0.00    -0.303 A  
HETATM    8  C   UNL     1     -12.341  14.652  69.455  1.00  0.00    -0.232 A  
HETATM    9  C   UNL     1     -12.928  14.990  70.680  1.00  0.00    -0.394 A  
ENDROOT
BRANCH   7  10
HETATM   10  S   UNL     1     -11.050  12.930  67.725  1.00  0.00    -0.274 S  
HETATM   11  O   UNL     1     -10.023  11.986  68.112  1.00  0.00    -0.191 OA 
HETATM   12  O   UNL     1     -12.057  12.554  66.755  1.00  0.00    -0.546 OA 
BRANCH  10  13
HETATM   13  N   UNL     1     -10.357  14.358  67.336  1.00  0.00    -0.251 N  
HETATM   14  H   UNL     1     -10.706  14.864  66.523  1.00  0.00     0.000 HD 
BRANCH  13  15
HETATM   15  C   UNL     1      -9.314  14.910  68.067  1.00  0.00    -0.193 A  
HETATM   16  C   UNL     1      -8.395  14.133  68.738  1.00  0.00    -0.069 A  
HETATM   17  C   UNL     1      -7.464  15.041  69.255  1.00  0.00    -0.188 A  
HETATM   18  N   UNL     1      -7.745  16.299  68.929  1.00  0.00    -0.207 NA 
HETATM   19  N   UNL     1      -8.911  16.243  68.219  1.00  0.00    -0.184 NA 
BRANCH  19  20
HETATM   20  C   UNL     1      -9.486  17.456  67.731  1.00  0.00    -0.261 A  
HETATM   21  C   UNL     1      -9.728  18.510  68.630  1.00  0.00    -0.398 A  
HETATM   22  C   UNL     1     -10.331  19.694  68.197  1.00  0.00    -0.561 A  
HETATM   23  C   UNL     1     -10.714  19.837  66.867  1.00  0.00    -0.541 A  
HETATM   24  C   UNL     1     -10.465  18.809  65.966  1.00  0.00    -0.483 A  
HETATM   25  C   UNL     1      -9.835  17.635  66.390  1.00  0.00    -0.315 A  
ENDBRANCH  19  20
ENDBRANCH  13  15
ENDBRANCH  10  13
ENDBRANCH   7  10
TORSDOF 4
ENDMDL
MODEL      120
REMARK 921   NORMALIZED FREE ENERGY PREDICTED BY IDOCK:   -5.31 KCAL/MOL
REMARK 922        TOTAL FREE ENERGY PREDICTED BY IDOCK:   -7.29 KCAL/MOL
REMARK 923 INTER-LIGAND FREE ENERGY PREDICTED BY IDOCK:   -6.36 KCAL/MOL
REMARK 924 INTRA-LIGAND FREE ENERGY PREDICTED BY IDOCK:   -0.93 KCAL/MOL
REMARK 927      BINDING AFFINITY PREDICTED BY RF-SCORE:    0.00 PKD
ROOT
HETATM    1  N   UNL     1      -8.299   5.041  67.056  1.00  0.00    -0.107 NA 
HETATM    2  H2  UNL     1      -7.503   4.543  67.456  1.00  0.00     0.000 HD 
HETATM    3  C   UNL     1      -8.983   5.681  68.091  1.00  0.00    -0.111 A  
HETATM    4  H1  UNL     1      -8.793   4.405  66.430  1.00  0.00     0.000 HD 
HETATM    5  C   UNL     1      -8.307   6.553  68.949  1.00  0.00    -0.122 A  
HETATM    6  C   UNL     1      -8.993   7.273  69.931  1.00  0.00    -0.142 A  
HETATM    7  C   UNL     1     -10.381   7.158  70.019  1.00  0.00    -0.208 A  
HETATM    8  C   UNL     1     -11.082   6.346  69.123  1.00  0.00    -0.428 A  
HETATM    9  C   UNL     1     -10.380   5.629  68.148  1.00  0.00    -0.254 A  
ENDROOT
BRANCH   7  10
HETATM   10  S   UNL     1     -11.256   7.971  71.349  1.00  0.00    -0.260 S  
HETATM   11  O   UNL     1     -11.912   6.913  72.087  1.00  0.00    -0.294 OA 
HETATM   12  O   UNL     1     -10.297   8.834  72.008  1.00  0.00    -0.324 OA 
BRANCH  10  13
HETATM   13  N   UNL     1     -12.375   8.841  70.536  1.00  0.00    -0.440 N  
HETATM   14  H   UNL     1     -13.054   8.344  69.959  1.00  0.00     0.000 HD 
BRANCH  13  15
HETATM   15  C   UNL     1     -12.440  10.226  70.597  1.00  0.00    -0.318 A  
HETATM   16  C   UNL     1     -12.937  10.890  71.698  1.00  0.00    -0.569 A  
HETATM   17  C   UNL     1     -12.742  12.248  71.418  1.00  0.00    -0.248 A  
HETATM   18  N   UNL     1     -12.151  12.445  70.244  1.00  0.00    -0.341 NA 
HETATM   19  N   UNL     1     -11.986  11.202  69.702  1.00  0.00    -0.335 NA 
BRANCH  19  20
HETATM   20  C   UNL     1     -11.377  11.081  68.415  1.00  0.00    -0.295 A  
HETATM   21  C   UNL     1     -11.729  11.991  67.402  1.00  0.00    -0.352 A  
HETATM   22  C   UNL     1     -11.189  11.875  66.118  1.00  0.00    -0.387 A  
HETATM   23  C   UNL     1     -10.303  10.844  65.823  1.00  0.00    -0.303 A  
HETATM   24  C   UNL     1      -9.935   9.948  66.820  1.00  0.00    -0.272 A  
HETATM   25  C   UNL     1     -10.452  10.079  68.113  1.00  0.00    -0.250 A  
ENDBRANCH  19  20
ENDBRANCH  13  15
ENDBRANCH  10  13
ENDBRANCH   7  10
TORSDOF 4
ENDMDL
MODEL      121
REMARK 921   NORMALIZED FREE ENERGY PREDICTED BY IDOCK:   -5.31 KCAL/MOL
REMARK 922        TOTAL FREE ENERGY PREDICTED BY IDOCK:   -7.28 KCAL/MOL
REMARK 923 INTER-LIGAND FREE ENERGY PREDICTED BY IDOCK:   -7.33 KCAL/MOL
REMARK 924 INTRA-LIGAND FREE ENERGY PREDICTED BY IDOCK:    0.04 KCAL/MOL
REMARK 927      BINDING AFFINITY PREDICTED BY RF-SCORE:    0.00 PKD
ROOT
HETATM    1  N   UNL     1      -8.719   8.357  66.748  1.00  0.00    -0.124 NA 
HETATM    2  H2  UNL     1      -9.239   7.795  67.421  1.00  0.00     0.000 HD 
HETATM    3  C   UNL     1      -9.570   9.345  66.249  1.00  0.00    -0.234 A  
HETATM    4  H1  UNL     1      -8.233   7.727  66.111  1.00  0.00     0.000 HD 
HETATM    5  C   UNL     1     -10.235  10.210  67.123  1.00  0.00    -0.278 A  
HETATM    6  C   UNL     1     -11.017  11.262  66.638  1.00  0.00    -0.326 A  
HETATM    7  C   UNL     1     -11.091  11.481  65.262  1.00  0.00    -0.191 A  
HETATM    8  C   UNL     1     -10.375  10.672  64.376  1.00  0.00    -0.347 A  
HETATM    9  C   UNL     1      -9.599   9.620  64.877  1.00  0.00    -0.244 A  
ENDROOT
BRANCH   7  10
HETATM   10  S   UNL     1     -12.186  12.741  64.622  1.00  0.00    -0.463 S  
HETATM   11  O   UNL     1     -11.487  13.330  63.500  1.00  0.00    -0.336 OA 
HETATM   12  O   UNL     1     -13.474  12.108  64.427  1.00  0.00    -0.675 OA 
BRANCH  10  13
HETATM   13  N   UNL     1     -12.232  13.810  65.856  1.00  0.00    -0.438 N  
HETATM   14  H   UNL     1     -13.015  13.770  66.509  1.00  0.00     0.000 HD 
BRANCH  13  15
HETATM   15  C   UNL     1     -11.250  14.771  66.054  1.00  0.00    -0.341 A  
HETATM   16  C   UNL     1     -10.594  15.378  65.006  1.00  0.00    -0.445 A  
HETATM   17  C   UNL     1      -9.771  16.340  65.604  1.00  0.00    -0.171 A  
HETATM   18  N   UNL     1      -9.897  16.366  66.927  1.00  0.00    -0.252 NA 
HETATM   19  N   UNL     1     -10.787  15.375  67.230  1.00  0.00    -0.312 NA 
BRANCH  19  20
HETATM   20  C   UNL     1     -11.127  15.142  68.598  1.00  0.00    -0.271 A  
HETATM   21  C   UNL     1     -11.463  13.840  69.010  1.00  0.00    -0.349 A  
HETATM   22  C   UNL     1     -11.846  13.584  70.329  1.00  0.00    -0.327 A  
HETATM   23  C   UNL     1     -11.913  14.623  71.252  1.00  0.00    -0.401 A  
HETATM   24  C   UNL     1     -11.568  15.912  70.861  1.00  0.00    -0.456 A  
HETATM   25  C   UNL     1     -11.157  16.165  69.549  1.00  0.00    -0.344 A  
ENDBRANCH  19  20
ENDBRANCH  13  15
ENDBRANCH  10  13
ENDBRANCH   7  10
TORSDOF 4
ENDMDL
MODEL      122
REMARK 921   NORMALIZED FREE ENERGY PREDICTED BY IDOCK:   -5.28 KCAL/MOL
REMARK 922        TOTAL FREE ENERGY PREDICTED BY IDOCK:   -7.26 KCAL/MOL
REMARK 923 INTER-LIGAND FREE ENERGY PREDICTED BY IDOCK:   -6.38 KCAL/MOL
REMARK 924 INTRA-LIGAND FREE ENERGY PREDICTED BY IDOCK:   -0.87 KCAL/MOL
REMARK 927      BINDING AFFINITY PREDICTED BY RF-SCORE:    0.00 PKD
ROOT
HETATM    1  N   UNL     1      -7.892  11.262  66.229  1.00  0.00    -0.316 NA 
HETATM    2  H2  UNL     1      -6.950  11.059  65.896  1.00  0.00     0.000 HD 
HETATM    3  C   UNL     1      -8.464  10.072  66.684  1.00  0.00    -0.125 A  
HETATM    4  H1  UNL     1      -8.367  11.824  65.524  1.00  0.00     0.000 HD 
HETATM    5  C   UNL     1      -7.812   9.302  67.652  1.00  0.00    -0.096 A  
HETATM    6  C   UNL     1      -8.412   8.158  68.186  1.00  0.00    -0.126 A  
HETATM    7  C   UNL     1      -9.703   7.813  67.783  1.00  0.00    -0.153 A  
HETATM    8  C   UNL     1     -10.398   8.611  66.871  1.00  0.00    -0.355 A  
HETATM    9  C   UNL     1      -9.782   9.751  66.343  1.00  0.00    -0.275 A  
ENDROOT
BRANCH   7  10
HETATM   10  S   UNL     1     -10.432   6.285  68.359  1.00  0.00    -0.256 S  
HETATM   11  O   UNL     1     -11.018   5.669  67.188  1.00  0.00    -0.218 OA 
HETATM   12  O   UNL     1      -9.406   5.594  69.111  1.00  0.00    -0.120 OA 
BRANCH  10  13
HETATM   13  N   UNL     1     -11.622   6.827  69.340  1.00  0.00    -0.624 N  
HETATM   14  H   UNL     1     -12.547   6.989  68.942  1.00  0.00     0.000 HD 
BRANCH  13  15
HETATM   15  C   UNL     1     -11.427   7.075  70.692  1.00  0.00    -0.324 A  
HETATM   16  C   UNL     1     -11.078   6.079  71.578  1.00  0.00    -0.336 A  
HETATM   17  C   UNL     1     -10.878   6.737  72.798  1.00  0.00    -0.262 A  
HETATM   18  N   UNL     1     -11.063   8.050  72.705  1.00  0.00    -0.371 NA 
HETATM   19  N   UNL     1     -11.438   8.277  71.411  1.00  0.00    -0.260 NA 
BRANCH  19  20
HETATM   20  C   UNL     1     -11.723   9.613  70.995  1.00  0.00    -0.353 A  
HETATM   21  C   UNL     1     -10.903  10.220  70.027  1.00  0.00    -0.364 A  
HETATM   22  C   UNL     1     -11.123  11.542  69.630  1.00  0.00    -0.211 A  
HETATM   23  C   UNL     1     -12.155  12.280  70.201  1.00  0.00    -0.364 A  
HETATM   24  C   UNL     1     -12.983  11.686  71.146  1.00  0.00    -0.308 A  
HETATM   25  C   UNL     1     -12.782  10.355  71.524  1.00  0.00    -0.564 A  
ENDBRANCH  19  20
ENDBRANCH  13  15
ENDBRANCH  10  13
ENDBRANCH   7  10
TORSDOF 4
ENDMDL
MODEL      123
REMARK 921   NORMALIZED FREE ENERGY PREDICTED BY IDOCK:   -5.27 KCAL/MOL
REMARK 922        TOTAL FREE ENERGY PREDICTED BY IDOCK:   -7.24 KCAL/MOL
REMARK 923 INTER-LIGAND FREE ENERGY PREDICTED BY IDOCK:   -6.34 KCAL/MOL
REMARK 924 INTRA-LIGAND FREE ENERGY PREDICTED BY IDOCK:   -0.91 KCAL/MOL
REMARK 927      BINDING AFFINITY PREDICTED BY RF-SCORE:    0.00 PKD
ROOT
HETATM    1  N   UNL     1      -8.447   7.230  64.376  1.00  0.00    -0.359 NA 
HETATM    2  H2  UNL     1      -7.523   6.838  64.194  1.00  0.00     0.000 HD 
HETATM    3  C   UNL     1      -8.287   8.425  65.081  1.00  0.00    -0.167 A  
HETATM    4  H1  UNL     1      -9.042   6.490  64.747  1.00  0.00     0.000 HD 
HETATM    5  C   UNL     1      -7.471   9.439  64.571  1.00  0.00    -0.105 A  
HETATM    6  C   UNL     1      -7.373  10.676  65.216  1.00  0.00     0.015 A  
HETATM    7  C   UNL     1      -8.142  10.916  66.355  1.00  0.00    -0.164 A  
HETATM    8  C   UNL     1      -9.018   9.939  66.837  1.00  0.00    -0.154 A  
HETATM    9  C   UNL     1      -9.102   8.705  66.183  1.00  0.00    -0.250 A  
ENDROOT
BRANCH   7  10
HETATM   10  S   UNL     1      -7.932  12.442  67.262  1.00  0.00    -0.161 S  
HETATM   11  O   UNL     1      -8.498  12.197  68.571  1.00  0.00    -0.151 OA 
HETATM   12  O   UNL     1      -6.539  12.814  67.129  1.00  0.00    -0.134 OA 
BRANCH  10  13
HETATM   13  N   UNL     1      -8.900  13.464  66.433  1.00  0.00    -0.448 N  
HETATM   14  H   UNL     1      -8.582  14.421  66.280  1.00  0.00     0.000 HD 
BRANCH  13  15
HETATM   15  C   UNL     1     -10.137  13.086  65.931  1.00  0.00    -0.288 A  
HETATM   16  C   UNL     1     -10.366  12.933  64.581  1.00  0.00    -0.366 A  
HETATM   17  C   UNL     1     -11.678  12.454  64.489  1.00  0.00    -0.362 A  
HETATM   18  N   UNL     1     -12.245  12.292  65.681  1.00  0.00    -0.597 NA 
HETATM   19  N   UNL     1     -11.315  12.711  66.590  1.00  0.00    -0.308 NA 
BRANCH  19  20
HETATM   20  C   UNL     1     -11.636  12.670  67.981  1.00  0.00    -0.343 A  
HETATM   21  C   UNL     1     -11.732  11.423  68.626  1.00  0.00    -0.394 A  
HETATM   22  C   UNL     1     -12.089  11.342  69.974  1.00  0.00    -0.425 A  
HETATM   23  C   UNL     1     -12.369  12.499  70.694  1.00  0.00    -0.369 A  
HETATM   24  C   UNL     1     -12.262  13.737  70.072  1.00  0.00    -0.407 A  
HETATM   25  C   UNL     1     -11.877  13.823  68.731  1.00  0.00    -0.398 A  
ENDBRANCH  19  20
ENDBRANCH  13  15
ENDBRANCH  10  13
ENDBRANCH   7  10
TORSDOF 4
ENDMDL
MODEL      124
REMARK 921   NORMALIZED FREE ENERGY PREDICTED BY IDOCK:   -5.27 KCAL/MOL
REMARK 922        TOTAL FREE ENERGY PREDICTED BY IDOCK:   -7.24 KCAL/MOL
REMARK 923 INTER-LIGAND FREE ENERGY PREDICTED BY IDOCK:   -6.45 KCAL/MOL
REMARK 924 INTRA-LIGAND FREE ENERGY PREDICTED BY IDOCK:   -0.79 KCAL/MOL
REMARK 927      BINDING AFFINITY PREDICTED BY RF-SCORE:    0.00 PKD
ROOT
HETATM    1  N   UNL     1     -12.320  13.965  63.215  1.00  0.00    -1.148 NA 
HETATM    2  H2  UNL     1     -11.990  14.910  63.415  1.00  0.00     0.000 HD 
HETATM    3  C   UNL     1     -11.633  13.076  64.045  1.00  0.00    -0.430 A  
HETATM    4  H1  UNL     1     -12.317  13.831  62.204  1.00  0.00     0.000 HD 
HETATM    5  C   UNL     1     -11.638  13.259  65.430  1.00  0.00    -0.346 A  
HETATM    6  C   UNL     1     -11.036  12.328  66.281  1.00  0.00    -0.327 A  
HETATM    7  C   UNL     1     -10.469  11.173  65.740  1.00  0.00    -0.246 A  
HETATM    8  C   UNL     1     -10.519  10.938  64.363  1.00  0.00    -0.403 A  
HETATM    9  C   UNL     1     -11.122  11.882  63.524  1.00  0.00    -0.506 A  
ENDROOT
BRANCH   7  10
HETATM   10  S   UNL     1      -9.584  10.038  66.800  1.00  0.00    -0.190 S  
HETATM   11  O   UNL     1      -8.180  10.292  66.555  1.00  0.00    -0.122 OA 
HETATM   12  O   UNL     1     -10.132  10.202  68.130  1.00  0.00    -0.145 OA 
BRANCH  10  13
HETATM   13  N   UNL     1      -9.993   8.591  66.164  1.00  0.00    -0.468 N  
HETATM   14  H   UNL     1     -10.803   8.540  65.547  1.00  0.00     0.000 HD 
BRANCH  13  15
HETATM   15  C   UNL     1      -9.284   7.427  66.427  1.00  0.00    -0.159 A  
HETATM   16  C   UNL     1      -8.425   6.865  65.508  1.00  0.00    -0.122 A  
HETATM   17  C   UNL     1      -7.839   5.783  66.175  1.00  0.00    -0.101 A  
HETATM   18  N   UNL     1      -8.268   5.666  67.428  1.00  0.00    -0.102 NA 
HETATM   19  N   UNL     1      -9.193   6.658  67.594  1.00  0.00    -0.112 NA 
BRANCH  19  20
HETATM   20  C   UNL     1      -9.853   6.787  68.854  1.00  0.00    -0.145 A  
HETATM   21  C   UNL     1      -9.147   7.323  69.947  1.00  0.00    -0.141 A  
HETATM   22  C   UNL     1      -9.746   7.422  71.206  1.00  0.00    -0.171 A  
HETATM   23  C   UNL     1     -11.050   6.976  71.396  1.00  0.00    -0.274 A  
HETATM   24  C   UNL     1     -11.763   6.461  70.321  1.00  0.00    -0.389 A  
HETATM   25  C   UNL     1     -11.176   6.387  69.054  1.00  0.00    -0.402 A  
ENDBRANCH  19  20
ENDBRANCH  13  15
ENDBRANCH  10  13
ENDBRANCH   7  10
TORSDOF 4
ENDMDL
MODEL      125
REMARK 921   NORMALIZED FREE ENERGY PREDICTED BY IDOCK:   -5.27 KCAL/MOL
REMARK 922        TOTAL FREE ENERGY PREDICTED BY IDOCK:   -7.24 KCAL/MOL
REMARK 923 INTER-LIGAND FREE ENERGY PREDICTED BY IDOCK:   -6.30 KCAL/MOL
REMARK 924 INTRA-LIGAND FREE ENERGY PREDICTED BY IDOCK:   -0.94 KCAL/MOL
REMARK 927      BINDING AFFINITY PREDICTED BY RF-SCORE:    0.00 PKD
ROOT
HETATM    1  N   UNL     1      -6.197  11.591  66.150  1.00  0.00    -0.424 NA 
HETATM    2  H2  UNL     1      -5.278  11.752  66.564  1.00  0.00     0.000 HD 
HETATM    3  C   UNL     1      -6.929  10.773  67.013  1.00  0.00    -0.100 A  
HETATM    4  H1  UNL     1      -6.067  11.323  65.175  1.00  0.00     0.000 HD 
HETATM    5  C   UNL     1      -7.107  11.140  68.350  1.00  0.00    -0.076 A  
HETATM    6  C   UNL     1      -7.915  10.382  69.203  1.00  0.00    -0.141 A  
HETATM    7  C   UNL     1      -8.593   9.273  68.696  1.00  0.00    -0.127 A  
HETATM    8  C   UNL     1      -8.484   8.933  67.345  1.00  0.00    -0.115 A  
HETATM    9  C   UNL     1      -7.669   9.700  66.504  1.00  0.00    -0.098 A  
ENDROOT
BRANCH   7  10
HETATM   10  S   UNL     1      -9.524   8.221  69.801  1.00  0.00    -0.163 S  
HETATM   11  O   UNL     1     -10.681   7.791  69.045  1.00  0.00    -0.195 OA 
HETATM   12  O   UNL     1      -8.593   7.245  70.327  1.00  0.00    -0.139 OA 
BRANCH  10  13
HETATM   13  N   UNL     1      -9.994   9.276  70.957  1.00  0.00    -0.292 N  
HETATM   14  H   UNL     1      -9.286   9.862  71.400  1.00  0.00     0.000 HD 
BRANCH  13  15
HETATM   15  C   UNL     1     -11.315   9.409  71.362  1.00  0.00    -0.381 A  
HETATM   16  C   UNL     1     -11.921   8.499  72.201  1.00  0.00    -0.451 A  
HETATM   17  C   UNL     1     -13.193   9.029  72.449  1.00  0.00    -0.447 A  
HETATM   18  N   UNL     1     -13.386  10.194  71.839  1.00  0.00    -0.418 NA 
HETATM   19  N   UNL     1     -12.243  10.432  71.130  1.00  0.00    -0.368 NA 
BRANCH  19  20
HETATM   20  C   UNL     1     -12.147  11.622  70.347  1.00  0.00    -0.373 A  
HETATM   21  C   UNL     1     -11.826  11.521  68.981  1.00  0.00    -0.408 A  
HETATM   22  C   UNL     1     -11.678  12.667  68.195  1.00  0.00    -0.396 A  
HETATM   23  C   UNL     1     -11.834  13.928  68.761  1.00  0.00    -0.396 A  
HETATM   24  C   UNL     1     -12.167  14.041  70.105  1.00  0.00    -0.425 A  
HETATM   25  C   UNL     1     -12.344  12.895  70.888  1.00  0.00    -0.365 A  
ENDBRANCH  19  20
ENDBRANCH  13  15
ENDBRANCH  10  13
ENDBRANCH   7  10
TORSDOF 4
ENDMDL
MODEL      126
REMARK 921   NORMALIZED FREE ENERGY PREDICTED BY IDOCK:   -5.27 KCAL/MOL
REMARK 922        TOTAL FREE ENERGY PREDICTED BY IDOCK:   -7.24 KCAL/MOL
REMARK 923 INTER-LIGAND FREE ENERGY PREDICTED BY IDOCK:   -6.27 KCAL/MOL
REMARK 924 INTRA-LIGAND FREE ENERGY PREDICTED BY IDOCK:   -0.96 KCAL/MOL
REMARK 927      BINDING AFFINITY PREDICTED BY RF-SCORE:    0.00 PKD
ROOT
HETATM    1  N   UNL     1     -12.196  13.944  63.090  1.00  0.00    -1.066 NA 
HETATM    2  H2  UNL     1     -11.914  13.206  62.444  1.00  0.00     0.000 HD 
HETATM    3  C   UNL     1     -11.888  13.533  64.388  1.00  0.00    -0.414 A  
HETATM    4  H1  UNL     1     -13.145  14.231  62.853  1.00  0.00     0.000 HD 
HETATM    5  C   UNL     1     -10.587  13.139  64.713  1.00  0.00    -0.390 A  
HETATM    6  C   UNL     1     -10.240  12.814  66.027  1.00  0.00    -0.290 A  
HETATM    7  C   UNL     1     -11.195  12.937  67.037  1.00  0.00    -0.288 A  
HETATM    8  C   UNL     1     -12.481  13.398  66.743  1.00  0.00    -0.162 A  
HETATM    9  C   UNL     1     -12.814  13.716  65.421  1.00  0.00    -0.440 A  
ENDROOT
BRANCH   7  10
HETATM   10  S   UNL     1     -10.804  12.404  68.698  1.00  0.00    -0.237 S  
HETATM   11  O   UNL     1     -11.950  11.639  69.140  1.00  0.00    -0.323 OA 
HETATM   12  O   UNL     1      -9.495  11.786  68.637  1.00  0.00    -0.178 OA 
BRANCH  10  13
HETATM   13  N   UNL     1     -10.753  13.823  69.506  1.00  0.00    -0.446 N  
HETATM   14  H   UNL     1     -11.056  13.841  70.480  1.00  0.00     0.000 HD 
BRANCH  13  15
HETATM   15  C   UNL     1     -10.317  15.004  68.923  1.00  0.00    -0.244 A  
HETATM   16  C   UNL     1     -11.177  16.038  68.624  1.00  0.00    -0.366 A  
HETATM   17  C   UNL     1     -10.354  17.068  68.154  1.00  0.00    -0.347 A  
HETATM   18  N   UNL     1      -9.067  16.736  68.166  1.00  0.00    -0.221 NA 
HETATM   19  N   UNL     1      -9.024  15.445  68.609  1.00  0.00    -0.181 NA 
BRANCH  19  20
HETATM   20  C   UNL     1      -7.760  14.791  68.723  1.00  0.00    -0.136 A  
HETATM   21  C   UNL     1      -7.140  14.289  67.564  1.00  0.00    -0.189 A  
HETATM   22  C   UNL     1      -5.925  13.603  67.643  1.00  0.00    -0.085 A  
HETATM   23  C   UNL     1      -5.318  13.397  68.878  1.00  0.00    -0.073 A  
HETATM   24  C   UNL     1      -5.912  13.902  70.029  1.00  0.00    -0.143 A  
HETATM   25  C   UNL     1      -7.114  14.613  69.949  1.00  0.00    -0.056 A  
ENDBRANCH  19  20
ENDBRANCH  13  15
ENDBRANCH  10  13
ENDBRANCH   7  10
TORSDOF 4
ENDMDL
MODEL      127
REMARK 921   NORMALIZED FREE ENERGY PREDICTED BY IDOCK:   -5.27 KCAL/MOL
REMARK 922        TOTAL FREE ENERGY PREDICTED BY IDOCK:   -7.23 KCAL/MOL
REMARK 923 INTER-LIGAND FREE ENERGY PREDICTED BY IDOCK:   -5.32 KCAL/MOL
REMARK 924 INTRA-LIGAND FREE ENERGY PREDICTED BY IDOCK:   -1.92 KCAL/MOL
REMARK 927      BINDING AFFINITY PREDICTED BY RF-SCORE:    0.00 PKD
ROOT
HETATM    1  N   UNL     1      -6.975   8.768  64.846  1.00  0.00    -0.073 NA 
HETATM    2  H2  UNL     1      -7.215   8.687  63.858  1.00  0.00     0.000 HD 
HETATM    3  C   UNL     1      -7.885   9.637  65.451  1.00  0.00    -0.117 A  
HETATM    4  H1  UNL     1      -5.972   8.940  64.920  1.00  0.00     0.000 HD 
HETATM    5  C   UNL     1      -9.259   9.400  65.351  1.00  0.00    -0.305 A  
HETATM    6  C   UNL     1     -10.180  10.205  66.027  1.00  0.00    -0.288 A  
HETATM    7  C   UNL     1      -9.715  11.228  66.855  1.00  0.00    -0.192 A  
HETATM    8  C   UNL     1      -8.343  11.434  67.024  1.00  0.00    -0.161 A  
HETATM    9  C   UNL     1      -7.434  10.621  66.337  1.00  0.00    -0.138 A  
ENDROOT
BRANCH   7  10
HETATM   10  S   UNL     1     -10.880  12.346  67.623  1.00  0.00    -0.234 S  
HETATM   11  O   UNL     1     -10.448  13.675  67.247  1.00  0.00    -0.257 OA 
HETATM   12  O   UNL     1     -12.202  11.879  67.260  1.00  0.00    -0.495 OA 
BRANCH  10  13
HETATM   13  N   UNL     1     -10.581  12.107  69.211  1.00  0.00    -0.439 N  
HETATM   14  H   UNL     1      -9.844  12.653  69.657  1.00  0.00     0.000 HD 
BRANCH  13  15
HETATM   15  C   UNL     1     -11.288  11.192  69.979  1.00  0.00    -0.243 A  
HETATM   16  C   UNL     1     -12.397  11.551  70.714  1.00  0.00    -0.472 A  
HETATM   17  C   UNL     1     -12.876  10.352  71.255  1.00  0.00    -0.433 A  
HETATM   18  N   UNL     1     -12.149   9.302  70.885  1.00  0.00    -0.267 NA 
HETATM   19  N   UNL     1     -11.137   9.807  70.119  1.00  0.00    -0.267 NA 
BRANCH  19  20
HETATM   20  C   UNL     1     -10.166   8.912  69.574  1.00  0.00    -0.204 A  
HETATM   21  C   UNL     1      -8.801   9.163  69.795  1.00  0.00    -0.165 A  
HETATM   22  C   UNL     1      -7.822   8.336  69.238  1.00  0.00    -0.108 A  
HETATM   23  C   UNL     1      -8.190   7.255  68.443  1.00  0.00    -0.125 A  
HETATM   24  C   UNL     1      -9.537   6.986  68.231  1.00  0.00    -0.134 A  
HETATM   25  C   UNL     1     -10.519   7.796  68.810  1.00  0.00    -0.201 A  
ENDBRANCH  19  20
ENDBRANCH  13  15
ENDBRANCH  10  13
ENDBRANCH   7  10
TORSDOF 4
ENDMDL
MODEL      128
REMARK 921   NORMALIZED FREE ENERGY PREDICTED BY IDOCK:   -5.27 KCAL/MOL
REMARK 922        TOTAL FREE ENERGY PREDICTED BY IDOCK:   -7.23 KCAL/MOL
REMARK 923 INTER-LIGAND FREE ENERGY PREDICTED BY IDOCK:   -6.06 KCAL/MOL
REMARK 924 INTRA-LIGAND FREE ENERGY PREDICTED BY IDOCK:   -1.18 KCAL/MOL
REMARK 927      BINDING AFFINITY PREDICTED BY RF-SCORE:    0.00 PKD
ROOT
HETATM    1  N   UNL     1      -8.409   7.030  72.327  1.00  0.00    -0.110 NA 
HETATM    2  H2  UNL     1      -7.478   7.395  72.528  1.00  0.00     0.000 HD 
HETATM    3  C   UNL     1      -9.180   8.064  71.792  1.00  0.00    -0.161 A  
HETATM    4  H1  UNL     1      -8.735   6.515  73.145  1.00  0.00     0.000 HD 
HETATM    5  C   UNL     1      -8.733   8.768  70.671  1.00  0.00    -0.208 A  
HETATM    6  C   UNL     1      -9.533   9.742  70.066  1.00  0.00    -0.278 A  
HETATM    7  C   UNL     1     -10.818   9.974  70.560  1.00  0.00    -0.314 A  
HETATM    8  C   UNL     1     -11.309   9.229  71.635  1.00  0.00    -0.467 A  
HETATM    9  C   UNL     1     -10.494   8.260  72.232  1.00  0.00    -0.392 A  
ENDROOT
BRANCH   7  10
HETATM   10  S   UNL     1     -11.802  11.302  69.880  1.00  0.00    -0.388 S  
HETATM   11  O   UNL     1     -12.428  10.755  68.695  1.00  0.00    -0.348 OA 
HETATM   12  O   UNL     1     -12.615  11.813  70.964  1.00  0.00    -0.374 OA 
BRANCH  10  13
HETATM   13  N   UNL     1     -10.657  12.381  69.439  1.00  0.00    -0.423 N  
HETATM   14  H   UNL     1      -9.899  12.583  70.091  1.00  0.00     0.000 HD 
BRANCH  13  15
HETATM   15  C   UNL     1     -10.672  13.034  68.214  1.00  0.00    -0.245 A  
HETATM   16  C   UNL     1     -11.219  14.289  68.057  1.00  0.00    -0.300 A  
HETATM   17  C   UNL     1     -10.951  14.636  66.728  1.00  0.00    -0.323 A  
HETATM   18  N   UNL     1     -10.271  13.693  66.083  1.00  0.00    -0.297 NA 
HETATM   19  N   UNL     1     -10.116  12.674  66.980  1.00  0.00    -0.223 NA 
BRANCH  19  20
HETATM   20  C   UNL     1      -9.423  11.493  66.575  1.00  0.00    -0.204 A  
HETATM   21  C   UNL     1     -10.121  10.495  65.871  1.00  0.00    -0.323 A  
HETATM   22  C   UNL     1      -9.487   9.306  65.500  1.00  0.00    -0.309 A  
HETATM   23  C   UNL     1      -8.155   9.090  65.836  1.00  0.00    -0.108 A  
HETATM   24  C   UNL     1      -7.449  10.076  66.516  1.00  0.00    -0.105 A  
HETATM   25  C   UNL     1      -8.073  11.278  66.864  1.00  0.00    -0.155 A  
ENDBRANCH  19  20
ENDBRANCH  13  15
ENDBRANCH  10  13
ENDBRANCH   7  10
TORSDOF 4
ENDMDL
MODEL      129
REMARK 921   NORMALIZED FREE ENERGY PREDICTED BY IDOCK:   -5.27 KCAL/MOL
REMARK 922        TOTAL FREE ENERGY PREDICTED BY IDOCK:   -7.23 KCAL/MOL
REMARK 923 INTER-LIGAND FREE ENERGY PREDICTED BY IDOCK:   -5.38 KCAL/MOL
REMARK 924 INTRA-LIGAND FREE ENERGY PREDICTED BY IDOCK:   -1.85 KCAL/MOL
REMARK 927      BINDING AFFINITY PREDICTED BY RF-SCORE:    0.00 PKD
ROOT
HETATM    1  N   UNL     1      -8.300   4.791  72.401  1.00  0.00    -0.114 NA 
HETATM    2  H2  UNL     1      -7.792   5.543  72.866  1.00  0.00     0.000 HD 
HETATM    3  C   UNL     1      -8.724   5.253  71.153  1.00  0.00    -0.128 A  
HETATM    4  H1  UNL     1      -8.974   4.403  73.061  1.00  0.00     0.000 HD 
HETATM    5  C   UNL     1      -7.800   5.785  70.248  1.00  0.00    -0.100 A  
HETATM    6  C   UNL     1      -8.191   6.166  68.961  1.00  0.00    -0.112 A  
HETATM    7  C   UNL     1      -9.511   5.962  68.559  1.00  0.00    -0.121 A  
HETATM    8  C   UNL     1     -10.431   5.365  69.425  1.00  0.00    -0.331 A  
HETATM    9  C   UNL     1     -10.025   4.992  70.712  1.00  0.00    -0.291 A  
ENDROOT
BRANCH   7  10
HETATM   10  S   UNL     1     -10.055   6.560  66.965  1.00  0.00    -0.200 S  
HETATM   11  O   UNL     1      -8.865   7.061  66.311  1.00  0.00    -0.140 OA 
HETATM   12  O   UNL     1     -10.822   5.491  66.361  1.00  0.00    -0.270 OA 
BRANCH  10  13
HETATM   13  N   UNL     1     -11.014   7.815  67.383  1.00  0.00    -0.531 N  
HETATM   14  H   UNL     1     -12.025   7.687  67.356  1.00  0.00     0.000 HD 
BRANCH  13  15
HETATM   15  C   UNL     1     -10.510   9.048  67.773  1.00  0.00    -0.245 A  
HETATM   16  C   UNL     1     -10.152  10.017  66.862  1.00  0.00    -0.287 A  
HETATM   17  C   UNL     1      -9.795  11.128  67.636  1.00  0.00    -0.174 A  
HETATM   18  N   UNL     1      -9.930  10.903  68.940  1.00  0.00    -0.196 NA 
HETATM   19  N   UNL     1     -10.341   9.604  69.048  1.00  0.00    -0.197 NA 
BRANCH  19  20
HETATM   20  C   UNL     1     -10.566   9.053  70.346  1.00  0.00    -0.218 A  
HETATM   21  C   UNL     1      -9.487   8.942  71.241  1.00  0.00    -0.343 A  
HETATM   22  C   UNL     1      -9.660   8.366  72.503  1.00  0.00    -0.358 A  
HETATM   23  C   UNL     1     -10.907   7.880  72.883  1.00  0.00    -0.451 A  
HETATM   24  C   UNL     1     -11.985   7.999  72.015  1.00  0.00    -0.375 A  
HETATM   25  C   UNL     1     -11.821   8.601  70.763  1.00  0.00    -0.197 A  
ENDBRANCH  19  20
ENDBRANCH  13  15
ENDBRANCH  10  13
ENDBRANCH   7  10
TORSDOF 4
ENDMDL
MODEL      130
REMARK 921   NORMALIZED FREE ENERGY PREDICTED BY IDOCK:   -5.26 KCAL/MOL
REMARK 922        TOTAL FREE ENERGY PREDICTED BY IDOCK:   -7.23 KCAL/MOL
REMARK 923 INTER-LIGAND FREE ENERGY PREDICTED BY IDOCK:   -6.83 KCAL/MOL
REMARK 924 INTRA-LIGAND FREE ENERGY PREDICTED BY IDOCK:   -0.39 KCAL/MOL
REMARK 927      BINDING AFFINITY PREDICTED BY RF-SCORE:    0.00 PKD
ROOT
HETATM    1  N   UNL     1     -11.754  16.227  71.320  1.00  0.00    -0.624 NA 
HETATM    2  H2  UNL     1     -11.245  15.632  71.973  1.00  0.00     0.000 HD 
HETATM    3  C   UNL     1     -11.663  15.662  70.046  1.00  0.00    -0.357 A  
HETATM    4  H1  UNL     1     -11.467  17.193  71.475  1.00  0.00     0.000 HD 
HETATM    5  C   UNL     1     -12.057  14.338  69.834  1.00  0.00    -0.404 A  
HETATM    6  C   UNL     1     -12.060  13.785  68.550  1.00  0.00    -0.327 A  
HETATM    7  C   UNL     1     -11.715  14.586  67.460  1.00  0.00    -0.386 A  
HETATM    8  C   UNL     1     -11.388  15.932  67.646  1.00  0.00    -0.151 A  
HETATM    9  C   UNL     1     -11.386  16.469  68.938  1.00  0.00    -0.206 A  
ENDROOT
BRANCH   7  10
HETATM   10  S   UNL     1     -11.591  13.860  65.831  1.00  0.00    -0.354 S  
HETATM   11  O   UNL     1     -12.947  13.535  65.446  1.00  0.00    -0.656 OA 
HETATM   12  O   UNL     1     -10.805  14.775  65.029  1.00  0.00    -0.372 OA 
BRANCH  10  13
HETATM   13  N   UNL     1     -10.768  12.482  66.136  1.00  0.00    -0.257 N  
HETATM   14  H   UNL     1     -10.557  12.243  67.105  1.00  0.00     0.000 HD 
BRANCH  13  15
HETATM   15  C   UNL     1     -10.343  11.623  65.132  1.00  0.00    -0.279 A  
HETATM   16  C   UNL     1     -10.383  11.973  63.800  1.00  0.00    -0.457 A  
HETATM   17  C   UNL     1      -9.786  10.900  63.127  1.00  0.00    -0.363 A  
HETATM   18  N   UNL     1      -9.375   9.945  63.956  1.00  0.00    -0.264 NA 
HETATM   19  N   UNL     1      -9.742  10.359  65.205  1.00  0.00    -0.267 NA 
BRANCH  19  20
HETATM   20  C   UNL     1      -9.444   9.528  66.327  1.00  0.00    -0.210 A  
HETATM   21  C   UNL     1      -8.402   9.898  67.197  1.00  0.00    -0.121 A  
HETATM   22  C   UNL     1      -8.052   9.085  68.279  1.00  0.00    -0.109 A  
HETATM   23  C   UNL     1      -8.726   7.889  68.501  1.00  0.00    -0.131 A  
HETATM   24  C   UNL     1      -9.768   7.520  67.658  1.00  0.00    -0.182 A  
HETATM   25  C   UNL     1     -10.139   8.346  66.592  1.00  0.00    -0.358 A  
ENDBRANCH  19  20
ENDBRANCH  13  15
ENDBRANCH  10  13
ENDBRANCH   7  10
TORSDOF 4
ENDMDL
MODEL      131
REMARK 921   NORMALIZED FREE ENERGY PREDICTED BY IDOCK:   -5.25 KCAL/MOL
REMARK 922        TOTAL FREE ENERGY PREDICTED BY IDOCK:   -7.21 KCAL/MOL
REMARK 923 INTER-LIGAND FREE ENERGY PREDICTED BY IDOCK:   -6.33 KCAL/MOL
REMARK 924 INTRA-LIGAND FREE ENERGY PREDICTED BY IDOCK:   -0.88 KCAL/MOL
REMARK 927      BINDING AFFINITY PREDICTED BY RF-SCORE:    0.00 PKD
ROOT
HETATM    1  N   UNL     1      -8.951   8.469  66.108  1.00  0.00    -0.168 NA 
HETATM    2  H2  UNL     1      -7.980   8.558  65.810  1.00  0.00     0.000 HD 
HETATM    3  C   UNL     1      -9.577   9.706  65.944  1.00  0.00    -0.257 A  
HETATM    4  H1  UNL     1      -8.967   8.000  67.013  1.00  0.00     0.000 HD 
HETATM    5  C   UNL     1      -9.555  10.348  64.702  1.00  0.00    -0.360 A  
HETATM    6  C   UNL     1     -10.255  11.541  64.496  1.00  0.00    -0.338 A  
HETATM    7  C   UNL     1     -11.027  12.068  65.532  1.00  0.00    -0.298 A  
HETATM    8  C   UNL     1     -11.119  11.402  66.757  1.00  0.00    -0.343 A  
HETATM    9  C   UNL     1     -10.410  10.210  66.949  1.00  0.00    -0.298 A  
ENDROOT
BRANCH   7  10
HETATM   10  S   UNL     1     -11.822  13.655  65.325  1.00  0.00    -0.370 S  
HETATM   11  O   UNL     1     -12.773  13.477  64.248  1.00  0.00    -0.645 OA 
HETATM   12  O   UNL     1     -12.277  14.065  66.638  1.00  0.00    -0.442 OA 
BRANCH  10  13
HETATM   13  N   UNL     1     -10.585  14.589  64.808  1.00  0.00    -0.552 N  
HETATM   14  H   UNL     1      -9.981  14.233  64.067  1.00  0.00     0.000 HD 
BRANCH  13  15
HETATM   15  C   UNL     1     -10.320  15.845  65.335  1.00  0.00    -0.372 A  
HETATM   16  C   UNL     1     -11.121  16.936  65.073  1.00  0.00     0.004 A  
HETATM   17  C   UNL     1     -10.590  17.969  65.854  1.00  0.00    -0.219 A  
HETATM   18  N   UNL     1      -9.545  17.576  66.576  1.00  0.00    -0.275 NA 
HETATM   19  N   UNL     1      -9.340  16.267  66.243  1.00  0.00    -0.301 NA 
BRANCH  19  20
HETATM   20  C   UNL     1      -8.264  15.555  66.855  1.00  0.00    -0.252 A  
HETATM   21  C   UNL     1      -7.125  16.265  67.278  1.00  0.00    -0.226 A  
HETATM   22  C   UNL     1      -6.033  15.596  67.838  1.00  0.00    -0.163 A  
HETATM   23  C   UNL     1      -6.056  14.211  67.973  1.00  0.00    -0.149 A  
HETATM   24  C   UNL     1      -7.183  13.501  67.575  1.00  0.00    -0.165 A  
HETATM   25  C   UNL     1      -8.287  14.171  67.040  1.00  0.00    -0.142 A  
ENDBRANCH  19  20
ENDBRANCH  13  15
ENDBRANCH  10  13
ENDBRANCH   7  10
TORSDOF 4
ENDMDL
MODEL      132
REMARK 921   NORMALIZED FREE ENERGY PREDICTED BY IDOCK:   -5.23 KCAL/MOL
REMARK 922        TOTAL FREE ENERGY PREDICTED BY IDOCK:   -7.19 KCAL/MOL
REMARK 923 INTER-LIGAND FREE ENERGY PREDICTED BY IDOCK:   -6.57 KCAL/MOL
REMARK 924 INTRA-LIGAND FREE ENERGY PREDICTED BY IDOCK:   -0.62 KCAL/MOL
REMARK 927      BINDING AFFINITY PREDICTED BY RF-SCORE:    0.00 PKD
ROOT
HETATM    1  N   UNL     1      -9.981  12.310  64.939  1.00  0.00    -0.402 NA 
HETATM    2  H2  UNL     1     -10.083  12.219  63.928  1.00  0.00     0.000 HD 
HETATM    3  C   UNL     1     -10.006  11.031  65.500  1.00  0.00    -0.256 A  
HETATM    4  H1  UNL     1     -10.630  13.026  65.264  1.00  0.00     0.000 HD 
HETATM    5  C   UNL     1      -9.117  10.049  65.054  1.00  0.00    -0.255 A  
HETATM    6  C   UNL     1      -9.066   8.793  65.667  1.00  0.00    -0.247 A  
HETATM    7  C   UNL     1      -9.877   8.539  66.773  1.00  0.00    -0.257 A  
HETATM    8  C   UNL     1     -10.720   9.533  67.277  1.00  0.00    -0.269 A  
HETATM    9  C   UNL     1     -10.763  10.784  66.650  1.00  0.00    -0.268 A  
ENDROOT
BRANCH   7  10
HETATM   10  S   UNL     1      -9.916   6.900  67.486  1.00  0.00    -0.163 S  
HETATM   11  O   UNL     1     -10.244   6.009  66.393  1.00  0.00    -0.153 OA 
HETATM   12  O   UNL     1      -8.674   6.735  68.213  1.00  0.00    -0.123 OA 
BRANCH  10  13
HETATM   13  N   UNL     1     -11.190   7.003  68.504  1.00  0.00    -0.494 N  
HETATM   14  H   UNL     1     -12.080   7.340  68.139  1.00  0.00     0.000 HD 
BRANCH  13  15
HETATM   15  C   UNL     1     -11.110   6.652  69.844  1.00  0.00    -0.348 A  
HETATM   16  C   UNL     1     -10.660   5.416  70.254  1.00  0.00    -0.329 A  
HETATM   17  C   UNL     1     -10.633   5.487  71.652  1.00  0.00    -0.231 A  
HETATM   18  N   UNL     1     -11.015   6.676  72.108  1.00  0.00    -0.236 NA 
HETATM   19  N   UNL     1     -11.349   7.404  71.001  1.00  0.00    -0.268 NA 
BRANCH  19  20
HETATM   20  C   UNL     1     -11.816   8.744  71.166  1.00  0.00    -0.295 A  
HETATM   21  C   UNL     1     -12.957   8.981  71.954  1.00  0.00    -0.451 A  
HETATM   22  C   UNL     1     -13.469  10.273  72.100  1.00  0.00    -0.332 A  
HETATM   23  C   UNL     1     -12.860  11.343  71.453  1.00  0.00    -0.502 A  
HETATM   24  C   UNL     1     -11.722  11.125  70.685  1.00  0.00    -0.310 A  
HETATM   25  C   UNL     1     -11.191   9.837  70.561  1.00  0.00    -0.381 A  
ENDBRANCH  19  20
ENDBRANCH  13  15
ENDBRANCH  10  13
ENDBRANCH   7  10
TORSDOF 4
ENDMDL
MODEL      133
REMARK 921   NORMALIZED FREE ENERGY PREDICTED BY IDOCK:   -5.22 KCAL/MOL
REMARK 922        TOTAL FREE ENERGY PREDICTED BY IDOCK:   -7.17 KCAL/MOL
REMARK 923 INTER-LIGAND FREE ENERGY PREDICTED BY IDOCK:   -5.80 KCAL/MOL
REMARK 924 INTRA-LIGAND FREE ENERGY PREDICTED BY IDOCK:   -1.37 KCAL/MOL
REMARK 927      BINDING AFFINITY PREDICTED BY RF-SCORE:    0.00 PKD
ROOT
HETATM    1  N   UNL     1      -8.062   7.268  66.627  1.00  0.00    -0.110 NA 
HETATM    2  H2  UNL     1      -7.116   7.503  66.929  1.00  0.00     0.000 HD 
HETATM    3  C   UNL     1      -8.715   8.449  66.268  1.00  0.00    -0.142 A  
HETATM    4  H1  UNL     1      -8.473   6.642  67.319  1.00  0.00     0.000 HD 
HETATM    5  C   UNL     1      -8.151   9.306  65.319  1.00  0.00    -0.121 A  
HETATM    6  C   UNL     1      -8.834  10.444  64.880  1.00  0.00    -0.209 A  
HETATM    7  C   UNL     1     -10.120  10.696  65.360  1.00  0.00    -0.291 A  
HETATM    8  C   UNL     1     -10.729   9.811  66.254  1.00  0.00     0.044 A  
HETATM    9  C   UNL     1     -10.030   8.678  66.687  1.00  0.00    -0.357 A  
ENDROOT
BRANCH   7  10
HETATM   10  S   UNL     1     -10.954  12.211  64.907  1.00  0.00    -0.320 S  
HETATM   11  O   UNL     1     -10.933  12.249  63.461  1.00  0.00    -0.425 OA 
HETATM   12  O   UNL     1     -12.216  12.218  65.618  1.00  0.00    -0.605 OA 
BRANCH  10  13
HETATM   13  N   UNL     1      -9.936  13.346  65.495  1.00  0.00    -0.446 N  
HETATM   14  H   UNL     1      -9.029  13.468  65.045  1.00  0.00     0.000 HD 
BRANCH  13  15
HETATM   15  C   UNL     1     -10.254  14.150  66.581  1.00  0.00    -0.270 A  
HETATM   16  C   UNL     1     -10.478  15.504  66.451  1.00  0.00    -0.310 A  
HETATM   17  C   UNL     1     -10.863  15.929  67.729  1.00  0.00    -0.324 A  
HETATM   18  N   UNL     1     -10.904  14.931  68.606  1.00  0.00    -0.242 NA 
HETATM   19  N   UNL     1     -10.495  13.822  67.921  1.00  0.00    -0.242 NA 
BRANCH  19  20
HETATM   20  C   UNL     1     -10.421  12.571  68.606  1.00  0.00    -0.200 A  
HETATM   21  C   UNL     1      -9.184  11.908  68.690  1.00  0.00    -0.066 A  
HETATM   22  C   UNL     1      -9.083  10.660  69.312  1.00  0.00    -0.117 A  
HETATM   23  C   UNL     1     -10.215  10.052  69.846  1.00  0.00    -0.304 A  
HETATM   24  C   UNL     1     -11.440  10.705  69.784  1.00  0.00    -0.375 A  
HETATM   25  C   UNL     1     -11.538  11.966  69.187  1.00  0.00    -0.373 A  
ENDBRANCH  19  20
ENDBRANCH  13  15
ENDBRANCH  10  13
ENDBRANCH   7  10
TORSDOF 4
ENDMDL
MODEL      134
REMARK 921   NORMALIZED FREE ENERGY PREDICTED BY IDOCK:   -5.22 KCAL/MOL
REMARK 922        TOTAL FREE ENERGY PREDICTED BY IDOCK:   -7.17 KCAL/MOL
REMARK 923 INTER-LIGAND FREE ENERGY PREDICTED BY IDOCK:   -5.80 KCAL/MOL
REMARK 924 INTRA-LIGAND FREE ENERGY PREDICTED BY IDOCK:   -1.37 KCAL/MOL
REMARK 927      BINDING AFFINITY PREDICTED BY RF-SCORE:    0.00 PKD
ROOT
HETATM    1  N   UNL     1     -10.275  11.817  69.318  1.00  0.00    -0.416 NA 
HETATM    2  H2  UNL     1     -11.272  11.963  69.476  1.00  0.00     0.000 HD 
HETATM    3  C   UNL     1     -10.030  10.443  69.292  1.00  0.00    -0.228 A  
HETATM    4  H1  UNL     1      -9.757  12.420  69.957  1.00  0.00     0.000 HD 
HETATM    5  C   UNL     1     -10.740   9.617  68.416  1.00  0.00    -0.251 A  
HETATM    6  C   UNL     1     -10.443   8.255  68.311  1.00  0.00    -0.211 A  
HETATM    7  C   UNL     1      -9.387   7.726  69.054  1.00  0.00    -0.150 A  
HETATM    8  C   UNL     1      -8.620   8.551  69.881  1.00  0.00    -0.131 A  
HETATM    9  C   UNL     1      -8.932   9.912  69.978  1.00  0.00    -0.206 A  
ENDROOT
BRANCH   7  10
HETATM   10  S   UNL     1      -9.079   5.966  69.028  1.00  0.00    -0.121 S  
HETATM   11  O   UNL     1      -9.087   5.591  67.630  1.00  0.00    -0.109 OA 
HETATM   12  O   UNL     1      -7.899   5.740  69.836  1.00  0.00    -0.085 OA 
BRANCH  10  13
HETATM   13  N   UNL     1     -10.418   5.376  69.755  1.00  0.00    -0.307 N  
HETATM   14  H   UNL     1     -11.205   5.092  69.173  1.00  0.00     0.000 HD 
BRANCH  13  15
HETATM   15  C   UNL     1     -10.529   5.246  71.133  1.00  0.00    -0.205 A  
HETATM   16  C   UNL     1      -9.862   4.265  71.834  1.00  0.00    -0.248 A  
HETATM   17  C   UNL     1     -10.146   4.527  73.180  1.00  0.00    -0.156 A  
HETATM   18  N   UNL     1     -10.917   5.599  73.337  1.00  0.00    -0.274 NA 
HETATM   19  N   UNL     1     -11.194   6.041  72.075  1.00  0.00    -0.276 NA 
BRANCH  19  20
HETATM   20  C   UNL     1     -12.024   7.191  71.909  1.00  0.00    -0.307 A  
HETATM   21  C   UNL     1     -11.479   8.468  72.132  1.00  0.00    -0.446 A  
HETATM   22  C   UNL     1     -12.273   9.614  72.024  1.00  0.00    -0.330 A  
HETATM   23  C   UNL     1     -13.622   9.501  71.706  1.00  0.00    -0.447 A  
HETATM   24  C   UNL     1     -14.169   8.245  71.467  1.00  0.00    -0.489 A  
HETATM   25  C   UNL     1     -13.370   7.101  71.547  1.00  0.00    -0.413 A  
ENDBRANCH  19  20
ENDBRANCH  13  15
ENDBRANCH  10  13
ENDBRANCH   7  10
TORSDOF 4
ENDMDL
MODEL      135
REMARK 921   NORMALIZED FREE ENERGY PREDICTED BY IDOCK:   -5.21 KCAL/MOL
REMARK 922        TOTAL FREE ENERGY PREDICTED BY IDOCK:   -7.17 KCAL/MOL
REMARK 923 INTER-LIGAND FREE ENERGY PREDICTED BY IDOCK:   -6.90 KCAL/MOL
REMARK 924 INTRA-LIGAND FREE ENERGY PREDICTED BY IDOCK:   -0.27 KCAL/MOL
REMARK 927      BINDING AFFINITY PREDICTED BY RF-SCORE:    0.00 PKD
ROOT
HETATM    1  N   UNL     1     -14.195   8.807  73.023  1.00  0.00    -1.132 NA 
HETATM    2  H2  UNL     1     -14.015   8.219  73.837  1.00  0.00     0.000 HD 
HETATM    3  C   UNL     1     -13.122   8.674  72.139  1.00  0.00    -0.383 A  
HETATM    4  H1  UNL     1     -14.479   9.730  73.350  1.00  0.00     0.000 HD 
HETATM    5  C   UNL     1     -12.732   7.409  71.690  1.00  0.00    -0.399 A  
HETATM    6  C   UNL     1     -11.722   7.263  70.735  1.00  0.00    -0.333 A  
HETATM    7  C   UNL     1     -11.133   8.402  70.184  1.00  0.00    -0.182 A  
HETATM    8  C   UNL     1     -11.560   9.676  70.568  1.00  0.00    -0.341 A  
HETATM    9  C   UNL     1     -12.570   9.805  71.529  1.00  0.00    -0.493 A  
ENDROOT
BRANCH   7  10
HETATM   10  S   UNL     1      -9.755   8.231  69.059  1.00  0.00    -0.171 S  
HETATM   11  O   UNL     1      -8.679   7.667  69.846  1.00  0.00    -0.137 OA 
HETATM   12  O   UNL     1     -10.254   7.528  67.896  1.00  0.00    -0.176 OA 
BRANCH  10  13
HETATM   13  N   UNL     1      -9.410   9.789  68.707  1.00  0.00    -0.146 N  
HETATM   14  H   UNL     1      -8.932  10.354  69.409  1.00  0.00     0.000 HD 
BRANCH  13  15
HETATM   15  C   UNL     1      -9.740  10.376  67.494  1.00  0.00    -0.169 A  
HETATM   16  C   UNL     1      -9.598   9.713  66.294  1.00  0.00    -0.281 A  
HETATM   17  C   UNL     1     -10.124  10.587  65.335  1.00  0.00    -0.291 A  
HETATM   18  N   UNL     1     -10.585  11.713  65.870  1.00  0.00    -0.264 NA 
HETATM   19  N   UNL     1     -10.325  11.617  67.208  1.00  0.00    -0.200 NA 
BRANCH  19  20
HETATM   20  C   UNL     1     -10.699  12.694  68.067  1.00  0.00    -0.226 A  
HETATM   21  C   UNL     1      -9.952  13.886  68.039  1.00  0.00    -0.241 A  
HETATM   22  C   UNL     1     -10.261  14.944  68.898  1.00  0.00    -0.238 A  
HETATM   23  C   UNL     1     -11.308  14.824  69.806  1.00  0.00    -0.319 A  
HETATM   24  C   UNL     1     -12.064  13.658  69.832  1.00  0.00    -0.406 A  
HETATM   25  C   UNL     1     -11.776  12.609  68.954  1.00  0.00    -0.370 A  
ENDBRANCH  19  20
ENDBRANCH  13  15
ENDBRANCH  10  13
ENDBRANCH   7  10
TORSDOF 4
ENDMDL
MODEL      136
REMARK 921   NORMALIZED FREE ENERGY PREDICTED BY IDOCK:   -5.21 KCAL/MOL
REMARK 922        TOTAL FREE ENERGY PREDICTED BY IDOCK:   -7.17 KCAL/MOL
REMARK 923 INTER-LIGAND FREE ENERGY PREDICTED BY IDOCK:   -6.74 KCAL/MOL
REMARK 924 INTRA-LIGAND FREE ENERGY PREDICTED BY IDOCK:   -0.43 KCAL/MOL
REMARK 927      BINDING AFFINITY PREDICTED BY RF-SCORE:    0.00 PKD
ROOT
HETATM    1  N   UNL     1     -11.457  11.144  70.680  1.00  0.00    -0.398 NA 
HETATM    2  H2  UNL     1     -10.567  10.726  70.951  1.00  0.00     0.000 HD 
HETATM    3  C   UNL     1     -11.371  11.529  69.340  1.00  0.00    -0.289 A  
HETATM    4  H1  UNL     1     -11.724  11.822  71.394  1.00  0.00     0.000 HD 
HETATM    5  C   UNL     1     -11.005  10.600  68.362  1.00  0.00    -0.303 A  
HETATM    6  C   UNL     1     -11.005  10.944  67.007  1.00  0.00    -0.310 A  
HETATM    7  C   UNL     1     -11.427  12.218  66.625  1.00  0.00    -0.373 A  
HETATM    8  C   UNL     1     -11.865  13.136  67.583  1.00  0.00    -0.405 A  
HETATM    9  C   UNL     1     -11.856  12.778  68.936  1.00  0.00    -0.351 A  
ENDROOT
BRANCH   7  10
HETATM   10  S   UNL     1     -11.310  12.714  64.912  1.00  0.00    -0.325 S  
HETATM   11  O   UNL     1     -11.010  11.503  64.177  1.00  0.00    -0.347 OA 
HETATM   12  O   UNL     1     -12.510  13.468  64.616  1.00  0.00    -0.536 OA 
BRANCH  10  13
HETATM   13  N   UNL     1      -9.992  13.679  64.928  1.00  0.00    -0.618 N  
HETATM   14  H   UNL     1      -9.096  13.288  64.635  1.00  0.00     0.000 HD 
BRANCH  13  15
HETATM   15  C   UNL     1     -10.039  15.009  65.323  1.00  0.00    -0.343 A  
HETATM   16  C   UNL     1     -11.021  15.871  64.885  1.00  0.00    -0.427 A  
HETATM   17  C   UNL     1     -10.785  17.066  65.575  1.00  0.00    -0.138 A  
HETATM   18  N   UNL     1      -9.751  16.979  66.405  1.00  0.00    -0.280 NA 
HETATM   19  N   UNL     1      -9.251  15.718  66.239  1.00  0.00    -0.304 NA 
BRANCH  19  20
HETATM   20  C   UNL     1      -8.110  15.318  66.998  1.00  0.00    -0.218 A  
HETATM   21  C   UNL     1      -6.970  16.141  67.009  1.00  0.00    -0.234 A  
HETATM   22  C   UNL     1      -5.818  15.759  67.703  1.00  0.00    -0.162 A  
HETATM   23  C   UNL     1      -5.783  14.547  68.383  1.00  0.00    -0.106 A  
HETATM   24  C   UNL     1      -6.909  13.732  68.394  1.00  0.00    -0.101 A  
HETATM   25  C   UNL     1      -8.072  14.125  67.724  1.00  0.00    -0.170 A  
ENDBRANCH  19  20
ENDBRANCH  13  15
ENDBRANCH  10  13
ENDBRANCH   7  10
TORSDOF 4
ENDMDL
MODEL      137
REMARK 921   NORMALIZED FREE ENERGY PREDICTED BY IDOCK:   -5.18 KCAL/MOL
REMARK 922        TOTAL FREE ENERGY PREDICTED BY IDOCK:   -7.12 KCAL/MOL
REMARK 923 INTER-LIGAND FREE ENERGY PREDICTED BY IDOCK:   -6.11 KCAL/MOL
REMARK 924 INTRA-LIGAND FREE ENERGY PREDICTED BY IDOCK:   -1.02 KCAL/MOL
REMARK 927      BINDING AFFINITY PREDICTED BY RF-SCORE:    0.00 PKD
ROOT
HETATM    1  N   UNL     1      -9.961  18.442  68.697  1.00  0.00    -0.377 NA 
HETATM    2  H2  UNL     1     -10.200  19.330  68.254  1.00  0.00     0.000 HD 
HETATM    3  C   UNL     1     -10.418  17.406  67.880  1.00  0.00    -0.383 A  
HETATM    4  H1  UNL     1     -10.241  18.487  69.676  1.00  0.00     0.000 HD 
HETATM    5  C   UNL     1     -10.033  17.345  66.538  1.00  0.00    -0.314 A  
HETATM    6  C   UNL     1     -10.405  16.265  65.731  1.00  0.00    -0.393 A  
HETATM    7  C   UNL     1     -11.126  15.210  66.291  1.00  0.00    -0.309 A  
HETATM    8  C   UNL     1     -11.457  15.220  67.648  1.00  0.00    -0.287 A  
HETATM    9  C   UNL     1     -11.081  16.310  68.442  1.00  0.00    -0.362 A  
ENDROOT
BRANCH   7  10
HETATM   10  S   UNL     1     -11.718  13.887  65.244  1.00  0.00    -0.358 S  
HETATM   11  O   UNL     1     -12.412  12.974  66.128  1.00  0.00    -0.453 OA 
HETATM   12  O   UNL     1     -12.422  14.512  64.144  1.00  0.00    -0.707 OA 
BRANCH  10  13
HETATM   13  N   UNL     1     -10.322  13.201  64.743  1.00  0.00    -0.438 N  
HETATM   14  H   UNL     1      -9.701  13.742  64.141  1.00  0.00     0.000 HD 
BRANCH  13  15
HETATM   15  C   UNL     1      -9.947  11.914  65.101  1.00  0.00    -0.247 A  
HETATM   16  C   UNL     1     -10.437  10.800  64.456  1.00  0.00    -0.351 A  
HETATM   17  C   UNL     1      -9.753   9.721  65.029  1.00  0.00    -0.233 A  
HETATM   18  N   UNL     1      -8.880  10.106  65.954  1.00  0.00    -0.144 NA 
HETATM   19  N   UNL     1      -9.008  11.464  66.038  1.00  0.00    -0.208 NA 
BRANCH  19  20
HETATM   20  C   UNL     1      -8.196  12.182  66.968  1.00  0.00    -0.164 A  
HETATM   21  C   UNL     1      -8.816  12.969  67.955  1.00  0.00    -0.193 A  
HETATM   22  C   UNL     1      -8.054  13.722  68.852  1.00  0.00     0.059 A  
HETATM   23  C   UNL     1      -6.665  13.710  68.771  1.00  0.00    -0.104 A  
HETATM   24  C   UNL     1      -6.040  12.922  67.811  1.00  0.00    -0.143 A  
HETATM   25  C   UNL     1      -6.800  12.146  66.930  1.00  0.00     0.004 A  
ENDBRANCH  19  20
ENDBRANCH  13  15
ENDBRANCH  10  13
ENDBRANCH   7  10
TORSDOF 4
ENDMDL
MODEL      138
REMARK 921   NORMALIZED FREE ENERGY PREDICTED BY IDOCK:   -5.17 KCAL/MOL
REMARK 922        TOTAL FREE ENERGY PREDICTED BY IDOCK:   -7.12 KCAL/MOL
REMARK 923 INTER-LIGAND FREE ENERGY PREDICTED BY IDOCK:   -5.96 KCAL/MOL
REMARK 924 INTRA-LIGAND FREE ENERGY PREDICTED BY IDOCK:   -1.16 KCAL/MOL
REMARK 927      BINDING AFFINITY PREDICTED BY RF-SCORE:    0.00 PKD
ROOT
HETATM    1  N   UNL     1     -13.488  11.040  71.871  1.00  0.00    -0.350 NA 
HETATM    2  H2  UNL     1     -13.117  11.335  72.774  1.00  0.00     0.000 HD 
HETATM    3  C   UNL     1     -12.414  10.750  71.027  1.00  0.00    -0.420 A  
HETATM    4  H1  UNL     1     -14.202  11.709  71.583  1.00  0.00     0.000 HD 
HETATM    5  C   UNL     1     -11.436   9.832  71.421  1.00  0.00    -0.435 A  
HETATM    6  C   UNL     1     -10.406   9.461  70.552  1.00  0.00    -0.341 A  
HETATM    7  C   UNL     1     -10.387   9.975  69.255  1.00  0.00    -0.219 A  
HETATM    8  C   UNL     1     -11.397  10.838  68.820  1.00  0.00    -0.352 A  
HETATM    9  C   UNL     1     -12.420  11.203  69.703  1.00  0.00    -0.195 A  
ENDROOT
BRANCH   7  10
HETATM   10  S   UNL     1      -9.008   9.611  68.177  1.00  0.00    -0.122 S  
HETATM   11  O   UNL     1      -8.281  10.855  68.042  1.00  0.00    -0.114 OA 
HETATM   12  O   UNL     1      -8.354   8.440  68.723  1.00  0.00    -0.115 OA 
BRANCH  10  13
HETATM   13  N   UNL     1      -9.761   9.267  66.768  1.00  0.00    -0.183 N  
HETATM   14  H   UNL     1     -10.584   8.665  66.789  1.00  0.00     0.000 HD 
BRANCH  13  15
HETATM   15  C   UNL     1      -9.328   9.759  65.545  1.00  0.00    -0.240 A  
HETATM   16  C   UNL     1      -8.419   9.083  64.761  1.00  0.00    -0.197 A  
HETATM   17  C   UNL     1      -8.321   9.840  63.587  1.00  0.00    -0.169 A  
HETATM   18  N   UNL     1      -9.115  10.906  63.602  1.00  0.00    -0.201 NA 
HETATM   19  N   UNL     1      -9.724  10.894  64.825  1.00  0.00    -0.248 NA 
BRANCH  19  20
HETATM   20  C   UNL     1     -10.644  11.936  65.153  1.00  0.00    -0.287 A  
HETATM   21  C   UNL     1     -11.964  11.861  64.674  1.00  0.00    -0.251 A  
HETATM   22  C   UNL     1     -12.879  12.885  64.936  1.00  0.00    -0.370 A  
HETATM   23  C   UNL     1     -12.487  14.002  65.666  1.00  0.00    -0.531 A  
HETATM   24  C   UNL     1     -11.189  14.080  66.159  1.00  0.00    -0.318 A  
HETATM   25  C   UNL     1     -10.281  13.043  65.923  1.00  0.00    -0.298 A  
ENDBRANCH  19  20
ENDBRANCH  13  15
ENDBRANCH  10  13
ENDBRANCH   7  10
TORSDOF 4
ENDMDL
MODEL      139
REMARK 921   NORMALIZED FREE ENERGY PREDICTED BY IDOCK:   -5.15 KCAL/MOL
REMARK 922        TOTAL FREE ENERGY PREDICTED BY IDOCK:   -7.09 KCAL/MOL
REMARK 923 INTER-LIGAND FREE ENERGY PREDICTED BY IDOCK:   -6.23 KCAL/MOL
REMARK 924 INTRA-LIGAND FREE ENERGY PREDICTED BY IDOCK:   -0.86 KCAL/MOL
REMARK 927      BINDING AFFINITY PREDICTED BY RF-SCORE:    0.00 PKD
ROOT
HETATM    1  N   UNL     1     -13.563  16.142  73.531  1.00  0.00    -0.866 NA 
HETATM    2  H2  UNL     1     -13.757  17.059  73.128  1.00  0.00     0.000 HD 
HETATM    3  C   UNL     1     -13.138  15.293  72.507  1.00  0.00    -0.406 A  
HETATM    4  H1  UNL     1     -14.351  15.879  74.122  1.00  0.00     0.000 HD 
HETATM    5  C   UNL     1     -12.058  15.654  71.696  1.00  0.00    -0.496 A  
HETATM    6  C   UNL     1     -11.560  14.776  70.728  1.00  0.00    -0.318 A  
HETATM    7  C   UNL     1     -12.117  13.503  70.608  1.00  0.00    -0.309 A  
HETATM    8  C   UNL     1     -13.150  13.099  71.459  1.00  0.00    -0.404 A  
HETATM    9  C   UNL     1     -13.640  13.990  72.421  1.00  0.00    -0.658 A  
ENDROOT
BRANCH   7  10
HETATM   10  S   UNL     1     -11.578  12.419  69.293  1.00  0.00    -0.322 S  
HETATM   11  O   UNL     1     -11.031  11.252  69.951  1.00  0.00    -0.177 OA 
HETATM   12  O   UNL     1     -12.696  12.285  68.382  1.00  0.00     0.490 OA 
BRANCH  10  13
HETATM   13  N   UNL     1     -10.365  13.281  68.619  1.00  0.00    -0.330 N  
HETATM   14  H   UNL     1      -9.557  13.519  69.194  1.00  0.00     0.000 HD 
BRANCH  13  15
HETATM   15  C   UNL     1     -10.388  13.705  67.297  1.00  0.00    -0.249 A  
HETATM   16  C   UNL     1     -10.768  14.981  66.942  1.00  0.00    -0.308 A  
HETATM   17  C   UNL     1     -10.562  15.046  65.558  1.00  0.00    -0.363 A  
HETATM   18  N   UNL     1     -10.072  13.913  65.063  1.00  0.00    -0.338 NA 
HETATM   19  N   UNL     1      -9.988  13.055  66.123  1.00  0.00    -0.275 NA 
BRANCH  19  20
HETATM   20  C   UNL     1      -9.499  11.731  65.906  1.00  0.00    -0.223 A  
HETATM   21  C   UNL     1     -10.386  10.645  66.016  1.00  0.00    -0.290 A  
HETATM   22  C   UNL     1      -9.933   9.333  65.857  1.00  0.00    -0.289 A  
HETATM   23  C   UNL     1      -8.589   9.084  65.600  1.00  0.00    -0.187 A  
HETATM   24  C   UNL     1      -7.705  10.149  65.472  1.00  0.00    -0.145 A  
HETATM   25  C   UNL     1      -8.162  11.464  65.603  1.00  0.00     0.230 A  
ENDBRANCH  19  20
ENDBRANCH  13  15
ENDBRANCH  10  13
ENDBRANCH   7  10
TORSDOF 4
ENDMDL
MODEL      140
REMARK 921   NORMALIZED FREE ENERGY PREDICTED BY IDOCK:   -5.14 KCAL/MOL
REMARK 922        TOTAL FREE ENERGY PREDICTED BY IDOCK:   -7.08 KCAL/MOL
REMARK 923 INTER-LIGAND FREE ENERGY PREDICTED BY IDOCK:   -6.42 KCAL/MOL
REMARK 924 INTRA-LIGAND FREE ENERGY PREDICTED BY IDOCK:   -0.66 KCAL/MOL
REMARK 927      BINDING AFFINITY PREDICTED BY RF-SCORE:    0.00 PKD
ROOT
HETATM    1  N   UNL     1      -8.039   9.878  63.896  1.00  0.00    -0.143 NA 
HETATM    2  H2  UNL     1      -7.797   8.887  63.892  1.00  0.00     0.000 HD 
HETATM    3  C   UNL     1      -8.751  10.151  65.066  1.00  0.00    -0.173 A  
HETATM    4  H1  UNL     1      -8.435  10.115  62.987  1.00  0.00     0.000 HD 
HETATM    5  C   UNL     1      -8.208   9.826  66.313  1.00  0.00    -0.116 A  
HETATM    6  C   UNL     1      -8.863  10.176  67.497  1.00  0.00    -0.126 A  
HETATM    7  C   UNL     1     -10.050  10.907  67.431  1.00  0.00    -0.191 A  
HETATM    8  C   UNL     1     -10.570  11.303  66.196  1.00  0.00    -0.312 A  
HETATM    9  C   UNL     1      -9.904  10.942  65.019  1.00  0.00    -0.336 A  
ENDROOT
BRANCH   7  10
HETATM   10  S   UNL     1     -10.964  11.250  68.928  1.00  0.00    -0.242 S  
HETATM   11  O   UNL     1     -12.360  11.229  68.544  1.00  0.00    -0.543 OA 
HETATM   12  O   UNL     1     -10.471  10.333  69.934  1.00  0.00    -0.257 OA 
BRANCH  10  13
HETATM   13  N   UNL     1     -10.515  12.787  69.255  1.00  0.00    -0.419 N  
HETATM   14  H   UNL     1      -9.538  13.048  69.123  1.00  0.00     0.000 HD 
BRANCH  13  15
HETATM   15  C   UNL     1     -11.406  13.750  69.705  1.00  0.00    -0.134 A  
HETATM   16  C   UNL     1     -12.193  13.560  70.820  1.00  0.00    -0.417 A  
HETATM   17  C   UNL     1     -12.864  14.776  71.000  1.00  0.00    -0.352 A  
HETATM   18  N   UNL     1     -12.526  15.683  70.090  1.00  0.00    -0.352 NA 
HETATM   19  N   UNL     1     -11.646  15.055  69.254  1.00  0.00    -0.297 NA 
BRANCH  19  20
HETATM   20  C   UNL     1     -11.101  15.778  68.149  1.00  0.00    -0.341 A  
HETATM   21  C   UNL     1     -10.652  17.096  68.346  1.00  0.00    -0.371 A  
HETATM   22  C   UNL     1     -10.156  17.849  67.278  1.00  0.00    -0.344 A  
HETATM   23  C   UNL     1     -10.115  17.304  65.998  1.00  0.00    -0.275 A  
HETATM   24  C   UNL     1     -10.540  15.997  65.794  1.00  0.00    -0.366 A  
HETATM   25  C   UNL     1     -11.010  15.231  66.866  1.00  0.00    -0.315 A  
ENDBRANCH  19  20
ENDBRANCH  13  15
ENDBRANCH  10  13
ENDBRANCH   7  10
TORSDOF 4
ENDMDL
MODEL      141
REMARK 921   NORMALIZED FREE ENERGY PREDICTED BY IDOCK:   -5.14 KCAL/MOL
REMARK 922        TOTAL FREE ENERGY PREDICTED BY IDOCK:   -7.08 KCAL/MOL
REMARK 923 INTER-LIGAND FREE ENERGY PREDICTED BY IDOCK:   -6.18 KCAL/MOL
REMARK 924 INTRA-LIGAND FREE ENERGY PREDICTED BY IDOCK:   -0.90 KCAL/MOL
REMARK 927      BINDING AFFINITY PREDICTED BY RF-SCORE:    0.00 PKD
ROOT
HETATM    1  N   UNL     1     -12.924  14.989  70.559  1.00  0.00    -0.579 NA 
HETATM    2  H2  UNL     1     -13.205  15.171  69.596  1.00  0.00     0.000 HD 
HETATM    3  C   UNL     1     -12.822  13.608  70.734  1.00  0.00    -0.202 A  
HETATM    4  H1  UNL     1     -13.519  15.543  71.176  1.00  0.00     0.000 HD 
HETATM    5  C   UNL     1     -12.007  12.849  69.889  1.00  0.00    -0.377 A  
HETATM    6  C   UNL     1     -11.819  11.482  70.106  1.00  0.00    -0.440 A  
HETATM    7  C   UNL     1     -12.414  10.878  71.215  1.00  0.00    -0.388 A  
HETATM    8  C   UNL     1     -13.173  11.635  72.111  1.00  0.00    -0.327 A  
HETATM    9  C   UNL     1     -13.354  13.003  71.878  1.00  0.00    -0.539 A  
ENDROOT
BRANCH   7  10
HETATM   10  S   UNL     1     -12.289   9.108  71.435  1.00  0.00    -0.342 S  
HETATM   11  O   UNL     1     -11.264   8.913  72.438  1.00  0.00    -0.286 OA 
HETATM   12  O   UNL     1     -13.634   8.623  71.663  1.00  0.00    -0.361 OA 
BRANCH  10  13
HETATM   13  N   UNL     1     -11.724   8.626  69.980  1.00  0.00    -0.423 N  
HETATM   14  H   UNL     1     -12.066   9.096  69.142  1.00  0.00     0.000 HD 
BRANCH  13  15
HETATM   15  C   UNL     1     -10.797   7.602  69.836  1.00  0.00    -0.235 A  
HETATM   16  C   UNL     1     -11.121   6.281  70.057  1.00  0.00    -0.455 A  
HETATM   17  C   UNL     1      -9.969   5.564  69.714  1.00  0.00    -0.212 A  
HETATM   18  N   UNL     1      -8.987   6.354  69.288  1.00  0.00    -0.133 NA 
HETATM   19  N   UNL     1      -9.470   7.628  69.388  1.00  0.00    -0.153 NA 
BRANCH  19  20
HETATM   20  C   UNL     1      -8.632   8.720  69.008  1.00  0.00    -0.132 A  
HETATM   21  C   UNL     1      -8.107   9.561  70.006  1.00  0.00    -0.176 A  
HETATM   22  C   UNL     1      -7.321  10.666  69.668  1.00  0.00    -0.133 A  
HETATM   23  C   UNL     1      -7.059  10.955  68.333  1.00  0.00    -0.073 A  
HETATM   24  C   UNL     1      -7.557  10.122  67.339  1.00  0.00    -0.094 A  
HETATM   25  C   UNL     1      -8.320   8.999  67.675  1.00  0.00    -0.117 A  
ENDBRANCH  19  20
ENDBRANCH  13  15
ENDBRANCH  10  13
ENDBRANCH   7  10
TORSDOF 4
ENDMDL
MODEL      142
REMARK 921   NORMALIZED FREE ENERGY PREDICTED BY IDOCK:   -5.13 KCAL/MOL
REMARK 922        TOTAL FREE ENERGY PREDICTED BY IDOCK:   -7.07 KCAL/MOL
REMARK 923 INTER-LIGAND FREE ENERGY PREDICTED BY IDOCK:   -5.27 KCAL/MOL
REMARK 924 INTRA-LIGAND FREE ENERGY PREDICTED BY IDOCK:   -1.80 KCAL/MOL
REMARK 927      BINDING AFFINITY PREDICTED BY RF-SCORE:    0.00 PKD
ROOT
HETATM    1  N   UNL     1     -13.032  12.190  64.078  1.00  0.00    -0.695 NA 
HETATM    2  H2  UNL     1     -13.936  12.586  64.335  1.00  0.00     0.000 HD 
HETATM    3  C   UNL     1     -12.045  12.813  64.844  1.00  0.00    -0.438 A  
HETATM    4  H1  UNL     1     -12.964  12.180  63.061  1.00  0.00     0.000 HD 
HETATM    5  C   UNL     1     -12.139  12.827  66.238  1.00  0.00    -0.400 A  
HETATM    6  C   UNL     1     -11.114  13.364  67.023  1.00  0.00    -0.310 A  
HETATM    7  C   UNL     1      -9.960  13.845  66.405  1.00  0.00    -0.297 A  
HETATM    8  C   UNL     1      -9.818  13.773  65.016  1.00  0.00    -0.087 A  
HETATM    9  C   UNL     1     -10.854  13.236  64.244  1.00  0.00    -0.414 A  
ENDROOT
BRANCH   7  10
HETATM   10  S   UNL     1      -8.699  14.650  67.383  1.00  0.00    -0.209 S  
HETATM   11  O   UNL     1      -8.403  15.887  66.693  1.00  0.00    -0.243 OA 
HETATM   12  O   UNL     1      -9.186  14.675  68.747  1.00  0.00    -0.195 OA 
BRANCH  10  13
HETATM   13  N   UNL     1      -7.438  13.624  67.223  1.00  0.00    -0.352 N  
HETATM   14  H   UNL     1      -6.891  13.654  66.363  1.00  0.00     0.000 HD 
BRANCH  13  15
HETATM   15  C   UNL     1      -7.081  12.712  68.207  1.00  0.00    -0.105 A  
HETATM   16  C   UNL     1      -6.063  12.958  69.101  1.00  0.00    -0.092 A  
HETATM   17  C   UNL     1      -6.081  11.867  69.979  1.00  0.00    -0.153 A  
HETATM   18  N   UNL     1      -7.044  10.998  69.688  1.00  0.00    -0.121 NA 
HETATM   19  N   UNL     1      -7.656  11.487  68.569  1.00  0.00    -0.123 NA 
BRANCH  19  20
HETATM   20  C   UNL     1      -8.742  10.758  67.997  1.00  0.00    -0.132 A  
HETATM   21  C   UNL     1      -8.682  10.388  66.641  1.00  0.00    -0.141 A  
HETATM   22  C   UNL     1      -9.746   9.715  66.035  1.00  0.00    -0.331 A  
HETATM   23  C   UNL     1     -10.889   9.413  66.768  1.00  0.00    -0.012 A  
HETATM   24  C   UNL     1     -10.955   9.758  68.113  1.00  0.00    -0.228 A  
HETATM   25  C   UNL     1      -9.879  10.406  68.728  1.00  0.00    -0.190 A  
ENDBRANCH  19  20
ENDBRANCH  13  15
ENDBRANCH  10  13
ENDBRANCH   7  10
TORSDOF 4
ENDMDL
MODEL      143
REMARK 921   NORMALIZED FREE ENERGY PREDICTED BY IDOCK:   -5.13 KCAL/MOL
REMARK 922        TOTAL FREE ENERGY PREDICTED BY IDOCK:   -7.06 KCAL/MOL
REMARK 923 INTER-LIGAND FREE ENERGY PREDICTED BY IDOCK:   -5.33 KCAL/MOL
REMARK 924 INTRA-LIGAND FREE ENERGY PREDICTED BY IDOCK:   -1.73 KCAL/MOL
REMARK 927      BINDING AFFINITY PREDICTED BY RF-SCORE:    0.00 PKD
ROOT
HETATM    1  N   UNL     1     -11.075  11.762  69.716  1.00  0.00    -0.475 NA 
HETATM    2  H2  UNL     1     -12.093  11.734  69.763  1.00  0.00     0.000 HD 
HETATM    3  C   UNL     1     -10.623  10.532  69.235  1.00  0.00    -0.236 A  
HETATM    4  H1  UNL     1     -10.723  12.129  70.600  1.00  0.00     0.000 HD 
HETATM    5  C   UNL     1     -11.105  10.029  68.022  1.00  0.00    -0.263 A  
HETATM    6  C   UNL     1     -10.595   8.846  67.480  1.00  0.00    -0.307 A  
HETATM    7  C   UNL     1      -9.554   8.187  68.135  1.00  0.00    -0.149 A  
HETATM    8  C   UNL     1      -9.010   8.713  69.310  1.00  0.00    -0.145 A  
HETATM    9  C   UNL     1      -9.534   9.897  69.842  1.00  0.00    -0.256 A  
ENDROOT
BRANCH   7  10
HETATM   10  S   UNL     1      -8.981   6.608  67.524  1.00  0.00    -0.113 S  
HETATM   11  O   UNL     1      -9.019   6.713  66.080  1.00  0.00    -0.153 OA 
HETATM   12  O   UNL     1      -7.731   6.330  68.201  1.00  0.00    -0.100 OA 
BRANCH  10  13
HETATM   13  N   UNL     1     -10.164   5.600  68.026  1.00  0.00    -0.173 N  
HETATM   14  H   UNL     1     -11.036   5.570  67.497  1.00  0.00     0.000 HD 
BRANCH  13  15
HETATM   15  C   UNL     1     -10.034   4.784  69.141  1.00  0.00    -0.163 A  
HETATM   16  C   UNL     1      -9.494   3.519  69.066  1.00  0.00    -0.213 A  
HETATM   17  C   UNL     1      -9.442   3.070  70.392  1.00  0.00    -0.148 A  
HETATM   18  N   UNL     1      -9.893   3.976  71.253  1.00  0.00    -0.186 NA 
HETATM   19  N   UNL     1     -10.297   5.037  70.493  1.00  0.00    -0.245 NA 
BRANCH  19  20
HETATM   20  C   UNL     1     -10.848   6.185  71.141  1.00  0.00    -0.270 A  
HETATM   21  C   UNL     1     -12.045   6.739  70.653  1.00  0.00    -0.371 A  
HETATM   22  C   UNL     1     -12.589   7.889  71.232  1.00  0.00    -0.264 A  
HETATM   23  C   UNL     1     -11.941   8.509  72.295  1.00  0.00    -0.454 A  
HETATM   24  C   UNL     1     -10.766   7.962  72.797  1.00  0.00    -0.435 A  
HETATM   25  C   UNL     1     -10.235   6.796  72.237  1.00  0.00    -0.210 A  
ENDBRANCH  19  20
ENDBRANCH  13  15
ENDBRANCH  10  13
ENDBRANCH   7  10
TORSDOF 4
ENDMDL
MODEL      144
REMARK 921   NORMALIZED FREE ENERGY PREDICTED BY IDOCK:   -5.10 KCAL/MOL
REMARK 922        TOTAL FREE ENERGY PREDICTED BY IDOCK:   -7.03 KCAL/MOL
REMARK 923 INTER-LIGAND FREE ENERGY PREDICTED BY IDOCK:   -6.51 KCAL/MOL
REMARK 924 INTRA-LIGAND FREE ENERGY PREDICTED BY IDOCK:   -0.52 KCAL/MOL
REMARK 927      BINDING AFFINITY PREDICTED BY RF-SCORE:    0.00 PKD
ROOT
HETATM    1  N   UNL     1      -5.848  14.219  70.576  1.00  0.00    -0.159 NA 
HETATM    2  H2  UNL     1      -5.182  13.642  70.063  1.00  0.00     0.000 HD 
HETATM    3  C   UNL     1      -6.770  14.741  69.667  1.00  0.00    -0.166 A  
HETATM    4  H1  UNL     1      -5.325  14.842  71.192  1.00  0.00     0.000 HD 
HETATM    5  C   UNL     1      -7.487  13.888  68.823  1.00  0.00    -0.114 A  
HETATM    6  C   UNL     1      -8.480  14.383  67.973  1.00  0.00    -0.164 A  
HETATM    7  C   UNL     1      -8.794  15.743  68.009  1.00  0.00    -0.176 A  
HETATM    8  C   UNL     1      -8.138  16.598  68.898  1.00  0.00    -0.235 A  
HETATM    9  C   UNL     1      -7.144  16.087  69.740  1.00  0.00     0.005 A  
ENDROOT
BRANCH   7  10
HETATM   10  S   UNL     1      -9.969  16.412  66.839  1.00  0.00    -0.280 S  
HETATM   11  O   UNL     1     -10.236  17.762  67.287  1.00  0.00    -0.324 OA 
HETATM   12  O   UNL     1      -9.421  16.176  65.520  1.00  0.00    -0.428 OA 
BRANCH  10  13
HETATM   13  N   UNL     1     -11.284  15.481  67.110  1.00  0.00    -0.260 N  
HETATM   14  H   UNL     1     -11.856  15.670  67.933  1.00  0.00     0.000 HD 
BRANCH  13  15
HETATM   15  C   UNL     1     -11.656  14.442  66.267  1.00  0.00    -0.372 A  
HETATM   16  C   UNL     1     -11.882  14.633  64.922  1.00  0.00    -0.403 A  
HETATM   17  C   UNL     1     -12.130  13.353  64.412  1.00  0.00    -0.416 A  
HETATM   18  N   UNL     1     -12.051  12.410  65.346  1.00  0.00    -0.520 NA 
HETATM   19  N   UNL     1     -11.791  13.070  66.513  1.00  0.00    -0.391 NA 
BRANCH  19  20
HETATM   20  C   UNL     1     -11.659  12.319  67.721  1.00  0.00    -0.351 A  
HETATM   21  C   UNL     1     -11.174  11.000  67.659  1.00  0.00    -0.373 A  
HETATM   22  C   UNL     1     -11.075  10.219  68.814  1.00  0.00    -0.276 A  
HETATM   23  C   UNL     1     -11.470  10.737  70.043  1.00  0.00    -0.412 A  
HETATM   24  C   UNL     1     -11.935  12.044  70.120  1.00  0.00    -0.401 A  
HETATM   25  C   UNL     1     -12.008  12.837  68.970  1.00  0.00    -0.288 A  
ENDBRANCH  19  20
ENDBRANCH  13  15
ENDBRANCH  10  13
ENDBRANCH   7  10
TORSDOF 4
ENDMDL
MODEL      145
REMARK 921   NORMALIZED FREE ENERGY PREDICTED BY IDOCK:   -5.10 KCAL/MOL
REMARK 922        TOTAL FREE ENERGY PREDICTED BY IDOCK:   -7.02 KCAL/MOL
REMARK 923 INTER-LIGAND FREE ENERGY PREDICTED BY IDOCK:   -6.44 KCAL/MOL
REMARK 924 INTRA-LIGAND FREE ENERGY PREDICTED BY IDOCK:   -0.58 KCAL/MOL
REMARK 927      BINDING AFFINITY PREDICTED BY RF-SCORE:    0.00 PKD
ROOT
HETATM    1  N   UNL     1     -11.079   8.779  68.757  1.00  0.00    -0.421 NA 
HETATM    2  H2  UNL     1     -10.129   8.427  68.643  1.00  0.00     0.000 HD 
HETATM    3  C   UNL     1     -11.035  10.175  68.734  1.00  0.00    -0.223 A  
HETATM    4  H1  UNL     1     -11.510   8.291  69.542  1.00  0.00     0.000 HD 
HETATM    5  C   UNL     1     -10.444  10.844  67.658  1.00  0.00    -0.244 A  
HETATM    6  C   UNL     1     -10.474  12.239  67.574  1.00  0.00    -0.230 A  
HETATM    7  C   UNL     1     -11.151  12.968  68.552  1.00  0.00    -0.266 A  
HETATM    8  C   UNL     1     -11.809  12.313  69.596  1.00  0.00    -0.393 A  
HETATM    9  C   UNL     1     -11.767  10.916  69.669  1.00  0.00    -0.403 A  
ENDROOT
BRANCH   7  10
HETATM   10  S   UNL     1     -11.089  14.755  68.527  1.00  0.00    -0.278 S  
HETATM   11  O   UNL     1     -10.783  15.114  67.159  1.00  0.00    -0.296 OA 
HETATM   12  O   UNL     1     -12.312  15.220  69.146  1.00  0.00    -0.190 OA 
BRANCH  10  13
HETATM   13  N   UNL     1      -9.792  15.062  69.472  1.00  0.00    -0.395 N  
HETATM   14  H   UNL     1      -9.917  15.077  70.484  1.00  0.00     0.000 HD 
BRANCH  13  15
HETATM   15  C   UNL     1      -8.526  15.304  68.955  1.00  0.00    -0.221 A  
HETATM   16  C   UNL     1      -7.510  14.377  69.036  1.00  0.00    -0.119 A  
HETATM   17  C   UNL     1      -6.447  14.945  68.324  1.00  0.00    -0.118 A  
HETATM   18  N   UNL     1      -6.755  16.131  67.809  1.00  0.00    -0.135 NA 
HETATM   19  N   UNL     1      -8.033  16.389  68.219  1.00  0.00    -0.164 NA 
BRANCH  19  20
HETATM   20  C   UNL     1      -8.653  17.615  67.829  1.00  0.00    -0.228 A  
HETATM   21  C   UNL     1      -9.616  18.195  68.674  1.00  0.00    -0.342 A  
HETATM   22  C   UNL     1     -10.277  19.370  68.305  1.00  0.00    -0.535 A  
HETATM   23  C   UNL     1      -9.997  19.974  67.083  1.00  0.00    -0.580 A  
HETATM   24  C   UNL     1      -9.035  19.420  66.247  1.00  0.00    -0.374 A  
HETATM   25  C   UNL     1      -8.352  18.260  66.628  1.00  0.00    -0.281 A  
ENDBRANCH  19  20
ENDBRANCH  13  15
ENDBRANCH  10  13
ENDBRANCH   7  10
TORSDOF 4
ENDMDL
MODEL      146
REMARK 921   NORMALIZED FREE ENERGY PREDICTED BY IDOCK:   -5.09 KCAL/MOL
REMARK 922        TOTAL FREE ENERGY PREDICTED BY IDOCK:   -7.01 KCAL/MOL
REMARK 923 INTER-LIGAND FREE ENERGY PREDICTED BY IDOCK:   -5.92 KCAL/MOL
REMARK 924 INTRA-LIGAND FREE ENERGY PREDICTED BY IDOCK:   -1.09 KCAL/MOL
REMARK 927      BINDING AFFINITY PREDICTED BY RF-SCORE:    0.00 PKD
ROOT
HETATM    1  N   UNL     1     -11.429   4.984  73.261  1.00  0.00    -0.467 NA 
HETATM    2  H2  UNL     1     -10.893   4.232  72.826  1.00  0.00     0.000 HD 
HETATM    3  C   UNL     1     -11.209   6.156  72.534  1.00  0.00    -0.287 A  
HETATM    4  H1  UNL     1     -11.255   4.961  74.265  1.00  0.00     0.000 HD 
HETATM    5  C   UNL     1     -11.447   6.187  71.157  1.00  0.00    -0.314 A  
HETATM    6  C   UNL     1     -11.323   7.375  70.432  1.00  0.00    -0.273 A  
HETATM    7  C   UNL     1     -11.007   8.557  71.104  1.00  0.00    -0.253 A  
HETATM    8  C   UNL     1     -10.837   8.559  72.491  1.00  0.00    -0.304 A  
HETATM    9  C   UNL     1     -10.962   7.360  73.203  1.00  0.00    -0.408 A  
ENDROOT
BRANCH   7  10
HETATM   10  S   UNL     1     -10.719  10.056  70.174  1.00  0.00    -0.316 S  
HETATM   11  O   UNL     1     -11.416  11.100  70.895  1.00  0.00    -0.040 OA 
HETATM   12  O   UNL     1      -9.289  10.145  69.964  1.00  0.00    -0.175 OA 
BRANCH  10  13
HETATM   13  N   UNL     1     -11.505   9.744  68.776  1.00  0.00    -0.477 N  
HETATM   14  H   UNL     1     -12.483   9.455  68.820  1.00  0.00     0.000 HD 
BRANCH  13  15
HETATM   15  C   UNL     1     -10.899   9.855  67.533  1.00  0.00    -0.243 A  
HETATM   16  C   UNL     1     -10.815  11.055  66.861  1.00  0.00    -0.324 A  
HETATM   17  C   UNL     1     -10.059  10.775  65.716  1.00  0.00    -0.261 A  
HETATM   18  N   UNL     1      -9.670   9.505  65.661  1.00  0.00    -0.289 NA 
HETATM   19  N   UNL     1     -10.211   8.907  66.764  1.00  0.00    -0.278 NA 
BRANCH  19  20
HETATM   20  C   UNL     1      -9.978   7.515  66.984  1.00  0.00    -0.234 A  
HETATM   21  C   UNL     1      -8.655   7.042  67.044  1.00  0.00    -0.122 A  
HETATM   22  C   UNL     1      -8.389   5.680  67.212  1.00  0.00    -0.100 A  
HETATM   23  C   UNL     1      -9.437   4.771  67.308  1.00  0.00    -0.163 A  
HETATM   24  C   UNL     1     -10.749   5.228  67.267  1.00  0.00    -0.111 A  
HETATM   25  C   UNL     1     -11.017   6.593  67.128  1.00  0.00    -0.478 A  
ENDBRANCH  19  20
ENDBRANCH  13  15
ENDBRANCH  10  13
ENDBRANCH   7  10
TORSDOF 4
ENDMDL
MODEL      147
REMARK 921   NORMALIZED FREE ENERGY PREDICTED BY IDOCK:   -5.06 KCAL/MOL
REMARK 922        TOTAL FREE ENERGY PREDICTED BY IDOCK:   -6.97 KCAL/MOL
REMARK 923 INTER-LIGAND FREE ENERGY PREDICTED BY IDOCK:   -6.21 KCAL/MOL
REMARK 924 INTRA-LIGAND FREE ENERGY PREDICTED BY IDOCK:   -0.77 KCAL/MOL
REMARK 927      BINDING AFFINITY PREDICTED BY RF-SCORE:    0.00 PKD
ROOT
HETATM    1  N   UNL     1     -10.555  18.054  67.734  1.00  0.00    -0.411 NA 
HETATM    2  H2  UNL     1     -10.057  18.076  68.625  1.00  0.00     0.000 HD 
HETATM    3  C   UNL     1     -10.720  16.719  67.357  1.00  0.00    -0.244 A  
HETATM    4  H1  UNL     1     -10.108  18.716  67.101  1.00  0.00     0.000 HD 
HETATM    5  C   UNL     1     -11.332  15.811  68.225  1.00  0.00    -0.354 A  
HETATM    6  C   UNL     1     -11.589  14.496  67.828  1.00  0.00    -0.390 A  
HETATM    7  C   UNL     1     -11.277  14.102  66.526  1.00  0.00    -0.330 A  
HETATM    8  C   UNL     1     -10.731  15.016  65.621  1.00  0.00    -0.365 A  
HETATM    9  C   UNL     1     -10.476  16.329  66.036  1.00  0.00    -0.342 A  
ENDROOT
BRANCH   7  10
HETATM   10  S   UNL     1     -11.481  12.393  66.044  1.00  0.00    -0.398 S  
HETATM   11  O   UNL     1     -12.005  11.720  67.214  1.00  0.00    -0.618 OA 
HETATM   12  O   UNL     1     -12.234  12.398  64.808  1.00  0.00    -0.429 OA 
BRANCH  10  13
HETATM   13  N   UNL     1      -9.935  11.924  65.795  1.00  0.00    -0.231 N  
HETATM   14  H   UNL     1      -9.629  11.739  64.840  1.00  0.00     0.000 HD 
BRANCH  13  15
HETATM   15  C   UNL     1      -9.022  11.767  66.829  1.00  0.00    -0.196 A  
HETATM   16  C   UNL     1      -8.136  12.761  67.184  1.00  0.00    -0.131 A  
HETATM   17  C   UNL     1      -7.470  12.264  68.311  1.00  0.00    -0.119 A  
HETATM   18  N   UNL     1      -7.903  11.059  68.667  1.00  0.00    -0.128 NA 
HETATM   19  N   UNL     1      -8.844  10.717  67.739  1.00  0.00    -0.132 NA 
BRANCH  19  20
HETATM   20  C   UNL     1      -9.497   9.451  67.845  1.00  0.00    -0.132 A  
HETATM   21  C   UNL     1      -9.804   8.737  66.673  1.00  0.00    -0.335 A  
HETATM   22  C   UNL     1     -10.483   7.517  66.737  1.00  0.00    -0.319 A  
HETATM   23  C   UNL     1     -10.876   6.999  67.966  1.00  0.00    -0.229 A  
HETATM   24  C   UNL     1     -10.564   7.687  69.133  1.00  0.00    -0.195 A  
HETATM   25  C   UNL     1      -9.859   8.894  69.074  1.00  0.00    -0.182 A  
ENDBRANCH  19  20
ENDBRANCH  13  15
ENDBRANCH  10  13
ENDBRANCH   7  10
TORSDOF 4
ENDMDL
MODEL      148
REMARK 921   NORMALIZED FREE ENERGY PREDICTED BY IDOCK:   -5.05 KCAL/MOL
REMARK 922        TOTAL FREE ENERGY PREDICTED BY IDOCK:   -6.97 KCAL/MOL
REMARK 923 INTER-LIGAND FREE ENERGY PREDICTED BY IDOCK:   -5.00 KCAL/MOL
REMARK 924 INTRA-LIGAND FREE ENERGY PREDICTED BY IDOCK:   -1.97 KCAL/MOL
REMARK 927      BINDING AFFINITY PREDICTED BY RF-SCORE:    0.00 PKD
ROOT
HETATM    1  N   UNL     1     -10.406  18.783  68.848  1.00  0.00    -0.459 NA 
HETATM    2  H2  UNL     1      -9.759  18.921  69.624  1.00  0.00     0.000 HD 
HETATM    3  C   UNL     1     -10.415  17.426  68.519  1.00  0.00    -0.370 A  
HETATM    4  H1  UNL     1     -10.206  19.484  68.135  1.00  0.00     0.000 HD 
HETATM    5  C   UNL     1     -10.690  16.466  69.497  1.00  0.00    -0.325 A  
HETATM    6  C   UNL     1     -10.794  15.112  69.167  1.00  0.00    -0.251 A  
HETATM    7  C   UNL     1     -10.674  14.722  67.832  1.00  0.00    -0.259 A  
HETATM    8  C   UNL     1     -10.471  15.676  66.832  1.00  0.00    -0.307 A  
HETATM    9  C   UNL     1     -10.365  17.028  67.179  1.00  0.00    -0.305 A  
ENDROOT
BRANCH   7  10
HETATM   10  S   UNL     1     -10.677  12.985  67.412  1.00  0.00    -0.248 S  
HETATM   11  O   UNL     1     -11.930  12.465  67.917  1.00  0.00    -0.404 OA 
HETATM   12  O   UNL     1     -10.369  12.900  66.000  1.00  0.00    -0.271 OA 
BRANCH  10  13
HETATM   13  N   UNL     1      -9.447  12.414  68.323  1.00  0.00    -0.219 N  
HETATM   14  H   UNL     1      -9.632  12.166  69.295  1.00  0.00     0.000 HD 
BRANCH  13  15
HETATM   15  C   UNL     1      -8.160  12.251  67.830  1.00  0.00    -0.155 A  
HETATM   16  C   UNL     1      -7.721  11.058  67.300  1.00  0.00    -0.118 A  
HETATM   17  C   UNL     1      -6.430  11.325  66.828  1.00  0.00    -0.136 A  
HETATM   18  N   UNL     1      -6.070  12.591  67.019  1.00  0.00    -0.257 NA 
HETATM   19  N   UNL     1      -7.119  13.176  67.671  1.00  0.00    -0.147 NA 
BRANCH  19  20
HETATM   20  C   UNL     1      -7.029  14.555  68.032  1.00  0.00    -0.141 A  
HETATM   21  C   UNL     1      -6.897  15.522  67.019  1.00  0.00     0.061 A  
HETATM   22  C   UNL     1      -6.761  16.876  67.337  1.00  0.00    -0.187 A  
HETATM   23  C   UNL     1      -6.740  17.283  68.667  1.00  0.00    -0.192 A  
HETATM   24  C   UNL     1      -6.887  16.339  69.676  1.00  0.00    -0.125 A  
HETATM   25  C   UNL     1      -7.052  14.987  69.360  1.00  0.00    -0.186 A  
ENDBRANCH  19  20
ENDBRANCH  13  15
ENDBRANCH  10  13
ENDBRANCH   7  10
TORSDOF 4
ENDMDL
MODEL      149
REMARK 921   NORMALIZED FREE ENERGY PREDICTED BY IDOCK:   -5.04 KCAL/MOL
REMARK 922        TOTAL FREE ENERGY PREDICTED BY IDOCK:   -6.96 KCAL/MOL
REMARK 923 INTER-LIGAND FREE ENERGY PREDICTED BY IDOCK:   -5.57 KCAL/MOL
REMARK 924 INTRA-LIGAND FREE ENERGY PREDICTED BY IDOCK:   -1.39 KCAL/MOL
REMARK 927      BINDING AFFINITY PREDICTED BY RF-SCORE:    0.00 PKD
ROOT
HETATM    1  N   UNL     1      -8.420   8.589  63.934  1.00  0.00    -0.380 NA 
HETATM    2  H2  UNL     1      -8.322   7.575  63.878  1.00  0.00     0.000 HD 
HETATM    3  C   UNL     1      -8.823   8.921  65.229  1.00  0.00    -0.184 A  
HETATM    4  H1  UNL     1      -8.962   8.904  63.130  1.00  0.00     0.000 HD 
HETATM    5  C   UNL     1      -8.080   8.490  66.331  1.00  0.00    -0.103 A  
HETATM    6  C   UNL     1      -8.416   8.890  67.627  1.00  0.00    -0.121 A  
HETATM    7  C   UNL     1      -9.478   9.776  67.815  1.00  0.00    -0.133 A  
HETATM    8  C   UNL     1     -10.187  10.274  66.719  1.00  0.00    -0.286 A  
HETATM    9  C   UNL     1      -9.841   9.861  65.428  1.00  0.00    -0.384 A  
ENDROOT
BRANCH   7  10
HETATM   10  S   UNL     1     -10.000  10.195  69.473  1.00  0.00    -0.229 S  
HETATM   11  O   UNL     1      -8.921   9.770  70.339  1.00  0.00    -0.223 OA 
HETATM   12  O   UNL     1     -10.404  11.585  69.441  1.00  0.00    -0.058 OA 
BRANCH  10  13
HETATM   13  N   UNL     1     -11.285   9.208  69.683  1.00  0.00    -0.431 N  
HETATM   14  H   UNL     1     -12.147   9.415  69.179  1.00  0.00     0.000 HD 
BRANCH  13  15
HETATM   15  C   UNL     1     -11.253   8.101  70.520  1.00  0.00    -0.247 A  
HETATM   16  C   UNL     1     -11.615   8.173  71.847  1.00  0.00    -0.361 A  
HETATM   17  C   UNL     1     -11.547   6.854  72.312  1.00  0.00    -0.270 A  
HETATM   18  N   UNL     1     -11.191   5.997  71.359  1.00  0.00    -0.282 NA 
HETATM   19  N   UNL     1     -10.971   6.757  70.245  1.00  0.00    -0.271 NA 
BRANCH  19  20
HETATM   20  C   UNL     1     -10.558   6.115  69.038  1.00  0.00    -0.279 A  
HETATM   21  C   UNL     1     -11.122   6.524  67.816  1.00  0.00    -0.366 A  
HETATM   22  C   UNL     1     -10.776   5.888  66.621  1.00  0.00    -0.323 A  
HETATM   23  C   UNL     1      -9.875   4.828  66.628  1.00  0.00    -0.233 A  
HETATM   24  C   UNL     1      -9.298   4.425  67.827  1.00  0.00    -0.190 A  
HETATM   25  C   UNL     1      -9.621   5.079  69.020  1.00  0.00    -0.214 A  
ENDBRANCH  19  20
ENDBRANCH  13  15
ENDBRANCH  10  13
ENDBRANCH   7  10
TORSDOF 4
ENDMDL
MODEL      150
REMARK 921   NORMALIZED FREE ENERGY PREDICTED BY IDOCK:   -5.04 KCAL/MOL
REMARK 922        TOTAL FREE ENERGY PREDICTED BY IDOCK:   -6.95 KCAL/MOL
REMARK 923 INTER-LIGAND FREE ENERGY PREDICTED BY IDOCK:   -5.72 KCAL/MOL
REMARK 924 INTRA-LIGAND FREE ENERGY PREDICTED BY IDOCK:   -1.23 KCAL/MOL
REMARK 927      BINDING AFFINITY PREDICTED BY RF-SCORE:    0.00 PKD
ROOT
HETATM    1  N   UNL     1      -8.212  20.692  66.958  1.00  0.00    -0.546 NA 
HETATM    2  H2  UNL     1      -7.379  20.874  66.398  1.00  0.00     0.000 HD 
HETATM    3  C   UNL     1      -8.773  19.486  66.531  1.00  0.00    -0.356 A  
HETATM    4  H1  UNL     1      -8.776  21.541  66.981  1.00  0.00     0.000 HD 
HETATM    5  C   UNL     1      -8.001  18.321  66.500  1.00  0.00    -0.294 A  
HETATM    6  C   UNL     1      -8.569  17.089  66.165  1.00  0.00    -0.252 A  
HETATM    7  C   UNL     1      -9.939  17.015  65.910  1.00  0.00    -0.217 A  
HETATM    8  C   UNL     1     -10.740  18.156  66.007  1.00  0.00    -0.164 A  
HETATM    9  C   UNL     1     -10.155  19.384  66.340  1.00  0.00    -0.532 A  
ENDROOT
BRANCH   7  10
HETATM   10  S   UNL     1     -10.656  15.474  65.356  1.00  0.00    -0.429 S  
HETATM   11  O   UNL     1     -11.617  15.837  64.336  1.00  0.00    -0.401 OA 
HETATM   12  O   UNL     1      -9.551  14.595  65.036  1.00  0.00    -0.015 OA 
BRANCH  10  13
HETATM   13  N   UNL     1     -11.448  14.969  66.693  1.00  0.00    -0.302 N  
HETATM   14  H   UNL     1     -12.211  15.541  67.053  1.00  0.00     0.000 HD 
BRANCH  13  15
HETATM   15  C   UNL     1     -11.125  13.795  67.359  1.00  0.00    -0.296 A  
HETATM   16  C   UNL     1     -11.905  12.663  67.271  1.00  0.00    -0.395 A  
HETATM   17  C   UNL     1     -11.203  11.685  67.986  1.00  0.00    -0.263 A  
HETATM   18  N   UNL     1     -10.055  12.141  68.478  1.00  0.00    -0.207 NA 
HETATM   19  N   UNL     1     -10.004  13.460  68.129  1.00  0.00    -0.232 NA 
BRANCH  19  20
HETATM   20  C   UNL     1      -8.877  14.241  68.530  1.00  0.00    -0.176 A  
HETATM   21  C   UNL     1      -7.582  13.732  68.328  1.00  0.00    -0.129 A  
HETATM   22  C   UNL     1      -6.458  14.447  68.749  1.00  0.00    -0.087 A  
HETATM   23  C   UNL     1      -6.610  15.673  69.389  1.00  0.00    -0.166 A  
HETATM   24  C   UNL     1      -7.884  16.195  69.580  1.00  0.00    -0.002 A  
HETATM   25  C   UNL     1      -9.008  15.494  69.133  1.00  0.00    -0.256 A  
ENDBRANCH  19  20
ENDBRANCH  13  15
ENDBRANCH  10  13
ENDBRANCH   7  10
TORSDOF 4
ENDMDL
MODEL      151
REMARK 921   NORMALIZED FREE ENERGY PREDICTED BY IDOCK:   -5.02 KCAL/MOL
REMARK 922        TOTAL FREE ENERGY PREDICTED BY IDOCK:   -6.93 KCAL/MOL
REMARK 923 INTER-LIGAND FREE ENERGY PREDICTED BY IDOCK:   -6.14 KCAL/MOL
REMARK 924 INTRA-LIGAND FREE ENERGY PREDICTED BY IDOCK:   -0.79 KCAL/MOL
REMARK 927      BINDING AFFINITY PREDICTED BY RF-SCORE:    0.00 PKD
ROOT
HETATM    1  N   UNL     1     -13.923  15.883  73.205  1.00  0.00    -0.644 NA 
HETATM    2  H2  UNL     1     -13.595  15.674  74.148  1.00  0.00     0.000 HD 
HETATM    3  C   UNL     1     -13.298  15.005  72.317  1.00  0.00    -0.398 A  
HETATM    4  H1  UNL     1     -13.862  16.891  73.060  1.00  0.00     0.000 HD 
HETATM    5  C   UNL     1     -13.382  13.624  72.515  1.00  0.00    -0.638 A  
HETATM    6  C   UNL     1     -12.842  12.730  71.586  1.00  0.00    -0.363 A  
HETATM    7  C   UNL     1     -12.257  13.225  70.420  1.00  0.00    -0.332 A  
HETATM    8  C   UNL     1     -12.228  14.600  70.171  1.00  0.00    -0.391 A  
HETATM    9  C   UNL     1     -12.770  15.483  71.112  1.00  0.00    -0.525 A  
ENDROOT
BRANCH   7  10
HETATM   10  S   UNL     1     -11.449  12.103  69.287  1.00  0.00    -0.301 S  
HETATM   11  O   UNL     1     -12.518  11.421  68.588  1.00  0.00    -0.396 OA 
HETATM   12  O   UNL     1     -10.479  12.885  68.550  1.00  0.00    -0.247 OA 
BRANCH  10  13
HETATM   13  N   UNL     1     -10.717  11.059  70.309  1.00  0.00    -0.342 N  
HETATM   14  H   UNL     1     -10.624  11.321  71.290  1.00  0.00     0.000 HD 
BRANCH  13  15
HETATM   15  C   UNL     1     -10.214   9.833  69.897  1.00  0.00    -0.254 A  
HETATM   16  C   UNL     1     -10.828   8.642  70.218  1.00  0.00    -0.250 A  
HETATM   17  C   UNL     1     -10.089   7.662  69.545  1.00  0.00    -0.192 A  
HETATM   18  N   UNL     1      -9.092   8.177  68.832  1.00  0.00    -0.147 NA 
HETATM   19  N   UNL     1      -9.131   9.522  69.064  1.00  0.00    -0.140 NA 
BRANCH  19  20
HETATM   20  C   UNL     1      -8.163  10.363  68.436  1.00  0.00    -0.114 A  
HETATM   21  C   UNL     1      -7.123  10.910  69.211  1.00  0.00    -0.124 A  
HETATM   22  C   UNL     1      -6.184  11.774  68.640  1.00  0.00    -0.054 A  
HETATM   23  C   UNL     1      -6.277  12.115  67.295  1.00  0.00    -0.152 A  
HETATM   24  C   UNL     1      -7.289  11.569  66.515  1.00  0.00    -0.012 A  
HETATM   25  C   UNL     1      -8.213  10.682  67.077  1.00  0.00    -0.124 A  
ENDBRANCH  19  20
ENDBRANCH  13  15
ENDBRANCH  10  13
ENDBRANCH   7  10
TORSDOF 4
ENDMDL
MODEL      152
REMARK 921   NORMALIZED FREE ENERGY PREDICTED BY IDOCK:   -5.02 KCAL/MOL
REMARK 922        TOTAL FREE ENERGY PREDICTED BY IDOCK:   -6.93 KCAL/MOL
REMARK 923 INTER-LIGAND FREE ENERGY PREDICTED BY IDOCK:   -6.22 KCAL/MOL
REMARK 924 INTRA-LIGAND FREE ENERGY PREDICTED BY IDOCK:   -0.70 KCAL/MOL
REMARK 927      BINDING AFFINITY PREDICTED BY RF-SCORE:    0.00 PKD
ROOT
HETATM    1  N   UNL     1     -12.737  12.704  64.671  1.00  0.00    -0.704 NA 
HETATM    2  H2  UNL     1     -13.718  12.586  64.925  1.00  0.00     0.000 HD 
HETATM    3  C   UNL     1     -12.208  13.749  65.431  1.00  0.00    -0.440 A  
HETATM    4  H1  UNL     1     -12.670  12.723  63.654  1.00  0.00     0.000 HD 
HETATM    5  C   UNL     1     -12.301  13.722  66.826  1.00  0.00    -0.365 A  
HETATM    6  C   UNL     1     -11.696  14.712  67.606  1.00  0.00    -0.389 A  
HETATM    7  C   UNL     1     -10.945  15.710  66.983  1.00  0.00    -0.261 A  
HETATM    8  C   UNL     1     -10.782  15.711  65.596  1.00  0.00    -0.376 A  
HETATM    9  C   UNL     1     -11.397  14.716  64.828  1.00  0.00    -0.398 A  
ENDROOT
BRANCH   7  10
HETATM   10  S   UNL     1     -10.275  17.052  67.956  1.00  0.00    -0.336 S  
HETATM   11  O   UNL     1     -11.002  18.233  67.542  1.00  0.00    -0.335 OA 
HETATM   12  O   UNL     1     -10.311  16.621  69.338  1.00  0.00    -0.300 OA 
BRANCH  10  13
HETATM   13  N   UNL     1      -8.740  17.137  67.401  1.00  0.00    -0.202 N  
HETATM   14  H   UNL     1      -8.521  16.707  66.503  1.00  0.00     0.000 HD 
BRANCH  13  15
HETATM   15  C   UNL     1      -7.722  17.770  68.102  1.00  0.00    -0.254 A  
HETATM   16  C   UNL     1      -7.668  19.140  68.242  1.00  0.00    -0.350 A  
HETATM   17  C   UNL     1      -6.574  19.374  69.083  1.00  0.00    -0.322 A  
HETATM   18  N   UNL     1      -5.981  18.249  69.471  1.00  0.00    -0.244 NA 
HETATM   19  N   UNL     1      -6.659  17.241  68.845  1.00  0.00    -0.201 NA 
BRANCH  19  20
HETATM   20  C   UNL     1      -6.246  15.891  69.056  1.00  0.00    -0.125 A  
HETATM   21  C   UNL     1      -5.890  15.101  67.948  1.00  0.00    -0.158 A  
HETATM   22  C   UNL     1      -5.526  13.761  68.112  1.00  0.00    -0.116 A  
HETATM   23  C   UNL     1      -5.524  13.188  69.380  1.00  0.00    -0.079 A  
HETATM   24  C   UNL     1      -5.857  13.963  70.485  1.00  0.00    -0.178 A  
HETATM   25  C   UNL     1      -6.194  15.311  70.326  1.00  0.00    -0.090 A  
ENDBRANCH  19  20
ENDBRANCH  13  15
ENDBRANCH  10  13
ENDBRANCH   7  10
TORSDOF 4
ENDMDL
MODEL      153
REMARK 921   NORMALIZED FREE ENERGY PREDICTED BY IDOCK:   -4.98 KCAL/MOL
REMARK 922        TOTAL FREE ENERGY PREDICTED BY IDOCK:   -6.87 KCAL/MOL
REMARK 923 INTER-LIGAND FREE ENERGY PREDICTED BY IDOCK:   -6.04 KCAL/MOL
REMARK 924 INTRA-LIGAND FREE ENERGY PREDICTED BY IDOCK:   -0.84 KCAL/MOL
REMARK 927      BINDING AFFINITY PREDICTED BY RF-SCORE:    0.00 PKD
ROOT
HETATM    1  N   UNL     1      -8.722   8.365  64.399  1.00  0.00    -0.404 NA 
HETATM    2  H2  UNL     1      -7.937   8.757  63.878  1.00  0.00     0.000 HD 
HETATM    3  C   UNL     1      -9.264   9.372  65.201  1.00  0.00    -0.225 A  
HETATM    4  H1  UNL     1      -8.422   7.483  64.813  1.00  0.00     0.000 HD 
HETATM    5  C   UNL     1      -9.674  10.581  64.632  1.00  0.00    -0.369 A  
HETATM    6  C   UNL     1     -10.304  11.562  65.404  1.00  0.00    -0.322 A  
HETATM    7  C   UNL     1     -10.573  11.305  66.749  1.00  0.00    -0.260 A  
HETATM    8  C   UNL     1     -10.234  10.074  67.317  1.00  0.00    -0.275 A  
HETATM    9  C   UNL     1      -9.601   9.103  66.532  1.00  0.00    -0.289 A  
ENDROOT
BRANCH   7  10
HETATM   10  S   UNL     1     -11.259  12.596  67.778  1.00  0.00    -0.294 S  
HETATM   11  O   UNL     1     -11.510  13.710  66.888  1.00  0.00    -0.317 OA 
HETATM   12  O   UNL     1     -12.349  11.997  68.521  1.00  0.00    -0.246 OA 
BRANCH  10  13
HETATM   13  N   UNL     1     -10.001  12.955  68.756  1.00  0.00    -0.415 N  
HETATM   14  H   UNL     1     -10.110  12.819  69.761  1.00  0.00     0.000 HD 
BRANCH  13  15
HETATM   15  C   UNL     1      -8.791  13.438  68.277  1.00  0.00    -0.172 A  
HETATM   16  C   UNL     1      -7.695  12.623  68.096  1.00  0.00    -0.142 A  
HETATM   17  C   UNL     1      -6.725  13.447  67.514  1.00  0.00    -0.140 A  
HETATM   18  N   UNL     1      -7.162  14.687  67.317  1.00  0.00    -0.161 NA 
HETATM   19  N   UNL     1      -8.434  14.711  67.815  1.00  0.00    -0.164 NA 
BRANCH  19  20
HETATM   20  C   UNL     1      -9.179  15.928  67.759  1.00  0.00    -0.201 A  
HETATM   21  C   UNL     1      -9.252  16.632  66.543  1.00  0.00    -0.297 A  
HETATM   22  C   UNL     1      -9.933  17.850  66.461  1.00  0.00    -0.357 A  
HETATM   23  C   UNL     1     -10.537  18.389  67.592  1.00  0.00    -0.437 A  
HETATM   24  C   UNL     1     -10.486  17.696  68.796  1.00  0.00    -0.287 A  
HETATM   25  C   UNL     1      -9.830  16.463  68.873  1.00  0.00    -0.260 A  
ENDBRANCH  19  20
ENDBRANCH  13  15
ENDBRANCH  10  13
ENDBRANCH   7  10
TORSDOF 4
ENDMDL
MODEL      154
REMARK 921   NORMALIZED FREE ENERGY PREDICTED BY IDOCK:   -4.98 KCAL/MOL
REMARK 922        TOTAL FREE ENERGY PREDICTED BY IDOCK:   -6.87 KCAL/MOL
REMARK 923 INTER-LIGAND FREE ENERGY PREDICTED BY IDOCK:   -5.44 KCAL/MOL
REMARK 924 INTRA-LIGAND FREE ENERGY PREDICTED BY IDOCK:   -1.44 KCAL/MOL
REMARK 927      BINDING AFFINITY PREDICTED BY RF-SCORE:    0.00 PKD
ROOT
HETATM    1  N   UNL     1     -14.209   8.637  72.932  1.00  0.00    -1.040 NA 
HETATM    2  H2  UNL     1     -14.059   7.892  73.612  1.00  0.00     0.000 HD 
HETATM    3  C   UNL     1     -13.142   8.631  72.030  1.00  0.00    -0.381 A  
HETATM    4  H1  UNL     1     -14.450   9.489  73.437  1.00  0.00     0.000 HD 
HETATM    5  C   UNL     1     -12.812   7.462  71.338  1.00  0.00    -0.408 A  
HETATM    6  C   UNL     1     -11.809   7.462  70.364  1.00  0.00    -0.114 A  
HETATM    7  C   UNL     1     -11.166   8.659  70.045  1.00  0.00    -0.094 A  
HETATM    8  C   UNL     1     -11.533   9.850  70.676  1.00  0.00    -0.411 A  
HETATM    9  C   UNL     1     -12.537   9.833  71.651  1.00  0.00    -0.509 A  
ENDROOT
BRANCH   7  10
HETATM   10  S   UNL     1      -9.796   8.650  68.897  1.00  0.00    -0.184 S  
HETATM   11  O   UNL     1     -10.375   8.924  67.599  1.00  0.00    -0.222 OA 
HETATM   12  O   UNL     1      -8.789   9.534  69.447  1.00  0.00    -0.148 OA 
BRANCH  10  13
HETATM   13  N   UNL     1      -9.313   7.090  68.958  1.00  0.00    -0.137 N  
HETATM   14  H   UNL     1      -9.879   6.385  68.485  1.00  0.00     0.000 HD 
BRANCH  13  15
HETATM   15  C   UNL     1      -8.166   6.684  69.625  1.00  0.00    -0.127 A  
HETATM   16  C   UNL     1      -6.909   6.823  69.077  1.00  0.00    -0.069 A  
HETATM   17  C   UNL     1      -6.029   6.400  70.081  1.00  0.00    -0.022 A  
HETATM   18  N   UNL     1      -6.662   6.038  71.192  1.00  0.00    -0.056 NA 
HETATM   19  N   UNL     1      -7.993   6.175  70.918  1.00  0.00    -0.113 NA 
BRANCH  19  20
HETATM   20  C   UNL     1      -8.947   5.846  71.929  1.00  0.00    -0.138 A  
HETATM   21  C   UNL     1      -9.472   4.542  71.979  1.00  0.00    -0.196 A  
HETATM   22  C   UNL     1     -10.441   4.197  72.925  1.00  0.00    -0.246 A  
HETATM   23  C   UNL     1     -10.910   5.150  73.824  1.00  0.00    -0.345 A  
HETATM   24  C   UNL     1     -10.387   6.438  73.796  1.00  0.00    -0.326 A  
HETATM   25  C   UNL     1      -9.397   6.777  72.869  1.00  0.00    -0.151 A  
ENDBRANCH  19  20
ENDBRANCH  13  15
ENDBRANCH  10  13
ENDBRANCH   7  10
TORSDOF 4
ENDMDL
MODEL      155
REMARK 921   NORMALIZED FREE ENERGY PREDICTED BY IDOCK:   -4.97 KCAL/MOL
REMARK 922        TOTAL FREE ENERGY PREDICTED BY IDOCK:   -6.87 KCAL/MOL
REMARK 923 INTER-LIGAND FREE ENERGY PREDICTED BY IDOCK:   -6.19 KCAL/MOL
REMARK 924 INTRA-LIGAND FREE ENERGY PREDICTED BY IDOCK:   -0.68 KCAL/MOL
REMARK 927      BINDING AFFINITY PREDICTED BY RF-SCORE:    0.00 PKD
ROOT
HETATM    1  N   UNL     1      -8.906   5.932  65.090  1.00  0.00    -0.344 NA 
HETATM    2  H2  UNL     1      -7.925   5.655  65.075  1.00  0.00     0.000 HD 
HETATM    3  C   UNL     1      -9.076   6.900  66.082  1.00  0.00    -0.113 A  
HETATM    4  H1  UNL     1      -9.478   5.087  65.092  1.00  0.00     0.000 HD 
HETATM    5  C   UNL     1      -8.293   8.058  66.077  1.00  0.00    -0.126 A  
HETATM    6  C   UNL     1      -8.513   9.079  67.006  1.00  0.00    -0.120 A  
HETATM    7  C   UNL     1      -9.564   8.960  67.916  1.00  0.00    -0.148 A  
HETATM    8  C   UNL     1     -10.403   7.842  67.888  1.00  0.00    -0.281 A  
HETATM    9  C   UNL     1     -10.167   6.827  66.954  1.00  0.00    -0.300 A  
ENDROOT
BRANCH   7  10
HETATM   10  S   UNL     1      -9.777  10.195  69.191  1.00  0.00    -0.226 S  
HETATM   11  O   UNL     1      -9.467   9.526  70.436  1.00  0.00    -0.242 OA 
HETATM   12  O   UNL     1      -9.014  11.354  68.777  1.00  0.00    -0.159 OA 
BRANCH  10  13
HETATM   13  N   UNL     1     -11.383  10.485  69.117  1.00  0.00    -0.282 N  
HETATM   14  H   UNL     1     -11.934  10.003  68.407  1.00  0.00     0.000 HD 
BRANCH  13  15
HETATM   15  C   UNL     1     -12.029  11.361  69.978  1.00  0.00    -0.363 A  
HETATM   16  C   UNL     1     -12.654  10.933  71.129  1.00  0.00    -0.532 A  
HETATM   17  C   UNL     1     -13.087  12.104  71.762  1.00  0.00    -0.352 A  
HETATM   18  N   UNL     1     -12.753  13.200  71.088  1.00  0.00    -0.343 NA 
HETATM   19  N   UNL     1     -12.124  12.759  69.958  1.00  0.00    -0.318 NA 
BRANCH  19  20
HETATM   20  C   UNL     1     -11.649  13.715  69.009  1.00  0.00    -0.312 A  
HETATM   21  C   UNL     1     -11.100  14.925  69.471  1.00  0.00    -0.301 A  
HETATM   22  C   UNL     1     -10.668  15.903  68.571  1.00  0.00    -0.274 A  
HETATM   23  C   UNL     1     -10.789  15.695  67.201  1.00  0.00    -0.297 A  
HETATM   24  C   UNL     1     -11.315  14.497  66.732  1.00  0.00    -0.358 A  
HETATM   25  C   UNL     1     -11.722  13.505  67.630  1.00  0.00    -0.398 A  
ENDBRANCH  19  20
ENDBRANCH  13  15
ENDBRANCH  10  13
ENDBRANCH   7  10
TORSDOF 4
ENDMDL
MODEL      156
REMARK 921   NORMALIZED FREE ENERGY PREDICTED BY IDOCK:   -4.94 KCAL/MOL
REMARK 922        TOTAL FREE ENERGY PREDICTED BY IDOCK:   -6.83 KCAL/MOL
REMARK 923 INTER-LIGAND FREE ENERGY PREDICTED BY IDOCK:   -6.16 KCAL/MOL
REMARK 924 INTRA-LIGAND FREE ENERGY PREDICTED BY IDOCK:   -0.68 KCAL/MOL
REMARK 927      BINDING AFFINITY PREDICTED BY RF-SCORE:    0.00 PKD
ROOT
HETATM    1  N   UNL     1      -8.892  21.274  67.206  1.00  0.00    -0.416 NA 
HETATM    2  H2  UNL     1      -8.688  21.364  66.210  1.00  0.00     0.000 HD 
HETATM    3  C   UNL     1      -8.854  19.919  67.541  1.00  0.00    -0.338 A  
HETATM    4  H1  UNL     1      -9.719  21.833  67.415  1.00  0.00     0.000 HD 
HETATM    5  C   UNL     1      -7.721  19.154  67.254  1.00  0.00    -0.255 A  
HETATM    6  C   UNL     1      -7.628  17.821  67.666  1.00  0.00    -0.215 A  
HETATM    7  C   UNL     1      -8.663  17.266  68.420  1.00  0.00    -0.261 A  
HETATM    8  C   UNL     1      -9.772  18.038  68.778  1.00  0.00    -0.336 A  
HETATM    9  C   UNL     1      -9.851  19.370  68.355  1.00  0.00    -0.513 A  
ENDROOT
BRANCH   7  10
HETATM   10  S   UNL     1      -8.618  15.530  68.844  1.00  0.00    -0.227 S  
HETATM   11  O   UNL     1      -7.434  15.359  69.658  1.00  0.00    -0.209 OA 
HETATM   12  O   UNL     1      -9.924  15.200  69.377  1.00  0.00    -0.231 OA 
BRANCH  10  13
HETATM   13  N   UNL     1      -8.379  14.832  67.386  1.00  0.00    -0.186 N  
HETATM   14  H   UNL     1      -7.422  14.666  67.075  1.00  0.00     0.000 HD 
BRANCH  13  15
HETATM   15  C   UNL     1      -9.424  14.455  66.553  1.00  0.00    -0.289 A  
HETATM   16  C   UNL     1      -9.954  15.307  65.609  1.00  0.00    -0.397 A  
HETATM   17  C   UNL     1     -10.898  14.537  64.918  1.00  0.00    -0.421 A  
HETATM   18  N   UNL     1     -10.959  13.286  65.365  1.00  0.00    -0.281 NA 
HETATM   19  N   UNL     1     -10.075  13.224  66.404  1.00  0.00    -0.283 NA 
BRANCH  19  20
HETATM   20  C   UNL     1      -9.918  11.991  67.109  1.00  0.00    -0.195 A  
HETATM   21  C   UNL     1     -10.903  10.996  66.977  1.00  0.00    -0.334 A  
HETATM   22  C   UNL     1     -10.806   9.796  67.688  1.00  0.00    -0.301 A  
HETATM   23  C   UNL     1      -9.736   9.578  68.549  1.00  0.00    -0.162 A  
HETATM   24  C   UNL     1      -8.747  10.547  68.675  1.00  0.00    -0.143 A  
HETATM   25  C   UNL     1      -8.827  11.736  67.943  1.00  0.00    -0.165 A  
ENDBRANCH  19  20
ENDBRANCH  13  15
ENDBRANCH  10  13
ENDBRANCH   7  10
TORSDOF 4
ENDMDL
MODEL      157
REMARK 921   NORMALIZED FREE ENERGY PREDICTED BY IDOCK:   -4.91 KCAL/MOL
REMARK 922        TOTAL FREE ENERGY PREDICTED BY IDOCK:   -6.79 KCAL/MOL
REMARK 923 INTER-LIGAND FREE ENERGY PREDICTED BY IDOCK:   -5.02 KCAL/MOL
REMARK 924 INTRA-LIGAND FREE ENERGY PREDICTED BY IDOCK:   -1.78 KCAL/MOL
REMARK 927      BINDING AFFINITY PREDICTED BY RF-SCORE:    0.00 PKD
ROOT
HETATM    1  N   UNL     1      -9.394   5.540  65.721  1.00  0.00    -0.280 NA 
HETATM    2  H2  UNL     1      -8.848   4.818  66.191  1.00  0.00     0.000 HD 
HETATM    3  C   UNL     1      -9.404   6.679  66.529  1.00  0.00    -0.159 A  
HETATM    4  H1  UNL     1     -10.270   5.125  65.405  1.00  0.00     0.000 HD 
HETATM    5  C   UNL     1      -8.203   7.247  66.962  1.00  0.00    -0.117 A  
HETATM    6  C   UNL     1      -8.192   8.438  67.693  1.00  0.00    -0.126 A  
HETATM    7  C   UNL     1      -9.397   9.095  67.948  1.00  0.00    -0.137 A  
HETATM    8  C   UNL     1     -10.601   8.579  67.461  1.00  0.00    -0.284 A  
HETATM    9  C   UNL     1     -10.596   7.383  66.734  1.00  0.00    -0.281 A  
ENDROOT
BRANCH   7  10
HETATM   10  S   UNL     1      -9.412  10.548  68.989  1.00  0.00    -0.190 S  
HETATM   11  O   UNL     1      -8.151  11.214  68.744  1.00  0.00    -0.140 OA 
HETATM   12  O   UNL     1     -10.661  11.232  68.727  1.00  0.00    -0.188 OA 
BRANCH  10  13
HETATM   13  N   UNL     1      -9.398   9.892  70.486  1.00  0.00    -0.335 N  
HETATM   14  H   UNL     1      -8.548   9.968  71.044  1.00  0.00     0.000 HD 
BRANCH  13  15
HETATM   15  C   UNL     1     -10.494   9.237  71.029  1.00  0.00    -0.314 A  
HETATM   16  C   UNL     1     -11.559   9.917  71.578  1.00  0.00    -0.375 A  
HETATM   17  C   UNL     1     -12.486   8.924  71.916  1.00  0.00    -0.378 A  
HETATM   18  N   UNL     1     -12.066   7.705  71.594  1.00  0.00    -0.294 NA 
HETATM   19  N   UNL     1     -10.815   7.874  71.072  1.00  0.00    -0.232 NA 
BRANCH  19  20
HETATM   20  C   UNL     1     -10.084   6.727  70.636  1.00  0.00    -0.187 A  
HETATM   21  C   UNL     1      -8.704   6.653  70.896  1.00  0.00    -0.138 A  
HETATM   22  C   UNL     1      -7.948   5.568  70.444  1.00  0.00    -0.102 A  
HETATM   23  C   UNL     1      -8.554   4.549  69.715  1.00  0.00    -0.095 A  
HETATM   24  C   UNL     1      -9.920   4.602  69.466  1.00  0.00    -0.266 A  
HETATM   25  C   UNL     1     -10.684   5.673  69.942  1.00  0.00    -0.399 A  
ENDBRANCH  19  20
ENDBRANCH  13  15
ENDBRANCH  10  13
ENDBRANCH   7  10
TORSDOF 4
ENDMDL
MODEL      158
REMARK 921   NORMALIZED FREE ENERGY PREDICTED BY IDOCK:   -4.90 KCAL/MOL
REMARK 922        TOTAL FREE ENERGY PREDICTED BY IDOCK:   -6.79 KCAL/MOL
REMARK 923 INTER-LIGAND FREE ENERGY PREDICTED BY IDOCK:   -6.15 KCAL/MOL
REMARK 924 INTRA-LIGAND FREE ENERGY PREDICTED BY IDOCK:   -0.63 KCAL/MOL
REMARK 927      BINDING AFFINITY PREDICTED BY RF-SCORE:    0.00 PKD
ROOT
HETATM    1  N   UNL     1      -7.304   7.997  71.397  1.00  0.00    -0.065 NA 
HETATM    2  H2  UNL     1      -6.453   8.489  71.668  1.00  0.00     0.000 HD 
HETATM    3  C   UNL     1      -8.153   8.905  70.761  1.00  0.00    -0.156 A  
HETATM    4  H1  UNL     1      -7.634   7.461  72.200  1.00  0.00     0.000 HD 
HETATM    5  C   UNL     1      -7.701   9.639  69.660  1.00  0.00    -0.124 A  
HETATM    6  C   UNL     1      -8.564  10.482  68.954  1.00  0.00    -0.153 A  
HETATM    7  C   UNL     1      -9.908  10.549  69.323  1.00  0.00    -0.205 A  
HETATM    8  C   UNL     1     -10.393   9.767  70.375  1.00  0.00    -0.354 A  
HETATM    9  C   UNL     1      -9.516   8.931  71.075  1.00  0.00    -0.318 A  
ENDROOT
BRANCH   7  10
HETATM   10  S   UNL     1     -10.993  11.716  68.513  1.00  0.00    -0.239 S  
HETATM   11  O   UNL     1     -12.031  10.918  67.897  1.00  0.00    -0.585 OA 
HETATM   12  O   UNL     1     -11.334  12.719  69.501  1.00  0.00    -0.231 OA 
BRANCH  10  13
HETATM   13  N   UNL     1     -10.021  12.333  67.354  1.00  0.00    -0.200 N  
HETATM   14  H   UNL     1      -9.014  12.200  67.439  1.00  0.00     0.000 HD 
BRANCH  13  15
HETATM   15  C   UNL     1     -10.509  13.031  66.257  1.00  0.00    -0.276 A  
HETATM   16  C   UNL     1     -11.009  12.393  65.144  1.00  0.00    -0.339 A  
HETATM   17  C   UNL     1     -11.486  13.421  64.322  1.00  0.00    -0.393 A  
HETATM   18  N   UNL     1     -11.326  14.623  64.867  1.00  0.00    -0.385 NA 
HETATM   19  N   UNL     1     -10.690  14.405  66.056  1.00  0.00    -0.295 NA 
BRANCH  19  20
HETATM   20  C   UNL     1     -10.363  15.523  66.883  1.00  0.00    -0.290 A  
HETATM   21  C   UNL     1      -9.296  16.360  66.515  1.00  0.00    -0.300 A  
HETATM   22  C   UNL     1      -8.918  17.436  67.324  1.00  0.00    -0.241 A  
HETATM   23  C   UNL     1      -9.591  17.683  68.516  1.00  0.00    -0.315 A  
HETATM   24  C   UNL     1     -10.659  16.872  68.883  1.00  0.00    -0.353 A  
HETATM   25  C   UNL     1     -11.056  15.813  68.061  1.00  0.00    -0.337 A  
ENDBRANCH  19  20
ENDBRANCH  13  15
ENDBRANCH  10  13
ENDBRANCH   7  10
TORSDOF 4
ENDMDL
MODEL      159
REMARK 921   NORMALIZED FREE ENERGY PREDICTED BY IDOCK:   -4.90 KCAL/MOL
REMARK 922        TOTAL FREE ENERGY PREDICTED BY IDOCK:   -6.78 KCAL/MOL
REMARK 923 INTER-LIGAND FREE ENERGY PREDICTED BY IDOCK:   -5.96 KCAL/MOL
REMARK 924 INTRA-LIGAND FREE ENERGY PREDICTED BY IDOCK:   -0.82 KCAL/MOL
REMARK 927      BINDING AFFINITY PREDICTED BY RF-SCORE:    0.00 PKD
ROOT
HETATM    1  N   UNL     1     -11.290  17.264  68.807  1.00  0.00    -0.016 NA 
HETATM    2  H2  UNL     1     -11.163  17.691  69.725  1.00  0.00     0.000 HD 
HETATM    3  C   UNL     1     -11.299  15.876  68.967  1.00  0.00    -0.371 A  
HETATM    4  H1  UNL     1     -10.638  17.702  68.157  1.00  0.00     0.000 HD 
HETATM    5  C   UNL     1     -12.193  15.276  69.859  1.00  0.00    -0.357 A  
HETATM    6  C   UNL     1     -12.281  13.885  69.962  1.00  0.00    -0.408 A  
HETATM    7  C   UNL     1     -11.502  13.086  69.124  1.00  0.00    -0.299 A  
HETATM    8  C   UNL     1     -10.656  13.669  68.176  1.00  0.00    -0.255 A  
HETATM    9  C   UNL     1     -10.576  15.063  68.087  1.00  0.00    -0.248 A  
ENDROOT
BRANCH   7  10
HETATM   10  S   UNL     1     -11.508  11.311  69.333  1.00  0.00    -0.332 S  
HETATM   11  O   UNL     1     -12.112  11.075  70.627  1.00  0.00    -0.322 OA 
HETATM   12  O   UNL     1     -12.107  10.755  68.137  1.00  0.00    -0.493 OA 
BRANCH  10  13
HETATM   13  N   UNL     1      -9.912  10.973  69.409  1.00  0.00    -0.429 N  
HETATM   14  H   UNL     1      -9.281  11.678  69.788  1.00  0.00     0.000 HD 
BRANCH  13  15
HETATM   15  C   UNL     1      -9.378   9.766  68.978  1.00  0.00    -0.161 A  
HETATM   16  C   UNL     1      -8.532   9.682  67.894  1.00  0.00    -0.122 A  
HETATM   17  C   UNL     1      -8.139   8.339  67.847  1.00  0.00    -0.127 A  
HETATM   18  N   UNL     1      -8.671   7.618  68.829  1.00  0.00    -0.129 NA 
HETATM   19  N   UNL     1      -9.472   8.479  69.524  1.00  0.00    -0.164 NA 
BRANCH  19  20
HETATM   20  C   UNL     1     -10.201   7.992  70.651  1.00  0.00    -0.196 A  
HETATM   21  C   UNL     1     -11.412   7.308  70.441  1.00  0.00    -0.279 A  
HETATM   22  C   UNL     1     -12.176   6.858  71.522  1.00  0.00    -0.415 A  
HETATM   23  C   UNL     1     -11.750   7.095  72.825  1.00  0.00    -0.107 A  
HETATM   24  C   UNL     1     -10.547   7.754  73.045  1.00  0.00    -0.441 A  
HETATM   25  C   UNL     1      -9.767   8.181  71.966  1.00  0.00    -0.292 A  
ENDBRANCH  19  20
ENDBRANCH  13  15
ENDBRANCH  10  13
ENDBRANCH   7  10
TORSDOF 4
ENDMDL
MODEL      160
REMARK 921   NORMALIZED FREE ENERGY PREDICTED BY IDOCK:   -4.90 KCAL/MOL
REMARK 922        TOTAL FREE ENERGY PREDICTED BY IDOCK:   -6.78 KCAL/MOL
REMARK 923 INTER-LIGAND FREE ENERGY PREDICTED BY IDOCK:   -6.24 KCAL/MOL
REMARK 924 INTRA-LIGAND FREE ENERGY PREDICTED BY IDOCK:   -0.54 KCAL/MOL
REMARK 927      BINDING AFFINITY PREDICTED BY RF-SCORE:    0.00 PKD
ROOT
HETATM    1  N   UNL     1      -8.056  21.217  67.080  1.00  0.00    -0.617 NA 
HETATM    2  H2  UNL     1      -7.163  21.052  66.614  1.00  0.00     0.000 HD 
HETATM    3  C   UNL     1      -8.627  19.979  67.386  1.00  0.00    -0.341 A  
HETATM    4  H1  UNL     1      -8.578  21.904  66.538  1.00  0.00     0.000 HD 
HETATM    5  C   UNL     1      -7.910  19.037  68.130  1.00  0.00    -0.334 A  
HETATM    6  C   UNL     1      -8.499  17.833  68.524  1.00  0.00    -0.296 A  
HETATM    7  C   UNL     1      -9.838  17.593  68.215  1.00  0.00    -0.324 A  
HETATM    8  C   UNL     1     -10.591  18.555  67.536  1.00  0.00    -0.461 A  
HETATM    9  C   UNL     1      -9.986  19.754  67.144  1.00  0.00    -0.536 A  
ENDROOT
BRANCH   7  10
HETATM   10  S   UNL     1     -10.567  16.007  68.600  1.00  0.00    -0.283 S  
HETATM   11  O   UNL     1      -9.819  15.500  69.731  1.00  0.00    -0.281 OA 
HETATM   12  O   UNL     1     -11.995  16.223  68.708  1.00  0.00    -0.205 OA 
BRANCH  10  13
HETATM   13  N   UNL     1     -10.198  15.133  67.270  1.00  0.00    -0.241 N  
HETATM   14  H   UNL     1      -9.775  15.610  66.474  1.00  0.00     0.000 HD 
BRANCH  13  15
HETATM   15  C   UNL     1     -10.437  13.769  67.177  1.00  0.00    -0.272 A  
HETATM   16  C   UNL     1     -11.705  13.255  67.010  1.00  0.00    -0.439 A  
HETATM   17  C   UNL     1     -11.518  11.875  66.861  1.00  0.00    -0.322 A  
HETATM   18  N   UNL     1     -10.236  11.528  66.908  1.00  0.00    -0.212 NA 
HETATM   19  N   UNL     1      -9.549  12.687  67.138  1.00  0.00    -0.202 NA 
BRANCH  19  20
HETATM   20  C   UNL     1      -8.126  12.640  67.252  1.00  0.00    -0.178 A  
HETATM   21  C   UNL     1      -7.445  11.473  66.860  1.00  0.00    -0.145 A  
HETATM   22  C   UNL     1      -6.058  11.374  67.001  1.00  0.00    -0.120 A  
HETATM   23  C   UNL     1      -5.334  12.430  67.546  1.00  0.00    -0.115 A  
HETATM   24  C   UNL     1      -5.993  13.594  67.921  1.00  0.00    -0.147 A  
HETATM   25  C   UNL     1      -7.377  13.706  67.755  1.00  0.00    -0.170 A  
ENDBRANCH  19  20
ENDBRANCH  13  15
ENDBRANCH  10  13
ENDBRANCH   7  10
TORSDOF 4
ENDMDL
MODEL      161
REMARK 921   NORMALIZED FREE ENERGY PREDICTED BY IDOCK:   -4.88 KCAL/MOL
REMARK 922        TOTAL FREE ENERGY PREDICTED BY IDOCK:   -6.75 KCAL/MOL
REMARK 923 INTER-LIGAND FREE ENERGY PREDICTED BY IDOCK:   -6.10 KCAL/MOL
REMARK 924 INTRA-LIGAND FREE ENERGY PREDICTED BY IDOCK:   -0.66 KCAL/MOL
REMARK 927      BINDING AFFINITY PREDICTED BY RF-SCORE:    0.00 PKD
ROOT
HETATM    1  N   UNL     1      -9.123   6.299  72.411  1.00  0.00    -0.139 NA 
HETATM    2  H2  UNL     1      -8.753   6.802  73.217  1.00  0.00     0.000 HD 
HETATM    3  C   UNL     1      -9.366   7.221  71.391  1.00  0.00    -0.149 A  
HETATM    4  H1  UNL     1      -9.866   5.680  72.733  1.00  0.00     0.000 HD 
HETATM    5  C   UNL     1      -8.346   8.068  70.949  1.00  0.00    -0.119 A  
HETATM    6  C   UNL     1      -8.545   8.931  69.867  1.00  0.00    -0.137 A  
HETATM    7  C   UNL     1      -9.764   8.905  69.187  1.00  0.00    -0.168 A  
HETATM    8  C   UNL     1     -10.769   8.013  69.570  1.00  0.00    -0.185 A  
HETATM    9  C   UNL     1     -10.556   7.158  70.657  1.00  0.00    -0.243 A  
ENDROOT
BRANCH   7  10
HETATM   10  S   UNL     1     -10.078  10.090  67.886  1.00  0.00    -0.180 S  
HETATM   11  O   UNL     1      -8.964  11.013  67.924  1.00  0.00    -0.138 OA 
HETATM   12  O   UNL     1     -10.352   9.325  66.687  1.00  0.00    -0.259 OA 
BRANCH  10  13
HETATM   13  N   UNL     1     -11.424  10.841  68.430  1.00  0.00    -0.362 N  
HETATM   14  H   UNL     1     -12.166  10.275  68.842  1.00  0.00     0.000 HD 
BRANCH  13  15
HETATM   15  C   UNL     1     -11.599  12.216  68.355  1.00  0.00    -0.327 A  
HETATM   16  C   UNL     1     -11.698  13.006  69.478  1.00  0.00    -0.381 A  
HETATM   17  C   UNL     1     -11.763  14.318  68.992  1.00  0.00    -0.317 A  
HETATM   18  N   UNL     1     -11.692  14.373  67.666  1.00  0.00    -0.375 NA 
HETATM   19  N   UNL     1     -11.624  13.074  67.248  1.00  0.00    -0.335 NA 
BRANCH  19  20
HETATM   20  C   UNL     1     -11.548  12.798  65.848  1.00  0.00    -0.382 A  
HETATM   21  C   UNL     1     -12.722  12.845  65.075  1.00  0.00    -0.474 A  
HETATM   22  C   UNL     1     -12.694  12.536  63.712  1.00  0.00    -0.414 A  
HETATM   23  C   UNL     1     -11.499  12.163  63.105  1.00  0.00    -0.263 A  
HETATM   24  C   UNL     1     -10.329  12.129  63.855  1.00  0.00    -0.441 A  
HETATM   25  C   UNL     1     -10.350  12.465  65.212  1.00  0.00    -0.308 A  
ENDBRANCH  19  20
ENDBRANCH  13  15
ENDBRANCH  10  13
ENDBRANCH   7  10
TORSDOF 4
ENDMDL
MODEL      162
REMARK 921   NORMALIZED FREE ENERGY PREDICTED BY IDOCK:   -4.88 KCAL/MOL
REMARK 922        TOTAL FREE ENERGY PREDICTED BY IDOCK:   -6.75 KCAL/MOL
REMARK 923 INTER-LIGAND FREE ENERGY PREDICTED BY IDOCK:   -4.75 KCAL/MOL
REMARK 924 INTRA-LIGAND FREE ENERGY PREDICTED BY IDOCK:   -2.01 KCAL/MOL
REMARK 927      BINDING AFFINITY PREDICTED BY RF-SCORE:    0.00 PKD
ROOT
HETATM    1  N   UNL     1     -11.285  11.085  70.289  1.00  0.00    -0.472 NA 
HETATM    2  H2  UNL     1     -12.205  10.677  70.453  1.00  0.00     0.000 HD 
HETATM    3  C   UNL     1     -10.596  10.267  69.391  1.00  0.00    -0.237 A  
HETATM    4  H1  UNL     1     -10.872  11.319  71.192  1.00  0.00     0.000 HD 
HETATM    5  C   UNL     1     -11.161   9.947  68.153  1.00  0.00    -0.215 A  
HETATM    6  C   UNL     1     -10.447   9.208  67.206  1.00  0.00    -0.335 A  
HETATM    7  C   UNL     1      -9.132   8.831  67.482  1.00  0.00    -0.133 A  
HETATM    8  C   UNL     1      -8.526   9.205  68.684  1.00  0.00    -0.127 A  
HETATM    9  C   UNL     1      -9.255   9.942  69.624  1.00  0.00    -0.246 A  
ENDROOT
BRANCH   7  10
HETATM   10  S   UNL     1      -8.252   7.779  66.336  1.00  0.00    -0.121 S  
HETATM   11  O   UNL     1      -7.952   8.614  65.193  1.00  0.00    -0.112 OA 
HETATM   12  O   UNL     1      -7.181   7.155  67.085  1.00  0.00    -0.080 OA 
BRANCH  10  13
HETATM   13  N   UNL     1      -9.400   6.691  65.925  1.00  0.00    -0.386 N  
HETATM   14  H   UNL     1     -10.154   6.987  65.306  1.00  0.00     0.000 HD 
BRANCH  13  15
HETATM   15  C   UNL     1      -9.393   5.381  66.385  1.00  0.00    -0.150 A  
HETATM   16  C   UNL     1      -9.116   4.314  65.559  1.00  0.00    -0.138 A  
HETATM   17  C   UNL     1      -9.106   3.197  66.403  1.00  0.00    -0.154 A  
HETATM   18  N   UNL     1      -9.337   3.517  67.672  1.00  0.00    -0.196 NA 
HETATM   19  N   UNL     1      -9.552   4.866  67.678  1.00  0.00    -0.144 NA 
BRANCH  19  20
HETATM   20  C   UNL     1      -9.843   5.517  68.915  1.00  0.00    -0.157 A  
HETATM   21  C   UNL     1     -11.126   6.054  69.123  1.00  0.00    -0.405 A  
HETATM   22  C   UNL     1     -11.432   6.738  70.303  1.00  0.00    -0.414 A  
HETATM   23  C   UNL     1     -10.461   6.909  71.284  1.00  0.00    -0.228 A  
HETATM   24  C   UNL     1      -9.194   6.369  71.097  1.00  0.00    -0.159 A  
HETATM   25  C   UNL     1      -8.894   5.659  69.931  1.00  0.00    -0.135 A  
ENDBRANCH  19  20
ENDBRANCH  13  15
ENDBRANCH  10  13
ENDBRANCH   7  10
TORSDOF 4
ENDMDL
MODEL      163
REMARK 921   NORMALIZED FREE ENERGY PREDICTED BY IDOCK:   -4.86 KCAL/MOL
REMARK 922        TOTAL FREE ENERGY PREDICTED BY IDOCK:   -6.73 KCAL/MOL
REMARK 923 INTER-LIGAND FREE ENERGY PREDICTED BY IDOCK:   -6.30 KCAL/MOL
REMARK 924 INTRA-LIGAND FREE ENERGY PREDICTED BY IDOCK:   -0.43 KCAL/MOL
REMARK 927      BINDING AFFINITY PREDICTED BY RF-SCORE:    0.00 PKD
ROOT
HETATM    1  N   UNL     1     -12.322  15.772  71.339  1.00  0.00    -0.423 NA 
HETATM    2  H2  UNL     1     -11.962  15.024  71.932  1.00  0.00     0.000 HD 
HETATM    3  C   UNL     1     -11.828  15.585  70.046  1.00  0.00    -0.359 A  
HETATM    4  H1  UNL     1     -12.180  16.660  71.820  1.00  0.00     0.000 HD 
HETATM    5  C   UNL     1     -12.023  14.368  69.386  1.00  0.00    -0.370 A  
HETATM    6  C   UNL     1     -11.617  14.196  68.060  1.00  0.00    -0.368 A  
HETATM    7  C   UNL     1     -11.058  15.272  67.371  1.00  0.00    -0.326 A  
HETATM    8  C   UNL     1     -10.921  16.517  67.991  1.00  0.00    -0.320 A  
HETATM    9  C   UNL     1     -11.329  16.673  69.321  1.00  0.00    -0.025 A  
ENDROOT
BRANCH   7  10
HETATM   10  S   UNL     1     -10.418  15.031  65.719  1.00  0.00    -0.365 S  
HETATM   11  O   UNL     1     -11.039  13.817  65.235  1.00  0.00    -0.299 OA 
HETATM   12  O   UNL     1     -10.613  16.281  65.013  1.00  0.00    -0.620 OA 
BRANCH  10  13
HETATM   13  N   UNL     1      -8.834  14.754  66.006  1.00  0.00    -0.413 N  
HETATM   14  H   UNL     1      -8.241  14.461  65.230  1.00  0.00     0.000 HD 
BRANCH  13  15
HETATM   15  C   UNL     1      -8.262  14.898  67.263  1.00  0.00    -0.209 A  
HETATM   16  C   UNL     1      -8.039  13.824  68.096  1.00  0.00    -0.155 A  
HETATM   17  C   UNL     1      -7.367  14.358  69.202  1.00  0.00    -0.113 A  
HETATM   18  N   UNL     1      -7.156  15.666  69.085  1.00  0.00    -0.154 NA 
HETATM   19  N   UNL     1      -7.734  16.027  67.902  1.00  0.00    -0.134 NA 
BRANCH  19  20
HETATM   20  C   UNL     1      -7.684  17.395  67.494  1.00  0.00    -0.192 A  
HETATM   21  C   UNL     1      -7.755  18.405  68.469  1.00  0.00    -0.321 A  
HETATM   22  C   UNL     1      -7.755  19.754  68.104  1.00  0.00    -0.336 A  
HETATM   23  C   UNL     1      -7.698  20.114  66.761  1.00  0.00    -0.337 A  
HETATM   24  C   UNL     1      -7.610  19.125  65.788  1.00  0.00    -0.156 A  
HETATM   25  C   UNL     1      -7.581  17.776  66.153  1.00  0.00    -0.302 A  
ENDBRANCH  19  20
ENDBRANCH  13  15
ENDBRANCH  10  13
ENDBRANCH   7  10
TORSDOF 4
ENDMDL
MODEL      164
REMARK 921   NORMALIZED FREE ENERGY PREDICTED BY IDOCK:   -4.86 KCAL/MOL
REMARK 922        TOTAL FREE ENERGY PREDICTED BY IDOCK:   -6.73 KCAL/MOL
REMARK 923 INTER-LIGAND FREE ENERGY PREDICTED BY IDOCK:   -6.57 KCAL/MOL
REMARK 924 INTRA-LIGAND FREE ENERGY PREDICTED BY IDOCK:   -0.16 KCAL/MOL
REMARK 927      BINDING AFFINITY PREDICTED BY RF-SCORE:    0.00 PKD
ROOT
HETATM    1  N   UNL     1      -9.421   9.817  63.021  1.00  0.00    -0.541 NA 
HETATM    2  H2  UNL     1      -8.635  10.333  62.625  1.00  0.00     0.000 HD 
HETATM    3  C   UNL     1      -9.519  10.137  64.377  1.00  0.00    -0.308 A  
HETATM    4  H1  UNL     1      -9.346   8.843  62.727  1.00  0.00     0.000 HD 
HETATM    5  C   UNL     1      -9.622  11.471  64.780  1.00  0.00    -0.198 A  
HETATM    6  C   UNL     1      -9.815  11.804  66.124  1.00  0.00    -0.254 A  
HETATM    7  C   UNL     1      -9.958  10.785  67.067  1.00  0.00    -0.197 A  
HETATM    8  C   UNL     1      -9.930   9.445  66.672  1.00  0.00    -0.326 A  
HETATM    9  C   UNL     1      -9.733   9.128  65.323  1.00  0.00     0.016 A  
ENDROOT
BRANCH   7  10
HETATM   10  S   UNL     1     -10.076  11.194  68.803  1.00  0.00    -0.186 S  
HETATM   11  O   UNL     1      -9.713   9.986  69.512  1.00  0.00    -0.209 OA 
HETATM   12  O   UNL     1      -9.312  12.409  68.995  1.00  0.00     0.174 OA 
BRANCH  10  13
HETATM   13  N   UNL     1     -11.677  11.467  68.979  1.00  0.00    -0.314 N  
HETATM   14  H   UNL     1     -12.175  11.952  68.233  1.00  0.00     0.000 HD 
BRANCH  13  15
HETATM   15  C   UNL     1     -12.388  11.067  70.102  1.00  0.00    -0.311 A  
HETATM   16  C   UNL     1     -12.703   9.747  70.340  1.00  0.00     0.051 A  
HETATM   17  C   UNL     1     -13.320   9.744  71.597  1.00  0.00    -0.399 A  
HETATM   18  N   UNL     1     -13.382  10.958  72.135  1.00  0.00    -0.352 NA 
HETATM   19  N   UNL     1     -12.839  11.800  71.207  1.00  0.00    -0.363 NA 
BRANCH  19  20
HETATM   20  C   UNL     1     -12.771  13.198  71.493  1.00  0.00    -0.269 A  
HETATM   21  C   UNL     1     -12.091  14.048  70.603  1.00  0.00    -0.424 A  
HETATM   22  C   UNL     1     -11.965  15.413  70.874  1.00  0.00    -0.406 A  
HETATM   23  C   UNL     1     -12.503  15.947  72.040  1.00  0.00    -0.534 A  
HETATM   24  C   UNL     1     -13.193  15.120  72.919  1.00  0.00    -0.600 A  
HETATM   25  C   UNL     1     -13.345  13.759  72.637  1.00  0.00    -0.618 A  
ENDBRANCH  19  20
ENDBRANCH  13  15
ENDBRANCH  10  13
ENDBRANCH   7  10
TORSDOF 4
ENDMDL
MODEL      165
REMARK 921   NORMALIZED FREE ENERGY PREDICTED BY IDOCK:   -4.85 KCAL/MOL
REMARK 922        TOTAL FREE ENERGY PREDICTED BY IDOCK:   -6.72 KCAL/MOL
REMARK 923 INTER-LIGAND FREE ENERGY PREDICTED BY IDOCK:   -5.99 KCAL/MOL
REMARK 924 INTRA-LIGAND FREE ENERGY PREDICTED BY IDOCK:   -0.73 KCAL/MOL
REMARK 927      BINDING AFFINITY PREDICTED BY RF-SCORE:    0.00 PKD
ROOT
HETATM    1  N   UNL     1     -12.647  13.544  62.728  1.00  0.00    -0.648 NA 
HETATM    2  H2  UNL     1     -12.546  14.556  62.649  1.00  0.00     0.000 HD 
HETATM    3  C   UNL     1     -12.148  13.149  63.971  1.00  0.00    -0.446 A  
HETATM    4  H1  UNL     1     -12.291  13.119  61.872  1.00  0.00     0.000 HD 
HETATM    5  C   UNL     1     -12.636  13.732  65.144  1.00  0.00    -0.471 A  
HETATM    6  C   UNL     1     -12.217  13.283  66.399  1.00  0.00    -0.419 A  
HETATM    7  C   UNL     1     -11.338  12.202  66.480  1.00  0.00    -0.350 A  
HETATM    8  C   UNL     1     -10.897  11.560  65.320  1.00  0.00    -0.319 A  
HETATM    9  C   UNL     1     -11.323  12.023  64.071  1.00  0.00    -0.478 A  
ENDROOT
BRANCH   7  10
HETATM   10  S   UNL     1     -10.694  11.700  68.071  1.00  0.00    -0.221 S  
HETATM   11  O   UNL     1     -10.355  12.928  68.757  1.00  0.00    -0.216 OA 
HETATM   12  O   UNL     1     -11.665  10.790  68.642  1.00  0.00    -0.334 OA 
BRANCH  10  13
HETATM   13  N   UNL     1      -9.324  10.917  67.649  1.00  0.00    -0.155 N  
HETATM   14  H   UNL     1      -9.007  10.974  66.681  1.00  0.00     0.000 HD 
BRANCH  13  15
HETATM   15  C   UNL     1      -8.573  10.177  68.552  1.00  0.00    -0.118 A  
HETATM   16  C   UNL     1      -7.783  10.772  69.512  1.00  0.00    -0.074 A  
HETATM   17  C   UNL     1      -7.280   9.710  70.274  1.00  0.00    -0.135 A  
HETATM   18  N   UNL     1      -7.724   8.529  69.855  1.00  0.00    -0.088 NA 
HETATM   19  N   UNL     1      -8.502   8.794  68.764  1.00  0.00    -0.127 NA 
BRANCH  19  20
HETATM   20  C   UNL     1      -9.123   7.709  68.074  1.00  0.00    -0.135 A  
HETATM   21  C   UNL     1      -8.420   7.061  67.042  1.00  0.00    -0.121 A  
HETATM   22  C   UNL     1      -9.013   6.025  66.314  1.00  0.00    -0.156 A  
HETATM   23  C   UNL     1     -10.317   5.632  66.595  1.00  0.00    -0.311 A  
HETATM   24  C   UNL     1     -11.016   6.253  67.623  1.00  0.00    -0.438 A  
HETATM   25  C   UNL     1     -10.415   7.270  68.372  1.00  0.00    -0.228 A  
ENDBRANCH  19  20
ENDBRANCH  13  15
ENDBRANCH  10  13
ENDBRANCH   7  10
TORSDOF 4
ENDMDL
MODEL      166
REMARK 921   NORMALIZED FREE ENERGY PREDICTED BY IDOCK:   -4.85 KCAL/MOL
REMARK 922        TOTAL FREE ENERGY PREDICTED BY IDOCK:   -6.71 KCAL/MOL
REMARK 923 INTER-LIGAND FREE ENERGY PREDICTED BY IDOCK:   -6.17 KCAL/MOL
REMARK 924 INTRA-LIGAND FREE ENERGY PREDICTED BY IDOCK:   -0.55 KCAL/MOL
REMARK 927      BINDING AFFINITY PREDICTED BY RF-SCORE:    0.00 PKD
ROOT
HETATM    1  N   UNL     1     -13.398  16.185  74.165  1.00  0.00    -0.842 NA 
HETATM    2  H2  UNL     1     -13.919  15.409  74.573  1.00  0.00     0.000 HD 
HETATM    3  C   UNL     1     -12.905  15.780  72.923  1.00  0.00    -0.482 A  
HETATM    4  H1  UNL     1     -12.764  16.553  74.875  1.00  0.00     0.000 HD 
HETATM    5  C   UNL     1     -13.773  15.275  71.951  1.00  0.00    -0.601 A  
HETATM    6  C   UNL     1     -13.311  14.953  70.671  1.00  0.00    -0.253 A  
HETATM    7  C   UNL     1     -11.975  15.189  70.347  1.00  0.00    -0.320 A  
HETATM    8  C   UNL     1     -11.109  15.760  71.284  1.00  0.00    -0.264 A  
HETATM    9  C   UNL     1     -11.585  16.074  72.562  1.00  0.00    -0.404 A  
ENDROOT
BRANCH   7  10
HETATM   10  S   UNL     1     -11.341  14.663  68.760  1.00  0.00    -0.298 S  
HETATM   11  O   UNL     1     -12.488  14.165  68.030  1.00  0.00    -0.104 OA 
HETATM   12  O   UNL     1     -10.568  15.770  68.236  1.00  0.00    -0.254 OA 
BRANCH  10  13
HETATM   13  N   UNL     1     -10.378  13.412  69.178  1.00  0.00    -0.431 N  
HETATM   14  H   UNL     1      -9.410  13.605  69.434  1.00  0.00     0.000 HD 
BRANCH  13  15
HETATM   15  C   UNL     1     -10.821  12.096  69.198  1.00  0.00    -0.115 A  
HETATM   16  C   UNL     1     -11.887  11.692  69.972  1.00  0.00    -0.435 A  
HETATM   17  C   UNL     1     -12.082  10.345  69.643  1.00  0.00    -0.097 A  
HETATM   18  N   UNL     1     -11.226   9.919  68.719  1.00  0.00    -0.130 NA 
HETATM   19  N   UNL     1     -10.412  10.983  68.453  1.00  0.00    -0.171 NA 
BRANCH  19  20
HETATM   20  C   UNL     1      -9.365  10.833  67.493  1.00  0.00    -0.147 A  
HETATM   21  C   UNL     1      -9.664  10.286  66.232  1.00  0.00    -0.263 A  
HETATM   22  C   UNL     1      -8.657  10.082  65.284  1.00  0.00    -0.166 A  
HETATM   23  C   UNL     1      -7.339  10.407  65.585  1.00  0.00    -0.148 A  
HETATM   24  C   UNL     1      -7.033  10.963  66.822  1.00  0.00    -0.126 A  
HETATM   25  C   UNL     1      -8.043  11.195  67.761  1.00  0.00    -0.117 A  
ENDBRANCH  19  20
ENDBRANCH  13  15
ENDBRANCH  10  13
ENDBRANCH   7  10
TORSDOF 4
ENDMDL
MODEL      167
REMARK 921   NORMALIZED FREE ENERGY PREDICTED BY IDOCK:   -4.84 KCAL/MOL
REMARK 922        TOTAL FREE ENERGY PREDICTED BY IDOCK:   -6.71 KCAL/MOL
REMARK 923 INTER-LIGAND FREE ENERGY PREDICTED BY IDOCK:   -6.37 KCAL/MOL
REMARK 924 INTRA-LIGAND FREE ENERGY PREDICTED BY IDOCK:   -0.34 KCAL/MOL
REMARK 927      BINDING AFFINITY PREDICTED BY RF-SCORE:    0.00 PKD
ROOT
HETATM    1  N   UNL     1     -12.056  14.595  68.938  1.00  0.00    -0.528 NA 
HETATM    2  H2  UNL     1     -11.905  15.316  69.643  1.00  0.00     0.000 HD 
HETATM    3  C   UNL     1     -11.862  13.348  69.535  1.00  0.00    -0.332 A  
HETATM    4  H1  UNL     1     -11.533  14.852  68.101  1.00  0.00     0.000 HD 
HETATM    5  C   UNL     1     -12.579  12.997  70.682  1.00  0.00    -0.270 A  
HETATM    6  C   UNL     1     -12.467  11.719  71.238  1.00  0.00    -0.351 A  
HETATM    7  C   UNL     1     -11.667  10.767  70.606  1.00  0.00    -0.342 A  
HETATM    8  C   UNL     1     -10.999  11.078  69.419  1.00  0.00    -0.301 A  
HETATM    9  C   UNL     1     -11.119  12.362  68.876  1.00  0.00    -0.307 A  
ENDROOT
BRANCH   7  10
HETATM   10  S   UNL     1     -11.412   9.173  71.374  1.00  0.00    -0.379 S  
HETATM   11  O   UNL     1     -10.002   9.117  71.695  1.00  0.00    -0.316 OA 
HETATM   12  O   UNL     1     -12.403   9.055  72.423  1.00  0.00    -0.349 OA 
BRANCH  10  13
HETATM   13  N   UNL     1     -11.728   8.148  70.142  1.00  0.00    -0.458 N  
HETATM   14  H   UNL     1     -12.686   8.080  69.797  1.00  0.00     0.000 HD 
BRANCH  13  15
HETATM   15  C   UNL     1     -10.749   7.367  69.543  1.00  0.00    -0.224 A  
HETATM   16  C   UNL     1     -10.102   7.756  68.391  1.00  0.00    -0.215 A  
HETATM   17  C   UNL     1      -9.135   6.768  68.170  1.00  0.00    -0.123 A  
HETATM   18  N   UNL     1      -9.143   5.828  69.110  1.00  0.00    -0.117 NA 
HETATM   19  N   UNL     1     -10.163   6.164  69.956  1.00  0.00    -0.185 NA 
BRANCH  19  20
HETATM   20  C   UNL     1     -10.435   5.327  71.081  1.00  0.00    -0.205 A  
HETATM   21  C   UNL     1     -11.344   5.768  72.059  1.00  0.00    -0.289 A  
HETATM   22  C   UNL     1     -11.601   4.997  73.196  1.00  0.00    -0.299 A  
HETATM   23  C   UNL     1     -10.945   3.784  73.380  1.00  0.00    -0.317 A  
HETATM   24  C   UNL     1     -10.057   3.329  72.412  1.00  0.00    -0.226 A  
HETATM   25  C   UNL     1      -9.821   4.086  71.260  1.00  0.00    -0.242 A  
ENDBRANCH  19  20
ENDBRANCH  13  15
ENDBRANCH  10  13
ENDBRANCH   7  10
TORSDOF 4
ENDMDL
MODEL      168
REMARK 921   NORMALIZED FREE ENERGY PREDICTED BY IDOCK:   -4.81 KCAL/MOL
REMARK 922        TOTAL FREE ENERGY PREDICTED BY IDOCK:   -6.66 KCAL/MOL
REMARK 923 INTER-LIGAND FREE ENERGY PREDICTED BY IDOCK:   -5.95 KCAL/MOL
REMARK 924 INTRA-LIGAND FREE ENERGY PREDICTED BY IDOCK:   -0.71 KCAL/MOL
REMARK 927      BINDING AFFINITY PREDICTED BY RF-SCORE:    0.00 PKD
ROOT
HETATM    1  N   UNL     1     -10.166   4.122  64.250  1.00  0.00    -0.367 NA 
HETATM    2  H2  UNL     1     -10.459   3.157  64.097  1.00  0.00     0.000 HD 
HETATM    3  C   UNL     1     -10.189   4.376  65.623  1.00  0.00    -0.238 A  
HETATM    4  H1  UNL     1     -10.685   4.720  63.607  1.00  0.00     0.000 HD 
HETATM    5  C   UNL     1      -9.478   3.557  66.504  1.00  0.00    -0.172 A  
HETATM    6  C   UNL     1      -9.414   3.851  67.869  1.00  0.00    -0.227 A  
HETATM    7  C   UNL     1     -10.027   5.010  68.347  1.00  0.00    -0.136 A  
HETATM    8  C   UNL     1     -10.681   5.879  67.470  1.00  0.00    -0.359 A  
HETATM    9  C   UNL     1     -10.739   5.568  66.107  1.00  0.00    -0.097 A  
ENDROOT
BRANCH   7  10
HETATM   10  S   UNL     1     -10.064   5.332  70.105  1.00  0.00    -0.282 S  
HETATM   11  O   UNL     1     -11.401   5.809  70.385  1.00  0.00    -0.242 OA 
HETATM   12  O   UNL     1      -9.565   4.138  70.756  1.00  0.00    -0.161 OA 
BRANCH  10  13
HETATM   13  N   UNL     1      -9.006   6.569  70.245  1.00  0.00    -0.154 N  
HETATM   14  H   UNL     1      -8.523   6.896  69.408  1.00  0.00     0.000 HD 
BRANCH  13  15
HETATM   15  C   UNL     1      -8.737   7.194  71.455  1.00  0.00    -0.124 A  
HETATM   16  C   UNL     1      -7.575   6.962  72.159  1.00  0.00    -0.092 A  
HETATM   17  C   UNL     1      -7.632   7.839  73.248  1.00  0.00    -0.118 A  
HETATM   18  N   UNL     1      -8.729   8.590  73.240  1.00  0.00    -0.348 NA 
HETATM   19  N   UNL     1      -9.446   8.181  72.151  1.00  0.00    -0.200 NA 
BRANCH  19  20
HETATM   20  C   UNL     1     -10.702   8.802  71.873  1.00  0.00    -0.359 A  
HETATM   21  C   UNL     1     -10.768   9.808  70.892  1.00  0.00    -0.375 A  
HETATM   22  C   UNL     1     -11.970  10.470  70.627  1.00  0.00    -0.455 A  
HETATM   23  C   UNL     1     -13.117  10.148  71.343  1.00  0.00    -0.512 A  
HETATM   24  C   UNL     1     -13.069   9.144  72.304  1.00  0.00    -0.509 A  
HETATM   25  C   UNL     1     -11.875   8.461  72.551  1.00  0.00    -0.427 A  
ENDBRANCH  19  20
ENDBRANCH  13  15
ENDBRANCH  10  13
ENDBRANCH   7  10
TORSDOF 4
ENDMDL
MODEL      169
REMARK 921   NORMALIZED FREE ENERGY PREDICTED BY IDOCK:   -4.80 KCAL/MOL
REMARK 922        TOTAL FREE ENERGY PREDICTED BY IDOCK:   -6.66 KCAL/MOL
REMARK 923 INTER-LIGAND FREE ENERGY PREDICTED BY IDOCK:   -5.82 KCAL/MOL
REMARK 924 INTRA-LIGAND FREE ENERGY PREDICTED BY IDOCK:   -0.84 KCAL/MOL
REMARK 927      BINDING AFFINITY PREDICTED BY RF-SCORE:    0.00 PKD
ROOT
HETATM    1  N   UNL     1     -13.716  12.241  72.194  1.00  0.00    -0.368 NA 
HETATM    2  H2  UNL     1     -13.649  12.306  73.210  1.00  0.00     0.000 HD 
HETATM    3  C   UNL     1     -13.001  11.116  71.778  1.00  0.00    -0.421 A  
HETATM    4  H1  UNL     1     -13.506  13.158  71.799  1.00  0.00     0.000 HD 
HETATM    5  C   UNL     1     -13.289   9.859  72.318  1.00  0.00    -0.429 A  
HETATM    6  C   UNL     1     -12.649   8.709  71.847  1.00  0.00    -0.411 A  
HETATM    7  C   UNL     1     -11.750   8.814  70.785  1.00  0.00    -0.219 A  
HETATM    8  C   UNL     1     -11.504  10.051  70.184  1.00  0.00    -0.344 A  
HETATM    9  C   UNL     1     -12.150  11.194  70.670  1.00  0.00    -0.477 A  
ENDROOT
BRANCH   7  10
HETATM   10  S   UNL     1     -10.830   7.375  70.257  1.00  0.00    -0.247 S  
HETATM   11  O   UNL     1      -9.435   7.750  70.352  1.00  0.00    -0.163 OA 
HETATM   12  O   UNL     1     -11.337   6.255  71.022  1.00  0.00    -0.305 OA 
BRANCH  10  13
HETATM   13  N   UNL     1     -11.255   7.260  68.684  1.00  0.00    -0.446 N  
HETATM   14  H   UNL     1     -12.140   7.668  68.386  1.00  0.00     0.000 HD 
BRANCH  13  15
HETATM   15  C   UNL     1     -10.461   6.629  67.735  1.00  0.00    -0.225 A  
HETATM   16  C   UNL     1     -10.517   5.269  67.519  1.00  0.00    -0.193 A  
HETATM   17  C   UNL     1      -9.659   5.041  66.436  1.00  0.00    -0.164 A  
HETATM   18  N   UNL     1      -9.110   6.162  65.978  1.00  0.00    -0.148 NA 
HETATM   19  N   UNL     1      -9.569   7.157  66.793  1.00  0.00    -0.170 NA 
BRANCH  19  20
HETATM   20  C   UNL     1      -9.142   8.499  66.560  1.00  0.00    -0.176 A  
HETATM   21  C   UNL     1      -8.003   8.983  67.228  1.00  0.00    -0.099 A  
HETATM   22  C   UNL     1      -7.582  10.305  67.059  1.00  0.00    -0.099 A  
HETATM   23  C   UNL     1      -8.298  11.166  66.234  1.00  0.00    -0.163 A  
HETATM   24  C   UNL     1      -9.416  10.695  65.555  1.00  0.00    -0.261 A  
HETATM   25  C   UNL     1      -9.822   9.365  65.700  1.00  0.00    -0.294 A  
ENDBRANCH  19  20
ENDBRANCH  13  15
ENDBRANCH  10  13
ENDBRANCH   7  10
TORSDOF 4
ENDMDL
MODEL      170
REMARK 921   NORMALIZED FREE ENERGY PREDICTED BY IDOCK:   -4.80 KCAL/MOL
REMARK 922        TOTAL FREE ENERGY PREDICTED BY IDOCK:   -6.66 KCAL/MOL
REMARK 923 INTER-LIGAND FREE ENERGY PREDICTED BY IDOCK:   -6.10 KCAL/MOL
REMARK 924 INTRA-LIGAND FREE ENERGY PREDICTED BY IDOCK:   -0.55 KCAL/MOL
REMARK 927      BINDING AFFINITY PREDICTED BY RF-SCORE:    0.00 PKD
ROOT
HETATM    1  N   UNL     1     -13.842   8.927  73.314  1.00  0.00    -1.162 NA 
HETATM    2  H2  UNL     1     -13.212   8.373  73.895  1.00  0.00     0.000 HD 
HETATM    3  C   UNL     1     -13.112   9.433  72.236  1.00  0.00    -0.428 A  
HETATM    4  H1  UNL     1     -14.367   9.556  73.920  1.00  0.00     0.000 HD 
HETATM    5  C   UNL     1     -12.392   8.570  71.405  1.00  0.00    -0.332 A  
HETATM    6  C   UNL     1     -11.734   9.048  70.269  1.00  0.00    -0.008 A  
HETATM    7  C   UNL     1     -11.843  10.398  69.932  1.00  0.00    -0.238 A  
HETATM    8  C   UNL     1     -12.618  11.261  70.711  1.00  0.00    -0.425 A  
HETATM    9  C   UNL     1     -13.269  10.768  71.848  1.00  0.00    -0.524 A  
ENDROOT
BRANCH   7  10
HETATM   10  S   UNL     1     -10.904  11.048  68.557  1.00  0.00    -0.234 S  
HETATM   11  O   UNL     1     -11.816  11.056  67.433  1.00  0.00    -0.523 OA 
HETATM   12  O   UNL     1     -10.300  12.282  69.014  1.00  0.00    -0.110 OA 
BRANCH  10  13
HETATM   13  N   UNL     1      -9.779   9.884  68.335  1.00  0.00    -0.147 N  
HETATM   14  H   UNL     1     -10.042   8.913  68.502  1.00  0.00     0.000 HD 
BRANCH  13  15
HETATM   15  C   UNL     1      -8.481  10.161  67.929  1.00  0.00    -0.118 A  
HETATM   16  C   UNL     1      -7.423  10.179  68.811  1.00  0.00    -0.086 A  
HETATM   17  C   UNL     1      -6.292  10.392  68.014  1.00  0.00    -0.059 A  
HETATM   18  N   UNL     1      -6.591  10.484  66.721  1.00  0.00    -0.080 NA 
HETATM   19  N   UNL     1      -7.951  10.377  66.650  1.00  0.00    -0.116 NA 
BRANCH  19  20
HETATM   20  C   UNL     1      -8.587  10.451  65.374  1.00  0.00    -0.174 A  
HETATM   21  C   UNL     1      -8.113   9.645  64.323  1.00  0.00    -0.146 A  
HETATM   22  C   UNL     1      -8.680   9.724  63.048  1.00  0.00    -0.228 A  
HETATM   23  C   UNL     1      -9.718  10.617  62.800  1.00  0.00    -0.279 A  
HETATM   24  C   UNL     1     -10.207  11.407  63.834  1.00  0.00    -0.415 A  
HETATM   25  C   UNL     1      -9.659  11.309  65.117  1.00  0.00    -0.269 A  
ENDBRANCH  19  20
ENDBRANCH  13  15
ENDBRANCH  10  13
ENDBRANCH   7  10
TORSDOF 4
ENDMDL
MODEL      171
REMARK 921   NORMALIZED FREE ENERGY PREDICTED BY IDOCK:   -4.80 KCAL/MOL
REMARK 922        TOTAL FREE ENERGY PREDICTED BY IDOCK:   -6.65 KCAL/MOL
REMARK 923 INTER-LIGAND FREE ENERGY PREDICTED BY IDOCK:   -5.62 KCAL/MOL
REMARK 924 INTRA-LIGAND FREE ENERGY PREDICTED BY IDOCK:   -1.03 KCAL/MOL
REMARK 927      BINDING AFFINITY PREDICTED BY RF-SCORE:    0.00 PKD
ROOT
HETATM    1  N   UNL     1      -9.963  13.473  68.637  1.00  0.00    -0.366 NA 
HETATM    2  H2  UNL     1     -10.645  13.623  69.381  1.00  0.00     0.000 HD 
HETATM    3  C   UNL     1      -9.824  12.098  68.438  1.00  0.00    -0.200 A  
HETATM    4  H1  UNL     1      -9.145  14.050  68.832  1.00  0.00     0.000 HD 
HETATM    5  C   UNL     1     -10.945  11.308  68.171  1.00  0.00    -0.284 A  
HETATM    6  C   UNL     1     -10.814   9.948  67.877  1.00  0.00    -0.312 A  
HETATM    7  C   UNL     1      -9.539   9.385  67.799  1.00  0.00    -0.134 A  
HETATM    8  C   UNL     1      -8.403  10.176  67.992  1.00  0.00    -0.117 A  
HETATM    9  C   UNL     1      -8.552  11.536  68.289  1.00  0.00    -0.161 A  
ENDROOT
BRANCH   7  10
HETATM   10  S   UNL     1      -9.360   7.624  67.552  1.00  0.00    -0.142 S  
HETATM   11  O   UNL     1     -10.404   7.255  66.619  1.00  0.00    -0.239 OA 
HETATM   12  O   UNL     1      -7.970   7.391  67.220  1.00  0.00    -0.111 OA 
BRANCH  10  13
HETATM   13  N   UNL     1      -9.723   7.036  69.033  1.00  0.00    -0.145 N  
HETATM   14  H   UNL     1     -10.319   6.210  69.098  1.00  0.00     0.000 HD 
BRANCH  13  15
HETATM   15  C   UNL     1      -9.255   7.612  70.205  1.00  0.00    -0.157 A  
HETATM   16  C   UNL     1      -7.911   7.689  70.501  1.00  0.00    -0.100 A  
HETATM   17  C   UNL     1      -7.846   8.415  71.696  1.00  0.00    -0.120 A  
HETATM   18  N   UNL     1      -9.045   8.793  72.128  1.00  0.00    -0.383 NA 
HETATM   19  N   UNL     1      -9.938   8.275  71.233  1.00  0.00    -0.184 NA 
BRANCH  19  20
HETATM   20  C   UNL     1     -11.333   8.503  71.434  1.00  0.00    -0.271 A  
HETATM   21  C   UNL     1     -11.802   9.824  71.554  1.00  0.00    -0.476 A  
HETATM   22  C   UNL     1     -13.154  10.083  71.797  1.00  0.00    -0.562 A  
HETATM   23  C   UNL     1     -14.053   9.031  71.937  1.00  0.00    -0.404 A  
HETATM   24  C   UNL     1     -13.605   7.722  71.803  1.00  0.00    -0.390 A  
HETATM   25  C   UNL     1     -12.259   7.461  71.532  1.00  0.00    -0.368 A  
ENDBRANCH  19  20
ENDBRANCH  13  15
ENDBRANCH  10  13
ENDBRANCH   7  10
TORSDOF 4
ENDMDL
MODEL      172
REMARK 921   NORMALIZED FREE ENERGY PREDICTED BY IDOCK:   -4.79 KCAL/MOL
REMARK 922        TOTAL FREE ENERGY PREDICTED BY IDOCK:   -6.64 KCAL/MOL
REMARK 923 INTER-LIGAND FREE ENERGY PREDICTED BY IDOCK:   -6.27 KCAL/MOL
REMARK 924 INTRA-LIGAND FREE ENERGY PREDICTED BY IDOCK:   -0.37 KCAL/MOL
REMARK 927      BINDING AFFINITY PREDICTED BY RF-SCORE:    0.00 PKD
ROOT
HETATM    1  N   UNL     1      -6.256  21.379  67.644  1.00  0.00    -0.481 NA 
HETATM    2  H2  UNL     1      -7.013  21.884  67.184  1.00  0.00     0.000 HD 
HETATM    3  C   UNL     1      -6.613  20.031  67.727  1.00  0.00    -0.242 A  
HETATM    4  H1  UNL     1      -5.992  21.893  68.484  1.00  0.00     0.000 HD 
HETATM    5  C   UNL     1      -6.974  19.326  66.576  1.00  0.00    -0.221 A  
HETATM    6  C   UNL     1      -7.244  17.955  66.626  1.00  0.00    -0.254 A  
HETATM    7  C   UNL     1      -7.097  17.274  67.834  1.00  0.00    -0.167 A  
HETATM    8  C   UNL     1      -6.666  17.948  68.980  1.00  0.00    -0.248 A  
HETATM    9  C   UNL     1      -6.404  19.321  68.914  1.00  0.00    -0.290 A  
ENDROOT
BRANCH   7  10
HETATM   10  S   UNL     1      -7.561  15.551  67.942  1.00  0.00    -0.145 S  
HETATM   11  O   UNL     1      -6.617  14.841  67.105  1.00  0.00    -0.253 OA 
HETATM   12  O   UNL     1      -7.664  15.237  69.352  1.00  0.00    -0.200 OA 
BRANCH  10  13
HETATM   13  N   UNL     1      -9.029  15.549  67.226  1.00  0.00    -0.194 N  
HETATM   14  H   UNL     1      -9.098  15.851  66.254  1.00  0.00     0.000 HD 
BRANCH  13  15
HETATM   15  C   UNL     1     -10.186  15.156  67.884  1.00  0.00    -0.232 A  
HETATM   16  C   UNL     1     -10.598  15.743  69.060  1.00  0.00    -0.232 A  
HETATM   17  C   UNL     1     -11.834  15.152  69.345  1.00  0.00    -0.330 A  
HETATM   18  N   UNL     1     -12.202  14.271  68.420  1.00  0.00    -0.248 NA 
HETATM   19  N   UNL     1     -11.175  14.233  67.520  1.00  0.00    -0.295 NA 
BRANCH  19  20
HETATM   20  C   UNL     1     -11.269  13.357  66.396  1.00  0.00    -0.304 A  
HETATM   21  C   UNL     1     -10.472  12.199  66.361  1.00  0.00    -0.261 A  
HETATM   22  C   UNL     1     -10.503  11.342  65.257  1.00  0.00    -0.340 A  
HETATM   23  C   UNL     1     -11.318  11.635  64.169  1.00  0.00    -0.397 A  
HETATM   24  C   UNL     1     -12.124  12.768  64.199  1.00  0.00    -0.513 A  
HETATM   25  C   UNL     1     -12.115  13.611  65.314  1.00  0.00    -0.429 A  
ENDBRANCH  19  20
ENDBRANCH  13  15
ENDBRANCH  10  13
ENDBRANCH   7  10
TORSDOF 4
ENDMDL
MODEL      173
REMARK 921   NORMALIZED FREE ENERGY PREDICTED BY IDOCK:   -4.75 KCAL/MOL
REMARK 922        TOTAL FREE ENERGY PREDICTED BY IDOCK:   -6.59 KCAL/MOL
REMARK 923 INTER-LIGAND FREE ENERGY PREDICTED BY IDOCK:   -6.05 KCAL/MOL
REMARK 924 INTRA-LIGAND FREE ENERGY PREDICTED BY IDOCK:   -0.54 KCAL/MOL
REMARK 927      BINDING AFFINITY PREDICTED BY RF-SCORE:    0.00 PKD
ROOT
HETATM    1  N   UNL     1      -7.654   6.765  68.902  1.00  0.00    -0.102 NA 
HETATM    2  H2  UNL     1      -7.816   6.163  69.709  1.00  0.00     0.000 HD 
HETATM    3  C   UNL     1      -8.637   7.756  68.889  1.00  0.00    -0.132 A  
HETATM    4  H1  UNL     1      -7.508   6.174  68.085  1.00  0.00     0.000 HD 
HETATM    5  C   UNL     1      -8.836   8.568  70.010  1.00  0.00    -0.141 A  
HETATM    6  C   UNL     1      -9.751   9.624  69.981  1.00  0.00    -0.280 A  
HETATM    7  C   UNL     1     -10.436   9.903  68.798  1.00  0.00    -0.213 A  
HETATM    8  C   UNL     1     -10.197   9.148  67.646  1.00  0.00    -0.293 A  
HETATM    9  C   UNL     1      -9.280   8.091  67.692  1.00  0.00    -0.145 A  
ENDROOT
BRANCH   7  10
HETATM   10  S   UNL     1     -11.700  11.166  68.782  1.00  0.00    -0.310 S  
HETATM   11  O   UNL     1     -11.805  11.594  67.403  1.00  0.00    -0.603 OA 
HETATM   12  O   UNL     1     -12.851  10.608  69.461  1.00  0.00    -0.170 OA 
BRANCH  10  13
HETATM   13  N   UNL     1     -11.006  12.351  69.667  1.00  0.00    -0.455 N  
HETATM   14  H   UNL     1     -10.067  12.200  70.035  1.00  0.00     0.000 HD 
BRANCH  13  15
HETATM   15  C   UNL     1     -11.640  13.556  69.938  1.00  0.00    -0.201 A  
HETATM   16  C   UNL     1     -12.608  13.673  70.912  1.00  0.00    -0.421 A  
HETATM   17  C   UNL     1     -12.921  15.037  70.947  1.00  0.00    -0.405 A  
HETATM   18  N   UNL     1     -12.202  15.746  70.083  1.00  0.00    -0.357 NA 
HETATM   19  N   UNL     1     -11.423  14.839  69.421  1.00  0.00    -0.283 NA 
BRANCH  19  20
HETATM   20  C   UNL     1     -10.533  15.300  68.404  1.00  0.00    -0.236 A  
HETATM   21  C   UNL     1     -10.979  16.272  67.491  1.00  0.00    -0.207 A  
HETATM   22  C   UNL     1     -10.151  16.713  66.454  1.00  0.00    -0.325 A  
HETATM   23  C   UNL     1      -8.874  16.181  66.306  1.00  0.00    -0.371 A  
HETATM   24  C   UNL     1      -8.416  15.231  67.212  1.00  0.00    -0.216 A  
HETATM   25  C   UNL     1      -9.232  14.810  68.266  1.00  0.00    -0.187 A  
ENDBRANCH  19  20
ENDBRANCH  13  15
ENDBRANCH  10  13
ENDBRANCH   7  10
TORSDOF 4
ENDMDL
MODEL      174
REMARK 921   NORMALIZED FREE ENERGY PREDICTED BY IDOCK:   -4.74 KCAL/MOL
REMARK 922        TOTAL FREE ENERGY PREDICTED BY IDOCK:   -6.59 KCAL/MOL
REMARK 923 INTER-LIGAND FREE ENERGY PREDICTED BY IDOCK:   -6.26 KCAL/MOL
REMARK 924 INTRA-LIGAND FREE ENERGY PREDICTED BY IDOCK:   -0.33 KCAL/MOL
REMARK 927      BINDING AFFINITY PREDICTED BY RF-SCORE:    0.00 PKD
ROOT
HETATM    1  N   UNL     1     -11.005  16.643  68.558  1.00  0.00    -0.350 NA 
HETATM    2  H2  UNL     1     -10.810  17.155  69.419  1.00  0.00     0.000 HD 
HETATM    3  C   UNL     1     -11.040  15.279  68.856  1.00  0.00    -0.266 A  
HETATM    4  H1  UNL     1     -10.385  16.994  67.829  1.00  0.00     0.000 HD 
HETATM    5  C   UNL     1     -11.890  14.797  69.855  1.00  0.00    -0.364 A  
HETATM    6  C   UNL     1     -12.007  13.427  70.102  1.00  0.00    -0.396 A  
HETATM    7  C   UNL     1     -11.302  12.526  69.303  1.00  0.00    -0.245 A  
HETATM    8  C   UNL     1     -10.503  12.985  68.252  1.00  0.00    -0.258 A  
HETATM    9  C   UNL     1     -10.394  14.361  68.020  1.00  0.00    -0.227 A  
ENDROOT
BRANCH   7  10
HETATM   10  S   UNL     1     -11.340  10.781  69.688  1.00  0.00    -0.319 S  
HETATM   11  O   UNL     1     -10.023  10.467  70.198  1.00  0.00    -0.105 OA 
HETATM   12  O   UNL     1     -12.512  10.564  70.512  1.00  0.00    -0.316 OA 
BRANCH  10  13
HETATM   13  N   UNL     1     -11.523  10.111  68.209  1.00  0.00    -0.532 N  
HETATM   14  H   UNL     1     -12.330  10.382  67.646  1.00  0.00     0.000 HD 
BRANCH  13  15
HETATM   15  C   UNL     1     -10.628   9.188  67.686  1.00  0.00    -0.242 A  
HETATM   16  C   UNL     1     -10.256   8.054  68.374  1.00  0.00    -0.239 A  
HETATM   17  C   UNL     1      -9.437   7.346  67.487  1.00  0.00    -0.138 A  
HETATM   18  N   UNL     1      -9.307   7.960  66.315  1.00  0.00    -0.184 NA 
HETATM   19  N   UNL     1     -10.012   9.124  66.430  1.00  0.00    -0.281 NA 
BRANCH  19  20
HETATM   20  C   UNL     1     -10.054  10.022  65.320  1.00  0.00    -0.229 A  
HETATM   21  C   UNL     1      -9.259   9.755  64.191  1.00  0.00    -0.277 A  
HETATM   22  C   UNL     1      -9.240  10.636  63.106  1.00  0.00    -0.308 A  
HETATM   23  C   UNL     1     -10.001  11.800  63.137  1.00  0.00    -0.373 A  
HETATM   24  C   UNL     1     -10.804  12.067  64.240  1.00  0.00    -0.389 A  
HETATM   25  C   UNL     1     -10.846  11.173  65.315  1.00  0.00    -0.222 A  
ENDBRANCH  19  20
ENDBRANCH  13  15
ENDBRANCH  10  13
ENDBRANCH   7  10
TORSDOF 4
ENDMDL
MODEL      175
REMARK 921   NORMALIZED FREE ENERGY PREDICTED BY IDOCK:   -4.72 KCAL/MOL
REMARK 922        TOTAL FREE ENERGY PREDICTED BY IDOCK:   -6.56 KCAL/MOL
REMARK 923 INTER-LIGAND FREE ENERGY PREDICTED BY IDOCK:   -5.80 KCAL/MOL
REMARK 924 INTRA-LIGAND FREE ENERGY PREDICTED BY IDOCK:   -0.76 KCAL/MOL
REMARK 927      BINDING AFFINITY PREDICTED BY RF-SCORE:    0.00 PKD
ROOT
HETATM    1  N   UNL     1     -11.627  16.447  70.671  1.00  0.00    -0.517 NA 
HETATM    2  H2  UNL     1     -11.199  15.914  71.429  1.00  0.00     0.000 HD 
HETATM    3  C   UNL     1     -11.522  15.702  69.495  1.00  0.00    -0.344 A  
HETATM    4  H1  UNL     1     -11.269  17.401  70.709  1.00  0.00     0.000 HD 
HETATM    5  C   UNL     1     -12.013  14.394  69.444  1.00  0.00    -0.370 A  
HETATM    6  C   UNL     1     -12.001  13.667  68.250  1.00  0.00    -0.385 A  
HETATM    7  C   UNL     1     -11.540  14.277  67.083  1.00  0.00    -0.380 A  
HETATM    8  C   UNL     1     -11.113  15.608  67.100  1.00  0.00    -0.218 A  
HETATM    9  C   UNL     1     -11.128  16.321  68.304  1.00  0.00    -0.346 A  
ENDROOT
BRANCH   7  10
HETATM   10  S   UNL     1     -11.399  13.322  65.579  1.00  0.00    -0.299 S  
HETATM   11  O   UNL     1     -12.758  13.097  65.133  1.00  0.00    -0.591 OA 
HETATM   12  O   UNL     1     -10.460  14.023  64.729  1.00  0.00    -0.413 OA 
BRANCH  10  13
HETATM   13  N   UNL     1     -10.769  11.918  66.128  1.00  0.00    -0.268 N  
HETATM   14  H   UNL     1     -11.029  11.598  67.061  1.00  0.00     0.000 HD 
BRANCH  13  15
HETATM   15  C   UNL     1      -9.896  11.142  65.378  1.00  0.00    -0.242 A  
HETATM   16  C   UNL     1     -10.254  10.597  64.165  1.00  0.00    -0.365 A  
HETATM   17  C   UNL     1      -9.089   9.984  63.686  1.00  0.00    -0.268 A  
HETATM   18  N   UNL     1      -8.059  10.137  64.512  1.00  0.00    -0.158 NA 
HETATM   19  N   UNL     1      -8.547  10.825  65.586  1.00  0.00    -0.181 NA 
BRANCH  19  20
HETATM   20  C   UNL     1      -7.669  11.139  66.668  1.00  0.00    -0.155 A  
HETATM   21  C   UNL     1      -7.195  10.101  67.490  1.00  0.00    -0.088 A  
HETATM   22  C   UNL     1      -6.371  10.375  68.585  1.00  0.00    -0.051 A  
HETATM   23  C   UNL     1      -6.019  11.688  68.883  1.00  0.00    -0.050 A  
HETATM   24  C   UNL     1      -6.467  12.721  68.068  1.00  0.00    -0.099 A  
HETATM   25  C   UNL     1      -7.268  12.446  66.955  1.00  0.00    -0.013 A  
ENDBRANCH  19  20
ENDBRANCH  13  15
ENDBRANCH  10  13
ENDBRANCH   7  10
TORSDOF 4
ENDMDL
MODEL      176
REMARK 921   NORMALIZED FREE ENERGY PREDICTED BY IDOCK:   -4.70 KCAL/MOL
REMARK 922        TOTAL FREE ENERGY PREDICTED BY IDOCK:   -6.53 KCAL/MOL
REMARK 923 INTER-LIGAND FREE ENERGY PREDICTED BY IDOCK:   -5.35 KCAL/MOL
REMARK 924 INTRA-LIGAND FREE ENERGY PREDICTED BY IDOCK:   -1.18 KCAL/MOL
REMARK 927      BINDING AFFINITY PREDICTED BY RF-SCORE:    0.00 PKD
ROOT
HETATM    1  N   UNL     1      -9.749  12.311  63.226  1.00  0.00    -0.609 NA 
HETATM    2  H2  UNL     1      -9.580  11.982  62.275  1.00  0.00     0.000 HD 
HETATM    3  C   UNL     1      -9.743  11.206  64.081  1.00  0.00    -0.276 A  
HETATM    4  H1  UNL     1     -10.548  12.944  63.209  1.00  0.00     0.000 HD 
HETATM    5  C   UNL     1      -8.647  10.339  64.104  1.00  0.00    -0.198 A  
HETATM    6  C   UNL     1      -8.584   9.284  65.018  1.00  0.00    -0.200 A  
HETATM    7  C   UNL     1      -9.607   9.128  65.955  1.00  0.00    -0.273 A  
HETATM    8  C   UNL     1     -10.675  10.029  65.993  1.00  0.00     0.078 A  
HETATM    9  C   UNL     1     -10.725  11.079  65.069  1.00  0.00    -0.264 A  
ENDROOT
BRANCH   7  10
HETATM   10  S   UNL     1      -9.605   7.711  67.044  1.00  0.00    -0.190 S  
HETATM   11  O   UNL     1     -10.993   7.328  67.187  1.00  0.00    -0.327 OA 
HETATM   12  O   UNL     1      -8.643   6.774  66.501  1.00  0.00    -0.118 OA 
BRANCH  10  13
HETATM   13  N   UNL     1      -9.074   8.361  68.445  1.00  0.00    -0.136 N  
HETATM   14  H   UNL     1      -8.077   8.548  68.550  1.00  0.00     0.000 HD 
BRANCH  13  15
HETATM   15  C   UNL     1      -9.922   8.669  69.499  1.00  0.00    -0.196 A  
HETATM   16  C   UNL     1     -10.215   7.763  70.496  1.00  0.00    -0.201 A  
HETATM   17  C   UNL     1     -11.006   8.473  71.407  1.00  0.00    -0.264 A  
HETATM   18  N   UNL     1     -11.193   9.737  71.042  1.00  0.00    -0.358 NA 
HETATM   19  N   UNL     1     -10.556   9.871  69.841  1.00  0.00    -0.252 NA 
BRANCH  19  20
HETATM   20  C   UNL     1     -10.586  11.135  69.176  1.00  0.00    -0.204 A  
HETATM   21  C   UNL     1      -9.385  11.684  68.693  1.00  0.00    -0.120 A  
HETATM   22  C   UNL     1      -9.370  12.940  68.078  1.00  0.00    -0.213 A  
HETATM   23  C   UNL     1     -10.547  13.669  67.949  1.00  0.00    -0.255 A  
HETATM   24  C   UNL     1     -11.743  13.129  68.407  1.00  0.00    -0.386 A  
HETATM   25  C   UNL     1     -11.766  11.861  68.997  1.00  0.00    -0.391 A  
ENDBRANCH  19  20
ENDBRANCH  13  15
ENDBRANCH  10  13
ENDBRANCH   7  10
TORSDOF 4
ENDMDL
MODEL      177
REMARK 921   NORMALIZED FREE ENERGY PREDICTED BY IDOCK:   -4.70 KCAL/MOL
REMARK 922        TOTAL FREE ENERGY PREDICTED BY IDOCK:   -6.53 KCAL/MOL
REMARK 923 INTER-LIGAND FREE ENERGY PREDICTED BY IDOCK:   -6.05 KCAL/MOL
REMARK 924 INTRA-LIGAND FREE ENERGY PREDICTED BY IDOCK:   -0.48 KCAL/MOL
REMARK 927      BINDING AFFINITY PREDICTED BY RF-SCORE:    0.00 PKD
ROOT
HETATM    1  N   UNL     1      -8.314   5.605  68.508  1.00  0.00    -0.106 NA 
HETATM    2  H2  UNL     1      -8.487   5.670  67.504  1.00  0.00     0.000 HD 
HETATM    3  C   UNL     1      -9.325   6.301  69.174  1.00  0.00    -0.131 A  
HETATM    4  H1  UNL     1      -7.335   5.832  68.679  1.00  0.00     0.000 HD 
HETATM    5  C   UNL     1     -10.667   5.990  68.939  1.00  0.00    -0.384 A  
HETATM    6  C   UNL     1     -11.688   6.611  69.664  1.00  0.00    -0.216 A  
HETATM    7  C   UNL     1     -11.356   7.515  70.674  1.00  0.00    -0.281 A  
HETATM    8  C   UNL     1     -10.017   7.784  70.972  1.00  0.00    -0.191 A  
HETATM    9  C   UNL     1      -9.007   7.157  70.234  1.00  0.00    -0.152 A  
ENDROOT
BRANCH   7  10
HETATM   10  S   UNL     1     -12.649   8.412  71.522  1.00  0.00    -0.293 S  
HETATM   11  O   UNL     1     -13.771   7.500  71.593  1.00  0.00    -0.372 OA 
HETATM   12  O   UNL     1     -12.061   8.940  72.735  1.00  0.00    -0.183 OA 
BRANCH  10  13
HETATM   13  N   UNL     1     -12.987   9.605  70.459  1.00  0.00    -0.537 N  
HETATM   14  H   UNL     1     -13.288   9.351  69.518  1.00  0.00     0.000 HD 
BRANCH  13  15
HETATM   15  C   UNL     1     -12.881  10.951  70.781  1.00  0.00    -0.289 A  
HETATM   16  C   UNL     1     -13.402  11.470  71.946  1.00  0.00    -0.408 A  
HETATM   17  C   UNL     1     -13.007  12.814  71.951  1.00  0.00    -0.295 A  
HETATM   18  N   UNL     1     -12.275  13.132  70.888  1.00  0.00    -0.320 NA 
HETATM   19  N   UNL     1     -12.213  11.997  70.131  1.00  0.00    -0.267 NA 
BRANCH  19  20
HETATM   20  C   UNL     1     -11.492  12.023  68.898  1.00  0.00    -0.301 A  
HETATM   21  C   UNL     1     -10.488  11.065  68.670  1.00  0.00    -0.214 A  
HETATM   22  C   UNL     1      -9.731  11.088  67.495  1.00  0.00    -0.190 A  
HETATM   23  C   UNL     1      -9.956  12.073  66.539  1.00  0.00    -0.224 A  
HETATM   24  C   UNL     1     -10.957  13.015  66.745  1.00  0.00    -0.299 A  
HETATM   25  C   UNL     1     -11.735  12.977  67.906  1.00  0.00    -0.402 A  
ENDBRANCH  19  20
ENDBRANCH  13  15
ENDBRANCH  10  13
ENDBRANCH   7  10
TORSDOF 4
ENDMDL
MODEL      178
REMARK 921   NORMALIZED FREE ENERGY PREDICTED BY IDOCK:   -4.70 KCAL/MOL
REMARK 922        TOTAL FREE ENERGY PREDICTED BY IDOCK:   -6.53 KCAL/MOL
REMARK 923 INTER-LIGAND FREE ENERGY PREDICTED BY IDOCK:   -5.79 KCAL/MOL
REMARK 924 INTRA-LIGAND FREE ENERGY PREDICTED BY IDOCK:   -0.74 KCAL/MOL
REMARK 927      BINDING AFFINITY PREDICTED BY RF-SCORE:    0.00 PKD
ROOT
HETATM    1  N   UNL     1      -9.205   6.404  65.384  1.00  0.00    -0.357 NA 
HETATM    2  H2  UNL     1      -8.654   6.238  64.542  1.00  0.00     0.000 HD 
HETATM    3  C   UNL     1      -8.732   7.566  65.997  1.00  0.00    -0.158 A  
HETATM    4  H1  UNL     1      -9.260   5.532  65.909  1.00  0.00     0.000 HD 
HETATM    5  C   UNL     1      -8.657   8.762  65.278  1.00  0.00    -0.212 A  
HETATM    6  C   UNL     1      -8.275   9.954  65.900  1.00  0.00    -0.124 A  
HETATM    7  C   UNL     1      -8.015   9.957  67.271  1.00  0.00    -0.109 A  
HETATM    8  C   UNL     1      -8.155   8.785  68.021  1.00  0.00    -0.107 A  
HETATM    9  C   UNL     1      -8.535   7.599  67.382  1.00  0.00    -0.122 A  
ENDROOT
BRANCH   7  10
HETATM   10  S   UNL     1      -7.402  11.442  68.055  1.00  0.00    -0.095 S  
HETATM   11  O   UNL     1      -6.438  10.993  69.037  1.00  0.00    -0.047 OA 
HETATM   12  O   UNL     1      -6.995  12.334  66.990  1.00  0.00    -0.125 OA 
BRANCH  10  13
HETATM   13  N   UNL     1      -8.736  11.998  68.818  1.00  0.00    -0.369 N  
HETATM   14  H   UNL     1      -8.650  12.314  69.783  1.00  0.00     0.000 HD 
BRANCH  13  15
HETATM   15  C   UNL     1      -9.981  12.056  68.207  1.00  0.00    -0.203 A  
HETATM   16  C   UNL     1     -10.178  12.691  67.000  1.00  0.00    -0.233 A  
HETATM   17  C   UNL     1     -11.518  12.446  66.678  1.00  0.00    -0.370 A  
HETATM   18  N   UNL     1     -12.132  11.698  67.590  1.00  0.00    -0.573 NA 
HETATM   19  N   UNL     1     -11.203  11.474  68.567  1.00  0.00    -0.233 NA 
BRANCH  19  20
HETATM   20  C   UNL     1     -11.569  10.698  69.708  1.00  0.00    -0.309 A  
HETATM   21  C   UNL     1     -10.963   9.445  69.910  1.00  0.00    -0.251 A  
HETATM   22  C   UNL     1     -11.330   8.638  70.990  1.00  0.00    -0.322 A  
HETATM   23  C   UNL     1     -12.316   9.062  71.875  1.00  0.00    -0.455 A  
HETATM   24  C   UNL     1     -12.911  10.305  71.697  1.00  0.00    -0.568 A  
HETATM   25  C   UNL     1     -12.525  11.127  70.633  1.00  0.00    -0.448 A  
ENDBRANCH  19  20
ENDBRANCH  13  15
ENDBRANCH  10  13
ENDBRANCH   7  10
TORSDOF 4
ENDMDL
MODEL      179
REMARK 921   NORMALIZED FREE ENERGY PREDICTED BY IDOCK:   -4.69 KCAL/MOL
REMARK 922        TOTAL FREE ENERGY PREDICTED BY IDOCK:   -6.53 KCAL/MOL
REMARK 923 INTER-LIGAND FREE ENERGY PREDICTED BY IDOCK:   -6.38 KCAL/MOL
REMARK 924 INTRA-LIGAND FREE ENERGY PREDICTED BY IDOCK:   -0.15 KCAL/MOL
REMARK 927      BINDING AFFINITY PREDICTED BY RF-SCORE:    0.00 PKD
ROOT
HETATM    1  N   UNL     1     -13.984   8.970  73.262  1.00  0.00    -1.199 NA 
HETATM    2  H2  UNL     1     -13.488   8.460  73.992  1.00  0.00     0.000 HD 
HETATM    3  C   UNL     1     -13.088   9.238  72.226  1.00  0.00    -0.441 A  
HETATM    4  H1  UNL     1     -14.506   9.729  73.700  1.00  0.00     0.000 HD 
HETATM    5  C   UNL     1     -12.373   8.198  71.625  1.00  0.00    -0.347 A  
HETATM    6  C   UNL     1     -11.543   8.435  70.526  1.00  0.00    -0.136 A  
HETATM    7  C   UNL     1     -11.470   9.721  69.990  1.00  0.00    -0.180 A  
HETATM    8  C   UNL     1     -12.232  10.759  70.532  1.00  0.00    -0.457 A  
HETATM    9  C   UNL     1     -13.056  10.506  71.635  1.00  0.00    -0.551 A  
ENDROOT
BRANCH   7  10
HETATM   10  S   UNL     1     -10.317  10.066  68.668  1.00  0.00    -0.200 S  
HETATM   11  O   UNL     1      -9.298   9.042  68.765  1.00  0.00    -0.139 OA 
HETATM   12  O   UNL     1     -11.101  10.202  67.459  1.00  0.00    -0.298 OA 
BRANCH  10  13
HETATM   13  N   UNL     1      -9.689  11.502  69.132  1.00  0.00    -0.412 N  
HETATM   14  H   UNL     1     -10.231  12.090  69.765  1.00  0.00     0.000 HD 
BRANCH  13  15
HETATM   15  C   UNL     1      -8.450  11.954  68.701  1.00  0.00    -0.045 A  
HETATM   16  C   UNL     1      -7.347  11.130  68.641  1.00  0.00    -0.110 A  
HETATM   17  C   UNL     1      -6.339  11.917  68.071  1.00  0.00    -0.055 A  
HETATM   18  N   UNL     1      -6.760  13.142  67.770  1.00  0.00    -0.133 NA 
HETATM   19  N   UNL     1      -8.060  13.196  68.185  1.00  0.00    -0.147 NA 
BRANCH  19  20
HETATM   20  C   UNL     1      -8.796  14.407  68.005  1.00  0.00    -0.178 A  
HETATM   21  C   UNL     1      -9.483  14.620  66.797  1.00  0.00    -0.275 A  
HETATM   22  C   UNL     1     -10.175  15.813  66.568  1.00  0.00    -0.294 A  
HETATM   23  C   UNL     1     -10.180  16.814  67.534  1.00  0.00    -0.289 A  
HETATM   24  C   UNL     1      -9.519  16.609  68.739  1.00  0.00    -0.258 A  
HETATM   25  C   UNL     1      -8.850  15.405  68.982  1.00  0.00    -0.231 A  
ENDBRANCH  19  20
ENDBRANCH  13  15
ENDBRANCH  10  13
ENDBRANCH   7  10
TORSDOF 4
ENDMDL
MODEL      180
REMARK 921   NORMALIZED FREE ENERGY PREDICTED BY IDOCK:   -4.67 KCAL/MOL
REMARK 922        TOTAL FREE ENERGY PREDICTED BY IDOCK:   -6.50 KCAL/MOL
REMARK 923 INTER-LIGAND FREE ENERGY PREDICTED BY IDOCK:   -5.71 KCAL/MOL
REMARK 924 INTRA-LIGAND FREE ENERGY PREDICTED BY IDOCK:   -0.79 KCAL/MOL
REMARK 927      BINDING AFFINITY PREDICTED BY RF-SCORE:    0.00 PKD
ROOT
HETATM    1  N   UNL     1     -12.011   5.838  72.901  1.00  0.00    -0.532 NA 
HETATM    2  H2  UNL     1     -12.723   6.353  73.420  1.00  0.00     0.000 HD 
HETATM    3  C   UNL     1     -11.564   6.644  71.852  1.00  0.00    -0.303 A  
HETATM    4  H1  UNL     1     -12.366   4.901  72.714  1.00  0.00     0.000 HD 
HETATM    5  C   UNL     1     -11.078   7.929  72.109  1.00  0.00    -0.351 A  
HETATM    6  C   UNL     1     -10.540   8.713  71.084  1.00  0.00    -0.291 A  
HETATM    7  C   UNL     1     -10.440   8.182  69.797  1.00  0.00    -0.227 A  
HETATM    8  C   UNL     1     -10.854   6.873  69.538  1.00  0.00    -0.287 A  
HETATM    9  C   UNL     1     -11.394   6.102  70.573  1.00  0.00    -0.381 A  
ENDROOT
BRANCH   7  10
HETATM   10  S   UNL     1      -9.875   9.216  68.453  1.00  0.00    -0.169 S  
HETATM   11  O   UNL     1      -8.864   8.440  67.765  1.00  0.00    -0.136 OA 
HETATM   12  O   UNL     1     -11.058   9.661  67.747  1.00  0.00    -0.219 OA 
BRANCH  10  13
HETATM   13  N   UNL     1      -9.161  10.450  69.251  1.00  0.00    -0.259 N  
HETATM   14  H   UNL     1      -9.315  10.536  70.256  1.00  0.00     0.000 HD 
BRANCH  13  15
HETATM   15  C   UNL     1      -8.355  11.387  68.620  1.00  0.00    -0.136 A  
HETATM   16  C   UNL     1      -6.980  11.318  68.658  1.00  0.00    -0.084 A  
HETATM   17  C   UNL     1      -6.543  12.362  67.834  1.00  0.00    -0.097 A  
HETATM   18  N   UNL     1      -7.551  13.038  67.292  1.00  0.00    -0.130 NA 
HETATM   19  N   UNL     1      -8.687  12.469  67.795  1.00  0.00    -0.168 NA 
BRANCH  19  20
HETATM   20  C   UNL     1      -9.957  12.992  67.402  1.00  0.00    -0.228 A  
HETATM   21  C   UNL     1     -10.383  12.831  66.071  1.00  0.00    -0.291 A  
HETATM   22  C   UNL     1     -11.599  13.369  65.640  1.00  0.00    -0.350 A  
HETATM   23  C   UNL     1     -12.399  14.085  66.524  1.00  0.00    -0.442 A  
HETATM   24  C   UNL     1     -11.997  14.237  67.846  1.00  0.00    -0.364 A  
HETATM   25  C   UNL     1     -10.795  13.675  68.287  1.00  0.00    -0.268 A  
ENDBRANCH  19  20
ENDBRANCH  13  15
ENDBRANCH  10  13
ENDBRANCH   7  10
TORSDOF 4
ENDMDL
MODEL      181
REMARK 921   NORMALIZED FREE ENERGY PREDICTED BY IDOCK:   -4.67 KCAL/MOL
REMARK 922        TOTAL FREE ENERGY PREDICTED BY IDOCK:   -6.50 KCAL/MOL
REMARK 923 INTER-LIGAND FREE ENERGY PREDICTED BY IDOCK:   -5.57 KCAL/MOL
REMARK 924 INTRA-LIGAND FREE ENERGY PREDICTED BY IDOCK:   -0.92 KCAL/MOL
REMARK 927      BINDING AFFINITY PREDICTED BY RF-SCORE:    0.00 PKD
ROOT
HETATM    1  N   UNL     1      -8.396   7.140  63.767  1.00  0.00    -0.354 NA 
HETATM    2  H2  UNL     1      -9.327   6.757  63.933  1.00  0.00     0.000 HD 
HETATM    3  C   UNL     1      -8.161   8.147  64.706  1.00  0.00    -0.152 A  
HETATM    4  H1  UNL     1      -8.302   7.334  62.771  1.00  0.00     0.000 HD 
HETATM    5  C   UNL     1      -8.289   7.880  66.072  1.00  0.00    -0.128 A  
HETATM    6  C   UNL     1      -7.967   8.847  67.028  1.00  0.00    -0.102 A  
HETATM    7  C   UNL     1      -7.461  10.079  66.611  1.00  0.00    -0.104 A  
HETATM    8  C   UNL     1      -7.258  10.337  65.252  1.00  0.00    -0.134 A  
HETATM    9  C   UNL     1      -7.588   9.359  64.307  1.00  0.00    -0.115 A  
ENDROOT
BRANCH   7  10
HETATM   10  S   UNL     1      -7.167  11.370  67.811  1.00  0.00    -0.095 S  
HETATM   11  O   UNL     1      -7.022  10.693  69.082  1.00  0.00    -0.067 OA 
HETATM   12  O   UNL     1      -6.087  12.182  67.291  1.00  0.00    -0.128 OA 
BRANCH  10  13
HETATM   13  N   UNL     1      -8.584  12.183  67.789  1.00  0.00    -0.154 N  
HETATM   14  H   UNL     1      -8.573  13.177  67.560  1.00  0.00     0.000 HD 
BRANCH  13  15
HETATM   15  C   UNL     1      -9.802  11.578  68.067  1.00  0.00    -0.188 A  
HETATM   16  C   UNL     1     -10.080  11.019  69.295  1.00  0.00    -0.121 A  
HETATM   17  C   UNL     1     -11.417  10.613  69.212  1.00  0.00    -0.281 A  
HETATM   18  N   UNL     1     -11.964  10.903  68.035  1.00  0.00    -0.535 NA 
HETATM   19  N   UNL     1     -10.967  11.473  67.297  1.00  0.00    -0.255 NA 
BRANCH  19  20
HETATM   20  C   UNL     1     -11.245  11.890  65.959  1.00  0.00    -0.324 A  
HETATM   21  C   UNL     1     -12.078  13.003  65.747  1.00  0.00    -0.510 A  
HETATM   22  C   UNL     1     -12.409  13.412  64.452  1.00  0.00    -0.399 A  
HETATM   23  C   UNL     1     -11.926  12.710  63.353  1.00  0.00    -0.613 A  
HETATM   24  C   UNL     1     -11.088  11.619  63.549  1.00  0.00    -0.476 A  
HETATM   25  C   UNL     1     -10.732  11.225  64.843  1.00  0.00    -0.337 A  
ENDBRANCH  19  20
ENDBRANCH  13  15
ENDBRANCH  10  13
ENDBRANCH   7  10
TORSDOF 4
ENDMDL
MODEL      182
REMARK 921   NORMALIZED FREE ENERGY PREDICTED BY IDOCK:   -4.65 KCAL/MOL
REMARK 922        TOTAL FREE ENERGY PREDICTED BY IDOCK:   -6.47 KCAL/MOL
REMARK 923 INTER-LIGAND FREE ENERGY PREDICTED BY IDOCK:   -5.94 KCAL/MOL
REMARK 924 INTRA-LIGAND FREE ENERGY PREDICTED BY IDOCK:   -0.53 KCAL/MOL
REMARK 927      BINDING AFFINITY PREDICTED BY RF-SCORE:    0.00 PKD
ROOT
HETATM    1  N   UNL     1      -8.296   6.930  64.962  1.00  0.00    -0.288 NA 
HETATM    2  H2  UNL     1      -7.627   7.325  64.301  1.00  0.00     0.000 HD 
HETATM    3  C   UNL     1      -8.728   7.950  65.813  1.00  0.00    -0.135 A  
HETATM    4  H1  UNL     1      -7.900   6.073  65.347  1.00  0.00     0.000 HD 
HETATM    5  C   UNL     1      -9.271   9.125  65.285  1.00  0.00    -0.243 A  
HETATM    6  C   UNL     1      -9.793  10.116  66.122  1.00  0.00    -0.297 A  
HETATM    7  C   UNL     1      -9.818   9.902  67.501  1.00  0.00    -0.169 A  
HETATM    8  C   UNL     1      -9.345   8.703  68.041  1.00  0.00    -0.147 A  
HETATM    9  C   UNL     1      -8.822   7.723  67.190  1.00  0.00    -0.130 A  
ENDROOT
BRANCH   7  10
HETATM   10  S   UNL     1     -10.363  11.210  68.591  1.00  0.00    -0.209 S  
HETATM   11  O   UNL     1     -10.646  10.568  69.857  1.00  0.00    -0.259 OA 
HETATM   12  O   UNL     1      -9.366  12.258  68.511  1.00  0.00    -0.183 OA 
BRANCH  10  13
HETATM   13  N   UNL     1     -11.766  11.672  67.891  1.00  0.00    -0.288 N  
HETATM   14  H   UNL     1     -12.604  11.119  68.068  1.00  0.00     0.000 HD 
BRANCH  13  15
HETATM   15  C   UNL     1     -11.863  12.784  67.067  1.00  0.00    -0.361 A  
HETATM   16  C   UNL     1     -11.985  12.676  65.698  1.00  0.00    -0.507 A  
HETATM   17  C   UNL     1     -12.156  13.990  65.246  1.00  0.00    -0.408 A  
HETATM   18  N   UNL     1     -12.165  14.873  66.240  1.00  0.00    -0.007 NA 
HETATM   19  N   UNL     1     -11.950  14.147  67.378  1.00  0.00    -0.412 NA 
BRANCH  19  20
HETATM   20  C   UNL     1     -11.894  14.826  68.633  1.00  0.00    -0.300 A  
HETATM   21  C   UNL     1     -11.183  16.035  68.728  1.00  0.00    -0.360 A  
HETATM   22  C   UNL     1     -11.067  16.703  69.951  1.00  0.00    -0.125 A  
HETATM   23  C   UNL     1     -11.647  16.168  71.096  1.00  0.00    -0.453 A  
HETATM   24  C   UNL     1     -12.366  14.981  71.013  1.00  0.00    -0.394 A  
HETATM   25  C   UNL     1     -12.507  14.327  69.785  1.00  0.00    -0.264 A  
ENDBRANCH  19  20
ENDBRANCH  13  15
ENDBRANCH  10  13
ENDBRANCH   7  10
TORSDOF 4
ENDMDL
MODEL      183
REMARK 921   NORMALIZED FREE ENERGY PREDICTED BY IDOCK:   -4.64 KCAL/MOL
REMARK 922        TOTAL FREE ENERGY PREDICTED BY IDOCK:   -6.46 KCAL/MOL
REMARK 923 INTER-LIGAND FREE ENERGY PREDICTED BY IDOCK:   -5.70 KCAL/MOL
REMARK 924 INTRA-LIGAND FREE ENERGY PREDICTED BY IDOCK:   -0.76 KCAL/MOL
REMARK 927      BINDING AFFINITY PREDICTED BY RF-SCORE:    0.00 PKD
ROOT
HETATM    1  N   UNL     1      -9.222  11.558  63.359  1.00  0.00    -0.504 NA 
HETATM    2  H2  UNL     1      -9.076  12.471  63.788  1.00  0.00     0.000 HD 
HETATM    3  C   UNL     1      -9.196  10.590  64.365  1.00  0.00    -0.245 A  
HETATM    4  H1  UNL     1      -8.602  11.479  62.553  1.00  0.00     0.000 HD 
HETATM    5  C   UNL     1     -10.046  10.698  65.469  1.00  0.00    -0.343 A  
HETATM    6  C   UNL     1     -10.099   9.691  66.437  1.00  0.00    -0.317 A  
HETATM    7  C   UNL     1      -9.330   8.539  66.269  1.00  0.00    -0.224 A  
HETATM    8  C   UNL     1      -8.528   8.382  65.135  1.00  0.00    -0.179 A  
HETATM    9  C   UNL     1      -8.483   9.401  64.176  1.00  0.00    -0.199 A  
ENDROOT
BRANCH   7  10
HETATM   10  S   UNL     1      -9.290   7.304  67.560  1.00  0.00    -0.131 S  
HETATM   11  O   UNL     1     -10.672   7.080  67.927  1.00  0.00    -0.215 OA 
HETATM   12  O   UNL     1      -8.481   6.210  67.062  1.00  0.00    -0.106 OA 
BRANCH  10  13
HETATM   13  N   UNL     1      -8.530   8.100  68.768  1.00  0.00    -0.126 N  
HETATM   14  H   UNL     1      -7.976   8.924  68.536  1.00  0.00     0.000 HD 
BRANCH  13  15
HETATM   15  C   UNL     1      -8.608   7.702  70.096  1.00  0.00    -0.140 A  
HETATM   16  C   UNL     1      -7.705   6.824  70.653  1.00  0.00    -0.097 A  
HETATM   17  C   UNL     1      -8.055   6.758  72.007  1.00  0.00    -0.101 A  
HETATM   18  N   UNL     1      -9.086   7.543  72.305  1.00  0.00    -0.133 NA 
HETATM   19  N   UNL     1      -9.467   8.113  71.123  1.00  0.00    -0.152 NA 
BRANCH  19  20
HETATM   20  C   UNL     1     -10.575   9.014  71.113  1.00  0.00    -0.290 A  
HETATM   21  C   UNL     1     -11.691   8.738  71.922  1.00  0.00    -0.429 A  
HETATM   22  C   UNL     1     -12.813   9.572  71.902  1.00  0.00    -0.508 A  
HETATM   23  C   UNL     1     -12.841  10.684  71.067  1.00  0.00    -0.496 A  
HETATM   24  C   UNL     1     -11.738  10.977  70.275  1.00  0.00    -0.445 A  
HETATM   25  C   UNL     1     -10.604  10.160  70.314  1.00  0.00    -0.324 A  
ENDBRANCH  19  20
ENDBRANCH  13  15
ENDBRANCH  10  13
ENDBRANCH   7  10
TORSDOF 4
ENDMDL
MODEL      184
REMARK 921   NORMALIZED FREE ENERGY PREDICTED BY IDOCK:   -4.63 KCAL/MOL
REMARK 922        TOTAL FREE ENERGY PREDICTED BY IDOCK:   -6.44 KCAL/MOL
REMARK 923 INTER-LIGAND FREE ENERGY PREDICTED BY IDOCK:   -5.08 KCAL/MOL
REMARK 924 INTRA-LIGAND FREE ENERGY PREDICTED BY IDOCK:   -1.36 KCAL/MOL
REMARK 927      BINDING AFFINITY PREDICTED BY RF-SCORE:    0.00 PKD
ROOT
HETATM    1  N   UNL     1     -11.968  13.107  70.121  1.00  0.00    -0.444 NA 
HETATM    2  H2  UNL     1     -11.277  13.550  70.726  1.00  0.00     0.000 HD 
HETATM    3  C   UNL     1     -11.354  12.043  69.457  1.00  0.00    -0.228 A  
HETATM    4  H1  UNL     1     -12.446  13.836  69.592  1.00  0.00     0.000 HD 
HETATM    5  C   UNL     1     -10.700  11.043  70.183  1.00  0.00     0.173 A  
HETATM    6  C   UNL     1     -10.161   9.924  69.541  1.00  0.00    -0.243 A  
HETATM    7  C   UNL     1     -10.327   9.780  68.163  1.00  0.00    -0.202 A  
HETATM    8  C   UNL     1     -11.041  10.733  67.432  1.00  0.00    -0.363 A  
HETATM    9  C   UNL     1     -11.571  11.850  68.089  1.00  0.00    -0.400 A  
ENDROOT
BRANCH   7  10
HETATM   10  S   UNL     1      -9.535   8.422  67.312  1.00  0.00    -0.164 S  
HETATM   11  O   UNL     1      -9.395   8.855  65.938  1.00  0.00    -0.219 OA 
HETATM   12  O   UNL     1      -8.364   8.073  68.089  1.00  0.00    -0.125 OA 
BRANCH  10  13
HETATM   13  N   UNL     1     -10.675   7.256  67.400  1.00  0.00    -0.412 N  
HETATM   14  H   UNL     1     -11.568   7.409  66.931  1.00  0.00     0.000 HD 
BRANCH  13  15
HETATM   15  C   UNL     1     -10.481   6.065  68.087  1.00  0.00    -0.236 A  
HETATM   16  C   UNL     1     -10.131   4.897  67.447  1.00  0.00    -0.196 A  
HETATM   17  C   UNL     1      -9.933   3.967  68.475  1.00  0.00     0.150 A  
HETATM   18  N   UNL     1     -10.120   4.496  69.681  1.00  0.00    -0.183 NA 
HETATM   19  N   UNL     1     -10.495   5.791  69.460  1.00  0.00    -0.264 NA 
BRANCH  19  20
HETATM   20  C   UNL     1     -10.783   6.630  70.580  1.00  0.00    -0.247 A  
HETATM   21  C   UNL     1      -9.742   6.985  71.456  1.00  0.00    -0.166 A  
HETATM   22  C   UNL     1      -9.995   7.767  72.587  1.00  0.00    -0.298 A  
HETATM   23  C   UNL     1     -11.289   8.193  72.866  1.00  0.00    -0.301 A  
HETATM   24  C   UNL     1     -12.323   7.863  71.998  1.00  0.00    -0.346 A  
HETATM   25  C   UNL     1     -12.068   7.105  70.851  1.00  0.00    -0.368 A  
ENDBRANCH  19  20
ENDBRANCH  13  15
ENDBRANCH  10  13
ENDBRANCH   7  10
TORSDOF 4
ENDMDL
MODEL      185
REMARK 921   NORMALIZED FREE ENERGY PREDICTED BY IDOCK:   -4.61 KCAL/MOL
REMARK 922        TOTAL FREE ENERGY PREDICTED BY IDOCK:   -6.42 KCAL/MOL
REMARK 923 INTER-LIGAND FREE ENERGY PREDICTED BY IDOCK:   -6.10 KCAL/MOL
REMARK 924 INTRA-LIGAND FREE ENERGY PREDICTED BY IDOCK:   -0.33 KCAL/MOL
REMARK 927      BINDING AFFINITY PREDICTED BY RF-SCORE:    0.00 PKD
ROOT
HETATM    1  N   UNL     1     -12.602  14.385  66.549  1.00  0.00    -0.455 NA 
HETATM    2  H2  UNL     1     -13.472  14.054  66.131  1.00  0.00     0.000 HD 
HETATM    3  C   UNL     1     -11.916  13.285  67.067  1.00  0.00    -0.365 A  
HETATM    4  H1  UNL     1     -12.817  15.184  67.145  1.00  0.00     0.000 HD 
HETATM    5  C   UNL     1     -11.622  12.189  66.251  1.00  0.00    -0.424 A  
HETATM    6  C   UNL     1     -10.856  11.121  66.727  1.00  0.00    -0.322 A  
HETATM    7  C   UNL     1     -10.335  11.177  68.020  1.00  0.00    -0.185 A  
HETATM    8  C   UNL     1     -10.558  12.297  68.826  1.00  0.00    -0.223 A  
HETATM    9  C   UNL     1     -11.330  13.357  68.336  1.00  0.00    -0.329 A  
ENDROOT
BRANCH   7  10
HETATM   10  S   UNL     1      -9.463   9.766  68.687  1.00  0.00    -0.154 S  
HETATM   11  O   UNL     1      -8.785   9.161  67.560  1.00  0.00    -0.119 OA 
HETATM   12  O   UNL     1      -8.704  10.247  69.822  1.00  0.00    -0.157 OA 
BRANCH  10  13
HETATM   13  N   UNL     1     -10.693   8.802  69.162  1.00  0.00    -0.373 N  
HETATM   14  H   UNL     1     -11.005   8.062  68.532  1.00  0.00     0.000 HD 
BRANCH  13  15
HETATM   15  C   UNL     1     -11.332   8.946  70.385  1.00  0.00    -0.202 A  
HETATM   16  C   UNL     1     -12.132  10.031  70.673  1.00  0.00    -0.381 A  
HETATM   17  C   UNL     1     -12.664   9.762  71.940  1.00  0.00    -0.410 A  
HETATM   18  N   UNL     1     -12.258   8.591  72.423  1.00  0.00    -0.385 NA 
HETATM   19  N   UNL     1     -11.403   8.084  71.487  1.00  0.00    -0.252 NA 
BRANCH  19  20
HETATM   20  C   UNL     1     -10.783   6.819  71.726  1.00  0.00    -0.224 A  
HETATM   21  C   UNL     1      -9.540   6.541  71.129  1.00  0.00    -0.181 A  
HETATM   22  C   UNL     1      -8.926   5.297  71.303  1.00  0.00    -0.158 A  
HETATM   23  C   UNL     1      -9.547   4.312  72.063  1.00  0.00    -0.209 A  
HETATM   24  C   UNL     1     -10.767   4.580  72.672  1.00  0.00    -0.229 A  
HETATM   25  C   UNL     1     -11.370   5.833  72.522  1.00  0.00    -0.358 A  
ENDBRANCH  19  20
ENDBRANCH  13  15
ENDBRANCH  10  13
ENDBRANCH   7  10
TORSDOF 4
ENDMDL
MODEL      186
REMARK 921   NORMALIZED FREE ENERGY PREDICTED BY IDOCK:   -4.60 KCAL/MOL
REMARK 922        TOTAL FREE ENERGY PREDICTED BY IDOCK:   -6.41 KCAL/MOL
REMARK 923 INTER-LIGAND FREE ENERGY PREDICTED BY IDOCK:   -5.60 KCAL/MOL
REMARK 924 INTRA-LIGAND FREE ENERGY PREDICTED BY IDOCK:   -0.82 KCAL/MOL
REMARK 927      BINDING AFFINITY PREDICTED BY RF-SCORE:    0.00 PKD
ROOT
HETATM    1  N   UNL     1     -10.617  17.197  67.767  1.00  0.00    -0.364 NA 
HETATM    2  H2  UNL     1     -10.649  17.718  68.644  1.00  0.00     0.000 HD 
HETATM    3  C   UNL     1     -10.592  15.833  68.068  1.00  0.00    -0.279 A  
HETATM    4  H1  UNL     1      -9.893  17.607  67.177  1.00  0.00     0.000 HD 
HETATM    5  C   UNL     1     -11.585  15.272  68.876  1.00  0.00    -0.365 A  
HETATM    6  C   UNL     1     -11.629  13.895  69.111  1.00  0.00    -0.359 A  
HETATM    7  C   UNL     1     -10.698  13.065  68.484  1.00  0.00    -0.255 A  
HETATM    8  C   UNL     1      -9.744  13.600  67.615  1.00  0.00    -0.228 A  
HETATM    9  C   UNL     1      -9.711  14.982  67.394  1.00  0.00    -0.216 A  
ENDROOT
BRANCH   7  10
HETATM   10  S   UNL     1     -10.662  11.321  68.874  1.00  0.00    -0.212 S  
HETATM   11  O   UNL     1      -9.260  10.973  68.967  1.00  0.00    -0.151 OA 
HETATM   12  O   UNL     1     -11.536  11.133  70.013  1.00  0.00    -0.296 OA 
BRANCH  10  13
HETATM   13  N   UNL     1     -11.297  10.658  67.522  1.00  0.00    -0.266 N  
HETATM   14  H   UNL     1     -12.311  10.633  67.421  1.00  0.00     0.000 HD 
BRANCH  13  15
HETATM   15  C   UNL     1     -10.514  10.127  66.506  1.00  0.00    -0.166 A  
HETATM   16  C   UNL     1     -10.204  10.840  65.369  1.00  0.00    -0.341 A  
HETATM   17  C   UNL     1      -9.331  10.014  64.652  1.00  0.00    -0.279 A  
HETATM   18  N   UNL     1      -9.080   8.870  65.282  1.00  0.00    -0.179 NA 
HETATM   19  N   UNL     1      -9.833   8.906  66.421  1.00  0.00    -0.265 NA 
BRANCH  19  20
HETATM   20  C   UNL     1      -9.788   7.795  67.318  1.00  0.00    -0.189 A  
HETATM   21  C   UNL     1     -10.896   6.934  67.399  1.00  0.00    -0.396 A  
HETATM   22  C   UNL     1     -10.906   5.864  68.299  1.00  0.00    -0.325 A  
HETATM   23  C   UNL     1      -9.818   5.647  69.138  1.00  0.00    -0.216 A  
HETATM   24  C   UNL     1      -8.710   6.482  69.056  1.00  0.00    -0.128 A  
HETATM   25  C   UNL     1      -8.686   7.535  68.137  1.00  0.00    -0.122 A  
ENDBRANCH  19  20
ENDBRANCH  13  15
ENDBRANCH  10  13
ENDBRANCH   7  10
TORSDOF 4
ENDMDL
MODEL      187
REMARK 921   NORMALIZED FREE ENERGY PREDICTED BY IDOCK:   -4.60 KCAL/MOL
REMARK 922        TOTAL FREE ENERGY PREDICTED BY IDOCK:   -6.40 KCAL/MOL
REMARK 923 INTER-LIGAND FREE ENERGY PREDICTED BY IDOCK:   -5.50 KCAL/MOL
REMARK 924 INTRA-LIGAND FREE ENERGY PREDICTED BY IDOCK:   -0.91 KCAL/MOL
REMARK 927      BINDING AFFINITY PREDICTED BY RF-SCORE:    0.00 PKD
ROOT
HETATM    1  N   UNL     1     -12.460  14.635  63.791  1.00  0.00    -1.068 NA 
HETATM    2  H2  UNL     1     -12.124  15.575  64.000  1.00  0.00     0.000 HD 
HETATM    3  C   UNL     1     -12.011  13.774  64.794  1.00  0.00    -0.404 A  
HETATM    4  H1  UNL     1     -12.259  14.433  62.812  1.00  0.00     0.000 HD 
HETATM    5  C   UNL     1     -12.287  14.051  66.136  1.00  0.00    -0.491 A  
HETATM    6  C   UNL     1     -11.927  13.154  67.145  1.00  0.00    -0.397 A  
HETATM    7  C   UNL     1     -11.330  11.940  66.800  1.00  0.00    -0.330 A  
HETATM    8  C   UNL     1     -11.112  11.615  65.459  1.00  0.00    -0.297 A  
HETATM    9  C   UNL     1     -11.475  12.525  64.460  1.00  0.00    -0.391 A  
ENDROOT
BRANCH   7  10
HETATM   10  S   UNL     1     -10.748  10.841  68.084  1.00  0.00    -0.235 S  
HETATM   11  O   UNL     1     -11.416  11.270  69.295  1.00  0.00    -0.244 OA 
HETATM   12  O   UNL     1     -10.932   9.493  67.590  1.00  0.00    -0.248 OA 
BRANCH  10  13
HETATM   13  N   UNL     1      -9.164  11.231  68.171  1.00  0.00    -0.164 N  
HETATM   14  H   UNL     1      -8.885  12.190  67.965  1.00  0.00     0.000 HD 
BRANCH  13  15
HETATM   15  C   UNL     1      -8.182  10.312  68.513  1.00  0.00    -0.111 A  
HETATM   16  C   UNL     1      -7.718  10.178  69.804  1.00  0.00    -0.176 A  
HETATM   17  C   UNL     1      -6.827   9.099  69.757  1.00  0.00    -0.051 A  
HETATM   18  N   UNL     1      -6.737   8.566  68.543  1.00  0.00    -0.059 NA 
HETATM   19  N   UNL     1      -7.546   9.327  67.747  1.00  0.00    -0.085 NA 
BRANCH  19  20
HETATM   20  C   UNL     1      -7.654   9.006  66.359  1.00  0.00    -0.092 A  
HETATM   21  C   UNL     1      -7.593  10.041  65.409  1.00  0.00    -0.138 A  
HETATM   22  C   UNL     1      -7.741   9.770  64.046  1.00  0.00    -0.134 A  
HETATM   23  C   UNL     1      -7.967   8.467  63.613  1.00  0.00    -0.161 A  
HETATM   24  C   UNL     1      -8.013   7.433  64.541  1.00  0.00    -0.122 A  
HETATM   25  C   UNL     1      -7.836   7.698  65.902  1.00  0.00    -0.103 A  
ENDBRANCH  19  20
ENDBRANCH  13  15
ENDBRANCH  10  13
ENDBRANCH   7  10
TORSDOF 4
ENDMDL
MODEL      188
REMARK 921   NORMALIZED FREE ENERGY PREDICTED BY IDOCK:   -4.59 KCAL/MOL
REMARK 922        TOTAL FREE ENERGY PREDICTED BY IDOCK:   -6.40 KCAL/MOL
REMARK 923 INTER-LIGAND FREE ENERGY PREDICTED BY IDOCK:   -6.15 KCAL/MOL
REMARK 924 INTRA-LIGAND FREE ENERGY PREDICTED BY IDOCK:   -0.25 KCAL/MOL
REMARK 927      BINDING AFFINITY PREDICTED BY RF-SCORE:    0.00 PKD
ROOT
HETATM    1  N   UNL     1     -14.259   9.025  73.208  1.00  0.00    -1.188 NA 
HETATM    2  H2  UNL     1     -14.891   9.308  72.459  1.00  0.00     0.000 HD 
HETATM    3  C   UNL     1     -12.992   8.818  72.659  1.00  0.00    -0.243 A  
HETATM    4  H1  UNL     1     -14.712   8.288  73.749  1.00  0.00     0.000 HD 
HETATM    5  C   UNL     1     -12.372   9.828  71.918  1.00  0.00    -0.417 A  
HETATM    6  C   UNL     1     -11.067   9.673  71.441  1.00  0.00    -0.397 A  
HETATM    7  C   UNL     1     -10.358   8.513  71.755  1.00  0.00    -0.284 A  
HETATM    8  C   UNL     1     -10.936   7.524  72.556  1.00  0.00    -0.362 A  
HETATM    9  C   UNL     1     -12.244   7.693  73.023  1.00  0.00     0.416 A  
ENDROOT
BRANCH   7  10
HETATM   10  S   UNL     1      -8.739   8.245  71.047  1.00  0.00    -0.158 S  
HETATM   11  O   UNL     1      -7.877   9.233  71.660  1.00  0.00    -0.329 OA 
HETATM   12  O   UNL     1      -8.450   6.833  71.195  1.00  0.00    -0.123 OA 
BRANCH  10  13
HETATM   13  N   UNL     1      -8.985   8.638  69.480  1.00  0.00    -0.143 N  
HETATM   14  H   UNL     1      -8.554   9.487  69.116  1.00  0.00     0.000 HD 
BRANCH  13  15
HETATM   15  C   UNL     1      -9.758   7.865  68.624  1.00  0.00    -0.158 A  
HETATM   16  C   UNL     1     -10.124   6.573  68.931  1.00  0.00    -0.183 A  
HETATM   17  C   UNL     1     -10.967   6.178  67.884  1.00  0.00    -0.304 A  
HETATM   18  N   UNL     1     -11.145   7.142  66.985  1.00  0.00    -0.262 NA 
HETATM   19  N   UNL     1     -10.375   8.187  67.409  1.00  0.00    -0.257 NA 
BRANCH  19  20
HETATM   20  C   UNL     1     -10.347   9.387  66.634  1.00  0.00    -0.214 A  
HETATM   21  C   UNL     1     -11.126  10.485  67.041  1.00  0.00    -0.183 A  
HETATM   22  C   UNL     1     -11.158  11.659  66.283  1.00  0.00    -0.345 A  
HETATM   23  C   UNL     1     -10.426  11.749  65.103  1.00  0.00    -0.330 A  
HETATM   24  C   UNL     1      -9.639  10.677  64.699  1.00  0.00    -0.334 A  
HETATM   25  C   UNL     1      -9.583   9.512  65.471  1.00  0.00    -0.349 A  
ENDBRANCH  19  20
ENDBRANCH  13  15
ENDBRANCH  10  13
ENDBRANCH   7  10
TORSDOF 4
ENDMDL
MODEL      189
REMARK 921   NORMALIZED FREE ENERGY PREDICTED BY IDOCK:   -4.58 KCAL/MOL
REMARK 922        TOTAL FREE ENERGY PREDICTED BY IDOCK:   -6.38 KCAL/MOL
REMARK 923 INTER-LIGAND FREE ENERGY PREDICTED BY IDOCK:   -6.30 KCAL/MOL
REMARK 924 INTRA-LIGAND FREE ENERGY PREDICTED BY IDOCK:   -0.08 KCAL/MOL
REMARK 927      BINDING AFFINITY PREDICTED BY RF-SCORE:    0.00 PKD
ROOT
HETATM    1  N   UNL     1      -6.674   9.894  62.869  1.00  0.00    -0.115 NA 
HETATM    2  H2  UNL     1      -6.203   9.032  63.143  1.00  0.00     0.000 HD 
HETATM    3  C   UNL     1      -7.689  10.154  63.791  1.00  0.00    -0.141 A  
HETATM    4  H1  UNL     1      -6.886   9.842  61.872  1.00  0.00     0.000 HD 
HETATM    5  C   UNL     1      -7.399  10.226  65.157  1.00  0.00    -0.127 A  
HETATM    6  C   UNL     1      -8.384  10.577  66.085  1.00  0.00    -0.155 A  
HETATM    7  C   UNL     1      -9.661  10.909  65.633  1.00  0.00    -0.232 A  
HETATM    8  C   UNL     1      -9.950  10.912  64.265  1.00  0.00    -0.392 A  
HETATM    9  C   UNL     1      -8.954  10.556  63.349  1.00  0.00    -0.232 A  
ENDROOT
BRANCH   7  10
HETATM   10  S   UNL     1     -10.963  11.234  66.814  1.00  0.00    -0.252 S  
HETATM   11  O   UNL     1     -11.932  12.047  66.110  1.00  0.00    -0.581 OA 
HETATM   12  O   UNL     1     -11.351   9.952  67.365  1.00  0.00    -0.108 OA 
BRANCH  10  13
HETATM   13  N   UNL     1     -10.191  12.148  67.926  1.00  0.00    -0.193 N  
HETATM   14  H   UNL     1      -9.176  12.080  67.995  1.00  0.00     0.000 HD 
BRANCH  13  15
HETATM   15  C   UNL     1     -10.859  13.014  68.781  1.00  0.00    -0.244 A  
HETATM   16  C   UNL     1     -10.876  14.377  68.581  1.00  0.00    -0.260 A  
HETATM   17  C   UNL     1     -11.722  14.878  69.578  1.00  0.00    -0.320 A  
HETATM   18  N   UNL     1     -12.227  13.918  70.346  1.00  0.00    -0.347 NA 
HETATM   19  N   UNL     1     -11.676  12.754  69.889  1.00  0.00    -0.286 NA 
BRANCH  19  20
HETATM   20  C   UNL     1     -12.020  11.525  70.529  1.00  0.00    -0.344 A  
HETATM   21  C   UNL     1     -11.220  10.389  70.310  1.00  0.00    -0.395 A  
HETATM   22  C   UNL     1     -11.552   9.158  70.883  1.00  0.00    -0.350 A  
HETATM   23  C   UNL     1     -12.693   9.040  71.670  1.00  0.00    -0.421 A  
HETATM   24  C   UNL     1     -13.484  10.158  71.908  1.00  0.00    -0.426 A  
HETATM   25  C   UNL     1     -13.137  11.397  71.359  1.00  0.00    -0.377 A  
ENDBRANCH  19  20
ENDBRANCH  13  15
ENDBRANCH  10  13
ENDBRANCH   7  10
TORSDOF 4
ENDMDL
MODEL      190
REMARK 921   NORMALIZED FREE ENERGY PREDICTED BY IDOCK:   -4.58 KCAL/MOL
REMARK 922        TOTAL FREE ENERGY PREDICTED BY IDOCK:   -6.38 KCAL/MOL
REMARK 923 INTER-LIGAND FREE ENERGY PREDICTED BY IDOCK:   -5.72 KCAL/MOL
REMARK 924 INTRA-LIGAND FREE ENERGY PREDICTED BY IDOCK:   -0.66 KCAL/MOL
REMARK 927      BINDING AFFINITY PREDICTED BY RF-SCORE:    0.00 PKD
ROOT
HETATM    1  N   UNL     1     -14.266   8.875  73.261  1.00  0.00    -1.237 NA 
HETATM    2  H2  UNL     1     -15.119   9.232  72.829  1.00  0.00     0.000 HD 
HETATM    3  C   UNL     1     -13.209   9.064  72.367  1.00  0.00    -0.447 A  
HETATM    4  H1  UNL     1     -14.461   7.948  73.637  1.00  0.00     0.000 HD 
HETATM    5  C   UNL     1     -12.942  10.336  71.851  1.00  0.00    -0.554 A  
HETATM    6  C   UNL     1     -11.833  10.561  71.031  1.00  0.00    -0.438 A  
HETATM    7  C   UNL     1     -10.953   9.510  70.767  1.00  0.00    -0.321 A  
HETATM    8  C   UNL     1     -11.165   8.250  71.333  1.00  0.00    -0.304 A  
HETATM    9  C   UNL     1     -12.281   8.040  72.150  1.00  0.00    -0.377 A  
ENDROOT
BRANCH   7  10
HETATM   10  S   UNL     1      -9.605   9.750  69.618  1.00  0.00    -0.232 S  
HETATM   11  O   UNL     1      -9.929  10.955  68.885  1.00  0.00    -0.189 OA 
HETATM   12  O   UNL     1      -8.383   9.674  70.392  1.00  0.00    -0.186 OA 
BRANCH  10  13
HETATM   13  N   UNL     1      -9.765   8.456  68.633  1.00  0.00    -0.160 N  
HETATM   14  H   UNL     1     -10.680   8.262  68.227  1.00  0.00     0.000 HD 
BRANCH  13  15
HETATM   15  C   UNL     1      -8.709   7.609  68.328  1.00  0.00    -0.123 A  
HETATM   16  C   UNL     1      -8.436   6.479  69.067  1.00  0.00    -0.125 A  
HETATM   17  C   UNL     1      -7.381   5.852  68.392  1.00  0.00    -0.084 A  
HETATM   18  N   UNL     1      -7.015   6.512  67.297  1.00  0.00    -0.072 NA 
HETATM   19  N   UNL     1      -7.805   7.625  67.257  1.00  0.00    -0.115 NA 
BRANCH  19  20
HETATM   20  C   UNL     1      -7.641   8.555  66.186  1.00  0.00    -0.089 A  
HETATM   21  C   UNL     1      -8.756   8.903  65.403  1.00  0.00    -0.224 A  
HETATM   22  C   UNL     1      -8.624   9.774  64.317  1.00  0.00    -0.202 A  
HETATM   23  C   UNL     1      -7.377  10.298  63.990  1.00  0.00    -0.063 A  
HETATM   24  C   UNL     1      -6.271   9.975  64.767  1.00  0.00    -0.119 A  
HETATM   25  C   UNL     1      -6.406   9.127  65.870  1.00  0.00    -0.060 A  
ENDBRANCH  19  20
ENDBRANCH  13  15
ENDBRANCH  10  13
ENDBRANCH   7  10
TORSDOF 4
ENDMDL
MODEL      191
REMARK 921   NORMALIZED FREE ENERGY PREDICTED BY IDOCK:   -4.57 KCAL/MOL
REMARK 922        TOTAL FREE ENERGY PREDICTED BY IDOCK:   -6.37 KCAL/MOL
REMARK 923 INTER-LIGAND FREE ENERGY PREDICTED BY IDOCK:   -5.94 KCAL/MOL
REMARK 924 INTRA-LIGAND FREE ENERGY PREDICTED BY IDOCK:   -0.44 KCAL/MOL
REMARK 927      BINDING AFFINITY PREDICTED BY RF-SCORE:    0.00 PKD
ROOT
HETATM    1  N   UNL     1      -9.413   9.113  64.649  1.00  0.00    -0.365 NA 
HETATM    2  H2  UNL     1      -9.988   8.433  65.146  1.00  0.00     0.000 HD 
HETATM    3  C   UNL     1      -9.991  10.375  64.805  1.00  0.00    -0.339 A  
HETATM    4  H1  UNL     1      -9.219   8.749  63.716  1.00  0.00     0.000 HD 
HETATM    5  C   UNL     1     -10.257  10.874  66.083  1.00  0.00    -0.304 A  
HETATM    6  C   UNL     1     -10.747  12.171  66.262  1.00  0.00    -0.296 A  
HETATM    7  C   UNL     1     -10.923  12.994  65.149  1.00  0.00    -0.295 A  
HETATM    8  C   UNL     1     -10.595  12.537  63.870  1.00  0.00    -0.472 A  
HETATM    9  C   UNL     1     -10.108  11.235  63.708  1.00  0.00    -0.412 A  
ENDROOT
BRANCH   7  10
HETATM   10  S   UNL     1     -11.670  14.606  65.348  1.00  0.00    -0.297 S  
HETATM   11  O   UNL     1     -11.094  15.432  64.309  1.00  0.00    -0.201 OA 
HETATM   12  O   UNL     1     -13.101  14.396  65.403  1.00  0.00    -0.604 OA 
BRANCH  10  13
HETATM   13  N   UNL     1     -11.083  15.074  66.800  1.00  0.00    -0.328 N  
HETATM   14  H   UNL     1     -11.378  14.564  67.633  1.00  0.00     0.000 HD 
BRANCH  13  15
HETATM   15  C   UNL     1     -10.203  16.137  66.948  1.00  0.00    -0.283 A  
HETATM   16  C   UNL     1     -10.602  17.447  66.805  1.00  0.00    -0.194 A  
HETATM   17  C   UNL     1      -9.470  18.207  67.126  1.00  0.00    -0.264 A  
HETATM   18  N   UNL     1      -8.431  17.451  67.466  1.00  0.00    -0.212 NA 
HETATM   19  N   UNL     1      -8.855  16.159  67.329  1.00  0.00    -0.182 NA 
BRANCH  19  20
HETATM   20  C   UNL     1      -7.946  15.096  67.616  1.00  0.00    -0.161 A  
HETATM   21  C   UNL     1      -8.455  13.818  67.906  1.00  0.00    -0.176 A  
HETATM   22  C   UNL     1      -7.597  12.764  68.236  1.00  0.00    -0.134 A  
HETATM   23  C   UNL     1      -6.224  12.975  68.296  1.00  0.00    -0.085 A  
HETATM   24  C   UNL     1      -5.707  14.230  67.996  1.00  0.00    -0.135 A  
HETATM   25  C   UNL     1      -6.561  15.277  67.637  1.00  0.00    -0.196 A  
ENDBRANCH  19  20
ENDBRANCH  13  15
ENDBRANCH  10  13
ENDBRANCH   7  10
TORSDOF 4
ENDMDL
MODEL      192
REMARK 921   NORMALIZED FREE ENERGY PREDICTED BY IDOCK:   -4.57 KCAL/MOL
REMARK 922        TOTAL FREE ENERGY PREDICTED BY IDOCK:   -6.37 KCAL/MOL
REMARK 923 INTER-LIGAND FREE ENERGY PREDICTED BY IDOCK:   -4.52 KCAL/MOL
REMARK 924 INTRA-LIGAND FREE ENERGY PREDICTED BY IDOCK:   -1.85 KCAL/MOL
REMARK 927      BINDING AFFINITY PREDICTED BY RF-SCORE:    0.00 PKD
ROOT
HETATM    1  N   UNL     1      -6.650  11.549  66.146  1.00  0.00    -0.367 NA 
HETATM    2  H2  UNL     1      -5.965  12.272  66.370  1.00  0.00     0.000 HD 
HETATM    3  C   UNL     1      -6.856  10.771  67.287  1.00  0.00    -0.081 A  
HETATM    4  H1  UNL     1      -6.377  11.111  65.267  1.00  0.00     0.000 HD 
HETATM    5  C   UNL     1      -7.229  11.372  68.492  1.00  0.00    -0.093 A  
HETATM    6  C   UNL     1      -7.531  10.601  69.618  1.00  0.00    -0.121 A  
HETATM    7  C   UNL     1      -7.508   9.210  69.520  1.00  0.00    -0.077 A  
HETATM    8  C   UNL     1      -7.207   8.590  68.304  1.00  0.00    -0.086 A  
HETATM    9  C   UNL     1      -6.904   9.376  67.186  1.00  0.00    -0.084 A  
ENDROOT
BRANCH   7  10
HETATM   10  S   UNL     1      -7.765   8.213  70.982  1.00  0.00    -0.095 S  
HETATM   11  O   UNL     1      -6.489   7.585  71.252  1.00  0.00    -0.039 OA 
HETATM   12  O   UNL     1      -8.375   9.077  71.970  1.00  0.00    -0.366 OA 
BRANCH  10  13
HETATM   13  N   UNL     1      -8.820   7.088  70.444  1.00  0.00    -0.154 N  
HETATM   14  H   UNL     1      -8.473   6.339  69.845  1.00  0.00     0.000 HD 
BRANCH  13  15
HETATM   15  C   UNL     1     -10.170   7.110  70.767  1.00  0.00    -0.197 A  
HETATM   16  C   UNL     1     -10.744   6.164  71.589  1.00  0.00    -0.294 A  
HETATM   17  C   UNL     1     -12.070   6.583  71.749  1.00  0.00    -0.342 A  
HETATM   18  N   UNL     1     -12.328   7.715  71.102  1.00  0.00    -0.297 NA 
HETATM   19  N   UNL     1     -11.169   8.041  70.456  1.00  0.00    -0.264 NA 
BRANCH  19  20
HETATM   20  C   UNL     1     -11.130   9.222  69.653  1.00  0.00    -0.116 A  
HETATM   21  C   UNL     1     -10.869   9.106  68.276  1.00  0.00    -0.104 A  
HETATM   22  C   UNL     1     -10.777  10.243  67.468  1.00  0.00    -0.348 A  
HETATM   23  C   UNL     1     -10.932  11.509  68.023  1.00  0.00    -0.284 A  
HETATM   24  C   UNL     1     -11.208  11.636  69.379  1.00  0.00    -0.311 A  
HETATM   25  C   UNL     1     -11.328  10.499  70.185  1.00  0.00    -0.400 A  
ENDBRANCH  19  20
ENDBRANCH  13  15
ENDBRANCH  10  13
ENDBRANCH   7  10
TORSDOF 4
ENDMDL
MODEL      193
REMARK 921   NORMALIZED FREE ENERGY PREDICTED BY IDOCK:   -4.57 KCAL/MOL
REMARK 922        TOTAL FREE ENERGY PREDICTED BY IDOCK:   -6.37 KCAL/MOL
REMARK 923 INTER-LIGAND FREE ENERGY PREDICTED BY IDOCK:   -5.59 KCAL/MOL
REMARK 924 INTRA-LIGAND FREE ENERGY PREDICTED BY IDOCK:   -0.78 KCAL/MOL
REMARK 927      BINDING AFFINITY PREDICTED BY RF-SCORE:    0.00 PKD
ROOT
HETATM    1  N   UNL     1      -8.307   8.902  67.660  1.00  0.00    -0.110 NA 
HETATM    2  H2  UNL     1      -8.993   8.303  67.202  1.00  0.00     0.000 HD 
HETATM    3  C   UNL     1      -8.681  10.232  67.458  1.00  0.00    -0.125 A  
HETATM    4  H1  UNL     1      -7.375   8.584  67.395  1.00  0.00     0.000 HD 
HETATM    5  C   UNL     1      -9.958  10.668  67.821  1.00  0.00    -0.192 A  
HETATM    6  C   UNL     1     -10.317  12.015  67.712  1.00  0.00    -0.210 A  
HETATM    7  C   UNL     1      -9.367  12.943  67.284  1.00  0.00    -0.212 A  
HETATM    8  C   UNL     1      -8.064  12.536  66.985  1.00  0.00    -0.105 A  
HETATM    9  C   UNL     1      -7.721  11.184  67.095  1.00  0.00    -0.136 A  
ENDROOT
BRANCH   7  10
HETATM   10  S   UNL     1      -9.847  14.644  67.017  1.00  0.00    -0.249 S  
HETATM   11  O   UNL     1      -8.858  15.190  66.113  1.00  0.00    -0.250 OA 
HETATM   12  O   UNL     1     -11.246  14.626  66.642  1.00  0.00    -0.334 OA 
BRANCH  10  13
HETATM   13  N   UNL     1      -9.640  15.291  68.503  1.00  0.00    -0.205 N  
HETATM   14  H   UNL     1     -10.406  15.229  69.174  1.00  0.00     0.000 HD 
BRANCH  13  15
HETATM   15  C   UNL     1      -8.467  15.924  68.890  1.00  0.00    -0.220 A  
HETATM   16  C   UNL     1      -7.458  15.258  69.552  1.00  0.00    -0.214 A  
HETATM   17  C   UNL     1      -6.425  16.196  69.672  1.00  0.00    -0.190 A  
HETATM   18  N   UNL     1      -6.733  17.365  69.117  1.00  0.00    -0.242 NA 
HETATM   19  N   UNL     1      -8.011  17.227  68.655  1.00  0.00    -0.264 NA 
BRANCH  19  20
HETATM   20  C   UNL     1      -8.638  18.335  68.007  1.00  0.00    -0.269 A  
HETATM   21  C   UNL     1      -9.965  18.662  68.339  1.00  0.00    -0.428 A  
HETATM   22  C   UNL     1     -10.626  19.710  67.692  1.00  0.00    -0.556 A  
HETATM   23  C   UNL     1      -9.978  20.437  66.698  1.00  0.00    -0.492 A  
HETATM   24  C   UNL     1      -8.661  20.134  66.374  1.00  0.00    -0.317 A  
HETATM   25  C   UNL     1      -7.989  19.105  67.039  1.00  0.00    -0.273 A  
ENDBRANCH  19  20
ENDBRANCH  13  15
ENDBRANCH  10  13
ENDBRANCH   7  10
TORSDOF 4
ENDMDL
MODEL      194
REMARK 921   NORMALIZED FREE ENERGY PREDICTED BY IDOCK:   -4.56 KCAL/MOL
REMARK 922        TOTAL FREE ENERGY PREDICTED BY IDOCK:   -6.36 KCAL/MOL
REMARK 923 INTER-LIGAND FREE ENERGY PREDICTED BY IDOCK:   -5.57 KCAL/MOL
REMARK 924 INTRA-LIGAND FREE ENERGY PREDICTED BY IDOCK:   -0.79 KCAL/MOL
REMARK 927      BINDING AFFINITY PREDICTED BY RF-SCORE:    0.00 PKD
ROOT
HETATM    1  N   UNL     1      -8.185   9.297  64.836  1.00  0.00    -0.136 NA 
HETATM    2  H2  UNL     1      -7.900   8.714  64.050  1.00  0.00     0.000 HD 
HETATM    3  C   UNL     1      -8.705   8.469  65.833  1.00  0.00    -0.174 A  
HETATM    4  H1  UNL     1      -8.736  10.075  64.474  1.00  0.00     0.000 HD 
HETATM    5  C   UNL     1      -7.949   7.403  66.328  1.00  0.00    -0.109 A  
HETATM    6  C   UNL     1      -8.416   6.621  67.389  1.00  0.00    -0.120 A  
HETATM    7  C   UNL     1      -9.631   6.946  67.994  1.00  0.00    -0.123 A  
HETATM    8  C   UNL     1     -10.366   8.052  67.559  1.00  0.00    -0.330 A  
HETATM    9  C   UNL     1      -9.887   8.823  66.493  1.00  0.00    -0.349 A  
ENDROOT
BRANCH   7  10
HETATM   10  S   UNL     1     -10.301   5.882  69.265  1.00  0.00    -0.276 S  
HETATM   11  O   UNL     1     -11.626   6.395  69.542  1.00  0.00    -0.404 OA 
HETATM   12  O   UNL     1     -10.129   4.521  68.798  1.00  0.00    -0.099 OA 
BRANCH  10  13
HETATM   13  N   UNL     1      -9.318   6.203  70.529  1.00  0.00    -0.160 N  
HETATM   14  H   UNL     1      -9.185   5.484  71.240  1.00  0.00     0.000 HD 
BRANCH  13  15
HETATM   15  C   UNL     1      -8.657   7.415  70.678  1.00  0.00    -0.141 A  
HETATM   16  C   UNL     1      -7.293   7.531  70.525  1.00  0.00    -0.075 A  
HETATM   17  C   UNL     1      -7.031   8.900  70.650  1.00  0.00    -0.064 A  
HETATM   18  N   UNL     1      -8.135   9.613  70.848  1.00  0.00    -0.257 NA 
HETATM   19  N   UNL     1      -9.154   8.705  70.902  1.00  0.00    -0.170 NA 
BRANCH  19  20
HETATM   20  C   UNL     1     -10.487   9.169  71.119  1.00  0.00    -0.315 A  
HETATM   21  C   UNL     1     -11.287   8.532  72.084  1.00  0.00    -0.442 A  
HETATM   22  C   UNL     1     -12.611   8.929  72.291  1.00  0.00    -0.455 A  
HETATM   23  C   UNL     1     -13.159   9.957  71.531  1.00  0.00    -0.516 A  
HETATM   24  C   UNL     1     -12.374  10.606  70.586  1.00  0.00    -0.462 A  
HETATM   25  C   UNL     1     -11.040  10.230  70.397  1.00  0.00    -0.391 A  
ENDBRANCH  19  20
ENDBRANCH  13  15
ENDBRANCH  10  13
ENDBRANCH   7  10
TORSDOF 4
ENDMDL
MODEL      195
REMARK 921   NORMALIZED FREE ENERGY PREDICTED BY IDOCK:   -4.55 KCAL/MOL
REMARK 922        TOTAL FREE ENERGY PREDICTED BY IDOCK:   -6.35 KCAL/MOL
REMARK 923 INTER-LIGAND FREE ENERGY PREDICTED BY IDOCK:   -5.52 KCAL/MOL
REMARK 924 INTRA-LIGAND FREE ENERGY PREDICTED BY IDOCK:   -0.83 KCAL/MOL
REMARK 927      BINDING AFFINITY PREDICTED BY RF-SCORE:    0.00 PKD
ROOT
HETATM    1  N   UNL     1     -13.313  15.818  70.742  1.00  0.00    -0.751 NA 
HETATM    2  H2  UNL     1     -13.000  15.986  71.699  1.00  0.00     0.000 HD 
HETATM    3  C   UNL     1     -12.659  14.683  70.259  1.00  0.00    -0.318 A  
HETATM    4  H1  UNL     1     -13.263  16.698  70.230  1.00  0.00     0.000 HD 
HETATM    5  C   UNL     1     -12.728  13.477  70.962  1.00  0.00    -0.399 A  
HETATM    6  C   UNL     1     -12.158  12.309  70.446  1.00  0.00    -0.385 A  
HETATM    7  C   UNL     1     -11.559  12.340  69.186  1.00  0.00    -0.318 A  
HETATM    8  C   UNL     1     -11.544  13.520  68.437  1.00  0.00    -0.378 A  
HETATM    9  C   UNL     1     -12.116  14.682  68.969  1.00  0.00    -0.270 A  
ENDROOT
BRANCH   7  10
HETATM   10  S   UNL     1     -10.715  10.890  68.570  1.00  0.00    -0.223 S  
HETATM   11  O   UNL     1      -9.903  10.416  69.670  1.00  0.00    -0.213 OA 
HETATM   12  O   UNL     1     -11.730  10.034  67.992  1.00  0.00    -0.086 OA 
BRANCH  10  13
HETATM   13  N   UNL     1      -9.748  11.525  67.416  1.00  0.00    -0.178 N  
HETATM   14  H   UNL     1      -9.213  12.365  67.635  1.00  0.00     0.000 HD 
BRANCH  13  15
HETATM   15  C   UNL     1      -9.626  10.970  66.149  1.00  0.00    -0.207 A  
HETATM   16  C   UNL     1      -9.853  11.700  65.003  1.00  0.00    -0.280 A  
HETATM   17  C   UNL     1      -9.533  10.831  63.953  1.00  0.00    -0.274 A  
HETATM   18  N   UNL     1      -9.115   9.645  64.384  1.00  0.00    -0.243 NA 
HETATM   19  N   UNL     1      -9.197   9.699  65.746  1.00  0.00    -0.192 NA 
BRANCH  19  20
HETATM   20  C   UNL     1      -8.821   8.553  66.511  1.00  0.00    -0.140 A  
HETATM   21  C   UNL     1      -9.650   7.417  66.498  1.00  0.00    -0.228 A  
HETATM   22  C   UNL     1      -9.337   6.294  67.270  1.00  0.00    -0.123 A  
HETATM   23  C   UNL     1      -8.203   6.294  68.075  1.00  0.00    -0.115 A  
HETATM   24  C   UNL     1      -7.367   7.404  68.084  1.00  0.00    -0.100 A  
HETATM   25  C   UNL     1      -7.662   8.517  67.290  1.00  0.00    -0.097 A  
ENDBRANCH  19  20
ENDBRANCH  13  15
ENDBRANCH  10  13
ENDBRANCH   7  10
TORSDOF 4
ENDMDL
MODEL      196
REMARK 921   NORMALIZED FREE ENERGY PREDICTED BY IDOCK:   -4.55 KCAL/MOL
REMARK 922        TOTAL FREE ENERGY PREDICTED BY IDOCK:   -6.35 KCAL/MOL
REMARK 923 INTER-LIGAND FREE ENERGY PREDICTED BY IDOCK:   -4.89 KCAL/MOL
REMARK 924 INTRA-LIGAND FREE ENERGY PREDICTED BY IDOCK:   -1.45 KCAL/MOL
REMARK 927      BINDING AFFINITY PREDICTED BY RF-SCORE:    0.00 PKD
ROOT
HETATM    1  N   UNL     1      -8.386  10.757  63.744  1.00  0.00    -0.363 NA 
HETATM    2  H2  UNL     1      -8.464  11.683  64.164  1.00  0.00     0.000 HD 
HETATM    3  C   UNL     1      -8.676   9.804  64.722  1.00  0.00    -0.192 A  
HETATM    4  H1  UNL     1      -7.508  10.713  63.227  1.00  0.00     0.000 HD 
HETATM    5  C   UNL     1      -9.879   9.864  65.430  1.00  0.00    -0.384 A  
HETATM    6  C   UNL     1     -10.227   8.867  66.345  1.00  0.00    -0.273 A  
HETATM    7  C   UNL     1      -9.383   7.769  66.513  1.00  0.00    -0.189 A  
HETATM    8  C   UNL     1      -8.211   7.655  65.761  1.00  0.00    -0.133 A  
HETATM    9  C   UNL     1      -7.874   8.664  64.851  1.00  0.00    -0.116 A  
ENDROOT
BRANCH   7  10
HETATM   10  S   UNL     1      -9.750   6.552  67.770  1.00  0.00    -0.124 S  
HETATM   11  O   UNL     1     -11.189   6.577  67.927  1.00  0.00    -0.292 OA 
HETATM   12  O   UNL     1      -9.082   5.331  67.372  1.00  0.00    -0.112 OA 
BRANCH  10  13
HETATM   13  N   UNL     1      -9.048   7.208  69.092  1.00  0.00    -0.137 N  
HETATM   14  H   UNL     1      -8.030   7.235  69.141  1.00  0.00     0.000 HD 
BRANCH  13  15
HETATM   15  C   UNL     1      -9.780   7.730  70.149  1.00  0.00    -0.183 A  
HETATM   16  C   UNL     1     -10.144   6.968  71.238  1.00  0.00    -0.199 A  
HETATM   17  C   UNL     1     -10.767   7.865  72.114  1.00  0.00    -0.257 A  
HETATM   18  N   UNL     1     -10.788   9.107  71.641  1.00  0.00    -0.360 NA 
HETATM   19  N   UNL     1     -10.209   9.039  70.405  1.00  0.00    -0.196 NA 
BRANCH  19  20
HETATM   20  C   UNL     1     -10.092  10.231  69.627  1.00  0.00    -0.224 A  
HETATM   21  C   UNL     1     -11.252  10.960  69.310  1.00  0.00    -0.327 A  
HETATM   22  C   UNL     1     -11.181  12.105  68.512  1.00  0.00    -0.307 A  
HETATM   23  C   UNL     1      -9.956  12.531  68.009  1.00  0.00    -0.219 A  
HETATM   24  C   UNL     1      -8.800  11.829  68.329  1.00  0.00    -0.172 A  
HETATM   25  C   UNL     1      -8.865  10.699  69.151  1.00  0.00    -0.133 A  
ENDBRANCH  19  20
ENDBRANCH  13  15
ENDBRANCH  10  13
ENDBRANCH   7  10
TORSDOF 4
ENDMDL
MODEL      197
REMARK 921   NORMALIZED FREE ENERGY PREDICTED BY IDOCK:   -4.55 KCAL/MOL
REMARK 922        TOTAL FREE ENERGY PREDICTED BY IDOCK:   -6.34 KCAL/MOL
REMARK 923 INTER-LIGAND FREE ENERGY PREDICTED BY IDOCK:   -6.33 KCAL/MOL
REMARK 924 INTRA-LIGAND FREE ENERGY PREDICTED BY IDOCK:   -0.01 KCAL/MOL
REMARK 927      BINDING AFFINITY PREDICTED BY RF-SCORE:    0.00 PKD
ROOT
HETATM    1  N   UNL     1      -6.424  12.264  69.941  1.00  0.00    -0.341 NA 
HETATM    2  H2  UNL     1      -6.016  11.606  69.276  1.00  0.00     0.000 HD 
HETATM    3  C   UNL     1      -6.778  13.425  69.251  1.00  0.00    -0.072 A  
HETATM    4  H1  UNL     1      -5.812  12.316  70.756  1.00  0.00     0.000 HD 
HETATM    5  C   UNL     1      -7.617  13.353  68.135  1.00  0.00    -0.138 A  
HETATM    6  C   UNL     1      -8.057  14.512  67.490  1.00  0.00    -0.204 A  
HETATM    7  C   UNL     1      -7.695  15.758  68.001  1.00  0.00    -0.129 A  
HETATM    8  C   UNL     1      -6.916  15.851  69.158  1.00  0.00    -0.176 A  
HETATM    9  C   UNL     1      -6.480  14.681  69.791  1.00  0.00    -0.159 A  
ENDROOT
BRANCH   7  10
HETATM   10  S   UNL     1      -8.142  17.244  67.114  1.00  0.00    -0.212 S  
HETATM   11  O   UNL     1      -7.718  18.342  67.956  1.00  0.00    -0.248 OA 
HETATM   12  O   UNL     1      -7.607  17.105  65.775  1.00  0.00    -0.381 OA 
BRANCH  10  13
HETATM   13  N   UNL     1      -9.774  17.160  67.112  1.00  0.00    -0.254 N  
HETATM   14  H   UNL     1     -10.303  17.931  67.519  1.00  0.00     0.000 HD 
BRANCH  13  15
HETATM   15  C   UNL     1     -10.470  16.083  66.581  1.00  0.00    -0.304 A  
HETATM   16  C   UNL     1     -10.456  15.792  65.235  1.00  0.00    -0.427 A  
HETATM   17  C   UNL     1     -11.178  14.598  65.116  1.00  0.00    -0.374 A  
HETATM   18  N   UNL     1     -11.607  14.144  66.290  1.00  0.00    -0.356 NA 
HETATM   19  N   UNL     1     -11.206  15.071  67.211  1.00  0.00    -0.335 NA 
BRANCH  19  20
HETATM   20  C   UNL     1     -11.531  14.869  68.587  1.00  0.00    -0.306 A  
HETATM   21  C   UNL     1     -11.209  15.869  69.522  1.00  0.00    -0.325 A  
HETATM   22  C   UNL     1     -11.471  15.686  70.883  1.00  0.00    -0.425 A  
HETATM   23  C   UNL     1     -12.043  14.500  71.331  1.00  0.00    -0.420 A  
HETATM   24  C   UNL     1     -12.381  13.511  70.415  1.00  0.00    -0.397 A  
HETATM   25  C   UNL     1     -12.147  13.703  69.049  1.00  0.00    -0.348 A  
ENDBRANCH  19  20
ENDBRANCH  13  15
ENDBRANCH  10  13
ENDBRANCH   7  10
TORSDOF 4
ENDMDL
MODEL      198
REMARK 921   NORMALIZED FREE ENERGY PREDICTED BY IDOCK:   -4.54 KCAL/MOL
REMARK 922        TOTAL FREE ENERGY PREDICTED BY IDOCK:   -6.34 KCAL/MOL
REMARK 923 INTER-LIGAND FREE ENERGY PREDICTED BY IDOCK:   -4.41 KCAL/MOL
REMARK 924 INTRA-LIGAND FREE ENERGY PREDICTED BY IDOCK:   -1.93 KCAL/MOL
REMARK 927      BINDING AFFINITY PREDICTED BY RF-SCORE:    0.00 PKD
ROOT
HETATM    1  N   UNL     1     -10.590  13.145  69.111  1.00  0.00    -0.440 NA 
HETATM    2  H2  UNL     1     -11.461  12.823  69.533  1.00  0.00     0.000 HD 
HETATM    3  C   UNL     1     -10.137  12.159  68.232  1.00  0.00    -0.210 A  
HETATM    4  H1  UNL     1      -9.982  13.491  69.853  1.00  0.00     0.000 HD 
HETATM    5  C   UNL     1     -10.970  11.685  67.215  1.00  0.00    -0.318 A  
HETATM    6  C   UNL     1     -10.503  10.768  66.270  1.00  0.00    -0.287 A  
HETATM    7  C   UNL     1      -9.169  10.360  66.315  1.00  0.00    -0.166 A  
HETATM    8  C   UNL     1      -8.302  10.878  67.281  1.00  0.00    -0.123 A  
HETATM    9  C   UNL     1      -8.787  11.794  68.222  1.00  0.00    -0.172 A  
ENDROOT
BRANCH   7  10
HETATM   10  S   UNL     1      -8.591   9.092  65.195  1.00  0.00    -0.184 S  
HETATM   11  O   UNL     1      -9.027   9.509  63.879  1.00  0.00    -0.228 OA 
HETATM   12  O   UNL     1      -7.182   8.907  65.471  1.00  0.00    -0.083 OA 
BRANCH  10  13
HETATM   13  N   UNL     1      -9.464   7.796  65.671  1.00  0.00    -0.369 N  
HETATM   14  H   UNL     1     -10.419   7.697  65.326  1.00  0.00     0.000 HD 
BRANCH  13  15
HETATM   15  C   UNL     1      -8.961   6.824  66.525  1.00  0.00    -0.149 A  
HETATM   16  C   UNL     1      -8.390   5.661  66.059  1.00  0.00    -0.124 A  
HETATM   17  C   UNL     1      -7.924   5.004  67.204  1.00  0.00    -0.100 A  
HETATM   18  N   UNL     1      -8.156   5.693  68.316  1.00  0.00    -0.103 NA 
HETATM   19  N   UNL     1      -8.831   6.813  67.920  1.00  0.00    -0.119 NA 
BRANCH  19  20
HETATM   20  C   UNL     1      -9.238   7.764  68.905  1.00  0.00    -0.140 A  
HETATM   21  C   UNL     1      -8.287   8.256  69.817  1.00  0.00    -0.123 A  
HETATM   22  C   UNL     1      -8.658   9.152  70.823  1.00  0.00    -0.265 A  
HETATM   23  C   UNL     1      -9.983   9.558  70.943  1.00  0.00    -0.308 A  
HETATM   24  C   UNL     1     -10.929   9.092  70.038  1.00  0.00    -0.230 A  
HETATM   25  C   UNL     1     -10.555   8.218  69.013  1.00  0.00    -0.167 A  
ENDBRANCH  19  20
ENDBRANCH  13  15
ENDBRANCH  10  13
ENDBRANCH   7  10
TORSDOF 4
ENDMDL
MODEL      199
REMARK 921   NORMALIZED FREE ENERGY PREDICTED BY IDOCK:   -4.54 KCAL/MOL
REMARK 922        TOTAL FREE ENERGY PREDICTED BY IDOCK:   -6.34 KCAL/MOL
REMARK 923 INTER-LIGAND FREE ENERGY PREDICTED BY IDOCK:   -5.05 KCAL/MOL
REMARK 924 INTRA-LIGAND FREE ENERGY PREDICTED BY IDOCK:   -1.29 KCAL/MOL
REMARK 927      BINDING AFFINITY PREDICTED BY RF-SCORE:    0.00 PKD
ROOT
HETATM    1  N   UNL     1      -8.331   6.463  64.382  1.00  0.00    -0.324 NA 
HETATM    2  H2  UNL     1      -7.312   6.419  64.372  1.00  0.00     0.000 HD 
HETATM    3  C   UNL     1      -8.762   6.351  65.706  1.00  0.00    -0.127 A  
HETATM    4  H1  UNL     1      -8.686   5.826  63.670  1.00  0.00     0.000 HD 
HETATM    5  C   UNL     1      -8.275   7.225  66.682  1.00  0.00    -0.118 A  
HETATM    6  C   UNL     1      -8.765   7.188  67.990  1.00  0.00    -0.127 A  
HETATM    7  C   UNL     1      -9.793   6.301  68.310  1.00  0.00    -0.126 A  
HETATM    8  C   UNL     1     -10.343   5.470  67.330  1.00  0.00    -0.290 A  
HETATM    9  C   UNL     1      -9.838   5.516  66.025  1.00  0.00    -0.091 A  
ENDROOT
BRANCH   7  10
HETATM   10  S   UNL     1     -10.341   6.152  70.006  1.00  0.00    -0.230 S  
HETATM   11  O   UNL     1     -10.478   4.731  70.246  1.00  0.00    -0.194 OA 
HETATM   12  O   UNL     1      -9.428   6.941  70.806  1.00  0.00    -0.165 OA 
BRANCH  10  13
HETATM   13  N   UNL     1     -11.822   6.838  69.945  1.00  0.00    -0.657 N  
HETATM   14  H   UNL     1     -12.532   6.414  69.348  1.00  0.00     0.000 HD 
BRANCH  13  15
HETATM   15  C   UNL     1     -12.154   7.974  70.670  1.00  0.00     0.025 A  
HETATM   16  C   UNL     1     -12.934   7.919  71.804  1.00  0.00    -0.351 A  
HETATM   17  C   UNL     1     -12.954   9.232  72.292  1.00  0.00    -0.412 A  
HETATM   18  N   UNL     1     -12.232  10.062  71.546  1.00  0.00    -0.396 NA 
HETATM   19  N   UNL     1     -11.754   9.307  70.513  1.00  0.00    -0.224 NA 
BRANCH  19  20
HETATM   20  C   UNL     1     -10.938   9.928  69.519  1.00  0.00    -0.242 A  
HETATM   21  C   UNL     1     -11.512  10.288  68.287  1.00  0.00    -0.149 A  
HETATM   22  C   UNL     1     -10.733  10.856  67.274  1.00  0.00    -0.317 A  
HETATM   23  C   UNL     1      -9.371  11.059  67.471  1.00  0.00    -0.167 A  
HETATM   24  C   UNL     1      -8.795  10.723  68.690  1.00  0.00    -0.152 A  
HETATM   25  C   UNL     1      -9.578  10.182  69.715  1.00  0.00    -0.213 A  
ENDBRANCH  19  20
ENDBRANCH  13  15
ENDBRANCH  10  13
ENDBRANCH   7  10
TORSDOF 4
ENDMDL
MODEL      200
REMARK 921   NORMALIZED FREE ENERGY PREDICTED BY IDOCK:   -4.51 KCAL/MOL
REMARK 922        TOTAL FREE ENERGY PREDICTED BY IDOCK:   -6.30 KCAL/MOL
REMARK 923 INTER-LIGAND FREE ENERGY PREDICTED BY IDOCK:   -5.62 KCAL/MOL
REMARK 924 INTRA-LIGAND FREE ENERGY PREDICTED BY IDOCK:   -0.68 KCAL/MOL
REMARK 927      BINDING AFFINITY PREDICTED BY RF-SCORE:    0.00 PKD
ROOT
HETATM    1  N   UNL     1     -12.600  14.052  63.000  1.00  0.00    -0.872 NA 
HETATM    2  H2  UNL     1     -12.329  15.035  63.030  1.00  0.00     0.000 HD 
HETATM    3  C   UNL     1     -12.082  13.419  64.132  1.00  0.00    -0.433 A  
HETATM    4  H1  UNL     1     -12.395  13.691  62.069  1.00  0.00     0.000 HD 
HETATM    5  C   UNL     1     -12.365  13.915  65.408  1.00  0.00    -0.494 A  
HETATM    6  C   UNL     1     -11.933  13.240  66.554  1.00  0.00    -0.448 A  
HETATM    7  C   UNL     1     -11.255  12.028  66.419  1.00  0.00    -0.337 A  
HETATM    8  C   UNL     1     -11.028  11.481  65.153  1.00  0.00    -0.298 A  
HETATM    9  C   UNL     1     -11.463  12.170  64.016  1.00  0.00    -0.488 A  
ENDROOT
BRANCH   7  10
HETATM   10  S   UNL     1     -10.586  11.221  67.866  1.00  0.00    -0.207 S  
HETATM   11  O   UNL     1      -9.600  12.136  68.401  1.00  0.00    -0.209 OA 
HETATM   12  O   UNL     1     -11.717  10.814  68.675  1.00  0.00    -0.334 OA 
BRANCH  10  13
HETATM   13  N   UNL     1      -9.829   9.928  67.214  1.00  0.00    -0.174 N  
HETATM   14  H   UNL     1     -10.381   9.255  66.684  1.00  0.00     0.000 HD 
BRANCH  13  15
HETATM   15  C   UNL     1      -8.465   9.708  67.351  1.00  0.00    -0.125 A  
HETATM   16  C   UNL     1      -7.552  10.151  66.418  1.00  0.00    -0.108 A  
HETATM   17  C   UNL     1      -6.301   9.829  66.958  1.00  0.00    -0.065 A  
HETATM   18  N   UNL     1      -6.395   9.246  68.149  1.00  0.00    -0.054 NA 
HETATM   19  N   UNL     1      -7.734   9.130  68.396  1.00  0.00    -0.093 NA 
BRANCH  19  20
HETATM   20  C   UNL     1      -8.164   8.522  69.615  1.00  0.00    -0.115 A  
HETATM   21  C   UNL     1      -9.256   7.637  69.591  1.00  0.00    -0.146 A  
HETATM   22  C   UNL     1      -9.734   7.059  70.771  1.00  0.00    -0.170 A  
HETATM   23  C   UNL     1      -9.139   7.367  71.990  1.00  0.00    -0.149 A  
HETATM   24  C   UNL     1      -8.049   8.228  72.025  1.00  0.00    -0.188 A  
HETATM   25  C   UNL     1      -7.551   8.784  70.843  1.00  0.00    -0.109 A  
ENDBRANCH  19  20
ENDBRANCH  13  15
ENDBRANCH  10  13
ENDBRANCH   7  10
TORSDOF 4
ENDMDL
MODEL      201
REMARK 921   NORMALIZED FREE ENERGY PREDICTED BY IDOCK:   -4.51 KCAL/MOL
REMARK 922        TOTAL FREE ENERGY PREDICTED BY IDOCK:   -6.30 KCAL/MOL
REMARK 923 INTER-LIGAND FREE ENERGY PREDICTED BY IDOCK:   -5.43 KCAL/MOL
REMARK 924 INTRA-LIGAND FREE ENERGY PREDICTED BY IDOCK:   -0.86 KCAL/MOL
REMARK 927      BINDING AFFINITY PREDICTED BY RF-SCORE:    0.00 PKD
ROOT
HETATM    1  N   UNL     1      -9.401   8.789  72.364  1.00  0.00    -0.351 NA 
HETATM    2  H2  UNL     1     -10.139   8.101  72.513  1.00  0.00     0.000 HD 
HETATM    3  C   UNL     1      -9.081   8.802  71.005  1.00  0.00    -0.218 A  
HETATM    4  H1  UNL     1      -8.674   8.637  73.062  1.00  0.00     0.000 HD 
HETATM    5  C   UNL     1     -10.078   9.012  70.048  1.00  0.00    -0.215 A  
HETATM    6  C   UNL     1      -9.761   9.121  68.691  1.00  0.00    -0.164 A  
HETATM    7  C   UNL     1      -8.424   9.071  68.295  1.00  0.00    -0.129 A  
HETATM    8  C   UNL     1      -7.409   8.935  69.245  1.00  0.00    -0.070 A  
HETATM    9  C   UNL     1      -7.742   8.823  70.600  1.00  0.00    -0.096 A  
ENDROOT
BRANCH   7  10
HETATM   10  S   UNL     1      -8.014   9.080  66.555  1.00  0.00    -0.104 S  
HETATM   11  O   UNL     1      -7.082  10.174  66.381  1.00  0.00    -0.097 OA 
HETATM   12  O   UNL     1      -7.622   7.728  66.215  1.00  0.00    -0.084 OA 
BRANCH  10  13
HETATM   13  N   UNL     1      -9.445   9.472  65.871  1.00  0.00    -0.224 N  
HETATM   14  H   UNL     1     -10.297   9.058  66.250  1.00  0.00     0.000 HD 
BRANCH  13  15
HETATM   15  C   UNL     1      -9.551  10.343  64.796  1.00  0.00    -0.293 A  
HETATM   16  C   UNL     1      -9.158   9.990  63.523  1.00  0.00    -0.303 A  
HETATM   17  C   UNL     1      -9.513  11.081  62.720  1.00  0.00    -0.334 A  
HETATM   18  N   UNL     1     -10.104  12.050  63.412  1.00  0.00    -0.437 NA 
HETATM   19  N   UNL     1     -10.107  11.626  64.711  1.00  0.00    -0.251 NA 
BRANCH  19  20
HETATM   20  C   UNL     1     -10.674  12.468  65.715  1.00  0.00    -0.269 A  
HETATM   21  C   UNL     1     -11.913  13.087  65.472  1.00  0.00    -0.470 A  
HETATM   22  C   UNL     1     -12.477  13.954  66.413  1.00  0.00    -0.414 A  
HETATM   23  C   UNL     1     -11.806  14.226  67.601  1.00  0.00    -0.420 A  
HETATM   24  C   UNL     1     -10.588  13.608  67.860  1.00  0.00    -0.255 A  
HETATM   25  C   UNL     1     -10.037  12.718  66.933  1.00  0.00    -0.234 A  
ENDBRANCH  19  20
ENDBRANCH  13  15
ENDBRANCH  10  13
ENDBRANCH   7  10
TORSDOF 4
ENDMDL
MODEL      202
REMARK 921   NORMALIZED FREE ENERGY PREDICTED BY IDOCK:   -4.50 KCAL/MOL
REMARK 922        TOTAL FREE ENERGY PREDICTED BY IDOCK:   -6.29 KCAL/MOL
REMARK 923 INTER-LIGAND FREE ENERGY PREDICTED BY IDOCK:   -6.11 KCAL/MOL
REMARK 924 INTRA-LIGAND FREE ENERGY PREDICTED BY IDOCK:   -0.17 KCAL/MOL
REMARK 927      BINDING AFFINITY PREDICTED BY RF-SCORE:    0.00 PKD
ROOT
HETATM    1  N   UNL     1      -7.203   9.272  71.167  1.00  0.00    -0.269 NA 
HETATM    2  H2  UNL     1      -7.199   8.302  70.852  1.00  0.00     0.000 HD 
HETATM    3  C   UNL     1      -7.665  10.072  70.120  1.00  0.00    -0.143 A  
HETATM    4  H1  UNL     1      -6.306   9.469  71.608  1.00  0.00     0.000 HD 
HETATM    5  C   UNL     1      -8.896   9.801  69.515  1.00  0.00    -0.202 A  
HETATM    6  C   UNL     1      -9.415  10.646  68.530  1.00  0.00    -0.176 A  
HETATM    7  C   UNL     1      -8.717  11.804  68.185  1.00  0.00    -0.168 A  
HETATM    8  C   UNL     1      -7.521  12.129  68.830  1.00  0.00    -0.027 A  
HETATM    9  C   UNL     1      -7.012  11.271  69.812  1.00  0.00    -0.008 A  
ENDROOT
BRANCH   7  10
HETATM   10  S   UNL     1      -9.304  12.825  66.840  1.00  0.00    -0.238 S  
HETATM   11  O   UNL     1      -8.457  13.999  66.845  1.00  0.00    -0.179 OA 
HETATM   12  O   UNL     1      -9.362  11.974  65.670  1.00  0.00    -0.190 OA 
BRANCH  10  13
HETATM   13  N   UNL     1     -10.800  13.233  67.352  1.00  0.00    -0.264 N  
HETATM   14  H   UNL     1     -11.588  12.647  67.075  1.00  0.00     0.000 HD 
BRANCH  13  15
HETATM   15  C   UNL     1     -11.046  14.344  68.146  1.00  0.00    -0.264 A  
HETATM   16  C   UNL     1     -10.750  15.624  67.731  1.00  0.00    -0.297 A  
HETATM   17  C   UNL     1     -11.231  16.455  68.751  1.00  0.00    -0.313 A  
HETATM   18  N   UNL     1     -11.807  15.770  69.735  1.00  0.00    -0.351 NA 
HETATM   19  N   UNL     1     -11.672  14.454  69.395  1.00  0.00    -0.297 NA 
BRANCH  19  20
HETATM   20  C   UNL     1     -12.190  13.454  70.273  1.00  0.00    -0.335 A  
HETATM   21  C   UNL     1     -11.984  12.097  69.965  1.00  0.00    -0.391 A  
HETATM   22  C   UNL     1     -12.516  11.091  70.776  1.00  0.00    -0.491 A  
HETATM   23  C   UNL     1     -13.271  11.423  71.896  1.00  0.00    -0.485 A  
HETATM   24  C   UNL     1     -13.468  12.760  72.221  1.00  0.00    -0.591 A  
HETATM   25  C   UNL     1     -12.912  13.768  71.426  1.00  0.00    -0.433 A  
ENDBRANCH  19  20
ENDBRANCH  13  15
ENDBRANCH  10  13
ENDBRANCH   7  10
TORSDOF 4
ENDMDL
MODEL      203
REMARK 921   NORMALIZED FREE ENERGY PREDICTED BY IDOCK:   -4.50 KCAL/MOL
REMARK 922        TOTAL FREE ENERGY PREDICTED BY IDOCK:   -6.29 KCAL/MOL
REMARK 923 INTER-LIGAND FREE ENERGY PREDICTED BY IDOCK:   -5.49 KCAL/MOL
REMARK 924 INTRA-LIGAND FREE ENERGY PREDICTED BY IDOCK:   -0.79 KCAL/MOL
REMARK 927      BINDING AFFINITY PREDICTED BY RF-SCORE:    0.00 PKD
ROOT
HETATM    1  N   UNL     1     -11.917   5.565  72.982  1.00  0.00    -0.530 NA 
HETATM    2  H2  UNL     1     -12.775   5.504  73.530  1.00  0.00     0.000 HD 
HETATM    3  C   UNL     1     -11.935   6.765  72.268  1.00  0.00    -0.210 A  
HETATM    4  H1  UNL     1     -11.783   4.679  72.495  1.00  0.00     0.000 HD 
HETATM    5  C   UNL     1     -12.117   7.980  72.936  1.00  0.00    -0.031 A  
HETATM    6  C   UNL     1     -12.045   9.196  72.250  1.00  0.00    -0.311 A  
HETATM    7  C   UNL     1     -11.734   9.196  70.890  1.00  0.00    -0.284 A  
HETATM    8  C   UNL     1     -11.477   7.996  70.222  1.00  0.00    -0.078 A  
HETATM    9  C   UNL     1     -11.557   6.786  70.921  1.00  0.00    -0.403 A  
ENDROOT
BRANCH   7  10
HETATM   10  S   UNL     1     -11.764  10.731  69.974  1.00  0.00    -0.365 S  
HETATM   11  O   UNL     1     -12.404  10.419  68.714  1.00  0.00    -0.103 OA 
HETATM   12  O   UNL     1     -12.337  11.728  70.855  1.00  0.00    -0.375 OA 
BRANCH  10  13
HETATM   13  N   UNL     1     -10.174  11.007  69.722  1.00  0.00    -0.408 N  
HETATM   14  H   UNL     1      -9.520  10.825  70.483  1.00  0.00     0.000 HD 
BRANCH  13  15
HETATM   15  C   UNL     1      -9.675  11.479  68.516  1.00  0.00    -0.189 A  
HETATM   16  C   UNL     1      -9.116  10.643  67.575  1.00  0.00    -0.144 A  
HETATM   17  C   UNL     1      -8.834  11.469  66.480  1.00  0.00    -0.190 A  
HETATM   18  N   UNL     1      -9.198  12.731  66.688  1.00  0.00    -0.228 NA 
HETATM   19  N   UNL     1      -9.692  12.765  67.961  1.00  0.00    -0.214 NA 
BRANCH  19  20
HETATM   20  C   UNL     1     -10.162  14.006  68.490  1.00  0.00    -0.237 A  
HETATM   21  C   UNL     1     -11.521  14.342  68.347  1.00  0.00    -0.331 A  
HETATM   22  C   UNL     1     -12.007  15.567  68.811  1.00  0.00    -0.265 A  
HETATM   23  C   UNL     1     -11.144  16.479  69.410  1.00  0.00    -0.253 A  
HETATM   24  C   UNL     1      -9.803  16.152  69.572  1.00  0.00    -0.198 A  
HETATM   25  C   UNL     1      -9.320  14.915  69.135  1.00  0.00    -0.145 A  
ENDBRANCH  19  20
ENDBRANCH  13  15
ENDBRANCH  10  13
ENDBRANCH   7  10
TORSDOF 4
ENDMDL
MODEL      204
REMARK 921   NORMALIZED FREE ENERGY PREDICTED BY IDOCK:   -4.49 KCAL/MOL
REMARK 922        TOTAL FREE ENERGY PREDICTED BY IDOCK:   -6.28 KCAL/MOL
REMARK 923 INTER-LIGAND FREE ENERGY PREDICTED BY IDOCK:   -4.25 KCAL/MOL
REMARK 924 INTRA-LIGAND FREE ENERGY PREDICTED BY IDOCK:   -2.03 KCAL/MOL
REMARK 927      BINDING AFFINITY PREDICTED BY RF-SCORE:    0.00 PKD
ROOT
HETATM    1  N   UNL     1      -8.478   7.583  65.718  1.00  0.00    -0.141 NA 
HETATM    2  H2  UNL     1      -7.482   7.459  65.901  1.00  0.00     0.000 HD 
HETATM    3  C   UNL     1      -9.146   7.635  66.944  1.00  0.00    -0.144 A  
HETATM    4  H1  UNL     1      -8.760   6.909  65.007  1.00  0.00     0.000 HD 
HETATM    5  C   UNL     1      -8.759   8.559  67.918  1.00  0.00    -0.138 A  
HETATM    6  C   UNL     1      -9.474   8.689  69.112  1.00  0.00    -0.157 A  
HETATM    7  C   UNL     1     -10.622   7.920  69.308  1.00  0.00    -0.188 A  
HETATM    8  C   UNL     1     -11.065   7.042  68.314  1.00  0.00    -0.080 A  
HETATM    9  C   UNL     1     -10.335   6.922  67.126  1.00  0.00    -0.339 A  
ENDROOT
BRANCH   7  10
HETATM   10  S   UNL     1     -11.472   7.981  70.879  1.00  0.00    -0.259 S  
HETATM   11  O   UNL     1     -12.085   9.291  70.939  1.00  0.00    -0.286 OA 
HETATM   12  O   UNL     1     -12.292   6.789  70.953  1.00  0.00    -0.381 OA 
BRANCH  10  13
HETATM   13  N   UNL     1     -10.231   7.913  71.939  1.00  0.00    -0.193 N  
HETATM   14  H   UNL     1      -9.653   8.743  72.068  1.00  0.00     0.000 HD 
BRANCH  13  15
HETATM   15  C   UNL     1      -9.930   6.773  72.672  1.00  0.00    -0.171 A  
HETATM   16  C   UNL     1     -10.181   6.681  74.024  1.00  0.00    -0.395 A  
HETATM   17  C   UNL     1      -9.840   5.367  74.366  1.00  0.00    -0.210 A  
HETATM   18  N   UNL     1      -9.422   4.662  73.319  1.00  0.00    -0.122 NA 
HETATM   19  N   UNL     1      -9.438   5.527  72.262  1.00  0.00    -0.145 NA 
BRANCH  19  20
HETATM   20  C   UNL     1      -9.024   5.062  70.977  1.00  0.00    -0.132 A  
HETATM   21  C   UNL     1      -7.844   5.575  70.409  1.00  0.00    -0.101 A  
HETATM   22  C   UNL     1      -7.433   5.177  69.134  1.00  0.00    -0.065 A  
HETATM   23  C   UNL     1      -8.198   4.273  68.403  1.00  0.00    -0.087 A  
HETATM   24  C   UNL     1      -9.357   3.746  68.961  1.00  0.00    -0.240 A  
HETATM   25  C   UNL     1      -9.755   4.121  70.248  1.00  0.00    -0.277 A  
ENDBRANCH  19  20
ENDBRANCH  13  15
ENDBRANCH  10  13
ENDBRANCH   7  10
TORSDOF 4
ENDMDL
MODEL      205
REMARK 921   NORMALIZED FREE ENERGY PREDICTED BY IDOCK:   -4.48 KCAL/MOL
REMARK 922        TOTAL FREE ENERGY PREDICTED BY IDOCK:   -6.26 KCAL/MOL
REMARK 923 INTER-LIGAND FREE ENERGY PREDICTED BY IDOCK:   -5.36 KCAL/MOL
REMARK 924 INTRA-LIGAND FREE ENERGY PREDICTED BY IDOCK:   -0.90 KCAL/MOL
REMARK 927      BINDING AFFINITY PREDICTED BY RF-SCORE:    0.00 PKD
ROOT
HETATM    1  N   UNL     1      -9.470  12.145  65.063  1.00  0.00    -0.438 NA 
HETATM    2  H2  UNL     1      -9.464  12.028  64.050  1.00  0.00     0.000 HD 
HETATM    3  C   UNL     1      -9.634  10.888  65.650  1.00  0.00    -0.224 A  
HETATM    4  H1  UNL     1     -10.106  12.907  65.295  1.00  0.00     0.000 HD 
HETATM    5  C   UNL     1      -8.762   9.843  65.333  1.00  0.00    -0.175 A  
HETATM    6  C   UNL     1      -8.854   8.607  65.979  1.00  0.00    -0.213 A  
HETATM    7  C   UNL     1      -9.798   8.434  66.992  1.00  0.00    -0.230 A  
HETATM    8  C   UNL     1     -10.631   9.490  67.372  1.00  0.00    -0.337 A  
HETATM    9  C   UNL     1     -10.528  10.721  66.713  1.00  0.00    -0.305 A  
ENDROOT
BRANCH   7  10
HETATM   10  S   UNL     1     -10.014   6.824  67.737  1.00  0.00    -0.148 S  
HETATM   11  O   UNL     1     -11.284   6.884  68.430  1.00  0.00    -0.113 OA 
HETATM   12  O   UNL     1      -9.803   5.850  66.687  1.00  0.00    -0.150 OA 
BRANCH  10  13
HETATM   13  N   UNL     1      -8.800   6.790  68.830  1.00  0.00    -0.131 N  
HETATM   14  H   UNL     1      -8.390   5.890  69.077  1.00  0.00     0.000 HD 
BRANCH  13  15
HETATM   15  C   UNL     1      -8.304   7.936  69.436  1.00  0.00    -0.132 A  
HETATM   16  C   UNL     1      -7.069   8.458  69.121  1.00  0.00    -0.064 A  
HETATM   17  C   UNL     1      -6.980   9.646  69.856  1.00  0.00    -0.081 A  
HETATM   18  N   UNL     1      -8.074   9.883  70.573  1.00  0.00    -0.206 NA 
HETATM   19  N   UNL     1      -8.896   8.814  70.353  1.00  0.00    -0.154 NA 
BRANCH  19  20
HETATM   20  C   UNL     1     -10.167   8.770  71.004  1.00  0.00    -0.237 A  
HETATM   21  C   UNL     1     -11.104   9.787  70.749  1.00  0.00    -0.415 A  
HETATM   22  C   UNL     1     -12.339   9.801  71.403  1.00  0.00    -0.480 A  
HETATM   23  C   UNL     1     -12.651   8.811  72.329  1.00  0.00    -0.460 A  
HETATM   24  C   UNL     1     -11.740   7.791  72.577  1.00  0.00    -0.393 A  
HETATM   25  C   UNL     1     -10.515   7.759  71.903  1.00  0.00    -0.268 A  
ENDBRANCH  19  20
ENDBRANCH  13  15
ENDBRANCH  10  13
ENDBRANCH   7  10
TORSDOF 4
ENDMDL
MODEL      206
REMARK 921   NORMALIZED FREE ENERGY PREDICTED BY IDOCK:   -4.44 KCAL/MOL
REMARK 922        TOTAL FREE ENERGY PREDICTED BY IDOCK:   -6.21 KCAL/MOL
REMARK 923 INTER-LIGAND FREE ENERGY PREDICTED BY IDOCK:   -5.90 KCAL/MOL
REMARK 924 INTRA-LIGAND FREE ENERGY PREDICTED BY IDOCK:   -0.31 KCAL/MOL
REMARK 927      BINDING AFFINITY PREDICTED BY RF-SCORE:    0.00 PKD
ROOT
HETATM    1  N   UNL     1      -9.340  17.946  67.576  1.00  0.00    -0.252 NA 
HETATM    2  H2  UNL     1      -8.940  18.173  68.486  1.00  0.00     0.000 HD 
HETATM    3  C   UNL     1      -9.840  16.643  67.627  1.00  0.00    -0.256 A  
HETATM    4  H1  UNL     1      -8.669  18.212  66.855  1.00  0.00     0.000 HD 
HETATM    5  C   UNL     1     -10.760  16.280  68.615  1.00  0.00    -0.309 A  
HETATM    6  C   UNL     1     -11.340  15.008  68.625  1.00  0.00    -0.311 A  
HETATM    7  C   UNL     1     -11.034  14.109  67.602  1.00  0.00    -0.267 A  
HETATM    8  C   UNL     1     -10.172  14.480  66.567  1.00  0.00    -0.282 A  
HETATM    9  C   UNL     1      -9.596  15.756  66.573  1.00  0.00    -0.288 A  
ENDROOT
BRANCH   7  10
HETATM   10  S   UNL     1     -11.667  12.439  67.672  1.00  0.00    -0.300 S  
HETATM   11  O   UNL     1     -12.466  12.376  68.877  1.00  0.00     0.113 OA 
HETATM   12  O   UNL     1     -12.270  12.170  66.383  1.00  0.00    -0.592 OA 
BRANCH  10  13
HETATM   13  N   UNL     1     -10.301  11.567  67.881  1.00  0.00    -0.179 N  
HETATM   14  H   UNL     1      -9.455  12.050  68.182  1.00  0.00     0.000 HD 
BRANCH  13  15
HETATM   15  C   UNL     1     -10.243  10.197  67.665  1.00  0.00    -0.203 A  
HETATM   16  C   UNL     1     -10.514   9.285  68.661  1.00  0.00    -0.236 A  
HETATM   17  C   UNL     1     -10.451   8.035  68.033  1.00  0.00    -0.184 A  
HETATM   18  N   UNL     1     -10.180   8.132  66.735  1.00  0.00    -0.303 NA 
HETATM   19  N   UNL     1     -10.014   9.466  66.492  1.00  0.00    -0.251 NA 
BRANCH  19  20
HETATM   20  C   UNL     1      -9.698   9.897  65.168  1.00  0.00    -0.306 A  
HETATM   21  C   UNL     1      -8.852   9.104  64.372  1.00  0.00    -0.156 A  
HETATM   22  C   UNL     1      -8.483   9.517  63.088  1.00  0.00    -0.199 A  
HETATM   23  C   UNL     1      -8.942  10.730  62.587  1.00  0.00    -0.326 A  
HETATM   24  C   UNL     1      -9.792  11.515  63.357  1.00  0.00    -0.422 A  
HETATM   25  C   UNL     1     -10.185  11.091  64.630  1.00  0.00    -0.392 A  
ENDBRANCH  19  20
ENDBRANCH  13  15
ENDBRANCH  10  13
ENDBRANCH   7  10
TORSDOF 4
ENDMDL
MODEL      207
REMARK 921   NORMALIZED FREE ENERGY PREDICTED BY IDOCK:   -4.43 KCAL/MOL
REMARK 922        TOTAL FREE ENERGY PREDICTED BY IDOCK:   -6.20 KCAL/MOL
REMARK 923 INTER-LIGAND FREE ENERGY PREDICTED BY IDOCK:   -5.14 KCAL/MOL
REMARK 924 INTRA-LIGAND FREE ENERGY PREDICTED BY IDOCK:   -1.06 KCAL/MOL
REMARK 927      BINDING AFFINITY PREDICTED BY RF-SCORE:    0.00 PKD
ROOT
HETATM    1  N   UNL     1     -12.324  11.156  70.716  1.00  0.00    -0.382 NA 
HETATM    2  H2  UNL     1     -11.573  10.491  70.901  1.00  0.00     0.000 HD 
HETATM    3  C   UNL     1     -11.954  11.945  69.625  1.00  0.00    -0.298 A  
HETATM    4  H1  UNL     1     -12.591  11.592  71.598  1.00  0.00     0.000 HD 
HETATM    5  C   UNL     1     -11.589  11.348  68.415  1.00  0.00    -0.385 A  
HETATM    6  C   UNL     1     -11.306  12.122  67.286  1.00  0.00    -0.398 A  
HETATM    7  C   UNL     1     -11.442  13.509  67.357  1.00  0.00    -0.336 A  
HETATM    8  C   UNL     1     -11.876  14.119  68.538  1.00  0.00    -0.390 A  
HETATM    9  C   UNL     1     -12.152  13.330  69.660  1.00  0.00    -0.331 A  
ENDROOT
BRANCH   7  10
HETATM   10  S   UNL     1     -10.961  14.520  65.964  1.00  0.00    -0.332 S  
HETATM   11  O   UNL     1     -11.805  14.096  64.867  1.00  0.00    -0.362 OA 
HETATM   12  O   UNL     1     -10.993  15.894  66.418  1.00  0.00    -0.247 OA 
BRANCH  10  13
HETATM   13  N   UNL     1      -9.429  14.020  65.695  1.00  0.00    -0.524 N  
HETATM   14  H   UNL     1      -9.218  13.542  64.819  1.00  0.00     0.000 HD 
BRANCH  13  15
HETATM   15  C   UNL     1      -8.403  14.216  66.609  1.00  0.00     0.240 A  
HETATM   16  C   UNL     1      -7.936  15.472  66.929  1.00  0.00    -0.264 A  
HETATM   17  C   UNL     1      -6.992  15.258  67.941  1.00  0.00    -0.146 A  
HETATM   18  N   UNL     1      -6.873  13.974  68.262  1.00  0.00    -0.095 NA 
HETATM   19  N   UNL     1      -7.717  13.305  67.422  1.00  0.00    -0.160 NA 
BRANCH  19  20
HETATM   20  C   UNL     1      -7.807  11.883  67.515  1.00  0.00    -0.152 A  
HETATM   21  C   UNL     1      -8.147  11.296  68.748  1.00  0.00    -0.130 A  
HETATM   22  C   UNL     1      -8.199   9.907  68.888  1.00  0.00    -0.118 A  
HETATM   23  C   UNL     1      -7.900   9.084  67.807  1.00  0.00    -0.101 A  
HETATM   24  C   UNL     1      -7.579   9.651  66.580  1.00  0.00    -0.098 A  
HETATM   25  C   UNL     1      -7.554  11.041  66.429  1.00  0.00    -0.135 A  
ENDBRANCH  19  20
ENDBRANCH  13  15
ENDBRANCH  10  13
ENDBRANCH   7  10
TORSDOF 4
ENDMDL
MODEL      208
REMARK 921   NORMALIZED FREE ENERGY PREDICTED BY IDOCK:   -4.42 KCAL/MOL
REMARK 922        TOTAL FREE ENERGY PREDICTED BY IDOCK:   -6.18 KCAL/MOL
REMARK 923 INTER-LIGAND FREE ENERGY PREDICTED BY IDOCK:   -5.41 KCAL/MOL
REMARK 924 INTRA-LIGAND FREE ENERGY PREDICTED BY IDOCK:   -0.78 KCAL/MOL
REMARK 927      BINDING AFFINITY PREDICTED BY RF-SCORE:    0.00 PKD
ROOT
HETATM    1  N   UNL     1     -14.092  13.811  72.540  1.00  0.00    -0.730 NA 
HETATM    2  H2  UNL     1     -13.883  13.644  73.524  1.00  0.00     0.000 HD 
HETATM    3  C   UNL     1     -13.278  12.977  71.770  1.00  0.00    -0.392 A  
HETATM    4  H1  UNL     1     -14.095  14.818  72.379  1.00  0.00     0.000 HD 
HETATM    5  C   UNL     1     -13.275  11.597  71.991  1.00  0.00    -0.443 A  
HETATM    6  C   UNL     1     -12.539  10.739  71.169  1.00  0.00    -0.532 A  
HETATM    7  C   UNL     1     -11.840  11.265  70.082  1.00  0.00    -0.364 A  
HETATM    8  C   UNL     1     -11.891  12.634  69.803  1.00  0.00    -0.379 A  
HETATM    9  C   UNL     1     -12.630  13.481  70.638  1.00  0.00    -0.345 A  
ENDROOT
BRANCH   7  10
HETATM   10  S   UNL     1     -10.793  10.200  69.101  1.00  0.00    -0.233 S  
HETATM   11  O   UNL     1     -10.953   8.875  69.661  1.00  0.00    -0.216 OA 
HETATM   12  O   UNL     1     -11.129  10.451  67.715  1.00  0.00    -0.295 OA 
BRANCH  10  13
HETATM   13  N   UNL     1      -9.303  10.764  69.462  1.00  0.00    -0.414 N  
HETATM   14  H   UNL     1      -9.207  11.736  69.756  1.00  0.00     0.000 HD 
BRANCH  13  15
HETATM   15  C   UNL     1      -8.162   9.978  69.383  1.00  0.00    -0.155 A  
HETATM   16  C   UNL     1      -7.462   9.584  70.503  1.00  0.00    -0.159 A  
HETATM   17  C   UNL     1      -6.458   8.736  70.021  1.00  0.00    -0.038 A  
HETATM   18  N   UNL     1      -6.515   8.577  68.702  1.00  0.00    -0.053 NA 
HETATM   19  N   UNL     1      -7.547   9.368  68.282  1.00  0.00    -0.082 NA 
BRANCH  19  20
HETATM   20  C   UNL     1      -7.856   9.422  66.889  1.00  0.00    -0.105 A  
HETATM   21  C   UNL     1      -8.470   8.313  66.279  1.00  0.00    -0.134 A  
HETATM   22  C   UNL     1      -8.746   8.312  64.908  1.00  0.00    -0.008 A  
HETATM   23  C   UNL     1      -8.402   9.410  64.126  1.00  0.00    -0.170 A  
HETATM   24  C   UNL     1      -7.811  10.519  64.720  1.00  0.00    -0.022 A  
HETATM   25  C   UNL     1      -7.560  10.533  66.096  1.00  0.00    -0.135 A  
ENDBRANCH  19  20
ENDBRANCH  13  15
ENDBRANCH  10  13
ENDBRANCH   7  10
TORSDOF 4
ENDMDL
MODEL      209
REMARK 921   NORMALIZED FREE ENERGY PREDICTED BY IDOCK:   -4.41 KCAL/MOL
REMARK 922        TOTAL FREE ENERGY PREDICTED BY IDOCK:   -6.17 KCAL/MOL
REMARK 923 INTER-LIGAND FREE ENERGY PREDICTED BY IDOCK:   -6.27 KCAL/MOL
REMARK 924 INTRA-LIGAND FREE ENERGY PREDICTED BY IDOCK:    0.10 KCAL/MOL
REMARK 927      BINDING AFFINITY PREDICTED BY RF-SCORE:    0.00 PKD
ROOT
HETATM    1  N   UNL     1     -13.403  15.398  70.469  1.00  0.00    -0.761 NA 
HETATM    2  H2  UNL     1     -13.588  14.658  71.147  1.00  0.00     0.000 HD 
HETATM    3  C   UNL     1     -12.106  15.231  69.979  1.00  0.00    -0.352 A  
HETATM    4  H1  UNL     1     -13.686  16.287  70.880  1.00  0.00     0.000 HD 
HETATM    5  C   UNL     1     -11.718  14.012  69.416  1.00  0.00    -0.365 A  
HETATM    6  C   UNL     1     -10.455  13.856  68.837  1.00  0.00    -0.199 A  
HETATM    7  C   UNL     1      -9.592  14.951  68.775  1.00  0.00    -0.214 A  
HETATM    8  C   UNL     1      -9.990  16.196  69.268  1.00  0.00    -0.253 A  
HETATM    9  C   UNL     1     -11.257  16.335  69.848  1.00  0.00    -0.319 A  
ENDROOT
BRANCH   7  10
HETATM   10  S   UNL     1      -7.929  14.735  68.155  1.00  0.00    -0.139 S  
HETATM   11  O   UNL     1      -7.530  16.033  67.653  1.00  0.00    -0.130 OA 
HETATM   12  O   UNL     1      -7.172  14.098  69.212  1.00  0.00    -0.112 OA 
BRANCH  10  13
HETATM   13  N   UNL     1      -8.166  13.717  66.899  1.00  0.00    -0.410 N  
HETATM   14  H   UNL     1      -8.026  14.069  65.952  1.00  0.00     0.000 HD 
BRANCH  13  15
HETATM   15  C   UNL     1      -8.549  12.393  67.067  1.00  0.00    -0.191 A  
HETATM   16  C   UNL     1      -7.995  11.585  68.035  1.00  0.00    -0.130 A  
HETATM   17  C   UNL     1      -8.705  10.381  67.950  1.00  0.00    -0.118 A  
HETATM   18  N   UNL     1      -9.652  10.414  67.018  1.00  0.00    -0.163 NA 
HETATM   19  N   UNL     1      -9.550  11.645  66.434  1.00  0.00    -0.211 NA 
BRANCH  19  20
HETATM   20  C   UNL     1     -10.441  11.985  65.371  1.00  0.00    -0.275 A  
HETATM   21  C   UNL     1     -11.731  12.452  65.679  1.00  0.00    -0.468 A  
HETATM   22  C   UNL     1     -12.645  12.750  64.665  1.00  0.00    -0.491 A  
HETATM   23  C   UNL     1     -12.291  12.573  63.331  1.00  0.00    -0.577 A  
HETATM   24  C   UNL     1     -11.014  12.128  63.013  1.00  0.00    -0.028 A  
HETATM   25  C   UNL     1     -10.088  11.857  64.025  1.00  0.00    -0.361 A  
ENDBRANCH  19  20
ENDBRANCH  13  15
ENDBRANCH  10  13
ENDBRANCH   7  10
TORSDOF 4
ENDMDL
MODEL      210
REMARK 921   NORMALIZED FREE ENERGY PREDICTED BY IDOCK:   -4.39 KCAL/MOL
REMARK 922        TOTAL FREE ENERGY PREDICTED BY IDOCK:   -6.15 KCAL/MOL
REMARK 923 INTER-LIGAND FREE ENERGY PREDICTED BY IDOCK:   -5.34 KCAL/MOL
REMARK 924 INTRA-LIGAND FREE ENERGY PREDICTED BY IDOCK:   -0.81 KCAL/MOL
REMARK 927      BINDING AFFINITY PREDICTED BY RF-SCORE:    0.00 PKD
ROOT
HETATM    1  N   UNL     1      -5.726  20.609  71.282  1.00  0.00    -0.578 NA 
HETATM    2  H2  UNL     1      -5.985  20.000  72.058  1.00  0.00     0.000 HD 
HETATM    3  C   UNL     1      -6.147  20.009  70.093  1.00  0.00    -0.358 A  
HETATM    4  H1  UNL     1      -4.751  20.884  71.401  1.00  0.00     0.000 HD 
HETATM    5  C   UNL     1      -7.483  19.632  69.930  1.00  0.00     0.233 A  
HETATM    6  C   UNL     1      -7.942  19.116  68.714  1.00  0.00    -0.382 A  
HETATM    7  C   UNL     1      -7.062  19.026  67.634  1.00  0.00    -0.218 A  
HETATM    8  C   UNL     1      -5.742  19.465  67.758  1.00  0.00    -0.200 A  
HETATM    9  C   UNL     1      -5.296  19.976  68.983  1.00  0.00    -0.234 A  
ENDROOT
BRANCH   7  10
HETATM   10  S   UNL     1      -7.599  18.251  66.116  1.00  0.00    -0.208 S  
HETATM   11  O   UNL     1      -9.038  18.141  66.224  1.00  0.00    -0.407 OA 
HETATM   12  O   UNL     1      -7.006  19.007  65.033  1.00  0.00    -0.451 OA 
BRANCH  10  13
HETATM   13  N   UNL     1      -6.930  16.766  66.239  1.00  0.00    -0.114 N  
HETATM   14  H   UNL     1      -6.376  16.414  65.458  1.00  0.00     0.000 HD 
BRANCH  13  15
HETATM   15  C   UNL     1      -7.085  15.962  67.360  1.00  0.00    -0.197 A  
HETATM   16  C   UNL     1      -6.145  15.917  68.366  1.00  0.00    -0.105 A  
HETATM   17  C   UNL     1      -6.705  15.087  69.345  1.00  0.00    -0.158 A  
HETATM   18  N   UNL     1      -7.914  14.648  69.009  1.00  0.00    -0.141 NA 
HETATM   19  N   UNL     1      -8.155  15.153  67.763  1.00  0.00    -0.137 NA 
BRANCH  19  20
HETATM   20  C   UNL     1      -9.390  14.845  67.116  1.00  0.00    -0.218 A  
HETATM   21  C   UNL     1     -10.600  15.163  67.759  1.00  0.00    -0.264 A  
HETATM   22  C   UNL     1     -11.827  14.834  67.177  1.00  0.00    -0.307 A  
HETATM   23  C   UNL     1     -11.865  14.172  65.954  1.00  0.00    -0.391 A  
HETATM   24  C   UNL     1     -10.677  13.868  65.300  1.00  0.00    -0.352 A  
HETATM   25  C   UNL     1      -9.449  14.221  65.867  1.00  0.00    -0.159 A  
ENDBRANCH  19  20
ENDBRANCH  13  15
ENDBRANCH  10  13
ENDBRANCH   7  10
TORSDOF 4
ENDMDL
MODEL      211
REMARK 921   NORMALIZED FREE ENERGY PREDICTED BY IDOCK:   -4.38 KCAL/MOL
REMARK 922        TOTAL FREE ENERGY PREDICTED BY IDOCK:   -6.14 KCAL/MOL
REMARK 923 INTER-LIGAND FREE ENERGY PREDICTED BY IDOCK:   -5.62 KCAL/MOL
REMARK 924 INTRA-LIGAND FREE ENERGY PREDICTED BY IDOCK:   -0.52 KCAL/MOL
REMARK 927      BINDING AFFINITY PREDICTED BY RF-SCORE:    0.00 PKD
ROOT
HETATM    1  N   UNL     1      -7.113  20.688  65.690  1.00  0.00    -0.508 NA 
HETATM    2  H2  UNL     1      -7.332  21.360  66.426  1.00  0.00     0.000 HD 
HETATM    3  C   UNL     1      -7.724  19.473  66.008  1.00  0.00    -0.312 A  
HETATM    4  H1  UNL     1      -6.110  20.727  65.509  1.00  0.00     0.000 HD 
HETATM    5  C   UNL     1      -9.099  19.420  66.257  1.00  0.00    -0.380 A  
HETATM    6  C   UNL     1      -9.742  18.201  66.484  1.00  0.00    -0.344 A  
HETATM    7  C   UNL     1      -9.009  17.016  66.408  1.00  0.00    -0.275 A  
HETATM    8  C   UNL     1      -7.649  17.044  66.089  1.00  0.00    -0.280 A  
HETATM    9  C   UNL     1      -7.018  18.274  65.868  1.00  0.00    -0.312 A  
ENDROOT
BRANCH   7  10
HETATM   10  S   UNL     1      -9.789  15.462  66.822  1.00  0.00    -0.255 S  
HETATM   11  O   UNL     1     -11.085  15.811  67.364  1.00  0.00    -0.311 OA 
HETATM   12  O   UNL     1      -9.693  14.624  65.645  1.00  0.00    -0.328 OA 
BRANCH  10  13
HETATM   13  N   UNL     1      -8.829  14.910  68.023  1.00  0.00    -0.163 N  
HETATM   14  H   UNL     1      -8.725  15.476  68.864  1.00  0.00     0.000 HD 
BRANCH  13  15
HETATM   15  C   UNL     1      -8.149  13.702  67.946  1.00  0.00    -0.164 A  
HETATM   16  C   UNL     1      -6.836  13.624  67.534  1.00  0.00    -0.152 A  
HETATM   17  C   UNL     1      -6.490  12.276  67.689  1.00  0.00    -0.120 A  
HETATM   18  N   UNL     1      -7.488  11.547  68.178  1.00  0.00    -0.095 NA 
HETATM   19  N   UNL     1      -8.540  12.408  68.313  1.00  0.00    -0.181 NA 
BRANCH  19  20
HETATM   20  C   UNL     1      -9.783  11.913  68.814  1.00  0.00    -0.039 A  
HETATM   21  C   UNL     1      -9.874  10.569  69.216  1.00  0.00    -0.225 A  
HETATM   22  C   UNL     1     -11.085  10.038  69.667  1.00  0.00    -0.300 A  
HETATM   23  C   UNL     1     -12.224  10.835  69.711  1.00  0.00    -0.359 A  
HETATM   24  C   UNL     1     -12.143  12.170  69.333  1.00  0.00    -0.247 A  
HETATM   25  C   UNL     1     -10.926  12.711  68.908  1.00  0.00    -0.273 A  
ENDBRANCH  19  20
ENDBRANCH  13  15
ENDBRANCH  10  13
ENDBRANCH   7  10
TORSDOF 4
ENDMDL
MODEL      212
REMARK 921   NORMALIZED FREE ENERGY PREDICTED BY IDOCK:   -4.37 KCAL/MOL
REMARK 922        TOTAL FREE ENERGY PREDICTED BY IDOCK:   -6.13 KCAL/MOL
REMARK 923 INTER-LIGAND FREE ENERGY PREDICTED BY IDOCK:   -5.76 KCAL/MOL
REMARK 924 INTRA-LIGAND FREE ENERGY PREDICTED BY IDOCK:   -0.37 KCAL/MOL
REMARK 927      BINDING AFFINITY PREDICTED BY RF-SCORE:    0.00 PKD
ROOT
HETATM    1  N   UNL     1     -13.652  16.067  73.809  1.00  0.00    -0.814 NA 
HETATM    2  H2  UNL     1     -13.977  15.205  74.247  1.00  0.00     0.000 HD 
HETATM    3  C   UNL     1     -13.036  15.740  72.599  1.00  0.00    -0.491 A  
HETATM    4  H1  UNL     1     -13.152  16.614  74.509  1.00  0.00     0.000 HD 
HETATM    5  C   UNL     1     -13.723  14.991  71.639  1.00  0.00    -0.553 A  
HETATM    6  C   UNL     1     -13.157  14.735  70.386  1.00  0.00    -0.189 A  
HETATM    7  C   UNL     1     -11.911  15.280  70.075  1.00  0.00    -0.334 A  
HETATM    8  C   UNL     1     -11.242  16.091  70.995  1.00  0.00    -0.347 A  
HETATM    9  C   UNL     1     -11.820  16.336  72.246  1.00  0.00    -0.601 A  
ENDROOT
BRANCH   7  10
HETATM   10  S   UNL     1     -11.119  14.856  68.529  1.00  0.00    -0.280 S  
HETATM   11  O   UNL     1     -12.121  14.146  67.762  1.00  0.00    -0.367 OA 
HETATM   12  O   UNL     1     -10.536  16.077  68.014  1.00  0.00    -0.259 OA 
BRANCH  10  13
HETATM   13  N   UNL     1      -9.965  13.806  69.017  1.00  0.00    -0.427 N  
HETATM   14  H   UNL     1      -9.980  13.478  69.982  1.00  0.00     0.000 HD 
BRANCH  13  15
HETATM   15  C   UNL     1      -8.966  13.343  68.172  1.00  0.00    -0.188 A  
HETATM   16  C   UNL     1      -8.858  12.016  67.820  1.00  0.00    -0.165 A  
HETATM   17  C   UNL     1      -7.809  11.972  66.894  1.00  0.00    -0.095 A  
HETATM   18  N   UNL     1      -7.294  13.173  66.652  1.00  0.00     0.596 NA 
HETATM   19  N   UNL     1      -7.976  14.036  67.462  1.00  0.00    -0.176 NA 
BRANCH  19  20
HETATM   20  C   UNL     1      -7.640  15.424  67.439  1.00  0.00    -0.203 A  
HETATM   21  C   UNL     1      -7.678  16.118  66.217  1.00  0.00     0.036 A  
HETATM   22  C   UNL     1      -7.311  17.465  66.148  1.00  0.00    -0.331 A  
HETATM   23  C   UNL     1      -6.887  18.133  67.293  1.00  0.00    -0.206 A  
HETATM   24  C   UNL     1      -6.861  17.462  68.510  1.00  0.00    -0.203 A  
HETATM   25  C   UNL     1      -7.256  16.123  68.586  1.00  0.00    -0.160 A  
ENDBRANCH  19  20
ENDBRANCH  13  15
ENDBRANCH  10  13
ENDBRANCH   7  10
TORSDOF 4
ENDMDL
MODEL      213
REMARK 921   NORMALIZED FREE ENERGY PREDICTED BY IDOCK:   -4.34 KCAL/MOL
REMARK 922        TOTAL FREE ENERGY PREDICTED BY IDOCK:   -6.09 KCAL/MOL
REMARK 923 INTER-LIGAND FREE ENERGY PREDICTED BY IDOCK:   -4.19 KCAL/MOL
REMARK 924 INTRA-LIGAND FREE ENERGY PREDICTED BY IDOCK:   -1.90 KCAL/MOL
REMARK 927      BINDING AFFINITY PREDICTED BY RF-SCORE:    0.00 PKD
ROOT
HETATM    1  N   UNL     1      -9.612   5.667  65.814  1.00  0.00    -0.354 NA 
HETATM    2  H2  UNL     1      -9.426   4.766  66.255  1.00  0.00     0.000 HD 
HETATM    3  C   UNL     1      -9.533   6.660  66.793  1.00  0.00    -0.160 A  
HETATM    4  H1  UNL     1     -10.450   5.576  65.241  1.00  0.00     0.000 HD 
HETATM    5  C   UNL     1      -8.383   6.784  67.579  1.00  0.00    -0.122 A  
HETATM    6  C   UNL     1      -8.250   7.828  68.498  1.00  0.00    -0.128 A  
HETATM    7  C   UNL     1      -9.257   8.789  68.593  1.00  0.00    -0.141 A  
HETATM    8  C   UNL     1     -10.380   8.722  67.764  1.00  0.00    -0.297 A  
HETATM    9  C   UNL     1     -10.501   7.668  66.851  1.00  0.00    -0.388 A  
ENDROOT
BRANCH   7  10
HETATM   10  S   UNL     1      -9.160  10.055  69.851  1.00  0.00    -0.074 S  
HETATM   11  O   UNL     1     -10.382   9.937  70.616  1.00  0.00    -0.286 OA 
HETATM   12  O   UNL     1      -7.875   9.896  70.501  1.00  0.00    -0.246 OA 
BRANCH  10  13
HETATM   13  N   UNL     1      -9.207  11.423  68.959  1.00  0.00    -0.400 N  
HETATM   14  H   UNL     1     -10.102  11.897  68.840  1.00  0.00     0.000 HD 
BRANCH  13  15
HETATM   15  C   UNL     1      -8.081  11.968  68.357  1.00  0.00    -0.154 A  
HETATM   16  C   UNL     1      -7.254  12.854  69.012  1.00  0.00     0.017 A  
HETATM   17  C   UNL     1      -6.198  13.086  68.123  1.00  0.00    -0.102 A  
HETATM   18  N   UNL     1      -6.321  12.393  66.995  1.00  0.00    -0.180 NA 
HETATM   19  N   UNL     1      -7.502  11.716  67.107  1.00  0.00    -0.139 NA 
BRANCH  19  20
HETATM   20  C   UNL     1      -7.926  10.878  66.031  1.00  0.00    -0.132 A  
HETATM   21  C   UNL     1      -9.161  11.132  65.408  1.00  0.00    -0.193 A  
HETATM   22  C   UNL     1      -9.629  10.305  64.383  1.00  0.00    -0.378 A  
HETATM   23  C   UNL     1      -8.880   9.206  63.976  1.00  0.00    -0.112 A  
HETATM   24  C   UNL     1      -7.650   8.953  64.573  1.00  0.00    -0.109 A  
HETATM   25  C   UNL     1      -7.167   9.796  65.578  1.00  0.00    -0.108 A  
ENDBRANCH  19  20
ENDBRANCH  13  15
ENDBRANCH  10  13
ENDBRANCH   7  10
TORSDOF 4
ENDMDL
MODEL      214
REMARK 921   NORMALIZED FREE ENERGY PREDICTED BY IDOCK:   -4.33 KCAL/MOL
REMARK 922        TOTAL FREE ENERGY PREDICTED BY IDOCK:   -6.08 KCAL/MOL
REMARK 923 INTER-LIGAND FREE ENERGY PREDICTED BY IDOCK:   -5.58 KCAL/MOL
REMARK 924 INTRA-LIGAND FREE ENERGY PREDICTED BY IDOCK:   -0.50 KCAL/MOL
REMARK 927      BINDING AFFINITY PREDICTED BY RF-SCORE:    0.00 PKD
ROOT
HETATM    1  N   UNL     1     -11.697  15.783  71.695  1.00  0.00    -0.421 NA 
HETATM    2  H2  UNL     1     -11.235  15.041  72.221  1.00  0.00     0.000 HD 
HETATM    3  C   UNL     1     -11.508  15.540  70.333  1.00  0.00    -0.345 A  
HETATM    4  H1  UNL     1     -11.425  16.679  72.100  1.00  0.00     0.000 HD 
HETATM    5  C   UNL     1     -11.880  14.312  69.778  1.00  0.00    -0.380 A  
HETATM    6  C   UNL     1     -11.785  14.085  68.402  1.00  0.00    -0.389 A  
HETATM    7  C   UNL     1     -11.361  15.119  67.567  1.00  0.00    -0.320 A  
HETATM    8  C   UNL     1     -11.054  16.376  68.095  1.00  0.00    -0.320 A  
HETATM    9  C   UNL     1     -11.151  16.586  69.476  1.00  0.00    -0.245 A  
ENDROOT
BRANCH   7  10
HETATM   10  S   UNL     1     -11.112  14.806  65.825  1.00  0.00    -0.344 S  
HETATM   11  O   UNL     1     -11.945  13.664  65.513  1.00  0.00    -0.346 OA 
HETATM   12  O   UNL     1     -11.319  16.067  65.143  1.00  0.00    -0.201 OA 
BRANCH  10  13
HETATM   13  N   UNL     1      -9.541  14.360  65.782  1.00  0.00    -0.512 N  
HETATM   14  H   UNL     1      -9.279  13.546  65.226  1.00  0.00     0.000 HD 
BRANCH  13  15
HETATM   15  C   UNL     1      -8.547  15.041  66.472  1.00  0.00    -0.144 A  
HETATM   16  C   UNL     1      -8.249  16.361  66.216  1.00  0.00    -0.343 A  
HETATM   17  C   UNL     1      -7.283  16.704  67.169  1.00  0.00    -0.184 A  
HETATM   18  N   UNL     1      -6.993  15.696  67.986  1.00  0.00    -0.119 NA 
HETATM   19  N   UNL     1      -7.744  14.641  67.548  1.00  0.00    -0.182 NA 
BRANCH  19  20
HETATM   20  C   UNL     1      -7.644  13.389  68.226  1.00  0.00    -0.135 A  
HETATM   21  C   UNL     1      -6.549  13.155  69.077  1.00  0.00    -0.105 A  
HETATM   22  C   UNL     1      -6.394  11.924  69.721  1.00  0.00    -0.118 A  
HETATM   23  C   UNL     1      -7.320  10.907  69.515  1.00  0.00    -0.095 A  
HETATM   24  C   UNL     1      -8.416  11.131  68.690  1.00  0.00    -0.153 A  
HETATM   25  C   UNL     1      -8.588  12.371  68.067  1.00  0.00    -0.180 A  
ENDBRANCH  19  20
ENDBRANCH  13  15
ENDBRANCH  10  13
ENDBRANCH   7  10
TORSDOF 4
ENDMDL
MODEL      215
REMARK 921   NORMALIZED FREE ENERGY PREDICTED BY IDOCK:   -4.32 KCAL/MOL
REMARK 922        TOTAL FREE ENERGY PREDICTED BY IDOCK:   -6.07 KCAL/MOL
REMARK 923 INTER-LIGAND FREE ENERGY PREDICTED BY IDOCK:   -5.53 KCAL/MOL
REMARK 924 INTRA-LIGAND FREE ENERGY PREDICTED BY IDOCK:   -0.54 KCAL/MOL
REMARK 927      BINDING AFFINITY PREDICTED BY RF-SCORE:    0.00 PKD
ROOT
HETATM    1  N   UNL     1     -13.840   8.920  73.324  1.00  0.00    -1.162 NA 
HETATM    2  H2  UNL     1     -13.234   8.362  73.926  1.00  0.00     0.000 HD 
HETATM    3  C   UNL     1     -13.082   9.386  72.248  1.00  0.00    -0.428 A  
HETATM    4  H1  UNL     1     -14.359   9.574  73.910  1.00  0.00     0.000 HD 
HETATM    5  C   UNL     1     -12.371   8.489  71.446  1.00  0.00    -0.332 A  
HETATM    6  C   UNL     1     -11.684   8.928  70.310  1.00  0.00     0.030 A  
HETATM    7  C   UNL     1     -11.754  10.273  69.946  1.00  0.00    -0.225 A  
HETATM    8  C   UNL     1     -12.519  11.171  70.696  1.00  0.00    -0.448 A  
HETATM    9  C   UNL     1     -13.199  10.717  71.832  1.00  0.00    -0.528 A  
ENDROOT
BRANCH   7  10
HETATM   10  S   UNL     1     -10.778  10.872  68.573  1.00  0.00    -0.223 S  
HETATM   11  O   UNL     1      -9.864   9.797  68.249  1.00  0.00    -0.144 OA 
HETATM   12  O   UNL     1     -11.714  11.357  67.580  1.00  0.00    -0.546 OA 
BRANCH  10  13
HETATM   13  N   UNL     1      -9.949  12.102  69.258  1.00  0.00    -0.263 N  
HETATM   14  H   UNL     1      -9.666  12.016  70.234  1.00  0.00     0.000 HD 
BRANCH  13  15
HETATM   15  C   UNL     1      -9.614  13.258  68.568  1.00  0.00    -0.127 A  
HETATM   16  C   UNL     1     -10.313  14.435  68.723  1.00  0.00    -0.241 A  
HETATM   17  C   UNL     1      -9.617  15.373  67.951  1.00  0.00    -0.206 A  
HETATM   18  N   UNL     1      -8.546  14.852  67.361  1.00  0.00    -0.180 NA 
HETATM   19  N   UNL     1      -8.545  13.529  67.704  1.00  0.00    -0.172 NA 
BRANCH  19  20
HETATM   20  C   UNL     1      -7.506  12.684  67.207  1.00  0.00    -0.109 A  
HETATM   21  C   UNL     1      -6.167  13.093  67.339  1.00  0.00    -0.046 A  
HETATM   22  C   UNL     1      -5.128  12.314  66.823  1.00  0.00     0.183 A  
HETATM   23  C   UNL     1      -5.410  11.125  66.159  1.00  0.00    -0.141 A  
HETATM   24  C   UNL     1      -6.728  10.701  66.037  1.00  0.00    -0.128 A  
HETATM   25  C   UNL     1      -7.767  11.465  66.577  1.00  0.00    -0.093 A  
ENDBRANCH  19  20
ENDBRANCH  13  15
ENDBRANCH  10  13
ENDBRANCH   7  10
TORSDOF 4
ENDMDL
MODEL      216
REMARK 921   NORMALIZED FREE ENERGY PREDICTED BY IDOCK:   -4.31 KCAL/MOL
REMARK 922        TOTAL FREE ENERGY PREDICTED BY IDOCK:   -6.06 KCAL/MOL
REMARK 923 INTER-LIGAND FREE ENERGY PREDICTED BY IDOCK:   -5.74 KCAL/MOL
REMARK 924 INTRA-LIGAND FREE ENERGY PREDICTED BY IDOCK:   -0.32 KCAL/MOL
REMARK 927      BINDING AFFINITY PREDICTED BY RF-SCORE:    0.00 PKD
ROOT
HETATM    1  N   UNL     1     -10.449  18.066  68.266  1.00  0.00    -0.369 NA 
HETATM    2  H2  UNL     1     -10.026  18.054  69.194  1.00  0.00     0.000 HD 
HETATM    3  C   UNL     1     -10.683  16.748  67.871  1.00  0.00    -0.347 A  
HETATM    4  H1  UNL     1      -9.903  18.691  67.673  1.00  0.00     0.000 HD 
HETATM    5  C   UNL     1     -11.431  15.891  68.683  1.00  0.00    -0.391 A  
HETATM    6  C   UNL     1     -11.754  14.598  68.262  1.00  0.00    -0.359 A  
HETATM    7  C   UNL     1     -11.366  14.178  66.989  1.00  0.00    -0.332 A  
HETATM    8  C   UNL     1     -10.680  15.045  66.135  1.00  0.00    -0.328 A  
HETATM    9  C   UNL     1     -10.362  16.336  66.573  1.00  0.00    -0.310 A  
ENDROOT
BRANCH   7  10
HETATM   10  S   UNL     1     -11.659  12.487  66.486  1.00  0.00    -0.389 S  
HETATM   11  O   UNL     1     -11.968  11.768  67.704  1.00  0.00    -0.599 OA 
HETATM   12  O   UNL     1     -12.621  12.537  65.405  1.00  0.00    -0.656 OA 
BRANCH  10  13
HETATM   13  N   UNL     1     -10.184  12.034  65.948  1.00  0.00    -0.226 N  
HETATM   14  H   UNL     1     -10.023  11.993  64.942  1.00  0.00     0.000 HD 
BRANCH  13  15
HETATM   15  C   UNL     1      -9.142  11.701  66.802  1.00  0.00    -0.186 A  
HETATM   16  C   UNL     1      -8.917  12.374  67.983  1.00  0.00    -0.194 A  
HETATM   17  C   UNL     1      -7.861  11.687  68.594  1.00  0.00    -0.132 A  
HETATM   18  N   UNL     1      -7.450  10.645  67.878  1.00  0.00    -0.089 NA 
HETATM   19  N   UNL     1      -8.211  10.656  66.744  1.00  0.00    -0.126 NA 
BRANCH  19  20
HETATM   20  C   UNL     1      -7.996   9.649  65.754  1.00  0.00    -0.109 A  
HETATM   21  C   UNL     1      -8.380   8.324  66.028  1.00  0.00    -0.130 A  
HETATM   22  C   UNL     1      -8.143   7.305  65.102  1.00  0.00    -0.128 A  
HETATM   23  C   UNL     1      -7.509   7.589  63.897  1.00  0.00    -0.108 A  
HETATM   24  C   UNL     1      -7.140   8.897  63.607  1.00  0.00    -0.088 A  
HETATM   25  C   UNL     1      -7.401   9.924  64.520  1.00  0.00    -0.140 A  
ENDBRANCH  19  20
ENDBRANCH  13  15
ENDBRANCH  10  13
ENDBRANCH   7  10
TORSDOF 4
ENDMDL
MODEL      217
REMARK 921   NORMALIZED FREE ENERGY PREDICTED BY IDOCK:   -4.30 KCAL/MOL
REMARK 922        TOTAL FREE ENERGY PREDICTED BY IDOCK:   -6.03 KCAL/MOL
REMARK 923 INTER-LIGAND FREE ENERGY PREDICTED BY IDOCK:   -5.10 KCAL/MOL
REMARK 924 INTRA-LIGAND FREE ENERGY PREDICTED BY IDOCK:   -0.93 KCAL/MOL
REMARK 927      BINDING AFFINITY PREDICTED BY RF-SCORE:    0.00 PKD
ROOT
HETATM    1  N   UNL     1      -7.858   4.236  67.703  1.00  0.00    -0.087 NA 
HETATM    2  H2  UNL     1      -8.106   4.078  66.726  1.00  0.00     0.000 HD 
HETATM    3  C   UNL     1      -8.539   5.370  68.152  1.00  0.00    -0.096 A  
HETATM    4  H1  UNL     1      -6.844   4.178  67.790  1.00  0.00     0.000 HD 
HETATM    5  C   UNL     1      -9.929   5.450  68.033  1.00  0.00    -0.199 A  
HETATM    6  C   UNL     1     -10.636   6.534  68.560  1.00  0.00    -0.291 A  
HETATM    7  C   UNL     1      -9.945   7.524  69.261  1.00  0.00    -0.179 A  
HETATM    8  C   UNL     1      -8.565   7.424  69.452  1.00  0.00    -0.134 A  
HETATM    9  C   UNL     1      -7.871   6.333  68.915  1.00  0.00    -0.105 A  
ENDROOT
BRANCH   7  10
HETATM   10  S   UNL     1     -10.815   8.979  69.829  1.00  0.00    -0.166 S  
HETATM   11  O   UNL     1     -11.830   8.493  70.740  1.00  0.00    -0.262 OA 
HETATM   12  O   UNL     1      -9.807   9.911  70.290  1.00  0.00    -0.253 OA 
BRANCH  10  13
HETATM   13  N   UNL     1     -11.527   9.506  68.456  1.00  0.00    -0.330 N  
HETATM   14  H   UNL     1     -12.117   8.859  67.932  1.00  0.00     0.000 HD 
BRANCH  13  15
HETATM   15  C   UNL     1     -11.361  10.796  67.971  1.00  0.00    -0.307 A  
HETATM   16  C   UNL     1     -11.870  11.897  68.625  1.00  0.00    -0.365 A  
HETATM   17  C   UNL     1     -11.412  12.997  67.890  1.00  0.00    -0.311 A  
HETATM   18  N   UNL     1     -10.655  12.638  66.857  1.00  0.00    -0.239 NA 
HETATM   19  N   UNL     1     -10.639  11.272  66.870  1.00  0.00    -0.245 NA 
BRANCH  19  20
HETATM   20  C   UNL     1      -9.905  10.578  65.861  1.00  0.00    -0.234 A  
HETATM   21  C   UNL     1     -10.079  10.941  64.513  1.00  0.00    -0.404 A  
HETATM   22  C   UNL     1      -9.413  10.253  63.495  1.00  0.00    -0.345 A  
HETATM   23  C   UNL     1      -8.576   9.186  63.805  1.00  0.00    -0.185 A  
HETATM   24  C   UNL     1      -8.383   8.827  65.134  1.00  0.00    -0.176 A  
HETATM   25  C   UNL     1      -9.026   9.533  66.156  1.00  0.00    -0.191 A  
ENDBRANCH  19  20
ENDBRANCH  13  15
ENDBRANCH  10  13
ENDBRANCH   7  10
TORSDOF 4
ENDMDL
MODEL      218
REMARK 921   NORMALIZED FREE ENERGY PREDICTED BY IDOCK:   -4.28 KCAL/MOL
REMARK 922        TOTAL FREE ENERGY PREDICTED BY IDOCK:   -6.02 KCAL/MOL
REMARK 923 INTER-LIGAND FREE ENERGY PREDICTED BY IDOCK:   -5.19 KCAL/MOL
REMARK 924 INTRA-LIGAND FREE ENERGY PREDICTED BY IDOCK:   -0.83 KCAL/MOL
REMARK 927      BINDING AFFINITY PREDICTED BY RF-SCORE:    0.00 PKD
ROOT
HETATM    1  N   UNL     1     -12.763  14.222  63.473  1.00  0.00    -0.813 NA 
HETATM    2  H2  UNL     1     -12.810  15.055  64.060  1.00  0.00     0.000 HD 
HETATM    3  C   UNL     1     -11.974  13.270  64.122  1.00  0.00    -0.447 A  
HETATM    4  H1  UNL     1     -12.539  14.513  62.522  1.00  0.00     0.000 HD 
HETATM    5  C   UNL     1     -12.281  12.871  65.426  1.00  0.00    -0.528 A  
HETATM    6  C   UNL     1     -11.559  11.854  66.056  1.00  0.00    -0.296 A  
HETATM    7  C   UNL     1     -10.552  11.193  65.352  1.00  0.00    -0.227 A  
HETATM    8  C   UNL     1     -10.280  11.529  64.023  1.00  0.00    -0.394 A  
HETATM    9  C   UNL     1     -11.009  12.552  63.407  1.00  0.00    -0.386 A  
ENDROOT
BRANCH   7  10
HETATM   10  S   UNL     1      -9.537   9.980  66.184  1.00  0.00    -0.226 S  
HETATM   11  O   UNL     1     -10.059   8.692  65.779  1.00  0.00     0.024 OA 
HETATM   12  O   UNL     1      -8.160  10.329  65.903  1.00  0.00    -0.131 OA 
BRANCH  10  13
HETATM   13  N   UNL     1      -9.908  10.246  67.753  1.00  0.00    -0.166 N  
HETATM   14  H   UNL     1     -10.873  10.468  67.995  1.00  0.00     0.000 HD 
BRANCH  13  15
HETATM   15  C   UNL     1      -8.964  10.185  68.769  1.00  0.00    -0.147 A  
HETATM   16  C   UNL     1      -8.808   9.068  69.560  1.00  0.00    -0.146 A  
HETATM   17  C   UNL     1      -7.711   9.357  70.380  1.00  0.00    -0.153 A  
HETATM   18  N   UNL     1      -7.189  10.554  70.128  1.00  0.00    -0.202 NA 
HETATM   19  N   UNL     1      -7.974  11.099  69.152  1.00  0.00    -0.092 NA 
BRANCH  19  20
HETATM   20  C   UNL     1      -7.671  12.408  68.667  1.00  0.00    -0.067 A  
HETATM   21  C   UNL     1      -8.707  13.206  68.153  1.00  0.00    -0.193 A  
HETATM   22  C   UNL     1      -8.440  14.474  67.627  1.00  0.00    -0.189 A  
HETATM   23  C   UNL     1      -7.136  14.956  67.595  1.00  0.00    -0.208 A  
HETATM   24  C   UNL     1      -6.105  14.183  68.115  1.00  0.00    -0.133 A  
HETATM   25  C   UNL     1      -6.374  12.927  68.668  1.00  0.00    -0.075 A  
ENDBRANCH  19  20
ENDBRANCH  13  15
ENDBRANCH  10  13
ENDBRANCH   7  10
TORSDOF 4
ENDMDL
MODEL      219
REMARK 921   NORMALIZED FREE ENERGY PREDICTED BY IDOCK:   -4.28 KCAL/MOL
REMARK 922        TOTAL FREE ENERGY PREDICTED BY IDOCK:   -6.02 KCAL/MOL
REMARK 923 INTER-LIGAND FREE ENERGY PREDICTED BY IDOCK:   -6.04 KCAL/MOL
REMARK 924 INTRA-LIGAND FREE ENERGY PREDICTED BY IDOCK:    0.02 KCAL/MOL
REMARK 927      BINDING AFFINITY PREDICTED BY RF-SCORE:    0.00 PKD
ROOT
HETATM    1  N   UNL     1      -8.061   7.122  66.214  1.00  0.00    -0.113 NA 
HETATM    2  H2  UNL     1      -7.084   7.341  66.019  1.00  0.00     0.000 HD 
HETATM    3  C   UNL     1      -8.773   8.321  66.286  1.00  0.00    -0.151 A  
HETATM    4  H1  UNL     1      -8.093   6.458  66.987  1.00  0.00     0.000 HD 
HETATM    5  C   UNL     1      -8.730   9.232  65.226  1.00  0.00    -0.214 A  
HETATM    6  C   UNL     1      -9.509  10.392  65.241  1.00  0.00    -0.290 A  
HETATM    7  C   UNL     1     -10.382  10.615  66.307  1.00  0.00    -0.234 A  
HETATM    8  C   UNL     1     -10.492   9.681  67.340  1.00  0.00    -0.319 A  
HETATM    9  C   UNL     1      -9.702   8.526  67.313  1.00  0.00    -0.239 A  
ENDROOT
BRANCH   7  10
HETATM   10  S   UNL     1     -11.288  12.153  66.404  1.00  0.00    -0.363 S  
HETATM   11  O   UNL     1     -12.328  12.055  65.402  1.00  0.00    -0.457 OA 
HETATM   12  O   UNL     1     -11.634  12.343  67.797  1.00  0.00    -0.311 OA 
BRANCH  10  13
HETATM   13  N   UNL     1     -10.167  13.238  65.918  1.00  0.00    -0.289 N  
HETATM   14  H   UNL     1      -9.182  12.975  65.960  1.00  0.00     0.000 HD 
BRANCH  13  15
HETATM   15  C   UNL     1     -10.498  14.502  65.451  1.00  0.00    -0.380 A  
HETATM   16  C   UNL     1     -11.429  14.697  64.454  1.00  0.00    -0.272 A  
HETATM   17  C   UNL     1     -11.553  16.087  64.342  1.00  0.00    -0.212 A  
HETATM   18  N   UNL     1     -10.781  16.738  65.207  1.00  0.00    -0.596 NA 
HETATM   19  N   UNL     1     -10.091  15.771  65.883  1.00  0.00    -0.330 NA 
BRANCH  19  20
HETATM   20  C   UNL     1      -9.156  16.162  66.889  1.00  0.00    -0.218 A  
HETATM   21  C   UNL     1      -8.669  15.193  67.786  1.00  0.00    -0.169 A  
HETATM   22  C   UNL     1      -7.789  15.548  68.812  1.00  0.00    -0.160 A  
HETATM   23  C   UNL     1      -7.394  16.872  68.967  1.00  0.00    -0.231 A  
HETATM   24  C   UNL     1      -7.855  17.836  68.078  1.00  0.00    -0.241 A  
HETATM   25  C   UNL     1      -8.713  17.479  67.033  1.00  0.00    -0.254 A  
ENDBRANCH  19  20
ENDBRANCH  13  15
ENDBRANCH  10  13
ENDBRANCH   7  10
TORSDOF 4
ENDMDL
MODEL      220
REMARK 921   NORMALIZED FREE ENERGY PREDICTED BY IDOCK:   -4.27 KCAL/MOL
REMARK 922        TOTAL FREE ENERGY PREDICTED BY IDOCK:   -6.00 KCAL/MOL
REMARK 923 INTER-LIGAND FREE ENERGY PREDICTED BY IDOCK:   -5.18 KCAL/MOL
REMARK 924 INTRA-LIGAND FREE ENERGY PREDICTED BY IDOCK:   -0.82 KCAL/MOL
REMARK 927      BINDING AFFINITY PREDICTED BY RF-SCORE:    0.00 PKD
ROOT
HETATM    1  N   UNL     1      -6.773  10.647  63.506  1.00  0.00    -0.355 NA 
HETATM    2  H2  UNL     1      -6.143   9.876  63.285  1.00  0.00     0.000 HD 
HETATM    3  C   UNL     1      -7.512  10.300  64.638  1.00  0.00    -0.093 A  
HETATM    4  H1  UNL     1      -7.248  10.929  62.648  1.00  0.00     0.000 HD 
HETATM    5  C   UNL     1      -6.861   9.915  65.814  1.00  0.00    -0.104 A  
HETATM    6  C   UNL     1      -7.581   9.655  66.983  1.00  0.00    -0.095 A  
HETATM    7  C   UNL     1      -8.965   9.834  66.988  1.00  0.00    -0.138 A  
HETATM    8  C   UNL     1      -9.624  10.289  65.843  1.00  0.00    -0.263 A  
HETATM    9  C   UNL     1      -8.890  10.541  64.679  1.00  0.00    -0.211 A  
ENDROOT
BRANCH   7  10
HETATM   10  S   UNL     1      -9.912   9.383  68.436  1.00  0.00    -0.177 S  
HETATM   11  O   UNL     1      -8.982   8.701  69.311  1.00  0.00    -0.142 OA 
HETATM   12  O   UNL     1     -10.585  10.585  68.881  1.00  0.00    -0.189 OA 
BRANCH  10  13
HETATM   13  N   UNL     1     -10.973   8.302  67.823  1.00  0.00    -0.491 N  
HETATM   14  H   UNL     1     -11.891   8.633  67.527  1.00  0.00     0.000 HD 
BRANCH  13  15
HETATM   15  C   UNL     1     -10.677   6.953  67.688  1.00  0.00    -0.274 A  
HETATM   16  C   UNL     1     -10.297   6.401  66.484  1.00  0.00    -0.149 A  
HETATM   17  C   UNL     1      -9.993   5.066  66.779  1.00  0.00    -0.217 A  
HETATM   18  N   UNL     1     -10.145   4.783  68.069  1.00  0.00    -0.091 NA 
HETATM   19  N   UNL     1     -10.602   5.934  68.646  1.00  0.00    -0.241 NA 
BRANCH  19  20
HETATM   20  C   UNL     1     -10.876   5.946  70.048  1.00  0.00    -0.351 A  
HETATM   21  C   UNL     1     -10.010   5.264  70.922  1.00  0.00    -0.274 A  
HETATM   22  C   UNL     1     -10.272   5.216  72.294  1.00  0.00    -0.255 A  
HETATM   23  C   UNL     1     -11.406   5.833  72.811  1.00  0.00    -0.328 A  
HETATM   24  C   UNL     1     -12.261   6.524  71.960  1.00  0.00    -0.343 A  
HETATM   25  C   UNL     1     -11.986   6.598  70.591  1.00  0.00    -0.404 A  
ENDBRANCH  19  20
ENDBRANCH  13  15
ENDBRANCH  10  13
ENDBRANCH   7  10
TORSDOF 4
ENDMDL
MODEL      221
REMARK 921   NORMALIZED FREE ENERGY PREDICTED BY IDOCK:   -4.25 KCAL/MOL
REMARK 922        TOTAL FREE ENERGY PREDICTED BY IDOCK:   -5.98 KCAL/MOL
REMARK 923 INTER-LIGAND FREE ENERGY PREDICTED BY IDOCK:   -4.80 KCAL/MOL
REMARK 924 INTRA-LIGAND FREE ENERGY PREDICTED BY IDOCK:   -1.18 KCAL/MOL
REMARK 927      BINDING AFFINITY PREDICTED BY RF-SCORE:    0.00 PKD
ROOT
HETATM    1  N   UNL     1      -9.472  11.844  65.362  1.00  0.00    -0.400 NA 
HETATM    2  H2  UNL     1      -9.535  11.949  64.349  1.00  0.00     0.000 HD 
HETATM    3  C   UNL     1      -9.510  10.482  65.666  1.00  0.00    -0.210 A  
HETATM    4  H1  UNL     1     -10.137  12.485  65.792  1.00  0.00     0.000 HD 
HETATM    5  C   UNL     1      -8.597   9.602  65.076  1.00  0.00    -0.180 A  
HETATM    6  C   UNL     1      -8.560   8.253  65.439  1.00  0.00    -0.176 A  
HETATM    7  C   UNL     1      -9.412   7.792  66.443  1.00  0.00    -0.180 A  
HETATM    8  C   UNL     1     -10.280   8.671  67.095  1.00  0.00    -0.353 A  
HETATM    9  C   UNL     1     -10.308  10.019  66.717  1.00  0.00    -0.283 A  
ENDROOT
BRANCH   7  10
HETATM   10  S   UNL     1      -9.466   6.047  66.827  1.00  0.00    -0.148 S  
HETATM   11  O   UNL     1     -10.814   5.792  67.290  1.00  0.00    -0.272 OA 
HETATM   12  O   UNL     1      -8.950   5.351  65.667  1.00  0.00    -0.157 OA 
BRANCH  10  13
HETATM   13  N   UNL     1      -8.431   5.945  68.088  1.00  0.00    -0.114 N  
HETATM   14  H   UNL     1      -7.521   6.398  68.010  1.00  0.00     0.000 HD 
BRANCH  13  15
HETATM   15  C   UNL     1      -8.739   5.268  69.260  1.00  0.00    -0.100 A  
HETATM   16  C   UNL     1      -8.286   3.991  69.511  1.00  0.00    -0.076 A  
HETATM   17  C   UNL     1      -8.716   3.705  70.812  1.00  0.00    -0.074 A  
HETATM   18  N   UNL     1      -9.376   4.719  71.364  1.00  0.00    -0.142 NA 
HETATM   19  N   UNL     1      -9.431   5.689  70.403  1.00  0.00    -0.162 NA 
BRANCH  19  20
HETATM   20  C   UNL     1     -10.096   6.918  70.694  1.00  0.00    -0.194 A  
HETATM   21  C   UNL     1     -11.492   6.918  70.870  1.00  0.00    -0.368 A  
HETATM   22  C   UNL     1     -12.182   8.109  71.110  1.00  0.00    -0.257 A  
HETATM   23  C   UNL     1     -11.494   9.317  71.165  1.00  0.00    -0.403 A  
HETATM   24  C   UNL     1     -10.113   9.328  71.010  1.00  0.00    -0.373 A  
HETATM   25  C   UNL     1      -9.416   8.134  70.798  1.00  0.00    -0.180 A  
ENDBRANCH  19  20
ENDBRANCH  13  15
ENDBRANCH  10  13
ENDBRANCH   7  10
TORSDOF 4
ENDMDL
MODEL      222
REMARK 921   NORMALIZED FREE ENERGY PREDICTED BY IDOCK:   -4.23 KCAL/MOL
REMARK 922        TOTAL FREE ENERGY PREDICTED BY IDOCK:   -5.95 KCAL/MOL
REMARK 923 INTER-LIGAND FREE ENERGY PREDICTED BY IDOCK:   -5.16 KCAL/MOL
REMARK 924 INTRA-LIGAND FREE ENERGY PREDICTED BY IDOCK:   -0.79 KCAL/MOL
REMARK 927      BINDING AFFINITY PREDICTED BY RF-SCORE:    0.00 PKD
ROOT
HETATM    1  N   UNL     1     -13.846   9.031  72.460  1.00  0.00    -0.682 NA 
HETATM    2  H2  UNL     1     -14.438   9.167  71.641  1.00  0.00     0.000 HD 
HETATM    3  C   UNL     1     -12.522   8.918  72.032  1.00  0.00    -0.392 A  
HETATM    4  H1  UNL     1     -14.263   8.302  73.039  1.00  0.00     0.000 HD 
HETATM    5  C   UNL     1     -11.950   9.916  71.239  1.00  0.00    -0.489 A  
HETATM    6  C   UNL     1     -10.600   9.866  70.879  1.00  0.00    -0.254 A  
HETATM    7  C   UNL     1      -9.802   8.829  71.365  1.00  0.00    -0.283 A  
HETATM    8  C   UNL     1     -10.339   7.861  72.218  1.00  0.00    -0.314 A  
HETATM    9  C   UNL     1     -11.694   7.924  72.566  1.00  0.00    -0.423 A  
ENDROOT
BRANCH   7  10
HETATM   10  S   UNL     1      -8.109   8.680  70.811  1.00  0.00    -0.144 S  
HETATM   11  O   UNL     1      -7.522   9.990  70.998  1.00  0.00    -0.212 OA 
HETATM   12  O   UNL     1      -7.551   7.528  71.489  1.00  0.00    -0.081 OA 
BRANCH  10  13
HETATM   13  N   UNL     1      -8.299   8.393  69.214  1.00  0.00    -0.120 N  
HETATM   14  H   UNL     1      -7.622   8.790  68.562  1.00  0.00     0.000 HD 
BRANCH  13  15
HETATM   15  C   UNL     1      -9.343   7.631  68.706  1.00  0.00    -0.148 A  
HETATM   16  C   UNL     1     -10.216   8.120  67.759  1.00  0.00    -0.288 A  
HETATM   17  C   UNL     1     -11.043   7.038  67.438  1.00  0.00    -0.195 A  
HETATM   18  N   UNL     1     -10.720   5.935  68.106  1.00  0.00    -0.259 NA 
HETATM   19  N   UNL     1      -9.687   6.291  68.926  1.00  0.00    -0.128 NA 
BRANCH  19  20
HETATM   20  C   UNL     1      -9.118   5.309  69.792  1.00  0.00    -0.116 A  
HETATM   21  C   UNL     1      -7.826   4.823  69.523  1.00  0.00    -0.066 A  
HETATM   22  C   UNL     1      -7.255   3.828  70.323  1.00  0.00    -0.041 A  
HETATM   23  C   UNL     1      -7.969   3.296  71.391  1.00  0.00    -0.059 A  
HETATM   24  C   UNL     1      -9.240   3.780  71.678  1.00  0.00    -0.184 A  
HETATM   25  C   UNL     1      -9.801   4.795  70.897  1.00  0.00    -0.279 A  
ENDBRANCH  19  20
ENDBRANCH  13  15
ENDBRANCH  10  13
ENDBRANCH   7  10
TORSDOF 4
ENDMDL
MODEL      223
REMARK 921   NORMALIZED FREE ENERGY PREDICTED BY IDOCK:   -4.22 KCAL/MOL
REMARK 922        TOTAL FREE ENERGY PREDICTED BY IDOCK:   -5.94 KCAL/MOL
REMARK 923 INTER-LIGAND FREE ENERGY PREDICTED BY IDOCK:   -5.25 KCAL/MOL
REMARK 924 INTRA-LIGAND FREE ENERGY PREDICTED BY IDOCK:   -0.69 KCAL/MOL
REMARK 927      BINDING AFFINITY PREDICTED BY RF-SCORE:    0.00 PKD
ROOT
HETATM    1  N   UNL     1     -12.063  12.399  66.848  1.00  0.00    -0.547 NA 
HETATM    2  H2  UNL     1     -12.834  11.795  66.566  1.00  0.00     0.000 HD 
HETATM    3  C   UNL     1     -10.955  11.596  67.127  1.00  0.00    -0.280 A  
HETATM    4  H1  UNL     1     -12.409  13.058  67.545  1.00  0.00     0.000 HD 
HETATM    5  C   UNL     1     -10.480  10.694  66.171  1.00  0.00    -0.260 A  
HETATM    6  C   UNL     1      -9.318   9.951  66.397  1.00  0.00    -0.213 A  
HETATM    7  C   UNL     1      -8.595  10.153  67.574  1.00  0.00    -0.118 A  
HETATM    8  C   UNL     1      -9.015  11.103  68.508  1.00  0.00    -0.168 A  
HETATM    9  C   UNL     1     -10.183  11.837  68.269  1.00  0.00    -0.209 A  
ENDROOT
BRANCH   7  10
HETATM   10  S   UNL     1      -7.182   9.120  67.935  1.00  0.00    -0.080 S  
HETATM   11  O   UNL     1      -6.652   8.723  66.647  1.00  0.00    -0.062 OA 
HETATM   12  O   UNL     1      -6.355   9.860  68.866  1.00  0.00    -0.041 OA 
BRANCH  10  13
HETATM   13  N   UNL     1      -7.879   7.831  68.656  1.00  0.00    -0.118 N  
HETATM   14  H   UNL     1      -7.458   7.461  69.508  1.00  0.00     0.000 HD 
BRANCH  13  15
HETATM   15  C   UNL     1      -9.021   7.218  68.158  1.00  0.00    -0.132 A  
HETATM   16  C   UNL     1      -9.031   6.554  66.950  1.00  0.00    -0.128 A  
HETATM   17  C   UNL     1     -10.312   5.999  66.854  1.00  0.00    -0.244 A  
HETATM   18  N   UNL     1     -11.063   6.264  67.919  1.00  0.00    -0.327 NA 
HETATM   19  N   UNL     1     -10.290   7.050  68.727  1.00  0.00    -0.180 NA 
BRANCH  19  20
HETATM   20  C   UNL     1     -10.829   7.516  69.964  1.00  0.00    -0.249 A  
HETATM   21  C   UNL     1     -11.373   6.586  70.869  1.00  0.00    -0.393 A  
HETATM   22  C   UNL     1     -11.951   7.010  72.069  1.00  0.00    -0.334 A  
HETATM   23  C   UNL     1     -12.007   8.366  72.376  1.00  0.00    -0.451 A  
HETATM   24  C   UNL     1     -11.459   9.293  71.498  1.00  0.00    -0.454 A  
HETATM   25  C   UNL     1     -10.854   8.869  70.311  1.00  0.00    -0.265 A  
ENDBRANCH  19  20
ENDBRANCH  13  15
ENDBRANCH  10  13
ENDBRANCH   7  10
TORSDOF 4
ENDMDL
MODEL      224
REMARK 921   NORMALIZED FREE ENERGY PREDICTED BY IDOCK:   -4.22 KCAL/MOL
REMARK 922        TOTAL FREE ENERGY PREDICTED BY IDOCK:   -5.94 KCAL/MOL
REMARK 923 INTER-LIGAND FREE ENERGY PREDICTED BY IDOCK:   -5.41 KCAL/MOL
REMARK 924 INTRA-LIGAND FREE ENERGY PREDICTED BY IDOCK:   -0.53 KCAL/MOL
REMARK 927      BINDING AFFINITY PREDICTED BY RF-SCORE:    0.00 PKD
ROOT
HETATM    1  N   UNL     1     -14.115  15.521  72.324  1.00  0.00    -0.550 NA 
HETATM    2  H2  UNL     1     -13.768  15.464  73.281  1.00  0.00     0.000 HD 
HETATM    3  C   UNL     1     -13.364  14.652  71.531  1.00  0.00    -0.364 A  
HETATM    4  H1  UNL     1     -14.199  16.506  72.071  1.00  0.00     0.000 HD 
HETATM    5  C   UNL     1     -13.251  13.302  71.877  1.00  0.00    -0.523 A  
HETATM    6  C   UNL     1     -12.581  12.400  71.046  1.00  0.00    -0.349 A  
HETATM    7  C   UNL     1     -12.066  12.845  69.828  1.00  0.00    -0.245 A  
HETATM    8  C   UNL     1     -12.233  14.174  69.432  1.00  0.00    -0.329 A  
HETATM    9  C   UNL     1     -12.902  15.067  70.277  1.00  0.00    -0.270 A  
ENDROOT
BRANCH   7  10
HETATM   10  S   UNL     1     -11.097  11.734  68.816  1.00  0.00    -0.260 S  
HETATM   11  O   UNL     1     -10.297  10.962  69.743  1.00  0.00    -0.127 OA 
HETATM   12  O   UNL     1     -12.026  11.069  67.926  1.00  0.00    -0.620 OA 
BRANCH  10  13
HETATM   13  N   UNL     1     -10.133  12.771  68.001  1.00  0.00    -0.224 N  
HETATM   14  H   UNL     1     -10.566  13.540  67.489  1.00  0.00     0.000 HD 
BRANCH  13  15
HETATM   15  C   UNL     1      -8.751  12.650  67.976  1.00  0.00    -0.190 A  
HETATM   16  C   UNL     1      -7.916  13.688  68.327  1.00  0.00    -0.150 A  
HETATM   17  C   UNL     1      -6.625  13.148  68.271  1.00  0.00    -0.097 A  
HETATM   18  N   UNL     1      -6.626  11.863  67.930  1.00  0.00    -0.069 NA 
HETATM   19  N   UNL     1      -7.936  11.543  67.709  1.00  0.00    -0.122 NA 
BRANCH  19  20
HETATM   20  C   UNL     1      -8.267  10.212  67.310  1.00  0.00    -0.117 A  
HETATM   21  C   UNL     1      -7.925   9.139  68.152  1.00  0.00    -0.100 A  
HETATM   22  C   UNL     1      -8.191   7.820  67.774  1.00  0.00    -0.126 A  
HETATM   23  C   UNL     1      -8.790   7.552  66.547  1.00  0.00    -0.167 A  
HETATM   24  C   UNL     1      -9.149   8.605  65.713  1.00  0.00    -0.242 A  
HETATM   25  C   UNL     1      -8.909   9.927  66.102  1.00  0.00    -0.163 A  
ENDBRANCH  19  20
ENDBRANCH  13  15
ENDBRANCH  10  13
ENDBRANCH   7  10
TORSDOF 4
ENDMDL
MODEL      225
REMARK 921   NORMALIZED FREE ENERGY PREDICTED BY IDOCK:   -4.21 KCAL/MOL
REMARK 922        TOTAL FREE ENERGY PREDICTED BY IDOCK:   -5.93 KCAL/MOL
REMARK 923 INTER-LIGAND FREE ENERGY PREDICTED BY IDOCK:   -5.19 KCAL/MOL
REMARK 924 INTRA-LIGAND FREE ENERGY PREDICTED BY IDOCK:   -0.75 KCAL/MOL
REMARK 927      BINDING AFFINITY PREDICTED BY RF-SCORE:    0.00 PKD
ROOT
HETATM    1  N   UNL     1     -12.494  14.885  63.463  1.00  0.00    -0.868 NA 
HETATM    2  H2  UNL     1     -12.610  14.394  62.577  1.00  0.00     0.000 HD 
HETATM    3  C   UNL     1     -12.023  13.974  64.412  1.00  0.00    -0.454 A  
HETATM    4  H1  UNL     1     -13.339  15.425  63.644  1.00  0.00     0.000 HD 
HETATM    5  C   UNL     1     -10.864  13.234  64.164  1.00  0.00    -0.369 A  
HETATM    6  C   UNL     1     -10.328  12.388  65.139  1.00  0.00    -0.313 A  
HETATM    7  C   UNL     1     -10.932  12.324  66.395  1.00  0.00    -0.287 A  
HETATM    8  C   UNL     1     -12.049  13.111  66.685  1.00  0.00    -0.409 A  
HETATM    9  C   UNL     1     -12.576  13.950  65.697  1.00  0.00    -0.553 A  
ENDROOT
BRANCH   7  10
HETATM   10  S   UNL     1     -10.335  11.153  67.607  1.00  0.00    -0.201 S  
HETATM   11  O   UNL     1      -9.607  11.938  68.580  1.00  0.00    -0.178 OA 
HETATM   12  O   UNL     1     -11.477  10.362  68.016  1.00  0.00    -0.356 OA 
BRANCH  10  13
HETATM   13  N   UNL     1      -9.282  10.264  66.729  1.00  0.00    -0.156 N  
HETATM   14  H   UNL     1      -9.282  10.368  65.715  1.00  0.00     0.000 HD 
BRANCH  13  15
HETATM   15  C   UNL     1      -8.387   9.373  67.306  1.00  0.00    -0.125 A  
HETATM   16  C   UNL     1      -8.567   8.009  67.246  1.00  0.00    -0.124 A  
HETATM   17  C   UNL     1      -7.422   7.467  67.842  1.00  0.00    -0.101 A  
HETATM   18  N   UNL     1      -6.564   8.402  68.238  1.00  0.00    -0.059 NA 
HETATM   19  N   UNL     1      -7.160   9.596  67.945  1.00  0.00    -0.079 NA 
BRANCH  19  20
HETATM   20  C   UNL     1      -6.479  10.809  68.266  1.00  0.00    -0.058 A  
HETATM   21  C   UNL     1      -6.160  11.082  69.608  1.00  0.00    -0.084 A  
HETATM   22  C   UNL     1      -5.536  12.281  69.965  1.00  0.00    -0.111 A  
HETATM   23  C   UNL     1      -5.233  13.227  68.992  1.00  0.00    -0.069 A  
HETATM   24  C   UNL     1      -5.528  12.962  67.660  1.00  0.00    -0.109 A  
HETATM   25  C   UNL     1      -6.127  11.752  67.297  1.00  0.00    -0.124 A  
ENDBRANCH  19  20
ENDBRANCH  13  15
ENDBRANCH  10  13
ENDBRANCH   7  10
TORSDOF 4
ENDMDL
MODEL      226
REMARK 921   NORMALIZED FREE ENERGY PREDICTED BY IDOCK:   -4.21 KCAL/MOL
REMARK 922        TOTAL FREE ENERGY PREDICTED BY IDOCK:   -5.93 KCAL/MOL
REMARK 923 INTER-LIGAND FREE ENERGY PREDICTED BY IDOCK:   -5.33 KCAL/MOL
REMARK 924 INTRA-LIGAND FREE ENERGY PREDICTED BY IDOCK:   -0.60 KCAL/MOL
REMARK 927      BINDING AFFINITY PREDICTED BY RF-SCORE:    0.00 PKD
ROOT
HETATM    1  N   UNL     1     -10.417   7.200  74.492  1.00  0.00    -0.350 NA 
HETATM    2  H2  UNL     1     -11.236   6.596  74.552  1.00  0.00     0.000 HD 
HETATM    3  C   UNL     1     -10.067   7.335  73.147  1.00  0.00    -0.273 A  
HETATM    4  H1  UNL     1      -9.729   6.876  75.172  1.00  0.00     0.000 HD 
HETATM    5  C   UNL     1     -11.010   7.780  72.215  1.00  0.00    -0.345 A  
HETATM    6  C   UNL     1     -10.653   8.010  70.884  1.00  0.00    -0.233 A  
HETATM    7  C   UNL     1      -9.324   7.843  70.494  1.00  0.00    -0.162 A  
HETATM    8  C   UNL     1      -8.354   7.469  71.427  1.00  0.00    -0.108 A  
HETATM    9  C   UNL     1      -8.728   7.239  72.756  1.00  0.00    -0.148 A  
ENDROOT
BRANCH   7  10
HETATM   10  S   UNL     1      -8.878   8.009  68.771  1.00  0.00    -0.137 S  
HETATM   11  O   UNL     1      -7.723   8.881  68.750  1.00  0.00    -0.093 OA 
HETATM   12  O   UNL     1      -8.787   6.666  68.236  1.00  0.00    -0.125 OA 
BRANCH  10  13
HETATM   13  N   UNL     1     -10.169   8.803  68.161  1.00  0.00    -0.197 N  
HETATM   14  H   UNL     1     -11.064   8.724  68.645  1.00  0.00     0.000 HD 
BRANCH  13  15
HETATM   15  C   UNL     1     -10.100   9.581  67.014  1.00  0.00    -0.234 A  
HETATM   16  C   UNL     1      -9.728   9.059  65.794  1.00  0.00    -0.254 A  
HETATM   17  C   UNL     1      -9.879  10.116  64.888  1.00  0.00    -0.319 A  
HETATM   18  N   UNL     1     -10.329  11.224  65.470  1.00  0.00    -0.257 NA 
HETATM   19  N   UNL     1     -10.441  10.922  66.798  1.00  0.00    -0.241 NA 
BRANCH  19  20
HETATM   20  C   UNL     1     -10.897  11.929  67.702  1.00  0.00    -0.227 A  
HETATM   21  C   UNL     1     -10.568  13.274  67.455  1.00  0.00    -0.250 A  
HETATM   22  C   UNL     1     -10.958  14.280  68.343  1.00  0.00    -0.267 A  
HETATM   23  C   UNL     1     -11.670  13.959  69.494  1.00  0.00    -0.369 A  
HETATM   24  C   UNL     1     -12.016  12.636  69.741  1.00  0.00    -0.365 A  
HETATM   25  C   UNL     1     -11.651  11.631  68.840  1.00  0.00    -0.377 A  
ENDBRANCH  19  20
ENDBRANCH  13  15
ENDBRANCH  10  13
ENDBRANCH   7  10
TORSDOF 4
ENDMDL
MODEL      227
REMARK 921   NORMALIZED FREE ENERGY PREDICTED BY IDOCK:   -4.17 KCAL/MOL
REMARK 922        TOTAL FREE ENERGY PREDICTED BY IDOCK:   -5.88 KCAL/MOL
REMARK 923 INTER-LIGAND FREE ENERGY PREDICTED BY IDOCK:   -4.03 KCAL/MOL
REMARK 924 INTRA-LIGAND FREE ENERGY PREDICTED BY IDOCK:   -1.85 KCAL/MOL
REMARK 927      BINDING AFFINITY PREDICTED BY RF-SCORE:    0.00 PKD
ROOT
HETATM    1  N   UNL     1      -9.790  12.388  64.808  1.00  0.00    -0.466 NA 
HETATM    2  H2  UNL     1      -9.869  12.270  63.798  1.00  0.00     0.000 HD 
HETATM    3  C   UNL     1      -9.856  11.127  65.405  1.00  0.00    -0.242 A  
HETATM    4  H1  UNL     1     -10.430  13.128  65.096  1.00  0.00     0.000 HD 
HETATM    5  C   UNL     1      -8.978  10.114  65.011  1.00  0.00    -0.227 A  
HETATM    6  C   UNL     1      -8.968   8.877  65.661  1.00  0.00    -0.249 A  
HETATM    7  C   UNL     1      -9.812   8.672  66.753  1.00  0.00    -0.253 A  
HETATM    8  C   UNL     1     -10.646   9.698  67.206  1.00  0.00    -0.315 A  
HETATM    9  C   UNL     1     -10.646  10.930  66.542  1.00  0.00    -0.295 A  
ENDROOT
BRANCH   7  10
HETATM   10  S   UNL     1      -9.903   7.056  67.512  1.00  0.00    -0.159 S  
HETATM   11  O   UNL     1     -11.089   7.083  68.341  1.00  0.00    -0.117 OA 
HETATM   12  O   UNL     1      -9.784   6.088  66.442  1.00  0.00    -0.158 OA 
BRANCH  10  13
HETATM   13  N   UNL     1      -8.576   7.053  68.464  1.00  0.00    -0.124 N  
HETATM   14  H   UNL     1      -7.777   6.483  68.187  1.00  0.00     0.000 HD 
BRANCH  13  15
HETATM   15  C   UNL     1      -8.489   7.794  69.635  1.00  0.00    -0.133 A  
HETATM   16  C   UNL     1      -8.910   7.300  70.850  1.00  0.00    -0.149 A  
HETATM   17  C   UNL     1      -8.567   8.289  71.780  1.00  0.00    -0.161 A  
HETATM   18  N   UNL     1      -7.957   9.327  71.217  1.00  0.00    -0.332 NA 
HETATM   19  N   UNL     1      -7.929   9.055  69.878  1.00  0.00    -0.095 NA 
BRANCH  19  20
HETATM   20  C   UNL     1      -7.336  10.003  68.990  1.00  0.00    -0.083 A  
HETATM   21  C   UNL     1      -7.895  11.290  68.888  1.00  0.00    -0.114 A  
HETATM   22  C   UNL     1      -7.370  12.229  67.995  1.00  0.00    -0.105 A  
HETATM   23  C   UNL     1      -6.292  11.893  67.183  1.00  0.00    -0.151 A  
HETATM   24  C   UNL     1      -5.721  10.630  67.285  1.00  0.00    -0.045 A  
HETATM   25  C   UNL     1      -6.226   9.699  68.198  1.00  0.00    -0.055 A  
ENDBRANCH  19  20
ENDBRANCH  13  15
ENDBRANCH  10  13
ENDBRANCH   7  10
TORSDOF 4
ENDMDL
MODEL      228
REMARK 921   NORMALIZED FREE ENERGY PREDICTED BY IDOCK:   -4.16 KCAL/MOL
REMARK 922        TOTAL FREE ENERGY PREDICTED BY IDOCK:   -5.86 KCAL/MOL
REMARK 923 INTER-LIGAND FREE ENERGY PREDICTED BY IDOCK:   -5.91 KCAL/MOL
REMARK 924 INTRA-LIGAND FREE ENERGY PREDICTED BY IDOCK:    0.05 KCAL/MOL
REMARK 927      BINDING AFFINITY PREDICTED BY RF-SCORE:    0.00 PKD
ROOT
HETATM    1  N   UNL     1      -7.718   9.270  62.861  1.00  0.00    -0.117 NA 
HETATM    2  H2  UNL     1      -7.194   8.474  63.224  1.00  0.00     0.000 HD 
HETATM    3  C   UNL     1      -8.424   9.850  63.918  1.00  0.00    -0.181 A  
HETATM    4  H1  UNL     1      -8.208   8.974  62.017  1.00  0.00     0.000 HD 
HETATM    5  C   UNL     1      -7.753  10.256  65.075  1.00  0.00    -0.129 A  
HETATM    6  C   UNL     1      -8.427  10.922  66.102  1.00  0.00    -0.171 A  
HETATM    7  C   UNL     1      -9.778  11.232  65.944  1.00  0.00    -0.224 A  
HETATM    8  C   UNL     1     -10.448  10.898  64.764  1.00  0.00    -0.373 A  
HETATM    9  C   UNL     1      -9.760  10.228  63.746  1.00  0.00    -0.298 A  
ENDROOT
BRANCH   7  10
HETATM   10  S   UNL     1     -10.684  11.967  67.299  1.00  0.00    -0.242 S  
HETATM   11  O   UNL     1     -12.065  12.002  66.869  1.00  0.00    -0.608 OA 
HETATM   12  O   UNL     1     -10.310  11.236  68.492  1.00  0.00    -0.187 OA 
BRANCH  10  13
HETATM   13  N   UNL     1     -10.084  13.487  67.322  1.00  0.00    -0.233 N  
HETATM   14  H   UNL     1      -9.537  13.783  68.130  1.00  0.00     0.000 HD 
BRANCH  13  15
HETATM   15  C   UNL     1     -10.286  14.390  66.288  1.00  0.00    -0.295 A  
HETATM   16  C   UNL     1     -11.398  14.340  65.476  1.00  0.00    -0.325 A  
HETATM   17  C   UNL     1     -11.286  15.459  64.642  1.00  0.00    -0.355 A  
HETATM   18  N   UNL     1     -10.203  16.183  64.905  1.00  0.00    -0.431 NA 
HETATM   19  N   UNL     1      -9.549  15.518  65.903  1.00  0.00    -0.340 NA 
BRANCH  19  20
HETATM   20  C   UNL     1      -8.322  16.050  66.404  1.00  0.00    -0.309 A  
HETATM   21  C   UNL     1      -7.519  15.252  67.239  1.00  0.00    -0.236 A  
HETATM   22  C   UNL     1      -6.335  15.755  67.785  1.00  0.00    -0.174 A  
HETATM   23  C   UNL     1      -5.944  17.063  67.519  1.00  0.00    -0.157 A  
HETATM   24  C   UNL     1      -6.720  17.856  66.683  1.00  0.00    -0.235 A  
HETATM   25  C   UNL     1      -7.890  17.345  66.112  1.00  0.00    -0.293 A  
ENDBRANCH  19  20
ENDBRANCH  13  15
ENDBRANCH  10  13
ENDBRANCH   7  10
TORSDOF 4
ENDMDL
MODEL      229
REMARK 921   NORMALIZED FREE ENERGY PREDICTED BY IDOCK:   -4.15 KCAL/MOL
REMARK 922        TOTAL FREE ENERGY PREDICTED BY IDOCK:   -5.86 KCAL/MOL
REMARK 923 INTER-LIGAND FREE ENERGY PREDICTED BY IDOCK:   -5.13 KCAL/MOL
REMARK 924 INTRA-LIGAND FREE ENERGY PREDICTED BY IDOCK:   -0.73 KCAL/MOL
REMARK 927      BINDING AFFINITY PREDICTED BY RF-SCORE:    0.00 PKD
ROOT
HETATM    1  N   UNL     1     -11.581   5.753  72.894  1.00  0.00    -0.506 NA 
HETATM    2  H2  UNL     1     -12.538   6.072  73.050  1.00  0.00     0.000 HD 
HETATM    3  C   UNL     1     -11.200   6.124  71.603  1.00  0.00    -0.286 A  
HETATM    4  H1  UNL     1     -11.515   4.780  73.190  1.00  0.00     0.000 HD 
HETATM    5  C   UNL     1     -11.291   7.458  71.197  1.00  0.00    -0.291 A  
HETATM    6  C   UNL     1     -10.826   7.862  69.941  1.00  0.00    -0.221 A  
HETATM    7  C   UNL     1     -10.216   6.927  69.105  1.00  0.00    -0.187 A  
HETATM    8  C   UNL     1     -10.051   5.603  69.523  1.00  0.00    -0.292 A  
HETATM    9  C   UNL     1     -10.525   5.214  70.782  1.00  0.00    -0.263 A  
ENDROOT
BRANCH   7  10
HETATM   10  S   UNL     1      -9.735   7.398  67.450  1.00  0.00    -0.166 S  
HETATM   11  O   UNL     1      -9.108   6.225  66.878  1.00  0.00    -0.122 OA 
HETATM   12  O   UNL     1     -10.907   7.975  66.826  1.00  0.00    -0.214 OA 
BRANCH  10  13
HETATM   13  N   UNL     1      -8.597   8.535  67.738  1.00  0.00    -0.133 N  
HETATM   14  H   UNL     1      -8.414   8.808  68.704  1.00  0.00     0.000 HD 
BRANCH  13  15
HETATM   15  C   UNL     1      -7.870   9.145  66.726  1.00  0.00    -0.101 A  
HETATM   16  C   UNL     1      -6.594   8.747  66.395  1.00  0.00    -0.063 A  
HETATM   17  C   UNL     1      -6.250   9.522  65.281  1.00  0.00    -0.068 A  
HETATM   18  N   UNL     1      -7.230  10.340  64.910  1.00  0.00    -0.127 NA 
HETATM   19  N   UNL     1      -8.234  10.146  65.816  1.00  0.00    -0.138 NA 
BRANCH  19  20
HETATM   20  C   UNL     1      -9.439  10.902  65.689  1.00  0.00    -0.215 A  
HETATM   21  C   UNL     1      -9.912  11.629  66.796  1.00  0.00    -0.229 A  
HETATM   22  C   UNL     1     -11.112  12.343  66.723  1.00  0.00    -0.333 A  
HETATM   23  C   UNL     1     -11.862  12.331  65.551  1.00  0.00    -0.420 A  
HETATM   24  C   UNL     1     -11.397  11.629  64.445  1.00  0.00    -0.334 A  
HETATM   25  C   UNL     1     -10.183  10.938  64.507  1.00  0.00    -0.422 A  
ENDBRANCH  19  20
ENDBRANCH  13  15
ENDBRANCH  10  13
ENDBRANCH   7  10
TORSDOF 4
ENDMDL
MODEL      230
REMARK 921   NORMALIZED FREE ENERGY PREDICTED BY IDOCK:   -4.14 KCAL/MOL
REMARK 922        TOTAL FREE ENERGY PREDICTED BY IDOCK:   -5.84 KCAL/MOL
REMARK 923 INTER-LIGAND FREE ENERGY PREDICTED BY IDOCK:   -5.11 KCAL/MOL
REMARK 924 INTRA-LIGAND FREE ENERGY PREDICTED BY IDOCK:   -0.73 KCAL/MOL
REMARK 927      BINDING AFFINITY PREDICTED BY RF-SCORE:    0.00 PKD
ROOT
HETATM    1  N   UNL     1      -6.557   7.377  64.892  1.00  0.00    -0.043 NA 
HETATM    2  H2  UNL     1      -7.422   6.969  64.539  1.00  0.00     0.000 HD 
HETATM    3  C   UNL     1      -6.878   8.518  65.631  1.00  0.00    -0.067 A  
HETATM    4  H1  UNL     1      -5.892   7.435  64.121  1.00  0.00     0.000 HD 
HETATM    5  C   UNL     1      -7.789   8.438  66.688  1.00  0.00    -0.093 A  
HETATM    6  C   UNL     1      -8.052   9.548  67.497  1.00  0.00    -0.110 A  
HETATM    7  C   UNL     1      -7.353  10.735  67.276  1.00  0.00    -0.097 A  
HETATM    8  C   UNL     1      -6.386  10.812  66.270  1.00  0.00    -0.129 A  
HETATM    9  C   UNL     1      -6.137   9.693  65.466  1.00  0.00    -0.068 A  
ENDROOT
BRANCH   7  10
HETATM   10  S   UNL     1      -7.770  12.197  68.216  1.00  0.00    -0.141 S  
HETATM   11  O   UNL     1      -7.009  12.099  69.444  1.00  0.00    -0.065 OA 
HETATM   12  O   UNL     1      -7.581  13.327  67.331  1.00  0.00    -0.159 OA 
BRANCH  10  13
HETATM   13  N   UNL     1      -9.353  11.954  68.538  1.00  0.00    -0.320 N  
HETATM   14  H   UNL     1      -9.605  11.382  69.344  1.00  0.00     0.000 HD 
BRANCH  13  15
HETATM   15  C   UNL     1     -10.369  12.491  67.760  1.00  0.00    -0.222 A  
HETATM   16  C   UNL     1     -10.611  12.065  66.472  1.00  0.00    -0.269 A  
HETATM   17  C   UNL     1     -11.758  12.762  66.072  1.00  0.00    -0.418 A  
HETATM   18  N   UNL     1     -12.229  13.558  67.027  1.00  0.00    -0.347 NA 
HETATM   19  N   UNL     1     -11.360  13.430  68.074  1.00  0.00    -0.270 NA 
BRANCH  19  20
HETATM   20  C   UNL     1     -11.594  14.181  69.266  1.00  0.00    -0.304 A  
HETATM   21  C   UNL     1     -11.188  15.527  69.319  1.00  0.00    -0.312 A  
HETATM   22  C   UNL     1     -11.359  16.279  70.484  1.00  0.00    -0.318 A  
HETATM   23  C   UNL     1     -11.922  15.697  71.615  1.00  0.00    -0.503 A  
HETATM   24  C   UNL     1     -12.342  14.373  71.570  1.00  0.00    -0.427 A  
HETATM   25  C   UNL     1     -12.199  13.627  70.396  1.00  0.00    -0.434 A  
ENDBRANCH  19  20
ENDBRANCH  13  15
ENDBRANCH  10  13
ENDBRANCH   7  10
TORSDOF 4
ENDMDL
MODEL      231
REMARK 921   NORMALIZED FREE ENERGY PREDICTED BY IDOCK:   -4.14 KCAL/MOL
REMARK 922        TOTAL FREE ENERGY PREDICTED BY IDOCK:   -5.84 KCAL/MOL
REMARK 923 INTER-LIGAND FREE ENERGY PREDICTED BY IDOCK:   -5.47 KCAL/MOL
REMARK 924 INTRA-LIGAND FREE ENERGY PREDICTED BY IDOCK:   -0.36 KCAL/MOL
REMARK 927      BINDING AFFINITY PREDICTED BY RF-SCORE:    0.00 PKD
ROOT
HETATM    1  N   UNL     1      -8.707  19.650  67.811  1.00  0.00    -0.316 NA 
HETATM    2  H2  UNL     1      -8.685  19.671  68.830  1.00  0.00     0.000 HD 
HETATM    3  C   UNL     1      -9.222  18.416  67.409  1.00  0.00    -0.271 A  
HETATM    4  H1  UNL     1      -7.803  19.967  67.464  1.00  0.00     0.000 HD 
HETATM    5  C   UNL     1     -10.463  17.981  67.884  1.00  0.00    -0.408 A  
HETATM    6  C   UNL     1     -11.035  16.793  67.421  1.00  0.00    -0.092 A  
HETATM    7  C   UNL     1     -10.381  16.060  66.430  1.00  0.00    -0.305 A  
HETATM    8  C   UNL     1      -9.176  16.517  65.890  1.00  0.00    -0.209 A  
HETATM    9  C   UNL     1      -8.613  17.706  66.368  1.00  0.00    -0.269 A  
ENDROOT
BRANCH   7  10
HETATM   10  S   UNL     1     -11.036  14.477  65.920  1.00  0.00    -0.334 S  
HETATM   11  O   UNL     1     -12.471  14.579  66.084  1.00  0.00    -0.315 OA 
HETATM   12  O   UNL     1     -10.469  14.194  64.618  1.00  0.00    -0.434 OA 
BRANCH  10  13
HETATM   13  N   UNL     1     -10.430  13.476  67.061  1.00  0.00    -0.264 N  
HETATM   14  H   UNL     1     -10.764  12.513  67.093  1.00  0.00     0.000 HD 
BRANCH  13  15
HETATM   15  C   UNL     1      -9.479  13.882  67.987  1.00  0.00    -0.208 A  
HETATM   16  C   UNL     1      -8.129  13.841  67.720  1.00  0.00    -0.176 A  
HETATM   17  C   UNL     1      -7.521  14.417  68.843  1.00  0.00    -0.132 A  
HETATM   18  N   UNL     1      -8.406  14.815  69.752  1.00  0.00     0.139 NA 
HETATM   19  N   UNL     1      -9.628  14.461  69.254  1.00  0.00     0.030 NA 
BRANCH  19  20
HETATM   20  C   UNL     1     -10.799  14.750  70.019  1.00  0.00    -0.116 A  
HETATM   21  C   UNL     1     -11.977  14.022  69.772  1.00  0.00    -0.393 A  
HETATM   22  C   UNL     1     -13.154  14.309  70.469  1.00  0.00    -0.168 A  
HETATM   23  C   UNL     1     -13.177  15.332  71.411  1.00  0.00    -0.555 A  
HETATM   24  C   UNL     1     -12.015  16.048  71.676  1.00  0.00    -0.569 A  
HETATM   25  C   UNL     1     -10.829  15.744  71.001  1.00  0.00    -0.109 A  
ENDBRANCH  19  20
ENDBRANCH  13  15
ENDBRANCH  10  13
ENDBRANCH   7  10
TORSDOF 4
ENDMDL
MODEL      232
REMARK 921   NORMALIZED FREE ENERGY PREDICTED BY IDOCK:   -4.14 KCAL/MOL
REMARK 922        TOTAL FREE ENERGY PREDICTED BY IDOCK:   -5.84 KCAL/MOL
REMARK 923 INTER-LIGAND FREE ENERGY PREDICTED BY IDOCK:   -5.24 KCAL/MOL
REMARK 924 INTRA-LIGAND FREE ENERGY PREDICTED BY IDOCK:   -0.60 KCAL/MOL
REMARK 927      BINDING AFFINITY PREDICTED BY RF-SCORE:    0.00 PKD
ROOT
HETATM    1  N   UNL     1      -9.382   5.628  65.201  1.00  0.00    -0.354 NA 
HETATM    2  H2  UNL     1      -9.497   6.221  64.379  1.00  0.00     0.000 HD 
HETATM    3  C   UNL     1      -8.976   6.432  66.269  1.00  0.00    -0.156 A  
HETATM    4  H1  UNL     1      -8.833   4.812  64.934  1.00  0.00     0.000 HD 
HETATM    5  C   UNL     1      -9.729   7.550  66.635  1.00  0.00    -0.273 A  
HETATM    6  C   UNL     1      -9.390   8.311  67.758  1.00  0.00    -0.153 A  
HETATM    7  C   UNL     1      -8.313   7.914  68.552  1.00  0.00    -0.128 A  
HETATM    8  C   UNL     1      -7.593   6.757  68.242  1.00  0.00    -0.107 A  
HETATM    9  C   UNL     1      -7.943   6.008  67.113  1.00  0.00    -0.102 A  
ENDROOT
BRANCH   7  10
HETATM   10  S   UNL     1      -7.788   8.946  69.914  1.00  0.00    -0.100 S  
HETATM   11  O   UNL     1      -6.385   8.649  70.108  1.00  0.00    -0.036 OA 
HETATM   12  O   UNL     1      -8.210  10.295  69.598  1.00  0.00    -0.167 OA 
BRANCH  10  13
HETATM   13  N   UNL     1      -8.651   8.331  71.157  1.00  0.00    -0.131 N  
HETATM   14  H   UNL     1      -8.292   8.446  72.105  1.00  0.00     0.000 HD 
BRANCH  13  15
HETATM   15  C   UNL     1      -9.851   7.656  70.978  1.00  0.00    -0.174 A  
HETATM   16  C   UNL     1      -9.921   6.281  70.929  1.00  0.00    -0.219 A  
HETATM   17  C   UNL     1     -11.288   5.992  70.843  1.00  0.00    -0.229 A  
HETATM   18  N   UNL     1     -12.041   7.087  70.855  1.00  0.00    -0.364 NA 
HETATM   19  N   UNL     1     -11.165   8.135  70.905  1.00  0.00    -0.263 NA 
BRANCH  19  20
HETATM   20  C   UNL     1     -11.678   9.468  70.919  1.00  0.00    -0.317 A  
HETATM   21  C   UNL     1     -12.562   9.852  71.943  1.00  0.00    -0.471 A  
HETATM   22  C   UNL     1     -13.119  11.134  71.963  1.00  0.00    -0.433 A  
HETATM   23  C   UNL     1     -12.814  12.044  70.956  1.00  0.00    -0.279 A  
HETATM   24  C   UNL     1     -11.929  11.682  69.948  1.00  0.00    -0.414 A  
HETATM   25  C   UNL     1     -11.348  10.410  69.941  1.00  0.00    -0.370 A  
ENDBRANCH  19  20
ENDBRANCH  13  15
ENDBRANCH  10  13
ENDBRANCH   7  10
TORSDOF 4
ENDMDL
MODEL      233
REMARK 921   NORMALIZED FREE ENERGY PREDICTED BY IDOCK:   -4.13 KCAL/MOL
REMARK 922        TOTAL FREE ENERGY PREDICTED BY IDOCK:   -5.83 KCAL/MOL
REMARK 923 INTER-LIGAND FREE ENERGY PREDICTED BY IDOCK:   -4.97 KCAL/MOL
REMARK 924 INTRA-LIGAND FREE ENERGY PREDICTED BY IDOCK:   -0.86 KCAL/MOL
REMARK 927      BINDING AFFINITY PREDICTED BY RF-SCORE:    0.00 PKD
ROOT
HETATM    1  N   UNL     1     -11.720   5.624  72.802  1.00  0.00    -0.498 NA 
HETATM    2  H2  UNL     1     -12.558   5.760  73.368  1.00  0.00     0.000 HD 
HETATM    3  C   UNL     1     -11.579   6.724  71.954  1.00  0.00    -0.292 A  
HETATM    4  H1  UNL     1     -11.742   4.679  72.420  1.00  0.00     0.000 HD 
HETATM    5  C   UNL     1     -11.549   8.019  72.478  1.00  0.00    -0.464 A  
HETATM    6  C   UNL     1     -11.315   9.124  71.654  1.00  0.00    -0.446 A  
HETATM    7  C   UNL     1     -11.056   8.922  70.298  1.00  0.00    -0.228 A  
HETATM    8  C   UNL     1     -11.011   7.629  69.770  1.00  0.00    -0.178 A  
HETATM    9  C   UNL     1     -11.251   6.534  70.607  1.00  0.00    -0.386 A  
ENDROOT
BRANCH   7  10
HETATM   10  S   UNL     1     -10.882  10.330  69.210  1.00  0.00    -0.253 S  
HETATM   11  O   UNL     1     -11.021   9.803  67.869  1.00  0.00    -0.262 OA 
HETATM   12  O   UNL     1     -11.798  11.342  69.693  1.00  0.00    -0.301 OA 
BRANCH  10  13
HETATM   13  N   UNL     1      -9.328  10.765  69.464  1.00  0.00    -0.414 N  
HETATM   14  H   UNL     1      -9.116  11.751  69.617  1.00  0.00     0.000 HD 
BRANCH  13  15
HETATM   15  C   UNL     1      -8.285   9.850  69.480  1.00  0.00    -0.158 A  
HETATM   16  C   UNL     1      -7.670   9.457  70.649  1.00  0.00    -0.172 A  
HETATM   17  C   UNL     1      -6.757   8.469  70.262  1.00  0.00    -0.039 A  
HETATM   18  N   UNL     1      -6.792   8.228  68.955  1.00  0.00    -0.055 NA 
HETATM   19  N   UNL     1      -7.711   9.101  68.445  1.00  0.00    -0.093 NA 
BRANCH  19  20
HETATM   20  C   UNL     1      -7.969   9.094  67.041  1.00  0.00    -0.102 A  
HETATM   21  C   UNL     1      -8.243   7.873  66.399  1.00  0.00    -0.121 A  
HETATM   22  C   UNL     1      -8.455   7.822  65.018  1.00  0.00    -0.052 A  
HETATM   23  C   UNL     1      -8.384   8.984  64.258  1.00  0.00    -0.179 A  
HETATM   24  C   UNL     1      -8.131  10.200  64.882  1.00  0.00    -0.153 A  
HETATM   25  C   UNL     1      -7.947  10.258  66.267  1.00  0.00    -0.124 A  
ENDBRANCH  19  20
ENDBRANCH  13  15
ENDBRANCH  10  13
ENDBRANCH   7  10
TORSDOF 4
ENDMDL
MODEL      234
REMARK 921   NORMALIZED FREE ENERGY PREDICTED BY IDOCK:   -4.12 KCAL/MOL
REMARK 922        TOTAL FREE ENERGY PREDICTED BY IDOCK:   -5.82 KCAL/MOL
REMARK 923 INTER-LIGAND FREE ENERGY PREDICTED BY IDOCK:   -5.00 KCAL/MOL
REMARK 924 INTRA-LIGAND FREE ENERGY PREDICTED BY IDOCK:   -0.83 KCAL/MOL
REMARK 927      BINDING AFFINITY PREDICTED BY RF-SCORE:    0.00 PKD
ROOT
HETATM    1  N   UNL     1      -6.428   9.147  68.166  1.00  0.00    -0.058 NA 
HETATM    2  H2  UNL     1      -6.713   8.284  67.704  1.00  0.00     0.000 HD 
HETATM    3  C   UNL     1      -7.529  10.005  68.211  1.00  0.00    -0.079 A  
HETATM    4  H1  UNL     1      -5.550   9.459  67.751  1.00  0.00     0.000 HD 
HETATM    5  C   UNL     1      -8.733   9.578  68.780  1.00  0.00    -0.128 A  
HETATM    6  C   UNL     1      -9.814  10.453  68.917  1.00  0.00    -0.206 A  
HETATM    7  C   UNL     1      -9.669  11.785  68.529  1.00  0.00    -0.178 A  
HETATM    8  C   UNL     1      -8.451  12.248  68.025  1.00  0.00    -0.171 A  
HETATM    9  C   UNL     1      -7.378  11.359  67.890  1.00  0.00    -0.093 A  
ENDROOT
BRANCH   7  10
HETATM   10  S   UNL     1     -11.080  12.881  68.579  1.00  0.00    -0.283 S  
HETATM   11  O   UNL     1     -11.936  12.366  69.627  1.00  0.00    -0.304 OA 
HETATM   12  O   UNL     1     -10.556  14.228  68.664  1.00  0.00    -0.238 OA 
BRANCH  10  13
HETATM   13  N   UNL     1     -11.775  12.606  67.126  1.00  0.00    -0.366 N  
HETATM   14  H   UNL     1     -12.788  12.491  67.083  1.00  0.00     0.000 HD 
BRANCH  13  15
HETATM   15  C   UNL     1     -11.046  12.521  65.948  1.00  0.00    -0.299 A  
HETATM   16  C   UNL     1     -10.922  11.344  65.244  1.00  0.00    -0.251 A  
HETATM   17  C   UNL     1     -10.212  11.688  64.087  1.00  0.00    -0.326 A  
HETATM   18  N   UNL     1      -9.919  12.984  64.038  1.00  0.00    -0.235 NA 
HETATM   19  N   UNL     1     -10.398  13.514  65.202  1.00  0.00    -0.347 NA 
BRANCH  19  20
HETATM   20  C   UNL     1     -10.224  14.909  65.453  1.00  0.00    -0.379 A  
HETATM   21  C   UNL     1      -9.046  15.351  66.082  1.00  0.00    -0.339 A  
HETATM   22  C   UNL     1      -8.862  16.703  66.385  1.00  0.00    -0.337 A  
HETATM   23  C   UNL     1      -9.852  17.630  66.078  1.00  0.00    -0.184 A  
HETATM   24  C   UNL     1     -11.013  17.208  65.440  1.00  0.00     0.034 A  
HETATM   25  C   UNL     1     -11.188  15.860  65.110  1.00  0.00    -0.228 A  
ENDBRANCH  19  20
ENDBRANCH  13  15
ENDBRANCH  10  13
ENDBRANCH   7  10
TORSDOF 4
ENDMDL
MODEL      235
REMARK 921   NORMALIZED FREE ENERGY PREDICTED BY IDOCK:   -4.11 KCAL/MOL
REMARK 922        TOTAL FREE ENERGY PREDICTED BY IDOCK:   -5.81 KCAL/MOL
REMARK 923 INTER-LIGAND FREE ENERGY PREDICTED BY IDOCK:   -5.73 KCAL/MOL
REMARK 924 INTRA-LIGAND FREE ENERGY PREDICTED BY IDOCK:   -0.07 KCAL/MOL
REMARK 927      BINDING AFFINITY PREDICTED BY RF-SCORE:    0.00 PKD
ROOT
HETATM    1  N   UNL     1      -5.752  10.854  70.646  1.00  0.00    -0.151 NA 
HETATM    2  H2  UNL     1      -5.309   9.967  70.408  1.00  0.00     0.000 HD 
HETATM    3  C   UNL     1      -6.943  10.958  69.925  1.00  0.00    -0.090 A  
HETATM    4  H1  UNL     1      -5.049  11.590  70.587  1.00  0.00     0.000 HD 
HETATM    5  C   UNL     1      -7.907   9.949  70.007  1.00  0.00    -0.192 A  
HETATM    6  C   UNL     1      -9.142  10.079  69.366  1.00  0.00    -0.228 A  
HETATM    7  C   UNL     1      -9.435  11.258  68.679  1.00  0.00    -0.175 A  
HETATM    8  C   UNL     1      -8.511  12.307  68.647  1.00  0.00     0.007 A  
HETATM    9  C   UNL     1      -7.277  12.159  69.290  1.00  0.00     0.097 A  
ENDROOT
BRANCH   7  10
HETATM   10  S   UNL     1     -10.956  11.388  67.749  1.00  0.00    -0.267 S  
HETATM   11  O   UNL     1     -10.655  12.258  66.632  1.00  0.00    -0.223 OA 
HETATM   12  O   UNL     1     -11.415  10.035  67.515  1.00  0.00    -0.163 OA 
BRANCH  10  13
HETATM   13  N   UNL     1     -11.930  12.172  68.800  1.00  0.00    -0.288 N  
HETATM   14  H   UNL     1     -12.209  13.129  68.586  1.00  0.00     0.000 HD 
BRANCH  13  15
HETATM   15  C   UNL     1     -12.393  11.590  69.972  1.00  0.00    -0.213 A  
HETATM   16  C   UNL     1     -12.494  10.225  70.125  1.00  0.00    -0.179 A  
HETATM   17  C   UNL     1     -12.893  10.038  71.454  1.00  0.00    -0.417 A  
HETATM   18  N   UNL     1     -13.022  11.186  72.112  1.00  0.00    -0.293 NA 
HETATM   19  N   UNL     1     -12.748  12.166  71.199  1.00  0.00    -0.322 NA 
BRANCH  19  20
HETATM   20  C   UNL     1     -12.814  13.533  71.607  1.00  0.00    -0.329 A  
HETATM   21  C   UNL     1     -11.709  14.372  71.376  1.00  0.00    -0.142 A  
HETATM   22  C   UNL     1     -11.720  15.703  71.803  1.00  0.00    -0.535 A  
HETATM   23  C   UNL     1     -12.825  16.211  72.478  1.00  0.00    -0.387 A  
HETATM   24  C   UNL     1     -13.930  15.396  72.697  1.00  0.00    -0.590 A  
HETATM   25  C   UNL     1     -13.933  14.073  72.246  1.00  0.00    -0.651 A  
ENDBRANCH  19  20
ENDBRANCH  13  15
ENDBRANCH  10  13
ENDBRANCH   7  10
TORSDOF 4
ENDMDL
MODEL      236
REMARK 921   NORMALIZED FREE ENERGY PREDICTED BY IDOCK:   -4.10 KCAL/MOL
REMARK 922        TOTAL FREE ENERGY PREDICTED BY IDOCK:   -5.79 KCAL/MOL
REMARK 923 INTER-LIGAND FREE ENERGY PREDICTED BY IDOCK:   -4.93 KCAL/MOL
REMARK 924 INTRA-LIGAND FREE ENERGY PREDICTED BY IDOCK:   -0.87 KCAL/MOL
REMARK 927      BINDING AFFINITY PREDICTED BY RF-SCORE:    0.00 PKD
ROOT
HETATM    1  N   UNL     1     -13.251  13.538  65.096  1.00  0.00    -0.644 NA 
HETATM    2  H2  UNL     1     -14.056  13.045  64.709  1.00  0.00     0.000 HD 
HETATM    3  C   UNL     1     -12.176  12.648  65.151  1.00  0.00    -0.481 A  
HETATM    4  H1  UNL     1     -13.552  14.033  65.935  1.00  0.00     0.000 HD 
HETATM    5  C   UNL     1     -11.764  11.969  64.001  1.00  0.00    -0.498 A  
HETATM    6  C   UNL     1     -10.633  11.148  64.016  1.00  0.00    -0.436 A  
HETATM    7  C   UNL     1      -9.877  11.048  65.185  1.00  0.00    -0.268 A  
HETATM    8  C   UNL     1     -10.232  11.776  66.323  1.00  0.00    -0.255 A  
HETATM    9  C   UNL     1     -11.369  12.592  66.293  1.00  0.00    -0.386 A  
ENDROOT
BRANCH   7  10
HETATM   10  S   UNL     1      -8.505   9.904  65.258  1.00  0.00    -0.160 S  
HETATM   11  O   UNL     1      -8.702   8.990  64.153  1.00  0.00    -0.181 OA 
HETATM   12  O   UNL     1      -7.301  10.705  65.335  1.00  0.00    -0.116 OA 
BRANCH  10  13
HETATM   13  N   UNL     1      -8.789   9.123  66.665  1.00  0.00    -0.126 N  
HETATM   14  H   UNL     1      -8.484   9.558  67.535  1.00  0.00     0.000 HD 
BRANCH  13  15
HETATM   15  C   UNL     1      -9.428   7.892  66.725  1.00  0.00    -0.201 A  
HETATM   16  C   UNL     1     -10.766   7.774  67.029  1.00  0.00    -0.316 A  
HETATM   17  C   UNL     1     -11.048   6.409  66.891  1.00  0.00    -0.272 A  
HETATM   18  N   UNL     1      -9.986   5.707  66.510  1.00  0.00    -0.168 NA 
HETATM   19  N   UNL     1      -8.960   6.605  66.433  1.00  0.00    -0.146 NA 
BRANCH  19  20
HETATM   20  C   UNL     1      -7.662   6.145  66.053  1.00  0.00    -0.092 A  
HETATM   21  C   UNL     1      -7.440   5.742  64.724  1.00  0.00    -0.076 A  
HETATM   22  C   UNL     1      -6.196   5.243  64.327  1.00  0.00    -0.022 A  
HETATM   23  C   UNL     1      -5.162   5.128  65.250  1.00  0.00    -0.012 A  
HETATM   24  C   UNL     1      -5.364   5.538  66.563  1.00  0.00    -0.012 A  
HETATM   25  C   UNL     1      -6.599   6.064  66.956  1.00  0.00    -0.056 A  
ENDBRANCH  19  20
ENDBRANCH  13  15
ENDBRANCH  10  13
ENDBRANCH   7  10
TORSDOF 4
ENDMDL
MODEL      237
REMARK 921   NORMALIZED FREE ENERGY PREDICTED BY IDOCK:   -4.08 KCAL/MOL
REMARK 922        TOTAL FREE ENERGY PREDICTED BY IDOCK:   -5.77 KCAL/MOL
REMARK 923 INTER-LIGAND FREE ENERGY PREDICTED BY IDOCK:   -4.91 KCAL/MOL
REMARK 924 INTRA-LIGAND FREE ENERGY PREDICTED BY IDOCK:   -0.85 KCAL/MOL
REMARK 927      BINDING AFFINITY PREDICTED BY RF-SCORE:    0.00 PKD
ROOT
HETATM    1  N   UNL     1     -11.929  11.971  67.307  1.00  0.00    -0.590 NA 
HETATM    2  H2  UNL     1     -12.821  11.481  67.252  1.00  0.00     0.000 HD 
HETATM    3  C   UNL     1     -10.946  11.055  67.689  1.00  0.00    -0.275 A  
HETATM    4  H1  UNL     1     -12.067  12.829  67.841  1.00  0.00     0.000 HD 
HETATM    5  C   UNL     1     -10.756   9.880  66.957  1.00  0.00    -0.237 A  
HETATM    6  C   UNL     1      -9.718   8.998  67.268  1.00  0.00    -0.232 A  
HETATM    7  C   UNL     1      -8.827   9.325  68.291  1.00  0.00    -0.129 A  
HETATM    8  C   UNL     1      -8.958  10.530  68.986  1.00  0.00    -0.183 A  
HETATM    9  C   UNL     1     -10.006  11.401  68.665  1.00  0.00    -0.209 A  
ENDROOT
BRANCH   7  10
HETATM   10  S   UNL     1      -7.574   8.149  68.785  1.00  0.00    -0.107 S  
HETATM   11  O   UNL     1      -7.531   7.161  67.728  1.00  0.00    -0.094 OA 
HETATM   12  O   UNL     1      -6.392   8.918  69.113  1.00  0.00    -0.042 OA 
BRANCH  10  13
HETATM   13  N   UNL     1      -8.240   7.486  70.122  1.00  0.00    -0.130 N  
HETATM   14  H   UNL     1      -7.631   7.251  70.906  1.00  0.00     0.000 HD 
BRANCH  13  15
HETATM   15  C   UNL     1      -9.599   7.227  70.235  1.00  0.00    -0.165 A  
HETATM   16  C   UNL     1     -10.404   7.901  71.126  1.00  0.00    -0.225 A  
HETATM   17  C   UNL     1     -11.698   7.435  70.868  1.00  0.00    -0.296 A  
HETATM   18  N   UNL     1     -11.731   6.548  69.879  1.00  0.00    -0.373 NA 
HETATM   19  N   UNL     1     -10.432   6.378  69.494  1.00  0.00    -0.209 NA 
BRANCH  19  20
HETATM   20  C   UNL     1     -10.134   5.462  68.439  1.00  0.00    -0.173 A  
HETATM   21  C   UNL     1     -10.619   5.725  67.145  1.00  0.00    -0.365 A  
HETATM   22  C   UNL     1     -10.386   4.828  66.099  1.00  0.00    -0.337 A  
HETATM   23  C   UNL     1      -9.681   3.652  66.331  1.00  0.00    -0.096 A  
HETATM   24  C   UNL     1      -9.182   3.389  67.602  1.00  0.00    -0.233 A  
HETATM   25  C   UNL     1      -9.389   4.298  68.643  1.00  0.00    -0.213 A  
ENDBRANCH  19  20
ENDBRANCH  13  15
ENDBRANCH  10  13
ENDBRANCH   7  10
TORSDOF 4
ENDMDL
MODEL      238
REMARK 921   NORMALIZED FREE ENERGY PREDICTED BY IDOCK:   -4.08 KCAL/MOL
REMARK 922        TOTAL FREE ENERGY PREDICTED BY IDOCK:   -5.77 KCAL/MOL
REMARK 923 INTER-LIGAND FREE ENERGY PREDICTED BY IDOCK:   -5.07 KCAL/MOL
REMARK 924 INTRA-LIGAND FREE ENERGY PREDICTED BY IDOCK:   -0.69 KCAL/MOL
REMARK 927      BINDING AFFINITY PREDICTED BY RF-SCORE:    0.00 PKD
ROOT
HETATM    1  N   UNL     1      -9.401   2.219  64.038  1.00  0.00    -0.113 NA 
HETATM    2  H2  UNL     1      -9.257   1.290  64.435  1.00  0.00     0.000 HD 
HETATM    3  C   UNL     1      -9.578   3.123  65.087  1.00  0.00    -0.076 A  
HETATM    4  H1  UNL     1     -10.100   2.147  63.299  1.00  0.00     0.000 HD 
HETATM    5  C   UNL     1      -8.620   3.222  66.101  1.00  0.00    -0.121 A  
HETATM    6  C   UNL     1      -8.734   4.185  67.107  1.00  0.00    -0.115 A  
HETATM    7  C   UNL     1      -9.792   5.094  67.067  1.00  0.00    -0.177 A  
HETATM    8  C   UNL     1     -10.719   5.057  66.022  1.00  0.00    -0.241 A  
HETATM    9  C   UNL     1     -10.593   4.084  65.023  1.00  0.00    -0.116 A  
ENDROOT
BRANCH   7  10
HETATM   10  S   UNL     1     -10.022   6.247  68.414  1.00  0.00    -0.150 S  
HETATM   11  O   UNL     1     -10.967   5.613  69.310  1.00  0.00    -0.304 OA 
HETATM   12  O   UNL     1      -8.700   6.604  68.884  1.00  0.00    -0.128 OA 
BRANCH  10  13
HETATM   13  N   UNL     1     -10.746   7.505  67.663  1.00  0.00    -0.446 N  
HETATM   14  H   UNL     1     -11.405   7.310  66.910  1.00  0.00     0.000 HD 
BRANCH  13  15
HETATM   15  C   UNL     1     -10.500   8.827  68.007  1.00  0.00    -0.204 A  
HETATM   16  C   UNL     1     -10.305   9.808  67.060  1.00  0.00    -0.305 A  
HETATM   17  C   UNL     1     -10.193  10.997  67.790  1.00  0.00    -0.183 A  
HETATM   18  N   UNL     1     -10.324  10.805  69.099  1.00  0.00    -0.214 NA 
HETATM   19  N   UNL     1     -10.482   9.457  69.258  1.00  0.00    -0.213 NA 
BRANCH  19  20
HETATM   20  C   UNL     1     -10.640   8.927  70.575  1.00  0.00    -0.220 A  
HETATM   21  C   UNL     1      -9.512   8.807  71.406  1.00  0.00    -0.330 A  
HETATM   22  C   UNL     1      -9.620   8.250  72.683  1.00  0.00    -0.352 A  
HETATM   23  C   UNL     1     -10.851   7.794  73.144  1.00  0.00    -0.401 A  
HETATM   24  C   UNL     1     -11.977   7.923  72.339  1.00  0.00    -0.373 A  
HETATM   25  C   UNL     1     -11.876   8.506  71.072  1.00  0.00    -0.290 A  
ENDBRANCH  19  20
ENDBRANCH  13  15
ENDBRANCH  10  13
ENDBRANCH   7  10
TORSDOF 4
ENDMDL
MODEL      239
REMARK 921   NORMALIZED FREE ENERGY PREDICTED BY IDOCK:   -4.07 KCAL/MOL
REMARK 922        TOTAL FREE ENERGY PREDICTED BY IDOCK:   -5.75 KCAL/MOL
REMARK 923 INTER-LIGAND FREE ENERGY PREDICTED BY IDOCK:   -5.25 KCAL/MOL
REMARK 924 INTRA-LIGAND FREE ENERGY PREDICTED BY IDOCK:   -0.50 KCAL/MOL
REMARK 927      BINDING AFFINITY PREDICTED BY RF-SCORE:    0.00 PKD
ROOT
HETATM    1  N   UNL     1      -8.532   7.188  64.022  1.00  0.00    -0.341 NA 
HETATM    2  H2  UNL     1      -9.406   6.752  64.315  1.00  0.00     0.000 HD 
HETATM    3  C   UNL     1      -8.354   8.359  64.762  1.00  0.00    -0.141 A  
HETATM    4  H1  UNL     1      -8.514   7.216  63.003  1.00  0.00     0.000 HD 
HETATM    5  C   UNL     1      -8.379   8.320  66.159  1.00  0.00    -0.125 A  
HETATM    6  C   UNL     1      -8.110   9.464  66.916  1.00  0.00    -0.109 A  
HETATM    7  C   UNL     1      -7.762  10.648  66.264  1.00  0.00    -0.143 A  
HETATM    8  C   UNL     1      -7.662  10.687  64.871  1.00  0.00     0.067 A  
HETATM    9  C   UNL     1      -7.937   9.534  64.127  1.00  0.00    -0.137 A  
ENDROOT
BRANCH   7  10
HETATM   10  S   UNL     1      -7.542  12.149  67.211  1.00  0.00    -0.142 S  
HETATM   11  O   UNL     1      -7.888  11.803  68.573  1.00  0.00    -0.137 OA 
HETATM   12  O   UNL     1      -6.218  12.645  66.898  1.00  0.00    -0.203 OA 
BRANCH  10  13
HETATM   13  N   UNL     1      -8.701  13.116  66.586  1.00  0.00    -0.426 N  
HETATM   14  H   UNL     1      -8.474  13.685  65.770  1.00  0.00     0.000 HD 
BRANCH  13  15
HETATM   15  C   UNL     1      -9.980  13.197  67.118  1.00  0.00    -0.236 A  
HETATM   16  C   UNL     1     -10.732  12.077  67.397  1.00  0.00    -0.266 A  
HETATM   17  C   UNL     1     -11.895  12.565  68.005  1.00  0.00    -0.325 A  
HETATM   18  N   UNL     1     -11.887  13.889  68.127  1.00  0.00    -0.358 NA 
HETATM   19  N   UNL     1     -10.720  14.305  67.552  1.00  0.00    -0.268 NA 
BRANCH  19  20
HETATM   20  C   UNL     1     -10.423  15.701  67.516  1.00  0.00    -0.285 A  
HETATM   21  C   UNL     1     -10.184  16.383  68.723  1.00  0.00    -0.258 A  
HETATM   22  C   UNL     1      -9.936  17.758  68.730  1.00  0.00    -0.367 A  
HETATM   23  C   UNL     1      -9.935  18.474  67.538  1.00  0.00    -0.354 A  
HETATM   24  C   UNL     1     -10.152  17.809  66.337  1.00  0.00    -0.357 A  
HETATM   25  C   UNL     1     -10.373  16.428  66.324  1.00  0.00    -0.337 A  
ENDBRANCH  19  20
ENDBRANCH  13  15
ENDBRANCH  10  13
ENDBRANCH   7  10
TORSDOF 4
ENDMDL
MODEL      240
REMARK 921   NORMALIZED FREE ENERGY PREDICTED BY IDOCK:   -4.03 KCAL/MOL
REMARK 922        TOTAL FREE ENERGY PREDICTED BY IDOCK:   -5.71 KCAL/MOL
REMARK 923 INTER-LIGAND FREE ENERGY PREDICTED BY IDOCK:   -4.98 KCAL/MOL
REMARK 924 INTRA-LIGAND FREE ENERGY PREDICTED BY IDOCK:   -0.73 KCAL/MOL
REMARK 927      BINDING AFFINITY PREDICTED BY RF-SCORE:    0.00 PKD
ROOT
HETATM    1  N   UNL     1      -8.950   4.686  63.313  1.00  0.00    -0.201 NA 
HETATM    2  H2  UNL     1      -7.973   4.525  63.069  1.00  0.00     0.000 HD 
HETATM    3  C   UNL     1      -9.002   5.170  64.622  1.00  0.00    -0.030 A  
HETATM    4  H1  UNL     1      -9.487   3.860  63.049  1.00  0.00     0.000 HD 
HETATM    5  C   UNL     1      -8.266   6.302  64.984  1.00  0.00    -0.132 A  
HETATM    6  C   UNL     1      -8.378   6.855  66.263  1.00  0.00    -0.126 A  
HETATM    7  C   UNL     1      -9.278   6.297  67.172  1.00  0.00    -0.122 A  
HETATM    8  C   UNL     1     -10.075   5.210  66.803  1.00  0.00    -0.264 A  
HETATM    9  C   UNL     1      -9.948   4.666  65.520  1.00  0.00    -0.201 A  
ENDROOT
BRANCH   7  10
HETATM   10  S   UNL     1      -9.339   6.912  68.849  1.00  0.00    -0.133 S  
HETATM   11  O   UNL     1      -9.360   5.736  69.693  1.00  0.00    -0.135 OA 
HETATM   12  O   UNL     1      -8.270   7.881  68.975  1.00  0.00    -0.122 OA 
BRANCH  10  13
HETATM   13  N   UNL     1     -10.803   7.636  68.892  1.00  0.00    -0.414 N  
HETATM   14  H   UNL     1     -11.519   7.330  68.232  1.00  0.00     0.000 HD 
BRANCH  13  15
HETATM   15  C   UNL     1     -11.114   8.650  69.787  1.00  0.00    -0.067 A  
HETATM   16  C   UNL     1     -11.359   9.942  69.377  1.00  0.00    -0.143 A  
HETATM   17  C   UNL     1     -11.729  10.627  70.541  1.00  0.00    -0.356 A  
HETATM   18  N   UNL     1     -11.742   9.838  71.611  1.00  0.00    -0.373 NA 
HETATM   19  N   UNL     1     -11.330   8.613  71.170  1.00  0.00    -0.264 NA 
BRANCH  19  20
HETATM   20  C   UNL     1     -11.228   7.537  72.104  1.00  0.00    -0.270 A  
HETATM   21  C   UNL     1     -10.342   7.653  73.190  1.00  0.00    -0.411 A  
HETATM   22  C   UNL     1     -10.181   6.602  74.098  1.00  0.00    -0.390 A  
HETATM   23  C   UNL     1     -10.892   5.419  73.928  1.00  0.00    -0.228 A  
HETATM   24  C   UNL     1     -11.784   5.298  72.869  1.00  0.00    -0.228 A  
HETATM   25  C   UNL     1     -11.967   6.358  71.976  1.00  0.00    -0.375 A  
ENDBRANCH  19  20
ENDBRANCH  13  15
ENDBRANCH  10  13
ENDBRANCH   7  10
TORSDOF 4
ENDMDL
MODEL      241
REMARK 921   NORMALIZED FREE ENERGY PREDICTED BY IDOCK:   -4.03 KCAL/MOL
REMARK 922        TOTAL FREE ENERGY PREDICTED BY IDOCK:   -5.71 KCAL/MOL
REMARK 923 INTER-LIGAND FREE ENERGY PREDICTED BY IDOCK:   -4.47 KCAL/MOL
REMARK 924 INTRA-LIGAND FREE ENERGY PREDICTED BY IDOCK:   -1.23 KCAL/MOL
REMARK 927      BINDING AFFINITY PREDICTED BY RF-SCORE:    0.00 PKD
ROOT
HETATM    1  N   UNL     1     -11.439  13.607  68.030  1.00  0.00    -0.291 NA 
HETATM    2  H2  UNL     1     -11.210  13.755  67.047  1.00  0.00     0.000 HD 
HETATM    3  C   UNL     1     -10.782  12.455  68.467  1.00  0.00    -0.238 A  
HETATM    4  H1  UNL     1     -12.449  13.697  68.141  1.00  0.00     0.000 HD 
HETATM    5  C   UNL     1      -9.398  12.332  68.315  1.00  0.00    -0.199 A  
HETATM    6  C   UNL     1      -8.712  11.228  68.829  1.00  0.00    -0.105 A  
HETATM    7  C   UNL     1      -9.415  10.262  69.550  1.00  0.00    -0.185 A  
HETATM    8  C   UNL     1     -10.787  10.404  69.774  1.00  0.00    -0.342 A  
HETATM    9  C   UNL     1     -11.460  11.514  69.249  1.00  0.00    -0.370 A  
ENDROOT
BRANCH   7  10
HETATM   10  S   UNL     1      -8.577   8.783  70.102  1.00  0.00    -0.159 S  
HETATM   11  O   UNL     1      -7.769   9.193  71.231  1.00  0.00    -0.266 OA 
HETATM   12  O   UNL     1      -9.594   7.766  70.265  1.00  0.00    -0.174 OA 
BRANCH  10  13
HETATM   13  N   UNL     1      -7.604   8.451  68.832  1.00  0.00    -0.095 N  
HETATM   14  H   UNL     1      -6.803   9.057  68.659  1.00  0.00     0.000 HD 
BRANCH  13  15
HETATM   15  C   UNL     1      -7.823   7.379  67.978  1.00  0.00    -0.118 A  
HETATM   16  C   UNL     1      -7.589   6.076  68.360  1.00  0.00    -0.091 A  
HETATM   17  C   UNL     1      -8.020   5.299  67.278  1.00  0.00    -0.101 A  
HETATM   18  N   UNL     1      -8.511   6.037  66.286  1.00  0.00    -0.125 NA 
HETATM   19  N   UNL     1      -8.366   7.335  66.688  1.00  0.00    -0.117 NA 
BRANCH  19  20
HETATM   20  C   UNL     1      -8.798   8.382  65.818  1.00  0.00    -0.165 A  
HETATM   21  C   UNL     1      -8.060   8.654  64.652  1.00  0.00    -0.156 A  
HETATM   22  C   UNL     1      -8.426   9.701  63.802  1.00  0.00    -0.190 A  
HETATM   23  C   UNL     1      -9.523  10.499  64.109  1.00  0.00    -0.342 A  
HETATM   24  C   UNL     1     -10.271  10.230  65.250  1.00  0.00    -0.308 A  
HETATM   25  C   UNL     1      -9.923   9.165  66.087  1.00  0.00    -0.338 A  
ENDBRANCH  19  20
ENDBRANCH  13  15
ENDBRANCH  10  13
ENDBRANCH   7  10
TORSDOF 4
ENDMDL
MODEL      242
REMARK 921   NORMALIZED FREE ENERGY PREDICTED BY IDOCK:   -3.99 KCAL/MOL
REMARK 922        TOTAL FREE ENERGY PREDICTED BY IDOCK:   -5.66 KCAL/MOL
REMARK 923 INTER-LIGAND FREE ENERGY PREDICTED BY IDOCK:   -5.35 KCAL/MOL
REMARK 924 INTRA-LIGAND FREE ENERGY PREDICTED BY IDOCK:   -0.31 KCAL/MOL
REMARK 927      BINDING AFFINITY PREDICTED BY RF-SCORE:    0.00 PKD
ROOT
HETATM    1  N   UNL     1      -8.245   8.962  68.588  1.00  0.00    -0.115 NA 
HETATM    2  H2  UNL     1      -8.926   8.237  68.813  1.00  0.00     0.000 HD 
HETATM    3  C   UNL     1      -8.905   9.992  67.915  1.00  0.00    -0.125 A  
HETATM    4  H1  UNL     1      -7.428   8.516  68.172  1.00  0.00     0.000 HD 
HETATM    5  C   UNL     1     -10.025  10.603  68.486  1.00  0.00    -0.176 A  
HETATM    6  C   UNL     1     -10.641  11.696  67.871  1.00  0.00    -0.225 A  
HETATM    7  C   UNL     1     -10.096  12.215  66.696  1.00  0.00    -0.199 A  
HETATM    8  C   UNL     1      -8.935  11.663  66.149  1.00  0.00    -0.180 A  
HETATM    9  C   UNL     1      -8.332  10.566  66.775  1.00  0.00    -0.128 A  
ENDROOT
BRANCH   7  10
HETATM   10  S   UNL     1     -10.945  13.529  65.829  1.00  0.00    -0.280 S  
HETATM   11  O   UNL     1     -10.589  13.368  64.436  1.00  0.00    -0.411 OA 
HETATM   12  O   UNL     1     -12.333  13.466  66.239  1.00  0.00    -0.401 OA 
BRANCH  10  13
HETATM   13  N   UNL     1     -10.210  14.860  66.428  1.00  0.00    -0.274 N  
HETATM   14  H   UNL     1     -10.448  15.769  66.031  1.00  0.00     0.000 HD 
BRANCH  13  15
HETATM   15  C   UNL     1      -9.276  14.805  67.452  1.00  0.00    -0.196 A  
HETATM   16  C   UNL     1      -7.921  14.738  67.208  1.00  0.00    -0.232 A  
HETATM   17  C   UNL     1      -7.323  14.802  68.473  1.00  0.00    -0.118 A  
HETATM   18  N   UNL     1      -8.215  14.920  69.452  1.00  0.00    -0.131 NA 
HETATM   19  N   UNL     1      -9.437  14.890  68.841  1.00  0.00    -0.209 NA 
BRANCH  19  20
HETATM   20  C   UNL     1     -10.615  14.987  69.642  1.00  0.00    -0.238 A  
HETATM   21  C   UNL     1     -10.784  16.101  70.483  1.00  0.00    -0.078 A  
HETATM   22  C   UNL     1     -11.902  16.207  71.315  1.00  0.00    -0.458 A  
HETATM   23  C   UNL     1     -12.859  15.198  71.330  1.00  0.00    -0.457 A  
HETATM   24  C   UNL     1     -12.713  14.099  70.491  1.00  0.00    -0.374 A  
HETATM   25  C   UNL     1     -11.610  14.005  69.637  1.00  0.00    -0.348 A  
ENDBRANCH  19  20
ENDBRANCH  13  15
ENDBRANCH  10  13
ENDBRANCH   7  10
TORSDOF 4
ENDMDL
MODEL      243
REMARK 921   NORMALIZED FREE ENERGY PREDICTED BY IDOCK:   -3.99 KCAL/MOL
REMARK 922        TOTAL FREE ENERGY PREDICTED BY IDOCK:   -5.66 KCAL/MOL
REMARK 923 INTER-LIGAND FREE ENERGY PREDICTED BY IDOCK:   -5.36 KCAL/MOL
REMARK 924 INTRA-LIGAND FREE ENERGY PREDICTED BY IDOCK:   -0.30 KCAL/MOL
REMARK 927      BINDING AFFINITY PREDICTED BY RF-SCORE:    0.00 PKD
ROOT
HETATM    1  N   UNL     1     -12.016  11.400  70.392  1.00  0.00    -0.362 NA 
HETATM    2  H2  UNL     1     -11.221  10.851  70.718  1.00  0.00     0.000 HD 
HETATM    3  C   UNL     1     -11.620  12.119  69.262  1.00  0.00    -0.318 A  
HETATM    4  H1  UNL     1     -12.423  11.884  71.192  1.00  0.00     0.000 HD 
HETATM    5  C   UNL     1     -11.064  11.455  68.164  1.00  0.00    -0.306 A  
HETATM    6  C   UNL     1     -10.748  12.146  66.991  1.00  0.00    -0.272 A  
HETATM    7  C   UNL     1     -11.042  13.506  66.898  1.00  0.00    -0.296 A  
HETATM    8  C   UNL     1     -11.665  14.170  67.958  1.00  0.00    -0.394 A  
HETATM    9  C   UNL     1     -11.971  13.466  69.128  1.00  0.00    -0.363 A  
ENDROOT
BRANCH   7  10
HETATM   10  S   UNL     1     -10.528  14.428  65.455  1.00  0.00    -0.398 S  
HETATM   11  O   UNL     1     -10.587  13.490  64.354  1.00  0.00    -0.419 OA 
HETATM   12  O   UNL     1     -11.328  15.635  65.428  1.00  0.00    -0.221 OA 
BRANCH  10  13
HETATM   13  N   UNL     1      -8.967  14.759  65.803  1.00  0.00    -0.316 N  
HETATM   14  H   UNL     1      -8.251  14.089  65.522  1.00  0.00     0.000 HD 
BRANCH  13  15
HETATM   15  C   UNL     1      -8.574  15.914  66.465  1.00  0.00    -0.310 A  
HETATM   16  C   UNL     1      -9.066  17.157  66.130  1.00  0.00    -0.214 A  
HETATM   17  C   UNL     1      -8.516  18.030  67.077  1.00  0.00    -0.237 A  
HETATM   18  N   UNL     1      -7.748  17.402  67.962  1.00  0.00    -0.196 NA 
HETATM   19  N   UNL     1      -7.743  16.090  67.579  1.00  0.00    -0.141 NA 
BRANCH  19  20
HETATM   20  C   UNL     1      -6.985  15.148  68.339  1.00  0.00    -0.108 A  
HETATM   21  C   UNL     1      -7.275  14.976  69.704  1.00  0.00    -0.192 A  
HETATM   22  C   UNL     1      -6.524  14.097  70.490  1.00  0.00    -0.005 A  
HETATM   23  C   UNL     1      -5.466  13.390  69.929  1.00  0.00    -0.099 A  
HETATM   24  C   UNL     1      -5.179  13.538  68.577  1.00  0.00    -0.084 A  
HETATM   25  C   UNL     1      -5.948  14.395  67.783  1.00  0.00    -0.111 A  
ENDBRANCH  19  20
ENDBRANCH  13  15
ENDBRANCH  10  13
ENDBRANCH   7  10
TORSDOF 4
ENDMDL
MODEL      244
REMARK 921   NORMALIZED FREE ENERGY PREDICTED BY IDOCK:   -3.99 KCAL/MOL
REMARK 922        TOTAL FREE ENERGY PREDICTED BY IDOCK:   -5.66 KCAL/MOL
REMARK 923 INTER-LIGAND FREE ENERGY PREDICTED BY IDOCK:   -4.84 KCAL/MOL
REMARK 924 INTRA-LIGAND FREE ENERGY PREDICTED BY IDOCK:   -0.82 KCAL/MOL
REMARK 927      BINDING AFFINITY PREDICTED BY RF-SCORE:    0.00 PKD
ROOT
HETATM    1  N   UNL     1     -13.310  13.891  65.251  1.00  0.00    -0.586 NA 
HETATM    2  H2  UNL     1     -13.995  13.367  64.706  1.00  0.00     0.000 HD 
HETATM    3  C   UNL     1     -12.375  12.991  65.766  1.00  0.00    -0.416 A  
HETATM    4  H1  UNL     1     -13.812  14.524  65.873  1.00  0.00     0.000 HD 
HETATM    5  C   UNL     1     -11.687  12.124  64.912  1.00  0.00    -0.373 A  
HETATM    6  C   UNL     1     -10.683  11.282  65.398  1.00  0.00    -0.291 A  
HETATM    7  C   UNL     1     -10.328  11.349  66.746  1.00  0.00    -0.234 A  
HETATM    8  C   UNL     1     -10.955  12.261  67.600  1.00  0.00    -0.287 A  
HETATM    9  C   UNL     1     -11.961  13.094  67.098  1.00  0.00    -0.397 A  
ENDROOT
BRANCH   7  10
HETATM   10  S   UNL     1      -9.137  10.191  67.408  1.00  0.00    -0.137 S  
HETATM   11  O   UNL     1      -9.743   8.885  67.263  1.00  0.00    -0.161 OA 
HETATM   12  O   UNL     1      -7.873  10.484  66.764  1.00  0.00    -0.113 OA 
BRANCH  10  13
HETATM   13  N   UNL     1      -9.106  10.603  68.989  1.00  0.00    -0.226 N  
HETATM   14  H   UNL     1      -8.704  11.503  69.251  1.00  0.00     0.000 HD 
BRANCH  13  15
HETATM   15  C   UNL     1      -9.604   9.780  69.989  1.00  0.00    -0.241 A  
HETATM   16  C   UNL     1     -10.813  10.021  70.605  1.00  0.00    -0.367 A  
HETATM   17  C   UNL     1     -11.003   8.933  71.465  1.00  0.00    -0.328 A  
HETATM   18  N   UNL     1     -10.010   8.052  71.397  1.00  0.00    -0.174 NA 
HETATM   19  N   UNL     1      -9.113   8.576  70.510  1.00  0.00    -0.148 NA 
BRANCH  19  20
HETATM   20  C   UNL     1      -7.913   7.855  70.228  1.00  0.00    -0.102 A  
HETATM   21  C   UNL     1      -8.002   6.528  69.770  1.00  0.00    -0.120 A  
HETATM   22  C   UNL     1      -6.848   5.777  69.528  1.00  0.00    -0.061 A  
HETATM   23  C   UNL     1      -5.593   6.333  69.752  1.00  0.00    -0.014 A  
HETATM   24  C   UNL     1      -5.492   7.648  70.188  1.00  0.00    -0.023 A  
HETATM   25  C   UNL     1      -6.643   8.411  70.404  1.00  0.00    -0.036 A  
ENDBRANCH  19  20
ENDBRANCH  13  15
ENDBRANCH  10  13
ENDBRANCH   7  10
TORSDOF 4
ENDMDL
MODEL      245
REMARK 921   NORMALIZED FREE ENERGY PREDICTED BY IDOCK:   -3.98 KCAL/MOL
REMARK 922        TOTAL FREE ENERGY PREDICTED BY IDOCK:   -5.65 KCAL/MOL
REMARK 923 INTER-LIGAND FREE ENERGY PREDICTED BY IDOCK:   -3.59 KCAL/MOL
REMARK 924 INTRA-LIGAND FREE ENERGY PREDICTED BY IDOCK:   -2.06 KCAL/MOL
REMARK 927      BINDING AFFINITY PREDICTED BY RF-SCORE:    0.00 PKD
ROOT
HETATM    1  N   UNL     1      -6.170   4.149  66.294  1.00  0.00    -0.031 NA 
HETATM    2  H2  UNL     1      -6.882   4.326  65.585  1.00  0.00     0.000 HD 
HETATM    3  C   UNL     1      -6.751   4.318  67.552  1.00  0.00    -0.047 A  
HETATM    4  H1  UNL     1      -5.330   4.668  66.040  1.00  0.00     0.000 HD 
HETATM    5  C   UNL     1      -7.902   3.606  67.899  1.00  0.00    -0.069 A  
HETATM    6  C   UNL     1      -8.442   3.693  69.185  1.00  0.00    -0.098 A  
HETATM    7  C   UNL     1      -7.790   4.461  70.150  1.00  0.00    -0.056 A  
HETATM    8  C   UNL     1      -6.598   5.123  69.842  1.00  0.00    -0.036 A  
HETATM    9  C   UNL     1      -6.072   5.029  68.548  1.00  0.00    -0.030 A  
ENDROOT
BRANCH   7  10
HETATM   10  S   UNL     1      -8.537   4.685  71.759  1.00  0.00    -0.123 S  
HETATM   11  O   UNL     1      -8.160   3.518  72.527  1.00  0.00    -0.073 OA 
HETATM   12  O   UNL     1      -8.159   6.008  72.210  1.00  0.00    -0.109 OA 
BRANCH  10  13
HETATM   13  N   UNL     1     -10.130   4.611  71.406  1.00  0.00    -0.193 N  
HETATM   14  H   UNL     1     -10.552   3.697  71.239  1.00  0.00     0.000 HD 
BRANCH  13  15
HETATM   15  C   UNL     1     -10.934   5.739  71.323  1.00  0.00    -0.230 A  
HETATM   16  C   UNL     1     -11.745   6.141  72.362  1.00  0.00    -0.319 A  
HETATM   17  C   UNL     1     -12.305   7.352  71.935  1.00  0.00    -0.310 A  
HETATM   18  N   UNL     1     -11.877   7.713  70.730  1.00  0.00    -0.250 NA 
HETATM   19  N   UNL     1     -11.050   6.707  70.317  1.00  0.00    -0.298 NA 
BRANCH  19  20
HETATM   20  C   UNL     1     -10.431   6.800  69.033  1.00  0.00    -0.206 A  
HETATM   21  C   UNL     1     -10.993   6.101  67.949  1.00  0.00    -0.399 A  
HETATM   22  C   UNL     1     -10.389   6.131  66.689  1.00  0.00    -0.249 A  
HETATM   23  C   UNL     1      -9.211   6.846  66.495  1.00  0.00    -0.195 A  
HETATM   24  C   UNL     1      -8.656   7.554  67.554  1.00  0.00    -0.122 A  
HETATM   25  C   UNL     1      -9.274   7.549  68.809  1.00  0.00    -0.145 A  
ENDBRANCH  19  20
ENDBRANCH  13  15
ENDBRANCH  10  13
ENDBRANCH   7  10
TORSDOF 4
ENDMDL
MODEL      246
REMARK 921   NORMALIZED FREE ENERGY PREDICTED BY IDOCK:   -3.95 KCAL/MOL
REMARK 922        TOTAL FREE ENERGY PREDICTED BY IDOCK:   -5.60 KCAL/MOL
REMARK 923 INTER-LIGAND FREE ENERGY PREDICTED BY IDOCK:   -4.71 KCAL/MOL
REMARK 924 INTRA-LIGAND FREE ENERGY PREDICTED BY IDOCK:   -0.89 KCAL/MOL
REMARK 927      BINDING AFFINITY PREDICTED BY RF-SCORE:    0.00 PKD
ROOT
HETATM    1  N   UNL     1     -14.183   8.992  73.041  1.00  0.00    -1.154 NA 
HETATM    2  H2  UNL     1     -14.878   9.184  72.319  1.00  0.00     0.000 HD 
HETATM    3  C   UNL     1     -12.943   8.817  72.422  1.00  0.00    -0.383 A  
HETATM    4  H1  UNL     1     -14.555   8.272  73.660  1.00  0.00     0.000 HD 
HETATM    5  C   UNL     1     -12.434   9.804  71.574  1.00  0.00    -0.495 A  
HETATM    6  C   UNL     1     -11.155   9.688  71.021  1.00  0.00    -0.438 A  
HETATM    7  C   UNL     1     -10.358   8.595  71.365  1.00  0.00    -0.261 A  
HETATM    8  C   UNL     1     -10.824   7.636  72.268  1.00  0.00    -0.318 A  
HETATM    9  C   UNL     1     -12.107   7.764  72.811  1.00  0.00    -0.103 A  
ENDROOT
BRANCH   7  10
HETATM   10  S   UNL     1      -8.775   8.367  70.567  1.00  0.00    -0.155 S  
HETATM   11  O   UNL     1      -7.968   9.498  70.975  1.00  0.00    -0.321 OA 
HETATM   12  O   UNL     1      -8.347   7.018  70.875  1.00  0.00    -0.126 OA 
BRANCH  10  13
HETATM   13  N   UNL     1      -9.165   8.519  68.988  1.00  0.00    -0.146 N  
HETATM   14  H   UNL     1      -8.985   9.409  68.524  1.00  0.00     0.000 HD 
BRANCH  13  15
HETATM   15  C   UNL     1      -9.732   7.488  68.252  1.00  0.00    -0.155 A  
HETATM   16  C   UNL     1     -11.067   7.478  67.909  1.00  0.00     0.117 A  
HETATM   17  C   UNL     1     -11.222   6.347  67.098  1.00  0.00    -0.213 A  
HETATM   18  N   UNL     1     -10.080   5.692  66.915  1.00  0.00    -0.172 NA 
HETATM   19  N   UNL     1      -9.148   6.365  67.651  1.00  0.00    -0.116 NA 
BRANCH  19  20
HETATM   20  C   UNL     1      -7.801   5.891  67.668  1.00  0.00    -0.098 A  
HETATM   21  C   UNL     1      -6.838   6.531  66.867  1.00  0.00    -0.066 A  
HETATM   22  C   UNL     1      -5.521   6.066  66.822  1.00  0.00    -0.009 A  
HETATM   23  C   UNL     1      -5.149   4.949  67.563  1.00  0.00    -0.007 A  
HETATM   24  C   UNL     1      -6.087   4.317  68.371  1.00  0.00    -0.031 A  
HETATM   25  C   UNL     1      -7.399   4.798  68.440  1.00  0.00    -0.065 A  
ENDBRANCH  19  20
ENDBRANCH  13  15
ENDBRANCH  10  13
ENDBRANCH   7  10
TORSDOF 4
ENDMDL
MODEL      247
REMARK 921   NORMALIZED FREE ENERGY PREDICTED BY IDOCK:   -3.94 KCAL/MOL
REMARK 922        TOTAL FREE ENERGY PREDICTED BY IDOCK:   -5.60 KCAL/MOL
REMARK 923 INTER-LIGAND FREE ENERGY PREDICTED BY IDOCK:   -3.99 KCAL/MOL
REMARK 924 INTRA-LIGAND FREE ENERGY PREDICTED BY IDOCK:   -1.61 KCAL/MOL
REMARK 927      BINDING AFFINITY PREDICTED BY RF-SCORE:    0.00 PKD
ROOT
HETATM    1  N   UNL     1     -11.828  12.599  70.149  1.00  0.00    -0.510 NA 
HETATM    2  H2  UNL     1     -11.205  12.893  70.902  1.00  0.00     0.000 HD 
HETATM    3  C   UNL     1     -11.473  11.304  69.765  1.00  0.00    -0.310 A  
HETATM    4  H1  UNL     1     -11.870  13.347  69.457  1.00  0.00     0.000 HD 
HETATM    5  C   UNL     1     -11.416  10.279  70.714  1.00  0.00    -0.438 A  
HETATM    6  C   UNL     1     -11.155   8.960  70.333  1.00  0.00    -0.270 A  
HETATM    7  C   UNL     1     -11.001   8.657  68.980  1.00  0.00     0.090 A  
HETATM    8  C   UNL     1     -11.127   9.656  68.011  1.00  0.00    -0.108 A  
HETATM    9  C   UNL     1     -11.385  10.973  68.409  1.00  0.00    -0.363 A  
ENDROOT
BRANCH   7  10
HETATM   10  S   UNL     1     -10.540   7.001  68.489  1.00  0.00    -0.183 S  
HETATM   11  O   UNL     1     -11.308   6.116  69.338  1.00  0.00    -0.420 OA 
HETATM   12  O   UNL     1     -10.687   6.939  67.049  1.00  0.00    -0.310 OA 
BRANCH  10  13
HETATM   13  N   UNL     1      -8.967   6.943  68.927  1.00  0.00    -0.132 N  
HETATM   14  H   UNL     1      -8.739   6.830  69.915  1.00  0.00     0.000 HD 
BRANCH  13  15
HETATM   15  C   UNL     1      -7.928   7.042  68.012  1.00  0.00    -0.115 A  
HETATM   16  C   UNL     1      -7.306   5.931  67.484  1.00  0.00    -0.077 A  
HETATM   17  C   UNL     1      -6.401   6.438  66.543  1.00  0.00    -0.042 A  
HETATM   18  N   UNL     1      -6.447   7.764  66.456  1.00  0.00    -0.046 NA 
HETATM   19  N   UNL     1      -7.366   8.161  67.386  1.00  0.00    -0.088 NA 
BRANCH  19  20
HETATM   20  C   UNL     1      -7.635   9.555  67.543  1.00  0.00    -0.095 A  
HETATM   21  C   UNL     1      -8.088  10.296  66.437  1.00  0.00    -0.123 A  
HETATM   22  C   UNL     1      -8.317  11.671  66.542  1.00  0.00    -0.122 A  
HETATM   23  C   UNL     1      -8.085  12.327  67.746  1.00  0.00    -0.155 A  
HETATM   24  C   UNL     1      -7.653  11.604  68.851  1.00  0.00    -0.087 A  
HETATM   25  C   UNL     1      -7.451  10.223  68.756  1.00  0.00    -0.089 A  
ENDBRANCH  19  20
ENDBRANCH  13  15
ENDBRANCH  10  13
ENDBRANCH   7  10
TORSDOF 4
ENDMDL
MODEL      248
REMARK 921   NORMALIZED FREE ENERGY PREDICTED BY IDOCK:   -3.94 KCAL/MOL
REMARK 922        TOTAL FREE ENERGY PREDICTED BY IDOCK:   -5.60 KCAL/MOL
REMARK 923 INTER-LIGAND FREE ENERGY PREDICTED BY IDOCK:   -4.88 KCAL/MOL
REMARK 924 INTRA-LIGAND FREE ENERGY PREDICTED BY IDOCK:   -0.72 KCAL/MOL
REMARK 927      BINDING AFFINITY PREDICTED BY RF-SCORE:    0.00 PKD
ROOT
HETATM    1  N   UNL     1      -9.189   3.705  62.898  1.00  0.00    -0.097 NA 
HETATM    2  H2  UNL     1      -8.378   3.087  62.872  1.00  0.00     0.000 HD 
HETATM    3  C   UNL     1      -9.326   4.197  64.198  1.00  0.00    -0.158 A  
HETATM    4  H1  UNL     1      -9.969   3.230  62.444  1.00  0.00     0.000 HD 
HETATM    5  C   UNL     1      -8.257   4.848  64.821  1.00  0.00    -0.126 A  
HETATM    6  C   UNL     1      -8.405   5.428  66.084  1.00  0.00    -0.117 A  
HETATM    7  C   UNL     1      -9.653   5.400  66.707  1.00  0.00    -0.147 A  
HETATM    8  C   UNL     1     -10.751   4.817  66.068  1.00  0.00    -0.211 A  
HETATM    9  C   UNL     1     -10.586   4.237  64.805  1.00  0.00    -0.147 A  
ENDROOT
BRANCH   7  10
HETATM   10  S   UNL     1      -9.826   6.023  68.374  1.00  0.00    -0.138 S  
HETATM   11  O   UNL     1     -11.250   6.170  68.587  1.00  0.00    -0.356 OA 
HETATM   12  O   UNL     1      -9.049   5.147  69.226  1.00  0.00    -0.101 OA 
BRANCH  10  13
HETATM   13  N   UNL     1      -9.139   7.500  68.256  1.00  0.00    -0.133 N  
HETATM   14  H   UNL     1      -9.158   7.978  67.355  1.00  0.00     0.000 HD 
BRANCH  13  15
HETATM   15  C   UNL     1      -8.530   8.133  69.331  1.00  0.00    -0.127 A  
HETATM   16  C   UNL     1      -7.168   8.090  69.534  1.00  0.00    -0.070 A  
HETATM   17  C   UNL     1      -6.942   8.917  70.641  1.00  0.00    -0.064 A  
HETATM   18  N   UNL     1      -8.061   9.466  71.103  1.00  0.00    -0.314 NA 
HETATM   19  N   UNL     1      -9.065   8.965  70.324  1.00  0.00    -0.167 NA 
BRANCH  19  20
HETATM   20  C   UNL     1     -10.411   9.364  70.584  1.00  0.00    -0.290 A  
HETATM   21  C   UNL     1     -10.958  10.443  69.866  1.00  0.00    -0.364 A  
HETATM   22  C   UNL     1     -12.256  10.891  70.127  1.00  0.00    -0.423 A  
HETATM   23  C   UNL     1     -13.021  10.280  71.115  1.00  0.00    -0.503 A  
HETATM   24  C   UNL     1     -12.498   9.203  71.820  1.00  0.00    -0.447 A  
HETATM   25  C   UNL     1     -11.210   8.734  71.541  1.00  0.00    -0.377 A  
ENDBRANCH  19  20
ENDBRANCH  13  15
ENDBRANCH  10  13
ENDBRANCH   7  10
TORSDOF 4
ENDMDL
MODEL      249
REMARK 921   NORMALIZED FREE ENERGY PREDICTED BY IDOCK:   -3.93 KCAL/MOL
REMARK 922        TOTAL FREE ENERGY PREDICTED BY IDOCK:   -5.58 KCAL/MOL
REMARK 923 INTER-LIGAND FREE ENERGY PREDICTED BY IDOCK:   -4.27 KCAL/MOL
REMARK 924 INTRA-LIGAND FREE ENERGY PREDICTED BY IDOCK:   -1.31 KCAL/MOL
REMARK 927      BINDING AFFINITY PREDICTED BY RF-SCORE:    0.00 PKD
ROOT
HETATM    1  N   UNL     1      -7.201   7.375  64.331  1.00  0.00    -0.072 NA 
HETATM    2  H2  UNL     1      -7.799   6.592  64.593  1.00  0.00     0.000 HD 
HETATM    3  C   UNL     1      -7.186   8.290  65.386  1.00  0.00    -0.071 A  
HETATM    4  H1  UNL     1      -7.461   7.678  63.392  1.00  0.00     0.000 HD 
HETATM    5  C   UNL     1      -6.829   7.875  66.672  1.00  0.00    -0.071 A  
HETATM    6  C   UNL     1      -6.718   8.794  67.720  1.00  0.00    -0.066 A  
HETATM    7  C   UNL     1      -6.916  10.151  67.463  1.00  0.00    -0.085 A  
HETATM    8  C   UNL     1      -7.203  10.592  66.168  1.00  0.00    -0.136 A  
HETATM    9  C   UNL     1      -7.314   9.659  65.130  1.00  0.00    -0.115 A  
ENDROOT
BRANCH   7  10
HETATM   10  S   UNL     1      -6.905  11.320  68.815  1.00  0.00    -0.090 S  
HETATM   11  O   UNL     1      -5.929  10.815  69.757  1.00  0.00    -0.053 OA 
HETATM   12  O   UNL     1      -6.738  12.632  68.226  1.00  0.00    -0.068 OA 
BRANCH  10  13
HETATM   13  N   UNL     1      -8.405  11.136  69.435  1.00  0.00    -0.375 N  
HETATM   14  H   UNL     1      -8.499  10.895  70.422  1.00  0.00     0.000 HD 
BRANCH  13  15
HETATM   15  C   UNL     1      -9.557  11.292  68.676  1.00  0.00    -0.190 A  
HETATM   16  C   UNL     1      -9.959  12.519  68.196  1.00  0.00    -0.224 A  
HETATM   17  C   UNL     1     -11.084  12.246  67.408  1.00  0.00    -0.282 A  
HETATM   18  N   UNL     1     -11.374  10.950  67.367  1.00  0.00    -0.457 NA 
HETATM   19  N   UNL     1     -10.457  10.342  68.176  1.00  0.00    -0.177 NA 
BRANCH  19  20
HETATM   20  C   UNL     1     -10.514   8.925  68.349  1.00  0.00    -0.187 A  
HETATM   21  C   UNL     1     -10.328   8.090  67.233  1.00  0.00    -0.371 A  
HETATM   22  C   UNL     1     -10.422   6.701  67.355  1.00  0.00    -0.325 A  
HETATM   23  C   UNL     1     -10.717   6.127  68.587  1.00  0.00    -0.370 A  
HETATM   24  C   UNL     1     -10.887   6.941  69.701  1.00  0.00    -0.294 A  
HETATM   25  C   UNL     1     -10.764   8.329  69.587  1.00  0.00    -0.196 A  
ENDBRANCH  19  20
ENDBRANCH  13  15
ENDBRANCH  10  13
ENDBRANCH   7  10
TORSDOF 4
ENDMDL
MODEL      250
REMARK 921   NORMALIZED FREE ENERGY PREDICTED BY IDOCK:   -3.91 KCAL/MOL
REMARK 922        TOTAL FREE ENERGY PREDICTED BY IDOCK:   -5.56 KCAL/MOL
REMARK 923 INTER-LIGAND FREE ENERGY PREDICTED BY IDOCK:   -4.94 KCAL/MOL
REMARK 924 INTRA-LIGAND FREE ENERGY PREDICTED BY IDOCK:   -0.62 KCAL/MOL
REMARK 927      BINDING AFFINITY PREDICTED BY RF-SCORE:    0.00 PKD
ROOT
HETATM    1  N   UNL     1     -14.349   8.907  73.152  1.00  0.00    -1.145 NA 
HETATM    2  H2  UNL     1     -14.184   8.242  73.907  1.00  0.00     0.000 HD 
HETATM    3  C   UNL     1     -13.247   8.879  72.294  1.00  0.00    -0.447 A  
HETATM    4  H1  UNL     1     -14.659   9.787  73.562  1.00  0.00     0.000 HD 
HETATM    5  C   UNL     1     -12.822   7.671  71.732  1.00  0.00    -0.357 A  
HETATM    6  C   UNL     1     -11.781   7.638  70.800  1.00  0.00    -0.260 A  
HETATM    7  C   UNL     1     -11.195   8.835  70.387  1.00  0.00    -0.223 A  
HETATM    8  C   UNL     1     -11.655  10.058  70.884  1.00  0.00    -0.463 A  
HETATM    9  C   UNL     1     -12.696  10.074  71.819  1.00  0.00    -0.526 A  
ENDROOT
BRANCH   7  10
HETATM   10  S   UNL     1      -9.780   8.800  69.295  1.00  0.00    -0.176 S  
HETATM   11  O   UNL     1     -10.310   9.010  67.965  1.00  0.00    -0.206 OA 
HETATM   12  O   UNL     1      -8.808   9.721  69.847  1.00  0.00    -0.201 OA 
BRANCH  10  13
HETATM   13  N   UNL     1      -9.279   7.251  69.441  1.00  0.00    -0.149 N  
HETATM   14  H   UNL     1      -9.978   6.509  69.430  1.00  0.00     0.000 HD 
BRANCH  13  15
HETATM   15  C   UNL     1      -7.942   6.904  69.580  1.00  0.00    -0.125 A  
HETATM   16  C   UNL     1      -7.351   6.737  70.813  1.00  0.00    -0.078 A  
HETATM   17  C   UNL     1      -6.051   6.298  70.533  1.00  0.00    -0.034 A  
HETATM   18  N   UNL     1      -5.826   6.173  69.229  1.00  0.00    -0.019 NA 
HETATM   19  N   UNL     1      -6.979   6.578  68.617  1.00  0.00    -0.077 NA 
BRANCH  19  20
HETATM   20  C   UNL     1      -7.047   6.568  67.190  1.00  0.00    -0.076 A  
HETATM   21  C   UNL     1      -8.065   5.832  66.557  1.00  0.00    -0.102 A  
HETATM   22  C   UNL     1      -8.136   5.762  65.163  1.00  0.00    -0.133 A  
HETATM   23  C   UNL     1      -7.186   6.413  64.382  1.00  0.00    -0.065 A  
HETATM   24  C   UNL     1      -6.185   7.157  64.995  1.00  0.00    -0.037 A  
HETATM   25  C   UNL     1      -6.130   7.252  66.389  1.00  0.00    -0.040 A  
ENDBRANCH  19  20
ENDBRANCH  13  15
ENDBRANCH  10  13
ENDBRANCH   7  10
TORSDOF 4
ENDMDL
MODEL      251
REMARK 921   NORMALIZED FREE ENERGY PREDICTED BY IDOCK:   -3.90 KCAL/MOL
REMARK 922        TOTAL FREE ENERGY PREDICTED BY IDOCK:   -5.54 KCAL/MOL
REMARK 923 INTER-LIGAND FREE ENERGY PREDICTED BY IDOCK:   -3.47 KCAL/MOL
REMARK 924 INTRA-LIGAND FREE ENERGY PREDICTED BY IDOCK:   -2.07 KCAL/MOL
REMARK 927      BINDING AFFINITY PREDICTED BY RF-SCORE:    0.00 PKD
ROOT
HETATM    1  N   UNL     1     -12.316   8.347  71.986  1.00  0.00    -0.339 NA 
HETATM    2  H2  UNL     1     -12.393   7.613  72.691  1.00  0.00     0.000 HD 
HETATM    3  C   UNL     1     -11.480   7.889  70.965  1.00  0.00    -0.280 A  
HETATM    4  H1  UNL     1     -12.114   9.227  72.460  1.00  0.00     0.000 HD 
HETATM    5  C   UNL     1     -11.757   6.683  70.316  1.00  0.00    -0.432 A  
HETATM    6  C   UNL     1     -10.985   6.256  69.231  1.00  0.00    -0.435 A  
HETATM    7  C   UNL     1      -9.958   7.075  68.759  1.00  0.00    -0.160 A  
HETATM    8  C   UNL     1      -9.714   8.317  69.350  1.00  0.00    -0.177 A  
HETATM    9  C   UNL     1     -10.492   8.728  70.438  1.00  0.00    -0.240 A  
ENDROOT
BRANCH   7  10
HETATM   10  S   UNL     1      -8.883   6.486  67.457  1.00  0.00    -0.111 S  
HETATM   11  O   UNL     1      -9.551   6.826  66.219  1.00  0.00    -0.134 OA 
HETATM   12  O   UNL     1      -7.564   7.010  67.741  1.00  0.00    -0.105 OA 
BRANCH  10  13
HETATM   13  N   UNL     1      -8.939   4.868  67.677  1.00  0.00    -0.107 N  
HETATM   14  H   UNL     1      -9.768   4.361  67.367  1.00  0.00     0.000 HD 
BRANCH  13  15
HETATM   15  C   UNL     1      -7.906   4.155  68.269  1.00  0.00    -0.074 A  
HETATM   16  C   UNL     1      -7.065   3.341  67.542  1.00  0.00    -0.054 A  
HETATM   17  C   UNL     1      -6.113   2.889  68.464  1.00  0.00    -0.025 A  
HETATM   18  N   UNL     1      -6.310   3.385  69.682  1.00  0.00    -0.028 NA 
HETATM   19  N   UNL     1      -7.440   4.148  69.590  1.00  0.00    -0.053 NA 
BRANCH  19  20
HETATM   20  C   UNL     1      -7.924   4.816  70.756  1.00  0.00    -0.081 A  
HETATM   21  C   UNL     1      -8.968   4.233  71.496  1.00  0.00    -0.161 A  
HETATM   22  C   UNL     1      -9.498   4.880  72.616  1.00  0.00    -0.159 A  
HETATM   23  C   UNL     1      -9.004   6.121  73.005  1.00  0.00    -0.131 A  
HETATM   24  C   UNL     1      -7.960   6.700  72.291  1.00  0.00    -0.100 A  
HETATM   25  C   UNL     1      -7.409   6.041  71.188  1.00  0.00    -0.084 A  
ENDBRANCH  19  20
ENDBRANCH  13  15
ENDBRANCH  10  13
ENDBRANCH   7  10
TORSDOF 4
ENDMDL
MODEL      252
REMARK 921   NORMALIZED FREE ENERGY PREDICTED BY IDOCK:   -3.88 KCAL/MOL
REMARK 922        TOTAL FREE ENERGY PREDICTED BY IDOCK:   -5.52 KCAL/MOL
REMARK 923 INTER-LIGAND FREE ENERGY PREDICTED BY IDOCK:   -5.44 KCAL/MOL
REMARK 924 INTRA-LIGAND FREE ENERGY PREDICTED BY IDOCK:   -0.08 KCAL/MOL
REMARK 927      BINDING AFFINITY PREDICTED BY RF-SCORE:    0.00 PKD
ROOT
HETATM    1  N   UNL     1     -10.107  10.597  62.524  1.00  0.00    -0.766 NA 
HETATM    2  H2  UNL     1     -10.676   9.757  62.417  1.00  0.00     0.000 HD 
HETATM    3  C   UNL     1     -10.314  11.106  63.808  1.00  0.00    -0.386 A  
HETATM    4  H1  UNL     1     -10.252  11.189  61.707  1.00  0.00     0.000 HD 
HETATM    5  C   UNL     1     -10.115  10.295  64.928  1.00  0.00    -0.346 A  
HETATM    6  C   UNL     1     -10.226  10.813  66.222  1.00  0.00    -0.301 A  
HETATM    7  C   UNL     1     -10.487  12.173  66.393  1.00  0.00    -0.230 A  
HETATM    8  C   UNL     1     -10.617  13.014  65.284  1.00  0.00    -0.320 A  
HETATM    9  C   UNL     1     -10.507  12.479  63.996  1.00  0.00    -0.449 A  
ENDROOT
BRANCH   7  10
HETATM   10  S   UNL     1     -10.759  12.824  68.035  1.00  0.00    -0.239 S  
HETATM   11  O   UNL     1     -12.151  13.221  68.070  1.00  0.00    -0.332 OA 
HETATM   12  O   UNL     1     -10.261  11.829  68.962  1.00  0.00    -0.145 OA 
BRANCH  10  13
HETATM   13  N   UNL     1      -9.815  14.157  68.032  1.00  0.00    -0.217 N  
HETATM   14  H   UNL     1      -8.868  14.084  67.659  1.00  0.00     0.000 HD 
BRANCH  13  15
HETATM   15  C   UNL     1     -10.246  15.385  68.516  1.00  0.00    -0.219 A  
HETATM   16  C   UNL     1     -11.335  15.503  69.351  1.00  0.00    -0.321 A  
HETATM   17  C   UNL     1     -11.382  16.860  69.692  1.00  0.00     0.435 A  
HETATM   18  N   UNL     1     -10.394  17.558  69.140  1.00  0.00    -0.319 NA 
HETATM   19  N   UNL     1      -9.696  16.665  68.377  1.00  0.00    -0.235 NA 
BRANCH  19  20
HETATM   20  C   UNL     1      -8.563  17.122  67.637  1.00  0.00    -0.212 A  
HETATM   21  C   UNL     1      -7.317  17.221  68.283  1.00  0.00    -0.214 A  
HETATM   22  C   UNL     1      -6.197  17.708  67.603  1.00  0.00    -0.172 A  
HETATM   23  C   UNL     1      -6.306  18.114  66.277  1.00  0.00    -0.249 A  
HETATM   24  C   UNL     1      -7.527  18.005  65.623  1.00  0.00     0.028 A  
HETATM   25  C   UNL     1      -8.643  17.492  66.293  1.00  0.00    -0.234 A  
ENDBRANCH  19  20
ENDBRANCH  13  15
ENDBRANCH  10  13
ENDBRANCH   7  10
TORSDOF 4
ENDMDL
MODEL      253
REMARK 921   NORMALIZED FREE ENERGY PREDICTED BY IDOCK:   -3.87 KCAL/MOL
REMARK 922        TOTAL FREE ENERGY PREDICTED BY IDOCK:   -5.51 KCAL/MOL
REMARK 923 INTER-LIGAND FREE ENERGY PREDICTED BY IDOCK:   -4.44 KCAL/MOL
REMARK 924 INTRA-LIGAND FREE ENERGY PREDICTED BY IDOCK:   -1.07 KCAL/MOL
REMARK 927      BINDING AFFINITY PREDICTED BY RF-SCORE:    0.00 PKD
ROOT
HETATM    1  N   UNL     1     -10.331  16.929  67.653  1.00  0.00    -0.308 NA 
HETATM    2  H2  UNL     1     -10.716  17.473  68.425  1.00  0.00     0.000 HD 
HETATM    3  C   UNL     1     -10.497  15.574  67.944  1.00  0.00    -0.266 A  
HETATM    4  H1  UNL     1      -9.406  17.298  67.431  1.00  0.00     0.000 HD 
HETATM    5  C   UNL     1     -11.765  15.069  68.248  1.00  0.00    -0.338 A  
HETATM    6  C   UNL     1     -11.965  13.700  68.451  1.00  0.00    -0.391 A  
HETATM    7  C   UNL     1     -10.892  12.822  68.295  1.00  0.00    -0.248 A  
HETATM    8  C   UNL     1      -9.633  13.301  67.921  1.00  0.00    -0.217 A  
HETATM    9  C   UNL     1      -9.448  14.674  67.725  1.00  0.00    -0.205 A  
ENDROOT
BRANCH   7  10
HETATM   10  S   UNL     1     -11.102  11.088  68.675  1.00  0.00    -0.265 S  
HETATM   11  O   UNL     1     -10.166  10.808  69.743  1.00  0.00    -0.144 OA 
HETATM   12  O   UNL     1     -12.521  10.878  68.877  1.00  0.00    -0.431 OA 
BRANCH  10  13
HETATM   13  N   UNL     1     -10.587  10.374  67.299  1.00  0.00    -0.252 N  
HETATM   14  H   UNL     1     -10.814  10.813  66.407  1.00  0.00     0.000 HD 
BRANCH  13  15
HETATM   15  C   UNL     1      -9.853   9.196  67.294  1.00  0.00    -0.189 A  
HETATM   16  C   UNL     1     -10.447   7.962  67.146  1.00  0.00    -0.414 A  
HETATM   17  C   UNL     1      -9.383   7.053  67.090  1.00  0.00    -0.143 A  
HETATM   18  N   UNL     1      -8.199   7.652  67.175  1.00  0.00    -0.117 NA 
HETATM   19  N   UNL     1      -8.469   8.981  67.336  1.00  0.00    -0.115 NA 
BRANCH  19  20
HETATM   20  C   UNL     1      -7.384   9.900  67.470  1.00  0.00    -0.090 A  
HETATM   21  C   UNL     1      -6.594   9.863  68.632  1.00  0.00    -0.050 A  
HETATM   22  C   UNL     1      -5.552  10.777  68.818  1.00  0.00    -0.040 A  
HETATM   23  C   UNL     1      -5.293  11.746  67.855  1.00  0.00    -0.051 A  
HETATM   24  C   UNL     1      -6.056  11.782  66.693  1.00  0.00    -0.033 A  
HETATM   25  C   UNL     1      -7.080  10.851  66.493  1.00  0.00    -0.139 A  
ENDBRANCH  19  20
ENDBRANCH  13  15
ENDBRANCH  10  13
ENDBRANCH   7  10
TORSDOF 4
ENDMDL
MODEL      254
REMARK 921   NORMALIZED FREE ENERGY PREDICTED BY IDOCK:   -3.86 KCAL/MOL
REMARK 922        TOTAL FREE ENERGY PREDICTED BY IDOCK:   -5.50 KCAL/MOL
REMARK 923 INTER-LIGAND FREE ENERGY PREDICTED BY IDOCK:   -4.89 KCAL/MOL
REMARK 924 INTRA-LIGAND FREE ENERGY PREDICTED BY IDOCK:   -0.60 KCAL/MOL
REMARK 927      BINDING AFFINITY PREDICTED BY RF-SCORE:    0.00 PKD
ROOT
HETATM    1  N   UNL     1      -6.078   9.965  71.516  1.00  0.00    -0.298 NA 
HETATM    2  H2  UNL     1      -5.813   8.990  71.654  1.00  0.00     0.000 HD 
HETATM    3  C   UNL     1      -6.968  10.031  70.442  1.00  0.00    -0.131 A  
HETATM    4  H1  UNL     1      -5.230  10.531  71.515  1.00  0.00     0.000 HD 
HETATM    5  C   UNL     1      -8.132   9.255  70.443  1.00  0.00    -0.178 A  
HETATM    6  C   UNL     1      -9.079   9.378  69.422  1.00  0.00    -0.162 A  
HETATM    7  C   UNL     1      -8.882  10.326  68.417  1.00  0.00    -0.129 A  
HETATM    8  C   UNL     1      -7.761  11.160  68.439  1.00  0.00    -0.125 A  
HETATM    9  C   UNL     1      -6.820  11.022  69.466  1.00  0.00    -0.133 A  
ENDROOT
BRANCH   7  10
HETATM   10  S   UNL     1     -10.017  10.405  67.038  1.00  0.00    -0.215 S  
HETATM   11  O   UNL     1      -9.187  10.460  65.854  1.00  0.00    -0.159 OA 
HETATM   12  O   UNL     1     -10.961   9.321  67.216  1.00  0.00    -0.166 OA 
BRANCH  10  13
HETATM   13  N   UNL     1     -10.731  11.856  67.270  1.00  0.00    -0.227 N  
HETATM   14  H   UNL     1     -10.794  12.500  66.481  1.00  0.00     0.000 HD 
BRANCH  13  15
HETATM   15  C   UNL     1     -11.253  12.250  68.494  1.00  0.00    -0.271 A  
HETATM   16  C   UNL     1     -11.977  11.394  69.294  1.00  0.00    -0.400 A  
HETATM   17  C   UNL     1     -12.233  12.121  70.462  1.00  0.00    -0.304 A  
HETATM   18  N   UNL     1     -11.702  13.339  70.430  1.00  0.00    -0.168 NA 
HETATM   19  N   UNL     1     -11.117  13.452  69.201  1.00  0.00    -0.240 NA 
BRANCH  19  20
HETATM   20  C   UNL     1     -10.461  14.672  68.854  1.00  0.00    -0.248 A  
HETATM   21  C   UNL     1     -11.224  15.845  68.710  1.00  0.00    -0.359 A  
HETATM   22  C   UNL     1     -10.622  17.047  68.327  1.00  0.00    -0.372 A  
HETATM   23  C   UNL     1      -9.256  17.093  68.068  1.00  0.00    -0.250 A  
HETATM   24  C   UNL     1      -8.488  15.945  68.223  1.00  0.00    -0.170 A  
HETATM   25  C   UNL     1      -9.083  14.748  68.634  1.00  0.00    -0.186 A  
ENDBRANCH  19  20
ENDBRANCH  13  15
ENDBRANCH  10  13
ENDBRANCH   7  10
TORSDOF 4
ENDMDL
MODEL      255
REMARK 921   NORMALIZED FREE ENERGY PREDICTED BY IDOCK:   -3.86 KCAL/MOL
REMARK 922        TOTAL FREE ENERGY PREDICTED BY IDOCK:   -5.49 KCAL/MOL
REMARK 923 INTER-LIGAND FREE ENERGY PREDICTED BY IDOCK:   -5.49 KCAL/MOL
REMARK 924 INTRA-LIGAND FREE ENERGY PREDICTED BY IDOCK:   -0.00 KCAL/MOL
REMARK 927      BINDING AFFINITY PREDICTED BY RF-SCORE:    0.00 PKD
ROOT
HETATM    1  N   UNL     1     -12.981  15.015  72.244  1.00  0.00    -0.325 NA 
HETATM    2  H2  UNL     1     -12.301  14.783  72.968  1.00  0.00     0.000 HD 
HETATM    3  C   UNL     1     -12.612  14.361  71.067  1.00  0.00    -0.349 A  
HETATM    4  H1  UNL     1     -13.122  16.025  72.249  1.00  0.00     0.000 HD 
HETATM    5  C   UNL     1     -12.420  12.976  71.061  1.00  0.00    -0.385 A  
HETATM    6  C   UNL     1     -12.142  12.293  69.874  1.00  0.00    -0.319 A  
HETATM    7  C   UNL     1     -12.108  12.999  68.671  1.00  0.00    -0.154 A  
HETATM    8  C   UNL     1     -12.369  14.372  68.648  1.00  0.00    -0.051 A  
HETATM    9  C   UNL     1     -12.643  15.042  69.846  1.00  0.00    -0.201 A  
ENDROOT
BRANCH   7  10
HETATM   10  S   UNL     1     -11.628  12.164  67.165  1.00  0.00    -0.305 S  
HETATM   11  O   UNL     1     -11.672  10.750  67.475  1.00  0.00    -0.510 OA 
HETATM   12  O   UNL     1     -12.458  12.704  66.109  1.00  0.00    -0.520 OA 
BRANCH  10  13
HETATM   13  N   UNL     1     -10.073  12.635  66.997  1.00  0.00    -0.223 N  
HETATM   14  H   UNL     1      -9.336  11.945  67.139  1.00  0.00     0.000 HD 
BRANCH  13  15
HETATM   15  C   UNL     1      -9.713  13.935  66.670  1.00  0.00    -0.289 A  
HETATM   16  C   UNL     1     -10.373  14.658  65.701  1.00  0.00    -0.370 A  
HETATM   17  C   UNL     1      -9.790  15.930  65.740  1.00  0.00    -0.345 A  
HETATM   18  N   UNL     1      -8.845  16.028  66.671  1.00  0.00    -0.243 NA 
HETATM   19  N   UNL     1      -8.758  14.788  67.238  1.00  0.00    -0.197 NA 
BRANCH  19  20
HETATM   20  C   UNL     1      -7.808  14.567  68.281  1.00  0.00    -0.131 A  
HETATM   21  C   UNL     1      -7.401  13.253  68.571  1.00  0.00    -0.115 A  
HETATM   22  C   UNL     1      -6.509  12.994  69.616  1.00  0.00    -0.044 A  
HETATM   23  C   UNL     1      -6.021  14.040  70.392  1.00  0.00    -0.165 A  
HETATM   24  C   UNL     1      -6.402  15.345  70.105  1.00  0.00    -0.089 A  
HETATM   25  C   UNL     1      -7.273  15.609  69.043  1.00  0.00    -0.160 A  
ENDBRANCH  19  20
ENDBRANCH  13  15
ENDBRANCH  10  13
ENDBRANCH   7  10
TORSDOF 4
ENDMDL
MODEL      256
REMARK 921   NORMALIZED FREE ENERGY PREDICTED BY IDOCK:   -3.85 KCAL/MOL
REMARK 922        TOTAL FREE ENERGY PREDICTED BY IDOCK:   -5.49 KCAL/MOL
REMARK 923 INTER-LIGAND FREE ENERGY PREDICTED BY IDOCK:   -4.84 KCAL/MOL
REMARK 924 INTRA-LIGAND FREE ENERGY PREDICTED BY IDOCK:   -0.65 KCAL/MOL
REMARK 927      BINDING AFFINITY PREDICTED BY RF-SCORE:    0.00 PKD
ROOT
HETATM    1  N   UNL     1      -6.717   8.726  64.617  1.00  0.00    -0.069 NA 
HETATM    2  H2  UNL     1      -6.527   8.071  65.375  1.00  0.00     0.000 HD 
HETATM    3  C   UNL     1      -7.753   9.573  65.016  1.00  0.00    -0.114 A  
HETATM    4  H1  UNL     1      -6.792   8.197  63.748  1.00  0.00     0.000 HD 
HETATM    5  C   UNL     1      -7.651  10.298  66.207  1.00  0.00    -0.117 A  
HETATM    6  C   UNL     1      -8.635  11.220  66.575  1.00  0.00    -0.170 A  
HETATM    7  C   UNL     1      -9.707  11.455  65.714  1.00  0.00    -0.233 A  
HETATM    8  C   UNL     1      -9.788  10.793  64.486  1.00  0.00    -0.369 A  
HETATM    9  C   UNL     1      -8.797   9.870  64.133  1.00  0.00    -0.251 A  
ENDROOT
BRANCH   7  10
HETATM   10  S   UNL     1     -11.037  12.534  66.228  1.00  0.00    -0.311 S  
HETATM   11  O   UNL     1     -10.658  13.857  65.781  1.00  0.00    -0.284 OA 
HETATM   12  O   UNL     1     -12.266  11.929  65.757  1.00  0.00    -0.422 OA 
BRANCH  10  13
HETATM   13  N   UNL     1     -10.924  12.458  67.856  1.00  0.00    -0.217 N  
HETATM   14  H   UNL     1     -10.701  11.561  68.289  1.00  0.00     0.000 HD 
BRANCH  13  15
HETATM   15  C   UNL     1     -11.120  13.561  68.675  1.00  0.00    -0.269 A  
HETATM   16  C   UNL     1     -12.317  13.798  69.315  1.00  0.00    -0.185 A  
HETATM   17  C   UNL     1     -12.084  14.927  70.110  1.00  0.00    -0.327 A  
HETATM   18  N   UNL     1     -10.836  15.372  70.008  1.00  0.00    -0.284 NA 
HETATM   19  N   UNL     1     -10.228  14.557  69.095  1.00  0.00    -0.204 NA 
BRANCH  19  20
HETATM   20  C   UNL     1      -8.861  14.791  68.757  1.00  0.00    -0.179 A  
HETATM   21  C   UNL     1      -8.378  16.111  68.725  1.00  0.00    -0.231 A  
HETATM   22  C   UNL     1      -7.058  16.382  68.354  1.00  0.00    -0.156 A  
HETATM   23  C   UNL     1      -6.206  15.342  67.996  1.00  0.00    -0.156 A  
HETATM   24  C   UNL     1      -6.666  14.031  68.039  1.00  0.00    -0.148 A  
HETATM   25  C   UNL     1      -7.978  13.756  68.438  1.00  0.00    -0.144 A  
ENDBRANCH  19  20
ENDBRANCH  13  15
ENDBRANCH  10  13
ENDBRANCH   7  10
TORSDOF 4
ENDMDL
MODEL      257
REMARK 921   NORMALIZED FREE ENERGY PREDICTED BY IDOCK:   -3.84 KCAL/MOL
REMARK 922        TOTAL FREE ENERGY PREDICTED BY IDOCK:   -5.48 KCAL/MOL
REMARK 923 INTER-LIGAND FREE ENERGY PREDICTED BY IDOCK:   -4.78 KCAL/MOL
REMARK 924 INTRA-LIGAND FREE ENERGY PREDICTED BY IDOCK:   -0.70 KCAL/MOL
REMARK 927      BINDING AFFINITY PREDICTED BY RF-SCORE:    0.00 PKD
ROOT
HETATM    1  N   UNL     1      -8.315   7.503  71.169  1.00  0.00    -0.108 NA 
HETATM    2  H2  UNL     1      -7.369   7.809  71.398  1.00  0.00     0.000 HD 
HETATM    3  C   UNL     1      -8.974   8.555  70.528  1.00  0.00    -0.155 A  
HETATM    4  H1  UNL     1      -8.722   7.071  71.998  1.00  0.00     0.000 HD 
HETATM    5  C   UNL     1      -8.416   9.147  69.391  1.00  0.00    -0.130 A  
HETATM    6  C   UNL     1      -9.105  10.136  68.684  1.00  0.00    -0.143 A  
HETATM    7  C   UNL     1     -10.390  10.498  69.090  1.00  0.00    -0.220 A  
HETATM    8  C   UNL     1     -10.993   9.865  70.180  1.00  0.00    -0.356 A  
HETATM    9  C   UNL     1     -10.288   8.879  70.881  1.00  0.00    -0.303 A  
ENDROOT
BRANCH   7  10
HETATM   10  S   UNL     1     -11.231  11.848  68.274  1.00  0.00    -0.288 S  
HETATM   11  O   UNL     1     -12.504  11.311  67.845  1.00  0.00    -0.042 OA 
HETATM   12  O   UNL     1     -11.184  12.974  69.184  1.00  0.00    -0.259 OA 
BRANCH  10  13
HETATM   13  N   UNL     1     -10.280  12.100  66.970  1.00  0.00    -0.207 N  
HETATM   14  H   UNL     1      -9.704  11.331  66.629  1.00  0.00     0.000 HD 
BRANCH  13  15
HETATM   15  C   UNL     1     -10.223  13.318  66.305  1.00  0.00    -0.296 A  
HETATM   16  C   UNL     1     -11.206  13.724  65.430  1.00  0.00    -0.306 A  
HETATM   17  C   UNL     1     -10.842  15.023  65.055  1.00  0.00    -0.422 A  
HETATM   18  N   UNL     1      -9.728  15.431  65.654  1.00  0.00    -0.346 NA 
HETATM   19  N   UNL     1      -9.308  14.373  66.410  1.00  0.00    -0.278 NA 
BRANCH  19  20
HETATM   20  C   UNL     1      -8.109  14.500  67.176  1.00  0.00    -0.168 A  
HETATM   21  C   UNL     1      -7.375  15.697  67.108  1.00  0.00    -0.247 A  
HETATM   22  C   UNL     1      -6.173  15.840  67.808  1.00  0.00    -0.175 A  
HETATM   23  C   UNL     1      -5.682  14.788  68.574  1.00  0.00    -0.099 A  
HETATM   24  C   UNL     1      -6.407  13.605  68.662  1.00  0.00    -0.091 A  
HETATM   25  C   UNL     1      -7.623  13.470  67.986  1.00  0.00    -0.143 A  
ENDBRANCH  19  20
ENDBRANCH  13  15
ENDBRANCH  10  13
ENDBRANCH   7  10
TORSDOF 4
ENDMDL
MODEL      258
REMARK 921   NORMALIZED FREE ENERGY PREDICTED BY IDOCK:   -3.84 KCAL/MOL
REMARK 922        TOTAL FREE ENERGY PREDICTED BY IDOCK:   -5.47 KCAL/MOL
REMARK 923 INTER-LIGAND FREE ENERGY PREDICTED BY IDOCK:   -5.12 KCAL/MOL
REMARK 924 INTRA-LIGAND FREE ENERGY PREDICTED BY IDOCK:   -0.35 KCAL/MOL
REMARK 927      BINDING AFFINITY PREDICTED BY RF-SCORE:    0.00 PKD
ROOT
HETATM    1  N   UNL     1      -9.837  17.382  68.426  1.00  0.00    -0.298 NA 
HETATM    2  H2  UNL     1      -9.142  17.638  69.128  1.00  0.00     0.000 HD 
HETATM    3  C   UNL     1     -10.242  16.067  68.668  1.00  0.00    -0.231 A  
HETATM    4  H1  UNL     1      -9.479  17.649  67.509  1.00  0.00     0.000 HD 
HETATM    5  C   UNL     1     -10.731  15.701  69.925  1.00  0.00    -0.328 A  
HETATM    6  C   UNL     1     -11.228  14.415  70.157  1.00  0.00    -0.152 A  
HETATM    7  C   UNL     1     -11.282  13.503  69.103  1.00  0.00    -0.260 A  
HETATM    8  C   UNL     1     -10.864  13.874  67.822  1.00  0.00    -0.261 A  
HETATM    9  C   UNL     1     -10.366  15.165  67.607  1.00  0.00    -0.248 A  
ENDROOT
BRANCH   7  10
HETATM   10  S   UNL     1     -11.793  11.818  69.414  1.00  0.00    -0.327 S  
HETATM   11  O   UNL     1     -12.479  11.849  70.688  1.00  0.00    -0.318 OA 
HETATM   12  O   UNL     1     -12.486  11.369  68.224  1.00  0.00    -0.314 OA 
BRANCH  10  13
HETATM   13  N   UNL     1     -10.359  11.056  69.588  1.00  0.00    -0.446 N  
HETATM   14  H   UNL     1      -9.505  11.563  69.356  1.00  0.00     0.000 HD 
BRANCH  13  15
HETATM   15  C   UNL     1     -10.253   9.747  70.039  1.00  0.00    -0.263 A  
HETATM   16  C   UNL     1     -10.909   9.303  71.166  1.00  0.00    -0.407 A  
HETATM   17  C   UNL     1     -10.636   7.931  71.226  1.00  0.00    -0.211 A  
HETATM   18  N   UNL     1      -9.883   7.518  70.212  1.00  0.00    -0.183 NA 
HETATM   19  N   UNL     1      -9.605   8.638  69.480  1.00  0.00    -0.168 NA 
BRANCH  19  20
HETATM   20  C   UNL     1      -8.792   8.520  68.312  1.00  0.00    -0.142 A  
HETATM   21  C   UNL     1      -7.407   8.738  68.416  1.00  0.00    -0.086 A  
HETATM   22  C   UNL     1      -6.586   8.677  67.286  1.00  0.00    -0.058 A  
HETATM   23  C   UNL     1      -7.137   8.411  66.037  1.00  0.00    -0.069 A  
HETATM   24  C   UNL     1      -8.502   8.177  65.923  1.00  0.00    -0.153 A  
HETATM   25  C   UNL     1      -9.321   8.209  67.057  1.00  0.00    -0.197 A  
ENDBRANCH  19  20
ENDBRANCH  13  15
ENDBRANCH  10  13
ENDBRANCH   7  10
TORSDOF 4
ENDMDL
MODEL      259
REMARK 921   NORMALIZED FREE ENERGY PREDICTED BY IDOCK:   -3.76 KCAL/MOL
REMARK 922        TOTAL FREE ENERGY PREDICTED BY IDOCK:   -5.38 KCAL/MOL
REMARK 923 INTER-LIGAND FREE ENERGY PREDICTED BY IDOCK:   -4.06 KCAL/MOL
REMARK 924 INTRA-LIGAND FREE ENERGY PREDICTED BY IDOCK:   -1.32 KCAL/MOL
REMARK 927      BINDING AFFINITY PREDICTED BY RF-SCORE:    0.00 PKD
ROOT
HETATM    1  N   UNL     1     -10.641  14.920  69.991  1.00  0.00    -0.455 NA 
HETATM    2  H2  UNL     1     -11.059  15.825  69.776  1.00  0.00     0.000 HD 
HETATM    3  C   UNL     1     -10.693  14.127  68.843  1.00  0.00    -0.256 A  
HETATM    4  H1  UNL     1     -11.039  14.584  70.868  1.00  0.00     0.000 HD 
HETATM    5  C   UNL     1     -10.147  14.589  67.642  1.00  0.00    -0.228 A  
HETATM    6  C   UNL     1     -10.107  13.772  66.509  1.00  0.00    -0.286 A  
HETATM    7  C   UNL     1     -10.572  12.459  66.596  1.00  0.00    -0.231 A  
HETATM    8  C   UNL     1     -11.055  11.957  67.807  1.00  0.00    -0.295 A  
HETATM    9  C   UNL     1     -11.092  12.789  68.932  1.00  0.00    -0.310 A  
ENDROOT
BRANCH   7  10
HETATM   10  S   UNL     1     -10.647  11.446  65.125  1.00  0.00    -0.278 S  
HETATM   11  O   UNL     1     -10.848  10.092  65.596  1.00  0.00     0.173 OA 
HETATM   12  O   UNL     1     -11.617  12.063  64.245  1.00  0.00    -0.349 OA 
BRANCH  10  13
HETATM   13  N   UNL     1      -9.131  11.595  64.534  1.00  0.00    -0.397 N  
HETATM   14  H   UNL     1      -8.855  12.484  64.117  1.00  0.00     0.000 HD 
BRANCH  13  15
HETATM   15  C   UNL     1      -8.204  10.563  64.574  1.00  0.00    -0.077 A  
HETATM   16  C   UNL     1      -7.968   9.744  63.491  1.00  0.00    -0.145 A  
HETATM   17  C   UNL     1      -6.914   8.914  63.889  1.00  0.00    -0.087 A  
HETATM   18  N   UNL     1      -6.489   9.185  65.120  1.00  0.00    -0.068 NA 
HETATM   19  N   UNL     1      -7.301  10.185  65.576  1.00  0.00    -0.137 NA 
BRANCH  19  20
HETATM   20  C   UNL     1      -7.099  10.695  66.895  1.00  0.00    -0.109 A  
HETATM   21  C   UNL     1      -6.145  11.707  67.100  1.00  0.00    -0.130 A  
HETATM   22  C   UNL     1      -5.888  12.198  68.384  1.00  0.00    -0.053 A  
HETATM   23  C   UNL     1      -6.568  11.678  69.480  1.00  0.00    -0.111 A  
HETATM   24  C   UNL     1      -7.526  10.689  69.288  1.00  0.00    -0.130 A  
HETATM   25  C   UNL     1      -7.805  10.216  68.001  1.00  0.00    -0.096 A  
ENDBRANCH  19  20
ENDBRANCH  13  15
ENDBRANCH  10  13
ENDBRANCH   7  10
TORSDOF 4
ENDMDL
MODEL      260
REMARK 921   NORMALIZED FREE ENERGY PREDICTED BY IDOCK:   -3.73 KCAL/MOL
REMARK 922        TOTAL FREE ENERGY PREDICTED BY IDOCK:   -5.34 KCAL/MOL
REMARK 923 INTER-LIGAND FREE ENERGY PREDICTED BY IDOCK:   -3.77 KCAL/MOL
REMARK 924 INTRA-LIGAND FREE ENERGY PREDICTED BY IDOCK:   -1.57 KCAL/MOL
REMARK 927      BINDING AFFINITY PREDICTED BY RF-SCORE:    0.00 PKD
ROOT
HETATM    1  N   UNL     1      -7.634  10.852  69.980  1.00  0.00    -0.386 NA 
HETATM    2  H2  UNL     1      -8.433  10.752  70.606  1.00  0.00     0.000 HD 
HETATM    3  C   UNL     1      -7.772   9.928  68.941  1.00  0.00    -0.085 A  
HETATM    4  H1  UNL     1      -6.785  10.869  70.543  1.00  0.00     0.000 HD 
HETATM    5  C   UNL     1      -8.936   9.905  68.168  1.00  0.00    -0.118 A  
HETATM    6  C   UNL     1      -9.053   9.052  67.068  1.00  0.00    -0.155 A  
HETATM    7  C   UNL     1      -7.969   8.250  66.707  1.00  0.00    -0.099 A  
HETATM    8  C   UNL     1      -6.772   8.313  67.424  1.00  0.00    -0.063 A  
HETATM    9  C   UNL     1      -6.672   9.170  68.526  1.00  0.00    -0.059 A  
ENDROOT
BRANCH   7  10
HETATM   10  S   UNL     1      -8.147   7.062  65.383  1.00  0.00    -0.134 S  
HETATM   11  O   UNL     1      -8.433   7.842  64.197  1.00  0.00    -0.006 OA 
HETATM   12  O   UNL     1      -6.977   6.211  65.430  1.00  0.00    -0.054 OA 
BRANCH  10  13
HETATM   13  N   UNL     1      -9.490   6.249  65.835  1.00  0.00    -0.374 N  
HETATM   14  H   UNL     1     -10.401   6.623  65.568  1.00  0.00     0.000 HD 
BRANCH  13  15
HETATM   15  C   UNL     1      -9.444   5.072  66.569  1.00  0.00    -0.149 A  
HETATM   16  C   UNL     1      -9.193   3.851  65.982  1.00  0.00    -0.158 A  
HETATM   17  C   UNL     1      -9.129   2.945  67.048  1.00  0.00    -0.164 A  
HETATM   18  N   UNL     1      -9.305   3.534  68.227  1.00  0.00    -0.177 NA 
HETATM   19  N   UNL     1      -9.536   4.851  67.949  1.00  0.00    -0.139 NA 
BRANCH  19  20
HETATM   20  C   UNL     1      -9.776   5.757  69.027  1.00  0.00    -0.140 A  
HETATM   21  C   UNL     1      -8.682   6.287  69.734  1.00  0.00    -0.137 A  
HETATM   22  C   UNL     1      -8.881   7.139  70.824  1.00  0.00    -0.148 A  
HETATM   23  C   UNL     1     -10.170   7.464  71.231  1.00  0.00    -0.197 A  
HETATM   24  C   UNL     1     -11.260   6.960  70.530  1.00  0.00    -0.353 A  
HETATM   25  C   UNL     1     -11.063   6.130  69.422  1.00  0.00    -0.479 A  
ENDBRANCH  19  20
ENDBRANCH  13  15
ENDBRANCH  10  13
ENDBRANCH   7  10
TORSDOF 4
ENDMDL
MODEL      261
REMARK 921   NORMALIZED FREE ENERGY PREDICTED BY IDOCK:   -3.71 KCAL/MOL
REMARK 922        TOTAL FREE ENERGY PREDICTED BY IDOCK:   -5.32 KCAL/MOL
REMARK 923 INTER-LIGAND FREE ENERGY PREDICTED BY IDOCK:   -4.55 KCAL/MOL
REMARK 924 INTRA-LIGAND FREE ENERGY PREDICTED BY IDOCK:   -0.77 KCAL/MOL
REMARK 927      BINDING AFFINITY PREDICTED BY RF-SCORE:    0.00 PKD
ROOT
HETATM    1  N   UNL     1     -11.590  17.121  68.955  1.00  0.00     0.200 NA 
HETATM    2  H2  UNL     1     -11.296  17.502  69.854  1.00  0.00     0.000 HD 
HETATM    3  C   UNL     1     -11.345  15.747  68.958  1.00  0.00    -0.354 A  
HETATM    4  H1  UNL     1     -11.205  17.710  68.216  1.00  0.00     0.000 HD 
HETATM    5  C   UNL     1     -11.873  14.940  69.970  1.00  0.00    -0.353 A  
HETATM    6  C   UNL     1     -11.717  13.551  69.938  1.00  0.00    -0.341 A  
HETATM    7  C   UNL     1     -11.070  12.961  68.852  1.00  0.00    -0.255 A  
HETATM    8  C   UNL     1     -10.600  13.745  67.796  1.00  0.00    -0.250 A  
HETATM    9  C   UNL     1     -10.761  15.135  67.844  1.00  0.00    -0.268 A  
ENDROOT
BRANCH   7  10
HETATM   10  S   UNL     1     -10.750  11.202  68.859  1.00  0.00    -0.218 S  
HETATM   11  O   UNL     1     -10.985  10.770  70.221  1.00  0.00    -0.246 OA 
HETATM   12  O   UNL     1     -11.522  10.636  67.772  1.00  0.00    -0.460 OA 
BRANCH  10  13
HETATM   13  N   UNL     1      -9.149  11.147  68.541  1.00  0.00    -0.171 N  
HETATM   14  H   UNL     1      -8.753  11.840  67.906  1.00  0.00     0.000 HD 
BRANCH  13  15
HETATM   15  C   UNL     1      -8.304  10.197  69.099  1.00  0.00    -0.154 A  
HETATM   16  C   UNL     1      -7.171  10.544  69.801  1.00  0.00    -0.152 A  
HETATM   17  C   UNL     1      -6.657   9.333  70.279  1.00  0.00    -0.062 A  
HETATM   18  N   UNL     1      -7.406   8.291  69.932  1.00  0.00    -0.063 NA 
HETATM   19  N   UNL     1      -8.417   8.803  69.169  1.00  0.00    -0.121 NA 
BRANCH  19  20
HETATM   20  C   UNL     1      -9.397   7.916  68.628  1.00  0.00    -0.145 A  
HETATM   21  C   UNL     1     -10.240   7.209  69.504  1.00  0.00    -0.201 A  
HETATM   22  C   UNL     1     -11.179   6.297  69.013  1.00  0.00    -0.415 A  
HETATM   23  C   UNL     1     -11.281   6.068  67.645  1.00  0.00    -0.023 A  
HETATM   24  C   UNL     1     -10.465   6.773  66.767  1.00  0.00    -0.298 A  
HETATM   25  C   UNL     1      -9.544   7.706  67.255  1.00  0.00    -0.201 A  
ENDBRANCH  19  20
ENDBRANCH  13  15
ENDBRANCH  10  13
ENDBRANCH   7  10
TORSDOF 4
ENDMDL
MODEL      262
REMARK 921   NORMALIZED FREE ENERGY PREDICTED BY IDOCK:   -3.70 KCAL/MOL
REMARK 922        TOTAL FREE ENERGY PREDICTED BY IDOCK:   -5.30 KCAL/MOL
REMARK 923 INTER-LIGAND FREE ENERGY PREDICTED BY IDOCK:   -4.49 KCAL/MOL
REMARK 924 INTRA-LIGAND FREE ENERGY PREDICTED BY IDOCK:   -0.82 KCAL/MOL
REMARK 927      BINDING AFFINITY PREDICTED BY RF-SCORE:    0.00 PKD
ROOT
HETATM    1  N   UNL     1     -11.158  15.416  66.692  1.00  0.00    -0.283 NA 
HETATM    2  H2  UNL     1     -11.798  15.654  67.450  1.00  0.00     0.000 HD 
HETATM    3  C   UNL     1     -10.805  14.071  66.821  1.00  0.00    -0.294 A  
HETATM    4  H1  UNL     1     -10.437  16.135  66.644  1.00  0.00     0.000 HD 
HETATM    5  C   UNL     1     -11.794  13.086  66.886  1.00  0.00    -0.442 A  
HETATM    6  C   UNL     1     -11.459  11.730  66.921  1.00  0.00    -0.364 A  
HETATM    7  C   UNL     1     -10.117  11.356  66.836  1.00  0.00    -0.214 A  
HETATM    8  C   UNL     1      -9.119  12.324  66.697  1.00  0.00    -0.203 A  
HETATM    9  C   UNL     1      -9.471  13.678  66.667  1.00  0.00    -0.285 A  
ENDROOT
BRANCH   7  10
HETATM   10  S   UNL     1      -9.664   9.635  67.009  1.00  0.00    -0.192 S  
HETATM   11  O   UNL     1      -8.314   9.639  67.530  1.00  0.00    -0.117 OA 
HETATM   12  O   UNL     1     -10.731   8.999  67.753  1.00  0.00    -0.229 OA 
BRANCH  10  13
HETATM   13  N   UNL     1      -9.644   9.132  65.454  1.00  0.00    -0.457 N  
HETATM   14  H   UNL     1     -10.474   9.282  64.882  1.00  0.00     0.000 HD 
BRANCH  13  15
HETATM   15  C   UNL     1      -8.544   8.510  64.880  1.00  0.00    -0.108 A  
HETATM   16  C   UNL     1      -7.696   9.166  64.015  1.00  0.00    -0.122 A  
HETATM   17  C   UNL     1      -6.676   8.247  63.743  1.00  0.00    -0.075 A  
HETATM   18  N   UNL     1      -6.839   7.099  64.392  1.00  0.00    -0.046 NA 
HETATM   19  N   UNL     1      -8.013   7.229  65.079  1.00  0.00    -0.125 NA 
BRANCH  19  20
HETATM   20  C   UNL     1      -8.475   6.138  65.878  1.00  0.00    -0.145 A  
HETATM   21  C   UNL     1      -9.084   5.037  65.249  1.00  0.00    -0.143 A  
HETATM   22  C   UNL     1      -9.589   3.973  66.002  1.00  0.00    -0.200 A  
HETATM   23  C   UNL     1      -9.506   3.999  67.390  1.00  0.00    -0.231 A  
HETATM   24  C   UNL     1      -8.891   5.073  68.022  1.00  0.00    -0.109 A  
HETATM   25  C   UNL     1      -8.360   6.125  67.270  1.00  0.00    -0.105 A  
ENDBRANCH  19  20
ENDBRANCH  13  15
ENDBRANCH  10  13
ENDBRANCH   7  10
TORSDOF 4
ENDMDL
MODEL      263
REMARK 921   NORMALIZED FREE ENERGY PREDICTED BY IDOCK:   -3.69 KCAL/MOL
REMARK 922        TOTAL FREE ENERGY PREDICTED BY IDOCK:   -5.29 KCAL/MOL
REMARK 923 INTER-LIGAND FREE ENERGY PREDICTED BY IDOCK:   -4.56 KCAL/MOL
REMARK 924 INTRA-LIGAND FREE ENERGY PREDICTED BY IDOCK:   -0.73 KCAL/MOL
REMARK 927      BINDING AFFINITY PREDICTED BY RF-SCORE:    0.00 PKD
ROOT
HETATM    1  N   UNL     1      -7.921   9.049  68.690  1.00  0.00    -0.101 NA 
HETATM    2  H2  UNL     1      -8.583   8.272  68.694  1.00  0.00     0.000 HD 
HETATM    3  C   UNL     1      -8.575  10.180  68.197  1.00  0.00    -0.118 A  
HETATM    4  H1  UNL     1      -7.053   8.729  68.261  1.00  0.00     0.000 HD 
HETATM    5  C   UNL     1      -9.765  10.618  68.785  1.00  0.00    -0.193 A  
HETATM    6  C   UNL     1     -10.383  11.800  68.366  1.00  0.00    -0.223 A  
HETATM    7  C   UNL     1      -9.772  12.578  67.381  1.00  0.00    -0.194 A  
HETATM    8  C   UNL     1      -8.546  12.192  66.833  1.00  0.00    -0.191 A  
HETATM    9  C   UNL     1      -7.942  11.005  67.261  1.00  0.00    -0.126 A  
ENDROOT
BRANCH   7  10
HETATM   10  S   UNL     1     -10.612  14.022  66.745  1.00  0.00    -0.278 S  
HETATM   11  O   UNL     1      -9.749  14.549  65.710  1.00  0.00    -0.314 OA 
HETATM   12  O   UNL     1     -11.963  13.608  66.426  1.00  0.00    -0.380 OA 
BRANCH  10  13
HETATM   13  N   UNL     1     -10.588  15.024  68.035  1.00  0.00    -0.246 N  
HETATM   14  H   UNL     1     -10.834  14.648  68.950  1.00  0.00     0.000 HD 
BRANCH  13  15
HETATM   15  C   UNL     1     -10.247  16.366  67.937  1.00  0.00    -0.268 A  
HETATM   16  C   UNL     1     -11.149  17.326  67.535  1.00  0.00     0.044 A  
HETATM   17  C   UNL     1     -10.465  18.541  67.663  1.00  0.00    -0.417 A  
HETATM   18  N   UNL     1      -9.230  18.382  68.128  1.00  0.00    -0.303 NA 
HETATM   19  N   UNL     1      -9.062  17.034  68.273  1.00  0.00    -0.234 NA 
BRANCH  19  20
HETATM   20  C   UNL     1      -7.812  16.538  68.752  1.00  0.00    -0.235 A  
HETATM   21  C   UNL     1      -6.630  17.227  68.427  1.00  0.00    -0.174 A  
HETATM   22  C   UNL     1      -5.384  16.745  68.840  1.00  0.00    -0.128 A  
HETATM   23  C   UNL     1      -5.299  15.564  69.570  1.00  0.00    -0.100 A  
HETATM   24  C   UNL     1      -6.461  14.882  69.912  1.00  0.00    -0.171 A  
HETATM   25  C   UNL     1      -7.710  15.378  69.524  1.00  0.00    -0.210 A  
ENDBRANCH  19  20
ENDBRANCH  13  15
ENDBRANCH  10  13
ENDBRANCH   7  10
TORSDOF 4
ENDMDL
MODEL      264
REMARK 921   NORMALIZED FREE ENERGY PREDICTED BY IDOCK:   -3.69 KCAL/MOL
REMARK 922        TOTAL FREE ENERGY PREDICTED BY IDOCK:   -5.28 KCAL/MOL
REMARK 923 INTER-LIGAND FREE ENERGY PREDICTED BY IDOCK:   -4.78 KCAL/MOL
REMARK 924 INTRA-LIGAND FREE ENERGY PREDICTED BY IDOCK:   -0.51 KCAL/MOL
REMARK 927      BINDING AFFINITY PREDICTED BY RF-SCORE:    0.00 PKD
ROOT
HETATM    1  N   UNL     1      -9.186   9.640  63.045  1.00  0.00    -0.446 NA 
HETATM    2  H2  UNL     1      -9.117   8.707  62.639  1.00  0.00     0.000 HD 
HETATM    3  C   UNL     1      -9.143   9.518  64.436  1.00  0.00    -0.182 A  
HETATM    4  H1  UNL     1      -9.959  10.130  62.595  1.00  0.00     0.000 HD 
HETATM    5  C   UNL     1      -8.083   8.847  65.052  1.00  0.00    -0.137 A  
HETATM    6  C   UNL     1      -7.976   8.797  66.445  1.00  0.00    -0.103 A  
HETATM    7  C   UNL     1      -8.914   9.471  67.227  1.00  0.00    -0.131 A  
HETATM    8  C   UNL     1      -9.939  10.207  66.627  1.00  0.00    -0.272 A  
HETATM    9  C   UNL     1     -10.035  10.245  65.232  1.00  0.00    -0.387 A  
ENDROOT
BRANCH   7  10
HETATM   10  S   UNL     1      -8.865   9.309  69.007  1.00  0.00    -0.139 S  
HETATM   11  O   UNL     1     -10.215   8.973  69.404  1.00  0.00    -0.192 OA 
HETATM   12  O   UNL     1      -7.771   8.410  69.311  1.00  0.00    -0.094 OA 
BRANCH  10  13
HETATM   13  N   UNL     1      -8.524  10.837  69.477  1.00  0.00    -0.385 N  
HETATM   14  H   UNL     1      -8.871  11.158  70.381  1.00  0.00     0.000 HD 
BRANCH  13  15
HETATM   15  C   UNL     1      -7.785  11.715  68.698  1.00  0.00    -0.134 A  
HETATM   16  C   UNL     1      -6.524  11.405  68.236  1.00  0.00    -0.056 A  
HETATM   17  C   UNL     1      -6.163  12.484  67.420  1.00  0.00    -0.158 A  
HETATM   18  N   UNL     1      -7.118  13.406  67.344  1.00  0.00    -0.143 NA 
HETATM   19  N   UNL     1      -8.122  12.964  68.159  1.00  0.00    -0.150 NA 
BRANCH  19  20
HETATM   20  C   UNL     1      -9.302  13.755  68.299  1.00  0.00    -0.209 A  
HETATM   21  C   UNL     1      -9.211  15.020  68.907  1.00  0.00    -0.206 A  
HETATM   22  C   UNL     1     -10.352  15.803  69.103  1.00  0.00    -0.240 A  
HETATM   23  C   UNL     1     -11.600  15.331  68.709  1.00  0.00    -0.379 A  
HETATM   24  C   UNL     1     -11.701  14.090  68.092  1.00  0.00    -0.387 A  
HETATM   25  C   UNL     1     -10.557  13.317  67.869  1.00  0.00    -0.246 A  
ENDBRANCH  19  20
ENDBRANCH  13  15
ENDBRANCH  10  13
ENDBRANCH   7  10
TORSDOF 4
ENDMDL
MODEL      265
REMARK 921   NORMALIZED FREE ENERGY PREDICTED BY IDOCK:   -3.61 KCAL/MOL
REMARK 922        TOTAL FREE ENERGY PREDICTED BY IDOCK:   -5.18 KCAL/MOL
REMARK 923 INTER-LIGAND FREE ENERGY PREDICTED BY IDOCK:   -4.24 KCAL/MOL
REMARK 924 INTRA-LIGAND FREE ENERGY PREDICTED BY IDOCK:   -0.95 KCAL/MOL
REMARK 927      BINDING AFFINITY PREDICTED BY RF-SCORE:    0.00 PKD
ROOT
HETATM    1  N   UNL     1     -12.334  12.858  66.457  1.00  0.00    -0.417 NA 
HETATM    2  H2  UNL     1     -12.842  11.995  66.264  1.00  0.00     0.000 HD 
HETATM    3  C   UNL     1     -11.040  12.525  66.861  1.00  0.00    -0.278 A  
HETATM    4  H1  UNL     1     -12.920  13.450  67.046  1.00  0.00     0.000 HD 
HETATM    5  C   UNL     1     -10.237  11.714  66.053  1.00  0.00    -0.270 A  
HETATM    6  C   UNL     1      -8.908  11.448  66.396  1.00  0.00    -0.193 A  
HETATM    7  C   UNL     1      -8.363  12.045  67.534  1.00  0.00    -0.166 A  
HETATM    8  C   UNL     1      -9.129  12.916  68.313  1.00  0.00    -0.180 A  
HETATM    9  C   UNL     1     -10.459  13.170  67.958  1.00  0.00    -0.245 A  
ENDROOT
BRANCH   7  10
HETATM   10  S   UNL     1      -6.708  11.613  68.055  1.00  0.00    -0.068 S  
HETATM   11  O   UNL     1      -6.105  10.946  66.920  1.00  0.00    -0.062 OA 
HETATM   12  O   UNL     1      -6.114  12.820  68.590  1.00  0.00    -0.062 OA 
BRANCH  10  13
HETATM   13  N   UNL     1      -6.999  10.521  69.235  1.00  0.00    -0.075 N  
HETATM   14  H   UNL     1      -6.936  10.824  70.207  1.00  0.00     0.000 HD 
BRANCH  13  15
HETATM   15  C   UNL     1      -7.326   9.198  68.970  1.00  0.00    -0.073 A  
HETATM   16  C   UNL     1      -6.439   8.326  68.378  1.00  0.00    -0.059 A  
HETATM   17  C   UNL     1      -7.096   7.089  68.377  1.00  0.00    -0.082 A  
HETATM   18  N   UNL     1      -8.299   7.151  68.939  1.00  0.00    -0.125 NA 
HETATM   19  N   UNL     1      -8.476   8.461  69.285  1.00  0.00    -0.124 NA 
BRANCH  19  20
HETATM   20  C   UNL     1      -9.697   8.855  69.911  1.00  0.00    -0.177 A  
HETATM   21  C   UNL     1     -10.083   8.235  71.112  1.00  0.00    -0.237 A  
HETATM   22  C   UNL     1     -11.295   8.563  71.729  1.00  0.00    -0.377 A  
HETATM   23  C   UNL     1     -12.142   9.501  71.149  1.00  0.00    -0.429 A  
HETATM   24  C   UNL     1     -11.764  10.132  69.970  1.00  0.00    -0.294 A  
HETATM   25  C   UNL     1     -10.540   9.828  69.367  1.00  0.00    -0.248 A  
ENDBRANCH  19  20
ENDBRANCH  13  15
ENDBRANCH  10  13
ENDBRANCH   7  10
TORSDOF 4
ENDMDL
MODEL      266
REMARK 921   NORMALIZED FREE ENERGY PREDICTED BY IDOCK:   -3.55 KCAL/MOL
REMARK 922        TOTAL FREE ENERGY PREDICTED BY IDOCK:   -5.12 KCAL/MOL
REMARK 923 INTER-LIGAND FREE ENERGY PREDICTED BY IDOCK:   -4.10 KCAL/MOL
REMARK 924 INTRA-LIGAND FREE ENERGY PREDICTED BY IDOCK:   -1.02 KCAL/MOL
REMARK 927      BINDING AFFINITY PREDICTED BY RF-SCORE:    0.00 PKD
ROOT
HETATM    1  N   UNL     1      -9.102   1.937  64.062  1.00  0.00    -0.101 NA 
HETATM    2  H2  UNL     1      -8.970   1.069  64.581  1.00  0.00     0.000 HD 
HETATM    3  C   UNL     1      -9.376   2.957  64.976  1.00  0.00    -0.133 A  
HETATM    4  H1  UNL     1      -9.741   1.755  63.289  1.00  0.00     0.000 HD 
HETATM    5  C   UNL     1      -8.500   3.207  66.036  1.00  0.00    -0.109 A  
HETATM    6  C   UNL     1      -8.709   4.282  66.904  1.00  0.00    -0.113 A  
HETATM    7  C   UNL     1      -9.779   5.148  66.675  1.00  0.00    -0.168 A  
HETATM    8  C   UNL     1     -10.623   4.956  65.578  1.00  0.00    -0.091 A  
HETATM    9  C   UNL     1     -10.403   3.872  64.719  1.00  0.00    -0.184 A  
ENDROOT
BRANCH   7  10
HETATM   10  S   UNL     1     -10.134   6.449  67.848  1.00  0.00    -0.165 S  
HETATM   11  O   UNL     1     -11.070   5.876  68.792  1.00  0.00    -0.297 OA 
HETATM   12  O   UNL     1      -8.856   6.955  68.305  1.00  0.00    -0.123 OA 
BRANCH  10  13
HETATM   13  N   UNL     1     -10.906   7.546  66.915  1.00  0.00    -0.542 N  
HETATM   14  H   UNL     1     -11.696   7.236  66.349  1.00  0.00     0.000 HD 
BRANCH  13  15
HETATM   15  C   UNL     1     -10.531   8.881  66.858  1.00  0.00    -0.234 A  
HETATM   16  C   UNL     1     -10.897   9.788  67.829  1.00  0.00    -0.306 A  
HETATM   17  C   UNL     1     -10.251  10.978  67.472  1.00  0.00    -0.188 A  
HETATM   18  N   UNL     1      -9.514  10.847  66.373  1.00  0.00    -0.182 NA 
HETATM   19  N   UNL     1      -9.701   9.559  65.957  1.00  0.00    -0.253 NA 
BRANCH  19  20
HETATM   20  C   UNL     1      -9.038   9.109  64.774  1.00  0.00    -0.099 A  
HETATM   21  C   UNL     1      -8.231   7.959  64.837  1.00  0.00    -0.128 A  
HETATM   22  C   UNL     1      -7.530   7.516  63.711  1.00  0.00    -0.108 A  
HETATM   23  C   UNL     1      -7.615   8.219  62.514  1.00  0.00    -0.112 A  
HETATM   24  C   UNL     1      -8.423   9.347  62.435  1.00  0.00    -0.201 A  
HETATM   25  C   UNL     1      -9.147   9.776  63.552  1.00  0.00    -0.263 A  
ENDBRANCH  19  20
ENDBRANCH  13  15
ENDBRANCH  10  13
ENDBRANCH   7  10
TORSDOF 4
ENDMDL
MODEL      267
REMARK 921   NORMALIZED FREE ENERGY PREDICTED BY IDOCK:   -3.51 KCAL/MOL
REMARK 922        TOTAL FREE ENERGY PREDICTED BY IDOCK:   -5.07 KCAL/MOL
REMARK 923 INTER-LIGAND FREE ENERGY PREDICTED BY IDOCK:   -4.50 KCAL/MOL
REMARK 924 INTRA-LIGAND FREE ENERGY PREDICTED BY IDOCK:   -0.57 KCAL/MOL
REMARK 927      BINDING AFFINITY PREDICTED BY RF-SCORE:    0.00 PKD
ROOT
HETATM    1  N   UNL     1     -12.045  10.984  71.126  1.00  0.00    -0.293 NA 
HETATM    2  H2  UNL     1     -11.710  11.185  72.068  1.00  0.00     0.000 HD 
HETATM    3  C   UNL     1     -11.070  10.238  70.461  1.00  0.00    -0.306 A  
HETATM    4  H1  UNL     1     -12.395  11.852  70.720  1.00  0.00     0.000 HD 
HETATM    5  C   UNL     1     -10.591   9.050  71.019  1.00  0.00    -0.341 A  
HETATM    6  C   UNL     1      -9.684   8.243  70.325  1.00  0.00    -0.177 A  
HETATM    7  C   UNL     1      -9.295   8.607  69.035  1.00  0.00    -0.146 A  
HETATM    8  C   UNL     1      -9.819   9.754  68.433  1.00  0.00    -0.168 A  
HETATM    9  C   UNL     1     -10.723  10.553  69.143  1.00  0.00    -0.266 A  
ENDROOT
BRANCH   7  10
HETATM   10  S   UNL     1      -8.041   7.656  68.187  1.00  0.00    -0.125 S  
HETATM   11  O   UNL     1      -6.922   8.558  68.012  1.00  0.00    -0.072 OA 
HETATM   12  O   UNL     1      -7.876   6.427  68.934  1.00  0.00    -0.106 OA 
BRANCH  10  13
HETATM   13  N   UNL     1      -8.746   7.380  66.739  1.00  0.00    -0.128 N  
HETATM   14  H   UNL     1      -9.761   7.292  66.699  1.00  0.00     0.000 HD 
BRANCH  13  15
HETATM   15  C   UNL     1      -8.022   7.261  65.561  1.00  0.00    -0.122 A  
HETATM   16  C   UNL     1      -7.158   6.212  65.333  1.00  0.00    -0.065 A  
HETATM   17  C   UNL     1      -6.709   6.394  64.019  1.00  0.00    -0.037 A  
HETATM   18  N   UNL     1      -7.252   7.460  63.439  1.00  0.00    -0.074 NA 
HETATM   19  N   UNL     1      -8.046   8.033  64.392  1.00  0.00    -0.145 NA 
BRANCH  19  20
HETATM   20  C   UNL     1      -8.767   9.223  64.071  1.00  0.00    -0.171 A  
HETATM   21  C   UNL     1      -8.612   9.796  62.796  1.00  0.00    -0.194 A  
HETATM   22  C   UNL     1      -9.267  10.986  62.463  1.00  0.00    -0.337 A  
HETATM   23  C   UNL     1     -10.073  11.625  63.399  1.00  0.00    -0.468 A  
HETATM   24  C   UNL     1     -10.247  11.060  64.656  1.00  0.00    -0.392 A  
HETATM   25  C   UNL     1      -9.617   9.855  64.982  1.00  0.00    -0.364 A  
ENDBRANCH  19  20
ENDBRANCH  13  15
ENDBRANCH  10  13
ENDBRANCH   7  10
TORSDOF 4
ENDMDL
MODEL      268
REMARK 921   NORMALIZED FREE ENERGY PREDICTED BY IDOCK:   -3.50 KCAL/MOL
REMARK 922        TOTAL FREE ENERGY PREDICTED BY IDOCK:   -5.05 KCAL/MOL
REMARK 923 INTER-LIGAND FREE ENERGY PREDICTED BY IDOCK:   -5.14 KCAL/MOL
REMARK 924 INTRA-LIGAND FREE ENERGY PREDICTED BY IDOCK:    0.09 KCAL/MOL
REMARK 927      BINDING AFFINITY PREDICTED BY RF-SCORE:    0.00 PKD
ROOT
HETATM    1  N   UNL     1      -5.961  10.185  70.192  1.00  0.00    -0.056 NA 
HETATM    2  H2  UNL     1      -5.628   9.322  69.761  1.00  0.00     0.000 HD 
HETATM    3  C   UNL     1      -7.200  10.505  69.634  1.00  0.00    -0.148 A  
HETATM    4  H1  UNL     1      -5.200  10.864  70.178  1.00  0.00     0.000 HD 
HETATM    5  C   UNL     1      -8.243   9.574  69.653  1.00  0.00    -0.143 A  
HETATM    6  C   UNL     1      -9.516   9.909  69.184  1.00  0.00    -0.201 A  
HETATM    7  C   UNL     1      -9.760  11.209  68.740  1.00  0.00    -0.185 A  
HETATM    8  C   UNL     1      -8.750  12.173  68.781  1.00  0.00     0.109 A  
HETATM    9  C   UNL     1      -7.479  11.821  69.250  1.00  0.00     0.109 A  
ENDROOT
BRANCH   7  10
HETATM   10  S   UNL     1     -11.344  11.617  68.019  1.00  0.00    -0.315 S  
HETATM   11  O   UNL     1     -11.342  11.007  66.706  1.00  0.00    -0.317 OA 
HETATM   12  O   UNL     1     -12.350  11.247  68.992  1.00  0.00    -0.446 OA 
BRANCH  10  13
HETATM   13  N   UNL     1     -11.238  13.240  67.863  1.00  0.00    -0.260 N  
HETATM   14  H   UNL     1     -11.089  13.633  66.934  1.00  0.00     0.000 HD 
BRANCH  13  15
HETATM   15  C   UNL     1     -11.342  14.107  68.942  1.00  0.00    -0.277 A  
HETATM   16  C   UNL     1     -11.853  13.708  70.158  1.00  0.00    -0.351 A  
HETATM   17  C   UNL     1     -11.696  14.818  70.997  1.00  0.00    -0.306 A  
HETATM   18  N   UNL     1     -11.115  15.843  70.381  1.00  0.00    -0.349 NA 
HETATM   19  N   UNL     1     -10.917  15.433  69.092  1.00  0.00    -0.237 NA 
BRANCH  19  20
HETATM   20  C   UNL     1     -10.311  16.332  68.163  1.00  0.00    -0.277 A  
HETATM   21  C   UNL     1      -9.183  15.910  67.437  1.00  0.00    -0.207 A  
HETATM   22  C   UNL     1      -8.535  16.778  66.553  1.00  0.00    -0.318 A  
HETATM   23  C   UNL     1      -8.995  18.082  66.392  1.00  0.00    -0.249 A  
HETATM   24  C   UNL     1     -10.118  18.506  67.092  1.00  0.00    -0.378 A  
HETATM   25  C   UNL     1     -10.785  17.630  67.955  1.00  0.00    -0.341 A  
ENDBRANCH  19  20
ENDBRANCH  13  15
ENDBRANCH  10  13
ENDBRANCH   7  10
TORSDOF 4
ENDMDL
MODEL      269
REMARK 921   NORMALIZED FREE ENERGY PREDICTED BY IDOCK:   -3.47 KCAL/MOL
REMARK 922        TOTAL FREE ENERGY PREDICTED BY IDOCK:   -5.01 KCAL/MOL
REMARK 923 INTER-LIGAND FREE ENERGY PREDICTED BY IDOCK:   -4.17 KCAL/MOL
REMARK 924 INTRA-LIGAND FREE ENERGY PREDICTED BY IDOCK:   -0.85 KCAL/MOL
REMARK 927      BINDING AFFINITY PREDICTED BY RF-SCORE:    0.00 PKD
ROOT
HETATM    1  N   UNL     1      -8.804  14.090  68.355  1.00  0.00    -0.183 NA 
HETATM    2  H2  UNL     1      -9.682  14.528  68.635  1.00  0.00     0.000 HD 
HETATM    3  C   UNL     1      -9.015  12.714  68.244  1.00  0.00    -0.176 A  
HETATM    4  H1  UNL     1      -8.061  14.450  68.953  1.00  0.00     0.000 HD 
HETATM    5  C   UNL     1     -10.033  12.221  67.424  1.00  0.00    -0.205 A  
HETATM    6  C   UNL     1     -10.198  10.846  67.229  1.00  0.00    -0.242 A  
HETATM    7  C   UNL     1      -9.298   9.959  67.821  1.00  0.00    -0.140 A  
HETATM    8  C   UNL     1      -8.231  10.438  68.585  1.00  0.00    -0.121 A  
HETATM    9  C   UNL     1      -8.081  11.816  68.774  1.00  0.00    -0.047 A  
ENDROOT
BRANCH   7  10
HETATM   10  S   UNL     1      -9.572   8.198  67.686  1.00  0.00    -0.159 S  
HETATM   11  O   UNL     1     -10.043   7.980  66.335  1.00  0.00    -0.227 OA 
HETATM   12  O   UNL     1      -8.359   7.554  68.147  1.00  0.00    -0.123 OA 
BRANCH  10  13
HETATM   13  N   UNL     1     -10.803   7.965  68.734  1.00  0.00    -0.418 N  
HETATM   14  H   UNL     1     -11.711   7.683  68.366  1.00  0.00     0.000 HD 
BRANCH  13  15
HETATM   15  C   UNL     1     -10.665   8.134  70.105  1.00  0.00    -0.243 A  
HETATM   16  C   UNL     1     -11.211   9.209  70.771  1.00  0.00    -0.336 A  
HETATM   17  C   UNL     1     -10.945   8.968  72.124  1.00  0.00    -0.187 A  
HETATM   18  N   UNL     1     -10.298   7.824  72.319  1.00  0.00    -0.220 NA 
HETATM   19  N   UNL     1     -10.084   7.305  71.074  1.00  0.00    -0.192 NA 
BRANCH  19  20
HETATM   20  C   UNL     1      -9.390   6.064  70.948  1.00  0.00    -0.161 A  
HETATM   21  C   UNL     1     -10.124   4.888  70.708  1.00  0.00    -0.303 A  
HETATM   22  C   UNL     1      -9.483   3.649  70.626  1.00  0.00    -0.242 A  
HETATM   23  C   UNL     1      -8.105   3.563  70.795  1.00  0.00    -0.065 A  
HETATM   24  C   UNL     1      -7.366   4.719  71.016  1.00  0.00    -0.060 A  
HETATM   25  C   UNL     1      -8.001   5.964  71.070  1.00  0.00    -0.116 A  
ENDBRANCH  19  20
ENDBRANCH  13  15
ENDBRANCH  10  13
ENDBRANCH   7  10
TORSDOF 4
ENDMDL
MODEL      270
REMARK 921   NORMALIZED FREE ENERGY PREDICTED BY IDOCK:   -3.44 KCAL/MOL
REMARK 922        TOTAL FREE ENERGY PREDICTED BY IDOCK:   -4.98 KCAL/MOL
REMARK 923 INTER-LIGAND FREE ENERGY PREDICTED BY IDOCK:   -4.12 KCAL/MOL
REMARK 924 INTRA-LIGAND FREE ENERGY PREDICTED BY IDOCK:   -0.86 KCAL/MOL
REMARK 927      BINDING AFFINITY PREDICTED BY RF-SCORE:    0.00 PKD
ROOT
HETATM    1  N   UNL     1      -9.564  14.531  68.292  1.00  0.00    -0.206 NA 
HETATM    2  H2  UNL     1     -10.424  14.480  68.840  1.00  0.00     0.000 HD 
HETATM    3  C   UNL     1      -9.313  13.269  67.750  1.00  0.00    -0.209 A  
HETATM    4  H1  UNL     1      -8.854  15.000  68.854  1.00  0.00     0.000 HD 
HETATM    5  C   UNL     1     -10.287  12.626  66.981  1.00  0.00    -0.241 A  
HETATM    6  C   UNL     1     -10.020  11.406  66.354  1.00  0.00    -0.247 A  
HETATM    7  C   UNL     1      -8.744  10.850  66.457  1.00  0.00    -0.163 A  
HETATM    8  C   UNL     1      -7.737  11.514  67.162  1.00  0.00    -0.160 A  
HETATM    9  C   UNL     1      -8.021  12.733  67.787  1.00  0.00    -0.157 A  
ENDROOT
BRANCH   7  10
HETATM   10  S   UNL     1      -8.424   9.230  65.770  1.00  0.00    -0.142 S  
HETATM   11  O   UNL     1      -8.138   9.453  64.369  1.00  0.00    -0.123 OA 
HETATM   12  O   UNL     1      -7.437   8.605  66.626  1.00  0.00    -0.087 OA 
BRANCH  10  13
HETATM   13  N   UNL     1      -9.881   8.506  65.918  1.00  0.00    -0.463 N  
HETATM   14  H   UNL     1     -10.634   8.790  65.291  1.00  0.00     0.000 HD 
BRANCH  13  15
HETATM   15  C   UNL     1     -10.138   7.521  66.861  1.00  0.00    -0.266 A  
HETATM   16  C   UNL     1     -10.644   7.813  68.109  1.00  0.00    -0.182 A  
HETATM   17  C   UNL     1     -10.855   6.567  68.713  1.00  0.00    -0.299 A  
HETATM   18  N   UNL     1     -10.532   5.554  67.915  1.00  0.00    -0.200 NA 
HETATM   19  N   UNL     1     -10.052   6.126  66.771  1.00  0.00    -0.173 NA 
BRANCH  19  20
HETATM   20  C   UNL     1      -9.606   5.282  65.708  1.00  0.00    -0.089 A  
HETATM   21  C   UNL     1     -10.470   4.290  65.211  1.00  0.00    -0.196 A  
HETATM   22  C   UNL     1     -10.051   3.417  64.204  1.00  0.00    -0.192 A  
HETATM   23  C   UNL     1      -8.762   3.512  63.688  1.00  0.00    -0.094 A  
HETATM   24  C   UNL     1      -7.905   4.499  64.159  1.00  0.00    -0.086 A  
HETATM   25  C   UNL     1      -8.332   5.392  65.147  1.00  0.00    -0.144 A  
ENDBRANCH  19  20
ENDBRANCH  13  15
ENDBRANCH  10  13
ENDBRANCH   7  10
TORSDOF 4
ENDMDL
MODEL      271
REMARK 921   NORMALIZED FREE ENERGY PREDICTED BY IDOCK:   -3.35 KCAL/MOL
REMARK 922        TOTAL FREE ENERGY PREDICTED BY IDOCK:   -4.86 KCAL/MOL
REMARK 923 INTER-LIGAND FREE ENERGY PREDICTED BY IDOCK:   -5.41 KCAL/MOL
REMARK 924 INTRA-LIGAND FREE ENERGY PREDICTED BY IDOCK:    0.55 KCAL/MOL
REMARK 927      BINDING AFFINITY PREDICTED BY RF-SCORE:    0.00 PKD
ROOT
HETATM    1  N   UNL     1      -7.101   8.784  71.854  1.00  0.00    -0.245 NA 
HETATM    2  H2  UNL     1      -7.661   8.152  72.426  1.00  0.00     0.000 HD 
HETATM    3  C   UNL     1      -7.775   8.999  70.649  1.00  0.00    -0.121 A  
HETATM    4  H1  UNL     1      -6.139   8.446  71.851  1.00  0.00     0.000 HD 
HETATM    5  C   UNL     1      -9.094   9.462  70.653  1.00  0.00    -0.292 A  
HETATM    6  C   UNL     1      -9.751   9.772  69.459  1.00  0.00    -0.228 A  
HETATM    7  C   UNL     1      -9.060   9.667  68.251  1.00  0.00    -0.123 A  
HETATM    8  C   UNL     1      -7.719   9.276  68.234  1.00  0.00    -0.087 A  
HETATM    9  C   UNL     1      -7.076   8.965  69.438  1.00  0.00    -0.057 A  
ENDROOT
BRANCH   7  10
HETATM   10  S   UNL     1      -9.924   9.936  66.709  1.00  0.00    -0.226 S  
HETATM   11  O   UNL     1      -8.967  10.582  65.836  1.00  0.00    -0.155 OA 
HETATM   12  O   UNL     1     -10.510   8.665  66.336  1.00  0.00    -0.205 OA 
BRANCH  10  13
HETATM   13  N   UNL     1     -11.072  11.013  67.148  1.00  0.00    -0.289 N  
HETATM   14  H   UNL     1     -12.051  10.736  67.082  1.00  0.00     0.000 HD 
BRANCH  13  15
HETATM   15  C   UNL     1     -10.771  12.288  67.605  1.00  0.00    -0.220 A  
HETATM   16  C   UNL     1     -10.031  13.180  66.860  1.00  0.00    -0.245 A  
HETATM   17  C   UNL     1     -10.034  14.364  67.607  1.00  0.00    -0.224 A  
HETATM   18  N   UNL     1     -10.733  14.253  68.732  1.00  0.00    -0.249 NA 
HETATM   19  N   UNL     1     -11.171  12.960  68.767  1.00  0.00    -0.263 NA 
BRANCH  19  20
HETATM   20  C   UNL     1     -11.955  12.522  69.878  1.00  0.00    -0.301 A  
HETATM   21  C   UNL     1     -12.156  11.144  70.075  1.00  0.00    -0.437 A  
HETATM   22  C   UNL     1     -12.955  10.681  71.124  1.00  0.00    -0.483 A  
HETATM   23  C   UNL     1     -13.574  11.584  71.982  1.00  0.00    -0.138 A  
HETATM   24  C   UNL     1     -13.369  12.947  71.809  1.00  0.00    -0.451 A  
HETATM   25  C   UNL     1     -12.547  13.412  70.777  1.00  0.00    -0.369 A  
ENDBRANCH  19  20
ENDBRANCH  13  15
ENDBRANCH  10  13
ENDBRANCH   7  10
TORSDOF 4
ENDMDL
MODEL      272
REMARK 921   NORMALIZED FREE ENERGY PREDICTED BY IDOCK:   -3.30 KCAL/MOL
REMARK 922        TOTAL FREE ENERGY PREDICTED BY IDOCK:   -4.80 KCAL/MOL
REMARK 923 INTER-LIGAND FREE ENERGY PREDICTED BY IDOCK:   -4.28 KCAL/MOL
REMARK 924 INTRA-LIGAND FREE ENERGY PREDICTED BY IDOCK:   -0.53 KCAL/MOL
REMARK 927      BINDING AFFINITY PREDICTED BY RF-SCORE:    0.00 PKD
ROOT
HETATM    1  N   UNL     1      -8.557   4.639  62.955  1.00  0.00    -0.111 NA 
HETATM    2  H2  UNL     1      -7.586   4.379  62.781  1.00  0.00     0.000 HD 
HETATM    3  C   UNL     1      -8.637   5.210  64.227  1.00  0.00    -0.110 A  
HETATM    4  H1  UNL     1      -9.151   3.848  62.708  1.00  0.00     0.000 HD 
HETATM    5  C   UNL     1      -7.823   6.295  64.565  1.00  0.00    -0.115 A  
HETATM    6  C   UNL     1      -7.956   6.937  65.799  1.00  0.00    -0.116 A  
HETATM    7  C   UNL     1      -8.951   6.520  66.684  1.00  0.00    -0.138 A  
HETATM    8  C   UNL     1      -9.821   5.484  66.333  1.00  0.00    -0.192 A  
HETATM    9  C   UNL     1      -9.674   4.849  65.095  1.00  0.00    -0.002 A  
ENDROOT
BRANCH   7  10
HETATM   10  S   UNL     1      -9.049   7.245  68.314  1.00  0.00    -0.133 S  
HETATM   11  O   UNL     1      -9.360   6.150  69.208  1.00  0.00    -0.134 OA 
HETATM   12  O   UNL     1      -7.837   8.015  68.499  1.00  0.00    -0.110 OA 
BRANCH  10  13
HETATM   13  N   UNL     1     -10.354   8.219  68.175  1.00  0.00    -0.234 N  
HETATM   14  H   UNL     1     -10.875   8.214  67.298  1.00  0.00     0.000 HD 
BRANCH  13  15
HETATM   15  C   UNL     1     -10.783   9.051  69.199  1.00  0.00    -0.157 A  
HETATM   16  C   UNL     1     -11.080   8.576  70.457  1.00  0.00    -0.265 A  
HETATM   17  C   UNL     1     -11.370   9.716  71.215  1.00  0.00    -0.388 A  
HETATM   18  N   UNL     1     -11.252  10.838  70.512  1.00  0.00    -0.218 NA 
HETATM   19  N   UNL     1     -10.920  10.445  69.246  1.00  0.00    -0.227 NA 
BRANCH  19  20
HETATM   20  C   UNL     1     -10.731  11.438  68.237  1.00  0.00    -0.204 A  
HETATM   21  C   UNL     1      -9.626  12.303  68.326  1.00  0.00    -0.212 A  
HETATM   22  C   UNL     1      -9.435  13.317  67.382  1.00  0.00    -0.218 A  
HETATM   23  C   UNL     1     -10.348  13.490  66.348  1.00  0.00    -0.289 A  
HETATM   24  C   UNL     1     -11.435  12.631  66.240  1.00  0.00    -0.415 A  
HETATM   25  C   UNL     1     -11.613  11.598  67.166  1.00  0.00    -0.291 A  
ENDBRANCH  19  20
ENDBRANCH  13  15
ENDBRANCH  10  13
ENDBRANCH   7  10
TORSDOF 4
ENDMDL
MODEL      273
REMARK 921   NORMALIZED FREE ENERGY PREDICTED BY IDOCK:   -3.23 KCAL/MOL
REMARK 922        TOTAL FREE ENERGY PREDICTED BY IDOCK:   -4.72 KCAL/MOL
REMARK 923 INTER-LIGAND FREE ENERGY PREDICTED BY IDOCK:   -3.87 KCAL/MOL
REMARK 924 INTRA-LIGAND FREE ENERGY PREDICTED BY IDOCK:   -0.85 KCAL/MOL
REMARK 927      BINDING AFFINITY PREDICTED BY RF-SCORE:    0.00 PKD
ROOT
HETATM    1  N   UNL     1     -12.271  12.651  66.685  1.00  0.00    -0.492 NA 
HETATM    2  H2  UNL     1     -13.011  11.953  66.614  1.00  0.00     0.000 HD 
HETATM    3  C   UNL     1     -11.088  12.003  67.047  1.00  0.00    -0.298 A  
HETATM    4  H1  UNL     1     -12.619  13.433  67.239  1.00  0.00     0.000 HD 
HETATM    5  C   UNL     1     -10.611  10.931  66.287  1.00  0.00    -0.276 A  
HETATM    6  C   UNL     1      -9.383  10.332  66.580  1.00  0.00    -0.192 A  
HETATM    7  C   UNL     1      -8.600  10.847  67.614  1.00  0.00    -0.124 A  
HETATM    8  C   UNL     1      -9.028  11.963  68.338  1.00  0.00    -0.163 A  
HETATM    9  C   UNL     1     -10.262  12.550  68.035  1.00  0.00    -0.225 A  
ENDROOT
BRANCH   7  10
HETATM   10  S   UNL     1      -7.090  10.013  68.083  1.00  0.00    -0.081 S  
HETATM   11  O   UNL     1      -6.862   9.017  67.058  1.00  0.00    -0.075 OA 
HETATM   12  O   UNL     1      -6.106  11.046  68.329  1.00  0.00    -0.049 OA 
BRANCH  10  13
HETATM   13  N   UNL     1      -7.530   9.271  69.471  1.00  0.00    -0.075 N  
HETATM   14  H   UNL     1      -6.846   9.197  70.224  1.00  0.00     0.000 HD 
BRANCH  13  15
HETATM   15  C   UNL     1      -8.796   8.737  69.669  1.00  0.00    -0.141 A  
HETATM   16  C   UNL     1      -9.708   9.308  70.529  1.00  0.00    -0.316 A  
HETATM   17  C   UNL     1     -10.874   8.549  70.374  1.00  0.00    -0.234 A  
HETATM   18  N   UNL     1     -10.734   7.579  69.475  1.00  0.00    -0.235 NA 
HETATM   19  N   UNL     1      -9.438   7.657  69.049  1.00  0.00    -0.150 NA 
BRANCH  19  20
HETATM   20  C   UNL     1      -8.971   6.725  68.074  1.00  0.00    -0.117 A  
HETATM   21  C   UNL     1      -7.769   6.033  68.306  1.00  0.00    -0.102 A  
HETATM   22  C   UNL     1      -7.257   5.148  67.353  1.00  0.00    -0.074 A  
HETATM   23  C   UNL     1      -7.929   4.951  66.151  1.00  0.00    -0.107 A  
HETATM   24  C   UNL     1      -9.126   5.616  65.916  1.00  0.00    -0.158 A  
HETATM   25  C   UNL     1      -9.655   6.481  66.880  1.00  0.00    -0.191 A  
ENDBRANCH  19  20
ENDBRANCH  13  15
ENDBRANCH  10  13
ENDBRANCH   7  10
TORSDOF 4
ENDMDL
MODEL      274
REMARK 921   NORMALIZED FREE ENERGY PREDICTED BY IDOCK:   -3.23 KCAL/MOL
REMARK 922        TOTAL FREE ENERGY PREDICTED BY IDOCK:   -4.72 KCAL/MOL
REMARK 923 INTER-LIGAND FREE ENERGY PREDICTED BY IDOCK:   -3.84 KCAL/MOL
REMARK 924 INTRA-LIGAND FREE ENERGY PREDICTED BY IDOCK:   -0.88 KCAL/MOL
REMARK 927      BINDING AFFINITY PREDICTED BY RF-SCORE:    0.00 PKD
ROOT
HETATM    1  N   UNL     1     -11.829  12.291  67.303  1.00  0.00    -0.555 NA 
HETATM    2  H2  UNL     1     -12.535  11.650  66.942  1.00  0.00     0.000 HD 
HETATM    3  C   UNL     1     -10.580  11.674  67.196  1.00  0.00    -0.232 A  
HETATM    4  H1  UNL     1     -12.150  12.649  68.202  1.00  0.00     0.000 HD 
HETATM    5  C   UNL     1     -10.140  11.183  65.963  1.00  0.00    -0.292 A  
HETATM    6  C   UNL     1      -8.857  10.648  65.819  1.00  0.00    -0.198 A  
HETATM    7  C   UNL     1      -7.987  10.653  66.909  1.00  0.00    -0.124 A  
HETATM    8  C   UNL     1      -8.385  11.205  68.130  1.00  0.00    -0.136 A  
HETATM    9  C   UNL     1      -9.674  11.734  68.260  1.00  0.00    -0.199 A  
ENDROOT
BRANCH   7  10
HETATM   10  S   UNL     1      -6.392   9.857  66.775  1.00  0.00    -0.066 S  
HETATM   11  O   UNL     1      -6.066   9.876  65.365  1.00  0.00    -0.071 OA 
HETATM   12  O   UNL     1      -5.523  10.507  67.733  1.00  0.00    -0.043 OA 
BRANCH  10  13
HETATM   13  N   UNL     1      -6.738   8.326  67.231  1.00  0.00    -0.062 N  
HETATM   14  H   UNL     1      -6.389   7.994  68.130  1.00  0.00     0.000 HD 
BRANCH  13  15
HETATM   15  C   UNL     1      -7.486   7.460  66.446  1.00  0.00    -0.084 A  
HETATM   16  C   UNL     1      -7.076   7.066  65.191  1.00  0.00    -0.060 A  
HETATM   17  C   UNL     1      -8.031   6.130  64.777  1.00  0.00    -0.124 A  
HETATM   18  N   UNL     1      -8.970   5.921  65.695  1.00  0.00    -0.129 NA 
HETATM   19  N   UNL     1      -8.668   6.763  66.727  1.00  0.00    -0.118 NA 
BRANCH  19  20
HETATM   20  C   UNL     1      -9.513   6.780  67.879  1.00  0.00    -0.118 A  
HETATM   21  C   UNL     1      -9.844   5.565  68.505  1.00  0.00    -0.193 A  
HETATM   22  C   UNL     1     -10.705   5.538  69.606  1.00  0.00    -0.349 A  
HETATM   23  C   UNL     1     -11.258   6.720  70.088  1.00  0.00    -0.387 A  
HETATM   24  C   UNL     1     -10.925   7.929  69.489  1.00  0.00    -0.078 A  
HETATM   25  C   UNL     1     -10.042   7.961  68.405  1.00  0.00    -0.218 A  
ENDBRANCH  19  20
ENDBRANCH  13  15
ENDBRANCH  10  13
ENDBRANCH   7  10
TORSDOF 4
ENDMDL
MODEL      275
REMARK 921   NORMALIZED FREE ENERGY PREDICTED BY IDOCK:   -3.21 KCAL/MOL
REMARK 922        TOTAL FREE ENERGY PREDICTED BY IDOCK:   -4.69 KCAL/MOL
REMARK 923 INTER-LIGAND FREE ENERGY PREDICTED BY IDOCK:   -3.89 KCAL/MOL
REMARK 924 INTRA-LIGAND FREE ENERGY PREDICTED BY IDOCK:   -0.81 KCAL/MOL
REMARK 927      BINDING AFFINITY PREDICTED BY RF-SCORE:    0.00 PKD
ROOT
HETATM    1  N   UNL     1      -9.099   4.808  63.100  1.00  0.00    -0.292 NA 
HETATM    2  H2  UNL     1      -8.202   4.819  62.614  1.00  0.00     0.000 HD 
HETATM    3  C   UNL     1      -8.855   4.902  64.472  1.00  0.00    -0.129 A  
HETATM    4  H1  UNL     1      -9.656   4.040  62.729  1.00  0.00     0.000 HD 
HETATM    5  C   UNL     1      -8.091   5.956  64.981  1.00  0.00    -0.132 A  
HETATM    6  C   UNL     1      -7.915   6.118  66.359  1.00  0.00    -0.106 A  
HETATM    7  C   UNL     1      -8.557   5.244  67.237  1.00  0.00    -0.105 A  
HETATM    8  C   UNL     1      -9.383   4.228  66.748  1.00  0.00    -0.180 A  
HETATM    9  C   UNL     1      -9.546   4.077  65.366  1.00  0.00    -0.188 A  
ENDROOT
BRANCH   7  10
HETATM   10  S   UNL     1      -8.239   5.359  68.992  1.00  0.00    -0.094 S  
HETATM   11  O   UNL     1      -8.937   4.240  69.588  1.00  0.00    -0.088 OA 
HETATM   12  O   UNL     1      -6.805   5.490  69.146  1.00  0.00    -0.054 OA 
BRANCH  10  13
HETATM   13  N   UNL     1      -9.006   6.747  69.385  1.00  0.00    -0.138 N  
HETATM   14  H   UNL     1      -8.692   7.617  68.955  1.00  0.00     0.000 HD 
BRANCH  13  15
HETATM   15  C   UNL     1     -10.067   6.793  70.279  1.00  0.00    -0.179 A  
HETATM   16  C   UNL     1     -11.379   6.713  69.867  1.00  0.00    -0.422 A  
HETATM   17  C   UNL     1     -12.128   6.691  71.049  1.00  0.00    -0.327 A  
HETATM   18  N   UNL     1     -11.364   6.733  72.136  1.00  0.00    -0.260 NA 
HETATM   19  N   UNL     1     -10.080   6.831  71.679  1.00  0.00    -0.184 NA 
BRANCH  19  20
HETATM   20  C   UNL     1      -9.011   6.908  72.623  1.00  0.00    -0.128 A  
HETATM   21  C   UNL     1      -8.240   5.761  72.880  1.00  0.00    -0.119 A  
HETATM   22  C   UNL     1      -7.216   5.786  73.831  1.00  0.00    -0.086 A  
HETATM   23  C   UNL     1      -6.956   6.950  74.548  1.00  0.00    -0.094 A  
HETATM   24  C   UNL     1      -7.701   8.095  74.291  1.00  0.00    -0.277 A  
HETATM   25  C   UNL     1      -8.707   8.080  73.320  1.00  0.00    -0.308 A  
ENDBRANCH  19  20
ENDBRANCH  13  15
ENDBRANCH  10  13
ENDBRANCH   7  10
TORSDOF 4
ENDMDL
MODEL      276
REMARK 921   NORMALIZED FREE ENERGY PREDICTED BY IDOCK:   -3.19 KCAL/MOL
REMARK 922        TOTAL FREE ENERGY PREDICTED BY IDOCK:   -4.68 KCAL/MOL
REMARK 923 INTER-LIGAND FREE ENERGY PREDICTED BY IDOCK:   -4.24 KCAL/MOL
REMARK 924 INTRA-LIGAND FREE ENERGY PREDICTED BY IDOCK:   -0.43 KCAL/MOL
REMARK 927      BINDING AFFINITY PREDICTED BY RF-SCORE:    0.00 PKD
ROOT
HETATM    1  N   UNL     1      -5.495  10.404  65.272  1.00  0.00    -0.101 NA 
HETATM    2  H2  UNL     1      -4.927  11.081  65.782  1.00  0.00     0.000 HD 
HETATM    3  C   UNL     1      -6.586  10.055  66.071  1.00  0.00    -0.095 A  
HETATM    4  H1  UNL     1      -4.877   9.682  64.902  1.00  0.00     0.000 HD 
HETATM    5  C   UNL     1      -7.432  11.045  66.578  1.00  0.00    -0.145 A  
HETATM    6  C   UNL     1      -8.581  10.709  67.301  1.00  0.00    -0.126 A  
HETATM    7  C   UNL     1      -8.912   9.365  67.472  1.00  0.00    -0.121 A  
HETATM    8  C   UNL     1      -8.116   8.362  66.910  1.00  0.00    -0.099 A  
HETATM    9  C   UNL     1      -6.968   8.715  66.192  1.00  0.00    -0.080 A  
ENDROOT
BRANCH   7  10
HETATM   10  S   UNL     1     -10.304   8.918  68.500  1.00  0.00    -0.181 S  
HETATM   11  O   UNL     1     -10.965  10.165  68.822  1.00  0.00    -0.222 OA 
HETATM   12  O   UNL     1     -11.020   7.873  67.798  1.00  0.00    -0.075 OA 
BRANCH  10  13
HETATM   13  N   UNL     1      -9.565   8.335  69.836  1.00  0.00    -0.170 N  
HETATM   14  H   UNL     1      -8.546   8.345  69.874  1.00  0.00     0.000 HD 
BRANCH  13  15
HETATM   15  C   UNL     1     -10.266   7.828  70.921  1.00  0.00    -0.199 A  
HETATM   16  C   UNL     1     -10.949   8.641  71.800  1.00  0.00    -0.396 A  
HETATM   17  C   UNL     1     -11.595   7.761  72.677  1.00  0.00    -0.344 A  
HETATM   18  N   UNL     1     -11.366   6.486  72.379  1.00  0.00    -0.271 NA 
HETATM   19  N   UNL     1     -10.514   6.506  71.311  1.00  0.00    -0.212 NA 
BRANCH  19  20
HETATM   20  C   UNL     1     -10.066   5.267  70.757  1.00  0.00    -0.224 A  
HETATM   21  C   UNL     1      -9.805   5.187  69.378  1.00  0.00    -0.269 A  
HETATM   22  C   UNL     1      -9.410   3.981  68.793  1.00  0.00    -0.227 A  
HETATM   23  C   UNL     1      -9.284   2.836  69.573  1.00  0.00    -0.204 A  
HETATM   24  C   UNL     1      -9.522   2.906  70.940  1.00  0.00    -0.227 A  
HETATM   25  C   UNL     1      -9.890   4.118  71.532  1.00  0.00    -0.255 A  
ENDBRANCH  19  20
ENDBRANCH  13  15
ENDBRANCH  10  13
ENDBRANCH   7  10
TORSDOF 4
ENDMDL
MODEL      277
REMARK 921   NORMALIZED FREE ENERGY PREDICTED BY IDOCK:   -3.15 KCAL/MOL
REMARK 922        TOTAL FREE ENERGY PREDICTED BY IDOCK:   -4.62 KCAL/MOL
REMARK 923 INTER-LIGAND FREE ENERGY PREDICTED BY IDOCK:   -4.04 KCAL/MOL
REMARK 924 INTRA-LIGAND FREE ENERGY PREDICTED BY IDOCK:   -0.57 KCAL/MOL
REMARK 927      BINDING AFFINITY PREDICTED BY RF-SCORE:    0.00 PKD
ROOT
HETATM    1  N   UNL     1      -7.782   1.934  64.084  1.00  0.00    -0.060 NA 
HETATM    2  H2  UNL     1      -7.325   1.205  64.633  1.00  0.00     0.000 HD 
HETATM    3  C   UNL     1      -8.363   2.848  64.965  1.00  0.00    -0.092 A  
HETATM    4  H1  UNL     1      -8.345   1.486  63.362  1.00  0.00     0.000 HD 
HETATM    5  C   UNL     1      -7.590   3.462  65.955  1.00  0.00    -0.081 A  
HETATM    6  C   UNL     1      -8.133   4.448  66.784  1.00  0.00    -0.102 A  
HETATM    7  C   UNL     1      -9.451   4.860  66.583  1.00  0.00    -0.150 A  
HETATM    8  C   UNL     1     -10.216   4.309  65.552  1.00  0.00    -0.224 A  
HETATM    9  C   UNL     1      -9.659   3.320  64.733  1.00  0.00    -0.149 A  
ENDROOT
BRANCH   7  10
HETATM   10  S   UNL     1     -10.197   6.025  67.715  1.00  0.00    -0.203 S  
HETATM   11  O   UNL     1     -11.243   6.683  66.961  1.00  0.00    -0.404 OA 
HETATM   12  O   UNL     1     -10.521   5.285  68.917  1.00  0.00    -0.193 OA 
BRANCH  10  13
HETATM   13  N   UNL     1      -8.973   7.075  67.977  1.00  0.00    -0.127 N  
HETATM   14  H   UNL     1      -8.170   7.055  67.349  1.00  0.00     0.000 HD 
BRANCH  13  15
HETATM   15  C   UNL     1      -8.981   7.993  69.019  1.00  0.00    -0.145 A  
HETATM   16  C   UNL     1      -8.624   7.648  70.304  1.00  0.00    -0.143 A  
HETATM   17  C   UNL     1      -8.661   8.849  71.023  1.00  0.00    -0.224 A  
HETATM   18  N   UNL     1      -8.996   9.887  70.262  1.00  0.00    -0.139 NA 
HETATM   19  N   UNL     1      -9.231   9.371  69.019  1.00  0.00    -0.142 NA 
BRANCH  19  20
HETATM   20  C   UNL     1      -9.627  10.251  67.966  1.00  0.00    -0.145 A  
HETATM   21  C   UNL     1     -10.796  11.018  68.116  1.00  0.00    -0.274 A  
HETATM   22  C   UNL     1     -11.239  11.854  67.087  1.00  0.00    -0.377 A  
HETATM   23  C   UNL     1     -10.531  11.927  65.893  1.00  0.00    -0.296 A  
HETATM   24  C   UNL     1      -9.364  11.187  65.739  1.00  0.00    -0.238 A  
HETATM   25  C   UNL     1      -8.904  10.371  66.777  1.00  0.00    -0.139 A  
ENDBRANCH  19  20
ENDBRANCH  13  15
ENDBRANCH  10  13
ENDBRANCH   7  10
TORSDOF 4
ENDMDL
MODEL      278
REMARK 921   NORMALIZED FREE ENERGY PREDICTED BY IDOCK:   -3.11 KCAL/MOL
REMARK 922        TOTAL FREE ENERGY PREDICTED BY IDOCK:   -4.58 KCAL/MOL
REMARK 923 INTER-LIGAND FREE ENERGY PREDICTED BY IDOCK:   -3.73 KCAL/MOL
REMARK 924 INTRA-LIGAND FREE ENERGY PREDICTED BY IDOCK:   -0.84 KCAL/MOL
REMARK 927      BINDING AFFINITY PREDICTED BY RF-SCORE:    0.00 PKD
ROOT
HETATM    1  N   UNL     1      -9.292   3.333  64.566  1.00  0.00    -0.137 NA 
HETATM    2  H2  UNL     1      -9.830   2.469  64.486  1.00  0.00     0.000 HD 
HETATM    3  C   UNL     1      -9.427   3.815  65.870  1.00  0.00    -0.171 A  
HETATM    4  H1  UNL     1      -9.521   3.928  63.771  1.00  0.00     0.000 HD 
HETATM    5  C   UNL     1      -9.113   2.998  66.959  1.00  0.00    -0.196 A  
HETATM    6  C   UNL     1      -9.153   3.494  68.266  1.00  0.00    -0.201 A  
HETATM    7  C   UNL     1      -9.461   4.838  68.477  1.00  0.00    -0.145 A  
HETATM    8  C   UNL     1      -9.708   5.687  67.395  1.00  0.00    -0.138 A  
HETATM    9  C   UNL     1      -9.667   5.175  66.093  1.00  0.00    -0.192 A  
ENDROOT
BRANCH   7  10
HETATM   10  S   UNL     1      -9.642   5.454  70.146  1.00  0.00    -0.190 S  
HETATM   11  O   UNL     1      -8.624   6.473  70.296  1.00  0.00    -0.133 OA 
HETATM   12  O   UNL     1     -11.040   5.790  70.314  1.00  0.00    -0.311 OA 
BRANCH  10  13
HETATM   13  N   UNL     1      -9.235   4.146  71.036  1.00  0.00    -0.124 N  
HETATM   14  H   UNL     1      -8.590   3.465  70.636  1.00  0.00     0.000 HD 
BRANCH  13  15
HETATM   15  C   UNL     1      -9.732   3.922  72.312  1.00  0.00    -0.154 A  
HETATM   16  C   UNL     1     -10.530   2.839  72.610  1.00  0.00    -0.184 A  
HETATM   17  C   UNL     1     -10.734   2.910  73.994  1.00  0.00    -0.195 A  
HETATM   18  N   UNL     1     -10.105   3.942  74.548  1.00  0.00    -0.170 NA 
HETATM   19  N   UNL     1      -9.503   4.603  73.514  1.00  0.00    -0.121 NA 
BRANCH  19  20
HETATM   20  C   UNL     1      -8.746   5.782  73.792  1.00  0.00    -0.121 A  
HETATM   21  C   UNL     1      -9.398   7.028  73.806  1.00  0.00    -0.244 A  
HETATM   22  C   UNL     1      -8.681   8.208  74.028  1.00  0.00    -0.199 A  
HETATM   23  C   UNL     1      -7.305   8.162  74.225  1.00  0.00    -0.232 A  
HETATM   24  C   UNL     1      -6.652   6.935  74.230  1.00  0.00    -0.082 A  
HETATM   25  C   UNL     1      -7.371   5.752  74.036  1.00  0.00    -0.092 A  
ENDBRANCH  19  20
ENDBRANCH  13  15
ENDBRANCH  10  13
ENDBRANCH   7  10
TORSDOF 4
ENDMDL
MODEL      279
REMARK 921   NORMALIZED FREE ENERGY PREDICTED BY IDOCK:   -3.08 KCAL/MOL
REMARK 922        TOTAL FREE ENERGY PREDICTED BY IDOCK:   -4.54 KCAL/MOL
REMARK 923 INTER-LIGAND FREE ENERGY PREDICTED BY IDOCK:   -3.72 KCAL/MOL
REMARK 924 INTRA-LIGAND FREE ENERGY PREDICTED BY IDOCK:   -0.82 KCAL/MOL
REMARK 927      BINDING AFFINITY PREDICTED BY RF-SCORE:    0.00 PKD
ROOT
HETATM    1  N   UNL     1      -8.802  12.116  68.753  1.00  0.00    -0.381 NA 
HETATM    2  H2  UNL     1      -9.563  12.769  68.942  1.00  0.00     0.000 HD 
HETATM    3  C   UNL     1      -9.304  10.816  68.850  1.00  0.00    -0.175 A  
HETATM    4  H1  UNL     1      -7.993  12.398  69.306  1.00  0.00     0.000 HD 
HETATM    5  C   UNL     1     -10.412  10.430  68.091  1.00  0.00    -0.221 A  
HETATM    6  C   UNL     1     -10.870   9.110  68.105  1.00  0.00    -0.118 A  
HETATM    7  C   UNL     1     -10.175   8.154  68.848  1.00  0.00    -0.210 A  
HETATM    8  C   UNL     1      -9.023   8.506  69.555  1.00  0.00    -0.149 A  
HETATM    9  C   UNL     1      -8.579   9.834  69.534  1.00  0.00    -0.186 A  
ENDROOT
BRANCH   7  10
HETATM   10  S   UNL     1     -10.821   6.492  68.978  1.00  0.00    -0.319 S  
HETATM   11  O   UNL     1     -11.775   6.530  70.067  1.00  0.00    -0.416 OA 
HETATM   12  O   UNL     1     -11.247   6.108  67.649  1.00  0.00    -0.294 OA 
BRANCH  10  13
HETATM   13  N   UNL     1      -9.500   5.651  69.444  1.00  0.00    -0.127 N  
HETATM   14  H   UNL     1      -8.829   6.101  70.067  1.00  0.00     0.000 HD 
BRANCH  13  15
HETATM   15  C   UNL     1      -9.252   4.350  69.027  1.00  0.00    -0.140 A  
HETATM   16  C   UNL     1      -9.636   3.255  69.770  1.00  0.00    -0.157 A  
HETATM   17  C   UNL     1      -9.305   2.149  68.978  1.00  0.00    -0.132 A  
HETATM   18  N   UNL     1      -8.770   2.499  67.813  1.00  0.00    -0.101 NA 
HETATM   19  N   UNL     1      -8.697   3.863  67.837  1.00  0.00    -0.098 NA 
BRANCH  19  20
HETATM   20  C   UNL     1      -8.147   4.549  66.711  1.00  0.00    -0.102 A  
HETATM   21  C   UNL     1      -8.562   4.187  65.418  1.00  0.00    -0.118 A  
HETATM   22  C   UNL     1      -8.012   4.804  64.291  1.00  0.00    -0.101 A  
HETATM   23  C   UNL     1      -7.031   5.779  64.438  1.00  0.00    -0.051 A  
HETATM   24  C   UNL     1      -6.624   6.158  65.712  1.00  0.00    -0.047 A  
HETATM   25  C   UNL     1      -7.194   5.562  66.841  1.00  0.00    -0.078 A  
ENDBRANCH  19  20
ENDBRANCH  13  15
ENDBRANCH  10  13
ENDBRANCH   7  10
TORSDOF 4
ENDMDL
MODEL      280
REMARK 921   NORMALIZED FREE ENERGY PREDICTED BY IDOCK:   -3.03 KCAL/MOL
REMARK 922        TOTAL FREE ENERGY PREDICTED BY IDOCK:   -4.48 KCAL/MOL
REMARK 923 INTER-LIGAND FREE ENERGY PREDICTED BY IDOCK:   -3.82 KCAL/MOL
REMARK 924 INTRA-LIGAND FREE ENERGY PREDICTED BY IDOCK:   -0.66 KCAL/MOL
REMARK 927      BINDING AFFINITY PREDICTED BY RF-SCORE:    0.00 PKD
ROOT
HETATM    1  N   UNL     1     -10.076  18.390  67.598  1.00  0.00    -0.342 NA 
HETATM    2  H2  UNL     1     -10.116  18.544  68.605  1.00  0.00     0.000 HD 
HETATM    3  C   UNL     1      -9.939  17.020  67.367  1.00  0.00    -0.278 A  
HETATM    4  H1  UNL     1      -9.407  19.049  67.199  1.00  0.00     0.000 HD 
HETATM    5  C   UNL     1     -10.856  16.118  67.913  1.00  0.00    -0.332 A  
HETATM    6  C   UNL     1     -10.788  14.754  67.616  1.00  0.00    -0.285 A  
HETATM    7  C   UNL     1      -9.821  14.297  66.720  1.00  0.00    -0.270 A  
HETATM    8  C   UNL     1      -8.941  15.194  66.108  1.00  0.00    -0.201 A  
HETATM    9  C   UNL     1      -9.020  16.556  66.419  1.00  0.00    -0.340 A  
ENDROOT
BRANCH   7  10
HETATM   10  S   UNL     1      -9.640  12.542  66.430  1.00  0.00    -0.238 S  
HETATM   11  O   UNL     1      -8.574  12.111  67.309  1.00  0.00    -0.165 OA 
HETATM   12  O   UNL     1     -10.962  11.963  66.550  1.00  0.00    -0.266 OA 
BRANCH  10  13
HETATM   13  N   UNL     1      -9.115  12.506  64.883  1.00  0.00     0.082 N  
HETATM   14  H   UNL     1      -8.697  13.349  64.490  1.00  0.00     0.000 HD 
BRANCH  13  15
HETATM   15  C   UNL     1      -9.215  11.378  64.081  1.00  0.00     0.024 A  
HETATM   16  C   UNL     1      -9.895  11.386  62.883  1.00  0.00    -0.314 A  
HETATM   17  C   UNL     1      -9.683  10.114  62.339  1.00  0.00     0.040 A  
HETATM   18  N   UNL     1      -8.914   9.352  63.111  1.00  0.00    -0.205 NA 
HETATM   19  N   UNL     1      -8.640  10.108  64.216  1.00  0.00    -0.180 NA 
BRANCH  19  20
HETATM   20  C   UNL     1      -7.830   9.553  65.253  1.00  0.00    -0.111 A  
HETATM   21  C   UNL     1      -8.301   8.437  65.969  1.00  0.00    -0.128 A  
HETATM   22  C   UNL     1      -7.556   7.896  67.021  1.00  0.00    -0.100 A  
HETATM   23  C   UNL     1      -6.340   8.467  67.382  1.00  0.00    -0.057 A  
HETATM   24  C   UNL     1      -5.856   9.560  66.672  1.00  0.00    -0.055 A  
HETATM   25  C   UNL     1      -6.586  10.085  65.601  1.00  0.00    -0.104 A  
ENDBRANCH  19  20
ENDBRANCH  13  15
ENDBRANCH  10  13
ENDBRANCH   7  10
TORSDOF 4
ENDMDL
MODEL      281
REMARK 921   NORMALIZED FREE ENERGY PREDICTED BY IDOCK:   -3.01 KCAL/MOL
REMARK 922        TOTAL FREE ENERGY PREDICTED BY IDOCK:   -4.45 KCAL/MOL
REMARK 923 INTER-LIGAND FREE ENERGY PREDICTED BY IDOCK:   -3.66 KCAL/MOL
REMARK 924 INTRA-LIGAND FREE ENERGY PREDICTED BY IDOCK:   -0.79 KCAL/MOL
REMARK 927      BINDING AFFINITY PREDICTED BY RF-SCORE:    0.00 PKD
ROOT
HETATM    1  N   UNL     1      -8.760  11.667  68.254  1.00  0.00    -0.159 NA 
HETATM    2  H2  UNL     1      -9.519  12.313  68.038  1.00  0.00     0.000 HD 
HETATM    3  C   UNL     1      -9.295  10.575  68.941  1.00  0.00    -0.187 A  
HETATM    4  H1  UNL     1      -7.990  12.200  68.656  1.00  0.00     0.000 HD 
HETATM    5  C   UNL     1     -10.350   9.843  68.389  1.00  0.00    -0.226 A  
HETATM    6  C   UNL     1     -10.835   8.693  69.018  1.00  0.00    -0.043 A  
HETATM    7  C   UNL     1     -10.219   8.241  70.186  1.00  0.00    -0.199 A  
HETATM    8  C   UNL     1      -9.116   8.919  70.713  1.00  0.00    -0.260 A  
HETATM    9  C   UNL     1      -8.645  10.071  70.073  1.00  0.00    -0.122 A  
ENDROOT
BRANCH   7  10
HETATM   10  S   UNL     1     -10.907   6.848  71.069  1.00  0.00    -0.249 S  
HETATM   11  O   UNL     1     -11.293   7.362  72.366  1.00  0.00    -0.267 OA 
HETATM   12  O   UNL     1     -11.899   6.253  70.197  1.00  0.00    -0.349 OA 
BRANCH  10  13
HETATM   13  N   UNL     1      -9.605   5.876  71.236  1.00  0.00    -0.167 N  
HETATM   14  H   UNL     1      -8.677   6.299  71.246  1.00  0.00     0.000 HD 
BRANCH  13  15
HETATM   15  C   UNL     1      -9.708   4.497  71.365  1.00  0.00    -0.179 A  
HETATM   16  C   UNL     1     -10.210   3.901  72.501  1.00  0.00    -0.233 A  
HETATM   17  C   UNL     1     -10.244   2.533  72.206  1.00  0.00    -0.130 A  
HETATM   18  N   UNL     1      -9.818   2.268  70.975  1.00  0.00    -0.077 NA 
HETATM   19  N   UNL     1      -9.448   3.472  70.447  1.00  0.00    -0.174 NA 
BRANCH  19  20
HETATM   20  C   UNL     1      -8.929   3.517  69.117  1.00  0.00    -0.120 A  
HETATM   21  C   UNL     1      -9.778   3.893  68.061  1.00  0.00    -0.127 A  
HETATM   22  C   UNL     1      -9.318   3.903  66.741  1.00  0.00    -0.203 A  
HETATM   23  C   UNL     1      -8.010   3.526  66.455  1.00  0.00    -0.088 A  
HETATM   24  C   UNL     1      -7.155   3.168  67.491  1.00  0.00    -0.054 A  
HETATM   25  C   UNL     1      -7.606   3.185  68.815  1.00  0.00    -0.048 A  
ENDBRANCH  19  20
ENDBRANCH  13  15
ENDBRANCH  10  13
ENDBRANCH   7  10
TORSDOF 4
ENDMDL
MODEL      282
REMARK 921   NORMALIZED FREE ENERGY PREDICTED BY IDOCK:   -2.95 KCAL/MOL
REMARK 922        TOTAL FREE ENERGY PREDICTED BY IDOCK:   -4.38 KCAL/MOL
REMARK 923 INTER-LIGAND FREE ENERGY PREDICTED BY IDOCK:   -4.66 KCAL/MOL
REMARK 924 INTRA-LIGAND FREE ENERGY PREDICTED BY IDOCK:    0.28 KCAL/MOL
REMARK 927      BINDING AFFINITY PREDICTED BY RF-SCORE:    0.00 PKD
ROOT
HETATM    1  N   UNL     1      -8.894   8.385  66.030  1.00  0.00    -0.159 NA 
HETATM    2  H2  UNL     1      -7.914   8.407  66.313  1.00  0.00     0.000 HD 
HETATM    3  C   UNL     1      -9.368   9.698  65.987  1.00  0.00    -0.207 A  
HETATM    4  H1  UNL     1      -9.375   7.684  66.593  1.00  0.00     0.000 HD 
HETATM    5  C   UNL     1      -8.709  10.660  65.215  1.00  0.00    -0.198 A  
HETATM    6  C   UNL     1      -9.222  11.954  65.086  1.00  0.00     0.133 A  
HETATM    7  C   UNL     1     -10.437  12.271  65.694  1.00  0.00    -0.261 A  
HETATM    8  C   UNL     1     -11.146  11.302  66.408  1.00  0.00    -0.257 A  
HETATM    9  C   UNL     1     -10.617  10.012  66.532  1.00  0.00    -0.165 A  
ENDROOT
BRANCH   7  10
HETATM   10  S   UNL     1     -11.040  13.953  65.644  1.00  0.00    -0.305 S  
HETATM   11  O   UNL     1     -11.116  14.298  64.240  1.00  0.00    -0.274 OA 
HETATM   12  O   UNL     1     -12.230  13.991  66.469  1.00  0.00    -0.447 OA 
BRANCH  10  13
HETATM   13  N   UNL     1      -9.810  14.775  66.339  1.00  0.00    -0.266 N  
HETATM   14  H   UNL     1      -8.931  14.860  65.829  1.00  0.00     0.000 HD 
BRANCH  13  15
HETATM   15  C   UNL     1      -9.912  15.361  67.593  1.00  0.00    -0.225 A  
HETATM   16  C   UNL     1     -10.916  15.033  68.478  1.00  0.00    -0.259 A  
HETATM   17  C   UNL     1     -10.617  15.748  69.644  1.00  0.00    -0.295 A  
HETATM   18  N   UNL     1      -9.503  16.464  69.530  1.00  0.00    -0.103 NA 
HETATM   19  N   UNL     1      -9.067  16.263  68.250  1.00  0.00    -0.192 NA 
BRANCH  19  20
HETATM   20  C   UNL     1      -7.875  16.919  67.812  1.00  0.00    -0.178 A  
HETATM   21  C   UNL     1      -7.544  18.174  68.354  1.00  0.00    -0.290 A  
HETATM   22  C   UNL     1      -6.411  18.865  67.915  1.00  0.00    -0.227 A  
HETATM   23  C   UNL     1      -5.602  18.321  66.923  1.00  0.00    -0.159 A  
HETATM   24  C   UNL     1      -5.909  17.074  66.392  1.00  0.00    -0.074 A  
HETATM   25  C   UNL     1      -7.026  16.368  66.850  1.00  0.00    -0.247 A  
ENDBRANCH  19  20
ENDBRANCH  13  15
ENDBRANCH  10  13
ENDBRANCH   7  10
TORSDOF 4
ENDMDL
MODEL      283
REMARK 921   NORMALIZED FREE ENERGY PREDICTED BY IDOCK:   -2.78 KCAL/MOL
REMARK 922        TOTAL FREE ENERGY PREDICTED BY IDOCK:   -4.17 KCAL/MOL
REMARK 923 INTER-LIGAND FREE ENERGY PREDICTED BY IDOCK:   -5.05 KCAL/MOL
REMARK 924 INTRA-LIGAND FREE ENERGY PREDICTED BY IDOCK:    0.88 KCAL/MOL
REMARK 927      BINDING AFFINITY PREDICTED BY RF-SCORE:    0.00 PKD
ROOT
HETATM    1  N   UNL     1     -12.407  15.873  71.430  1.00  0.00    -0.495 NA 
HETATM    2  H2  UNL     1     -13.384  15.658  71.233  1.00  0.00     0.000 HD 
HETATM    3  C   UNL     1     -11.669  15.676  70.261  1.00  0.00    -0.357 A  
HETATM    4  H1  UNL     1     -12.141  15.398  72.292  1.00  0.00     0.000 HD 
HETATM    5  C   UNL     1     -12.033  16.327  69.079  1.00  0.00     0.060 A  
HETATM    6  C   UNL     1     -11.252  16.214  67.925  1.00  0.00    -0.245 A  
HETATM    7  C   UNL     1     -10.065  15.483  67.972  1.00  0.00    -0.223 A  
HETATM    8  C   UNL     1      -9.648  14.885  69.164  1.00  0.00    -0.172 A  
HETATM    9  C   UNL     1     -10.442  15.004  70.310  1.00  0.00    -0.063 A  
ENDROOT
BRANCH   7  10
HETATM   10  S   UNL     1      -9.124  15.223  66.474  1.00  0.00    -0.311 S  
HETATM   11  O   UNL     1      -9.447  16.341  65.613  1.00  0.00    -0.463 OA 
HETATM   12  O   UNL     1      -7.754  14.989  66.881  1.00  0.00    -0.152 OA 
BRANCH  10  13
HETATM   13  N   UNL     1      -9.805  13.863  65.877  1.00  0.00    -0.413 N  
HETATM   14  H   UNL     1      -9.967  13.799  64.872  1.00  0.00     0.000 HD 
BRANCH  13  15
HETATM   15  C   UNL     1     -10.175  12.793  66.680  1.00  0.00    -0.238 A  
HETATM   16  C   UNL     1     -11.170  12.895  67.627  1.00  0.00    -0.317 A  
HETATM   17  C   UNL     1     -11.310  11.600  68.143  1.00  0.00    -0.292 A  
HETATM   18  N   UNL     1     -10.488  10.730  67.565  1.00  0.00    -0.206 NA 
HETATM   19  N   UNL     1      -9.750  11.458  66.675  1.00  0.00    -0.197 NA 
BRANCH  19  20
HETATM   20  C   UNL     1      -8.754  10.796  65.894  1.00  0.00    -0.181 A  
HETATM   21  C   UNL     1      -7.398  10.960  66.228  1.00  0.00    -0.127 A  
HETATM   22  C   UNL     1      -6.395  10.365  65.458  1.00  0.00    -0.126 A  
HETATM   23  C   UNL     1      -6.729   9.611  64.338  1.00  0.00    -0.111 A  
HETATM   24  C   UNL     1      -8.066   9.428  64.006  1.00  0.00    -0.150 A  
HETATM   25  C   UNL     1      -9.073   9.999  64.792  1.00  0.00    -0.268 A  
ENDBRANCH  19  20
ENDBRANCH  13  15
ENDBRANCH  10  13
ENDBRANCH   7  10
TORSDOF 4
ENDMDL
MODEL      284
REMARK 921   NORMALIZED FREE ENERGY PREDICTED BY IDOCK:   -2.75 KCAL/MOL
REMARK 922        TOTAL FREE ENERGY PREDICTED BY IDOCK:   -4.13 KCAL/MOL
REMARK 923 INTER-LIGAND FREE ENERGY PREDICTED BY IDOCK:   -3.98 KCAL/MOL
REMARK 924 INTRA-LIGAND FREE ENERGY PREDICTED BY IDOCK:   -0.15 KCAL/MOL
REMARK 927      BINDING AFFINITY PREDICTED BY RF-SCORE:    0.00 PKD
ROOT
HETATM    1  N   UNL     1      -8.461  19.188  67.880  1.00  0.00    -0.292 NA 
HETATM    2  H2  UNL     1      -7.894  19.599  68.622  1.00  0.00     0.000 HD 
HETATM    3  C   UNL     1      -8.188  17.820  67.824  1.00  0.00    -0.227 A  
HETATM    4  H1  UNL     1      -8.366  19.766  67.046  1.00  0.00     0.000 HD 
HETATM    5  C   UNL     1      -8.320  17.028  68.968  1.00  0.00    -0.125 A  
HETATM    6  C   UNL     1      -8.141  15.643  68.908  1.00  0.00    -0.197 A  
HETATM    7  C   UNL     1      -7.879  15.039  67.678  1.00  0.00    -0.168 A  
HETATM    8  C   UNL     1      -7.816  15.807  66.512  1.00  0.00    -0.098 A  
HETATM    9  C   UNL     1      -7.993  17.193  66.588  1.00  0.00    -0.300 A  
ENDROOT
BRANCH   7  10
HETATM   10  S   UNL     1      -7.522  13.289  67.606  1.00  0.00    -0.174 S  
HETATM   11  O   UNL     1      -6.078  13.187  67.617  1.00  0.00    -0.145 OA 
HETATM   12  O   UNL     1      -8.304  12.664  68.652  1.00  0.00    -0.093 OA 
BRANCH  10  13
HETATM   13  N   UNL     1      -8.083  12.889  66.125  1.00  0.00     0.355 N  
HETATM   14  H   UNL     1      -7.418  12.571  65.420  1.00  0.00     0.000 HD 
BRANCH  13  15
HETATM   15  C   UNL     1      -9.427  12.963  65.786  1.00  0.00     0.013 A  
HETATM   16  C   UNL     1      -9.972  14.074  65.181  1.00  0.00    -0.257 A  
HETATM   17  C   UNL     1     -11.301  13.724  64.914  1.00  0.00    -0.347 A  
HETATM   18  N   UNL     1     -11.587  12.484  65.297  1.00  0.00    -0.348 NA 
HETATM   19  N   UNL     1     -10.445  12.004  65.872  1.00  0.00    -0.247 NA 
BRANCH  19  20
HETATM   20  C   UNL     1     -10.438  10.677  66.400  1.00  0.00    -0.213 A  
HETATM   21  C   UNL     1     -10.828  10.468  67.735  1.00  0.00    -0.347 A  
HETATM   22  C   UNL     1     -10.790   9.189  68.299  1.00  0.00    -0.104 A  
HETATM   23  C   UNL     1     -10.350   8.106  67.546  1.00  0.00    -0.330 A  
HETATM   24  C   UNL     1      -9.977   8.297  66.220  1.00  0.00    -0.179 A  
HETATM   25  C   UNL     1     -10.042   9.570  65.645  1.00  0.00    -0.157 A  
ENDBRANCH  19  20
ENDBRANCH  13  15
ENDBRANCH  10  13
ENDBRANCH   7  10
TORSDOF 4
ENDMDL
MODEL      285
REMARK 921   NORMALIZED FREE ENERGY PREDICTED BY IDOCK:   -2.59 KCAL/MOL
REMARK 922        TOTAL FREE ENERGY PREDICTED BY IDOCK:   -3.93 KCAL/MOL
REMARK 923 INTER-LIGAND FREE ENERGY PREDICTED BY IDOCK:   -2.31 KCAL/MOL
REMARK 924 INTRA-LIGAND FREE ENERGY PREDICTED BY IDOCK:   -1.61 KCAL/MOL
REMARK 927      BINDING AFFINITY PREDICTED BY RF-SCORE:    0.00 PKD
ROOT
HETATM    1  N   UNL     1      -6.212   4.555  66.033  1.00  0.00    -0.031 NA 
HETATM    2  H2  UNL     1      -7.033   4.836  65.496  1.00  0.00     0.000 HD 
HETATM    3  C   UNL     1      -6.563   4.520  67.385  1.00  0.00    -0.047 A  
HETATM    4  H1  UNL     1      -5.419   5.115  65.722  1.00  0.00     0.000 HD 
HETATM    5  C   UNL     1      -7.651   3.753  67.811  1.00  0.00    -0.067 A  
HETATM    6  C   UNL     1      -7.958   3.632  69.169  1.00  0.00    -0.059 A  
HETATM    7  C   UNL     1      -7.134   4.245  70.114  1.00  0.00    -0.042 A  
HETATM    8  C   UNL     1      -6.000   4.955  69.710  1.00  0.00    -0.021 A  
HETATM    9  C   UNL     1      -5.708   5.070  68.346  1.00  0.00    -0.016 A  
ENDROOT
BRANCH   7  10
HETATM   10  S   UNL     1      -7.586   4.206  71.843  1.00  0.00    -0.072 S  
HETATM   11  O   UNL     1      -8.291   2.957  72.032  1.00  0.00    -0.058 OA 
HETATM   12  O   UNL     1      -6.378   4.482  72.593  1.00  0.00    -0.023 OA 
BRANCH  10  13
HETATM   13  N   UNL     1      -8.643   5.447  71.944  1.00  0.00    -0.130 N  
HETATM   14  H   UNL     1      -9.615   5.243  72.178  1.00  0.00     0.000 HD 
BRANCH  13  15
HETATM   15  C   UNL     1      -8.276   6.768  71.724  1.00  0.00    -0.106 A  
HETATM   16  C   UNL     1      -7.580   7.502  72.660  1.00  0.00    -0.096 A  
HETATM   17  C   UNL     1      -7.316   8.726  72.034  1.00  0.00     0.020 A  
HETATM   18  N   UNL     1      -7.785   8.774  70.791  1.00  0.00    -0.089 NA 
HETATM   19  N   UNL     1      -8.415   7.578  70.590  1.00  0.00    -0.130 NA 
BRANCH  19  20
HETATM   20  C   UNL     1      -9.040   7.326  69.331  1.00  0.00    -0.142 A  
HETATM   21  C   UNL     1     -10.283   6.669  69.302  1.00  0.00    -0.206 A  
HETATM   22  C   UNL     1     -10.903   6.364  68.087  1.00  0.00    -0.386 A  
HETATM   23  C   UNL     1     -10.286   6.698  66.886  1.00  0.00    -0.324 A  
HETATM   24  C   UNL     1      -9.066   7.363  66.901  1.00  0.00    -0.164 A  
HETATM   25  C   UNL     1      -8.458   7.694  68.116  1.00  0.00    -0.124 A  
ENDBRANCH  19  20
ENDBRANCH  13  15
ENDBRANCH  10  13
ENDBRANCH   7  10
TORSDOF 4
ENDMDL
MODEL      286
REMARK 921   NORMALIZED FREE ENERGY PREDICTED BY IDOCK:   -2.55 KCAL/MOL
REMARK 922        TOTAL FREE ENERGY PREDICTED BY IDOCK:   -3.88 KCAL/MOL
REMARK 923 INTER-LIGAND FREE ENERGY PREDICTED BY IDOCK:   -3.16 KCAL/MOL
REMARK 924 INTRA-LIGAND FREE ENERGY PREDICTED BY IDOCK:   -0.72 KCAL/MOL
REMARK 927      BINDING AFFINITY PREDICTED BY RF-SCORE:    0.00 PKD
ROOT
HETATM    1  N   UNL     1      -9.163  18.935  66.970  1.00  0.00    -0.296 NA 
HETATM    2  H2  UNL     1      -9.282  19.495  67.814  1.00  0.00     0.000 HD 
HETATM    3  C   UNL     1      -8.968  17.605  67.348  1.00  0.00    -0.231 A  
HETATM    4  H1  UNL     1      -8.487  19.403  66.367  1.00  0.00     0.000 HD 
HETATM    5  C   UNL     1      -9.895  16.963  68.174  1.00  0.00    -0.264 A  
HETATM    6  C   UNL     1      -9.764  15.607  68.486  1.00  0.00    -0.202 A  
HETATM    7  C   UNL     1      -8.721  14.873  67.920  1.00  0.00    -0.164 A  
HETATM    8  C   UNL     1      -7.826  15.481  67.035  1.00  0.00    -0.260 A  
HETATM    9  C   UNL     1      -7.969  16.841  66.736  1.00  0.00    -0.275 A  
ENDROOT
BRANCH   7  10
HETATM   10  S   UNL     1      -8.465  13.173  68.410  1.00  0.00    -0.078 S  
HETATM   11  O   UNL     1      -7.440  13.213  69.431  1.00  0.00     0.200 OA 
HETATM   12  O   UNL     1      -9.773  12.628  68.712  1.00  0.00    -0.092 OA 
BRANCH  10  13
HETATM   13  N   UNL     1      -7.849  12.517  67.047  1.00  0.00    -0.355 N  
HETATM   14  H   UNL     1      -7.095  13.007  66.566  1.00  0.00     0.000 HD 
BRANCH  13  15
HETATM   15  C   UNL     1      -8.310  11.320  66.514  1.00  0.00    -0.168 A  
HETATM   16  C   UNL     1      -8.784  11.225  65.224  1.00  0.00     0.047 A  
HETATM   17  C   UNL     1      -9.049   9.863  65.038  1.00  0.00    -0.218 A  
HETATM   18  N   UNL     1      -8.753   9.135  66.111  1.00  0.00    -0.141 NA 
HETATM   19  N   UNL     1      -8.324  10.027  67.052  1.00  0.00    -0.121 NA 
BRANCH  19  20
HETATM   20  C   UNL     1      -7.937   9.545  68.340  1.00  0.00    -0.093 A  
HETATM   21  C   UNL     1      -8.841   8.761  69.079  1.00  0.00    -0.137 A  
HETATM   22  C   UNL     1      -8.514   8.311  70.361  1.00  0.00    -0.129 A  
HETATM   23  C   UNL     1      -7.289   8.646  70.928  1.00  0.00    -0.077 A  
HETATM   24  C   UNL     1      -6.380   9.406  70.201  1.00  0.00    -0.058 A  
HETATM   25  C   UNL     1      -6.693   9.834  68.907  1.00  0.00    -0.050 A  
ENDBRANCH  19  20
ENDBRANCH  13  15
ENDBRANCH  10  13
ENDBRANCH   7  10
TORSDOF 4
ENDMDL
MODEL      287
REMARK 921   NORMALIZED FREE ENERGY PREDICTED BY IDOCK:   -2.46 KCAL/MOL
REMARK 922        TOTAL FREE ENERGY PREDICTED BY IDOCK:   -3.76 KCAL/MOL
REMARK 923 INTER-LIGAND FREE ENERGY PREDICTED BY IDOCK:   -4.04 KCAL/MOL
REMARK 924 INTRA-LIGAND FREE ENERGY PREDICTED BY IDOCK:    0.28 KCAL/MOL
REMARK 927      BINDING AFFINITY PREDICTED BY RF-SCORE:    0.00 PKD
ROOT
HETATM    1  N   UNL     1     -11.925  10.786  71.064  1.00  0.00    -0.328 NA 
HETATM    2  H2  UNL     1     -11.253  10.117  71.441  1.00  0.00     0.000 HD 
HETATM    3  C   UNL     1     -11.565  11.074  69.745  1.00  0.00    -0.325 A  
HETATM    4  H1  UNL     1     -12.042  11.539  71.741  1.00  0.00     0.000 HD 
HETATM    5  C   UNL     1     -11.404  10.042  68.817  1.00  0.00    -0.117 A  
HETATM    6  C   UNL     1     -11.136  10.317  67.473  1.00  0.00    -0.302 A  
HETATM    7  C   UNL     1     -11.081  11.644  67.045  1.00  0.00    -0.302 A  
HETATM    8  C   UNL     1     -11.311  12.688  67.945  1.00  0.00    -0.337 A  
HETATM    9  C   UNL     1     -11.575  12.396  69.288  1.00  0.00    -0.379 A  
ENDROOT
BRANCH   7  10
HETATM   10  S   UNL     1     -10.613  12.013  65.360  1.00  0.00    -0.289 S  
HETATM   11  O   UNL     1     -11.857  12.183  64.640  1.00  0.00    -0.359 OA 
HETATM   12  O   UNL     1      -9.655  13.097  65.425  1.00  0.00    -0.067 OA 
BRANCH  10  13
HETATM   13  N   UNL     1      -9.900  10.619  64.893  1.00  0.00    -0.276 N  
HETATM   14  H   UNL     1     -10.445   9.952  64.347  1.00  0.00     0.000 HD 
BRANCH  13  15
HETATM   15  C   UNL     1      -8.586  10.305  65.208  1.00  0.00    -0.165 A  
HETATM   16  C   UNL     1      -7.566  11.226  65.105  1.00  0.00     0.710 A  
HETATM   17  C   UNL     1      -6.434  10.567  65.600  1.00  0.00    -0.119 A  
HETATM   18  N   UNL     1      -6.703   9.330  66.008  1.00  0.00    -0.076 NA 
HETATM   19  N   UNL     1      -8.029   9.136  65.741  1.00  0.00    -0.101 NA 
BRANCH  19  20
HETATM   20  C   UNL     1      -8.624   7.878  66.062  1.00  0.00    -0.150 A  
HETATM   21  C   UNL     1      -8.101   6.705  65.487  1.00  0.00    -0.124 A  
HETATM   22  C   UNL     1      -8.687   5.462  65.741  1.00  0.00    -0.149 A  
HETATM   23  C   UNL     1      -9.808   5.372  66.560  1.00  0.00    -0.195 A  
HETATM   24  C   UNL     1     -10.324   6.521  67.147  1.00  0.00    -0.311 A  
HETATM   25  C   UNL     1      -9.722   7.762  66.917  1.00  0.00    -0.282 A  
ENDBRANCH  19  20
ENDBRANCH  13  15
ENDBRANCH  10  13
ENDBRANCH   7  10
TORSDOF 4
ENDMDL
MODEL      288
REMARK 921   NORMALIZED FREE ENERGY PREDICTED BY IDOCK:   -1.02 KCAL/MOL
REMARK 922        TOTAL FREE ENERGY PREDICTED BY IDOCK:   -2.00 KCAL/MOL
REMARK 923 INTER-LIGAND FREE ENERGY PREDICTED BY IDOCK:   -2.10 KCAL/MOL
REMARK 924 INTRA-LIGAND FREE ENERGY PREDICTED BY IDOCK:    0.11 KCAL/MOL
REMARK 927      BINDING AFFINITY PREDICTED BY RF-SCORE:    0.00 PKD
ROOT
HETATM    1  N   UNL     1     -12.347  11.812  69.824  1.00  0.00    -0.168 NA 
HETATM    2  H2  UNL     1     -12.790  11.800  70.743  1.00  0.00     0.000 HD 
HETATM    3  C   UNL     1     -11.200  11.019  69.878  1.00  0.00    -0.252 A  
HETATM    4  H1  UNL     1     -12.288  12.781  69.509  1.00  0.00     0.000 HD 
HETATM    5  C   UNL     1     -11.281   9.691  70.309  1.00  0.00    -0.324 A  
HETATM    6  C   UNL     1     -10.161   8.856  70.281  1.00  0.00    -0.218 A  
HETATM    7  C   UNL     1      -8.958   9.341  69.765  1.00  0.00    -0.172 A  
HETATM    8  C   UNL     1      -8.877  10.643  69.263  1.00  0.00    -0.092 A  
HETATM    9  C   UNL     1     -10.007  11.468  69.301  1.00  0.00     0.154 A  
ENDROOT
BRANCH   7  10
HETATM   10  S   UNL     1      -7.488   8.328  69.842  1.00  0.00    -0.066 S  
HETATM   11  O   UNL     1      -6.449   9.102  69.195  1.00  0.00    -0.042 OA 
HETATM   12  O   UNL     1      -7.338   7.918  71.222  1.00  0.00    -0.063 OA 
BRANCH  10  13
HETATM   13  N   UNL     1      -7.896   7.066  68.889  1.00  0.00    -0.113 N  
HETATM   14  H   UNL     1      -7.214   6.724  68.212  1.00  0.00     0.000 HD 
BRANCH  13  15
HETATM   15  C   UNL     1      -9.132   6.439  68.961  1.00  0.00    -0.130 A  
HETATM   16  C   UNL     1     -10.111   6.632  68.011  1.00  0.00    -0.175 A  
HETATM   17  C   UNL     1     -11.147   5.764  68.377  1.00  0.00     0.067 A  
HETATM   18  N   UNL     1     -10.855   5.054  69.463  1.00  0.00     0.255 NA 
HETATM   19  N   UNL     1      -9.620   5.483  69.861  1.00  0.00    -0.155 NA 
BRANCH  19  20
HETATM   20  C   UNL     1      -9.028   4.907  71.026  1.00  0.00    -0.134 A  
HETATM   21  C   UNL     1      -8.336   3.688  70.913  1.00  0.00    -0.088 A  
HETATM   22  C   UNL     1      -7.783   3.072  72.039  1.00  0.00    -0.054 A  
HETATM   23  C   UNL     1      -7.925   3.654  73.294  1.00  0.00    -0.079 A  
HETATM   24  C   UNL     1      -8.593   4.867  73.417  1.00  0.00    -0.105 A  
HETATM   25  C   UNL     1      -9.122   5.500  72.288  1.00  0.00    -0.149 A  
ENDBRANCH  19  20
ENDBRANCH  13  15
ENDBRANCH  10  13
ENDBRANCH   7  10
TORSDOF 4
ENDMDL
MODEL      289
REMARK 921   NORMALIZED FREE ENERGY PREDICTED BY IDOCK:   -0.12 KCAL/MOL
REMARK 922        TOTAL FREE ENERGY PREDICTED BY IDOCK:   -0.88 KCAL/MOL
REMARK 923 INTER-LIGAND FREE ENERGY PREDICTED BY IDOCK:   -2.22 KCAL/MOL
REMARK 924 INTRA-LIGAND FREE ENERGY PREDICTED BY IDOCK:    1.34 KCAL/MOL
REMARK 927      BINDING AFFINITY PREDICTED BY RF-SCORE:    0.00 PKD
ROOT
HETATM    1  N   UNL     1     -12.354  11.809  69.839  1.00  0.00    -0.183 NA 
HETATM    2  H2  UNL     1     -12.829  11.819  70.742  1.00  0.00     0.000 HD 
HETATM    3  C   UNL     1     -11.242  10.971  69.936  1.00  0.00    -0.252 A  
HETATM    4  H1  UNL     1     -12.246  12.773  69.524  1.00  0.00     0.000 HD 
HETATM    5  C   UNL     1     -11.391   9.650  70.368  1.00  0.00    -0.337 A  
HETATM    6  C   UNL     1     -10.305   8.770  70.381  1.00  0.00    -0.230 A  
HETATM    7  C   UNL     1      -9.067   9.205  69.906  1.00  0.00    -0.178 A  
HETATM    8  C   UNL     1      -8.917  10.500  69.403  1.00  0.00    -0.111 A  
HETATM    9  C   UNL     1     -10.013  11.370  69.399  1.00  0.00     0.207 A  
ENDROOT
BRANCH   7  10
HETATM   10  S   UNL     1      -7.641   8.135  70.036  1.00  0.00    -0.079 S  
HETATM   11  O   UNL     1      -7.216   8.220  71.417  1.00  0.00    -0.066 OA 
HETATM   12  O   UNL     1      -8.028   6.859  69.470  1.00  0.00    -0.119 OA 
BRANCH  10  13
HETATM   13  N   UNL     1      -6.555   8.900  69.086  1.00  0.00    -0.046 N  
HETATM   14  H   UNL     1      -5.603   9.023  69.433  1.00  0.00     0.000 HD 
BRANCH  13  15
HETATM   15  C   UNL     1      -6.872   9.392  67.827  1.00  0.00    -0.079 A  
HETATM   16  C   UNL     1      -7.051  10.736  67.587  1.00  0.00    -0.091 A  
HETATM   17  C   UNL     1      -7.251  10.833  66.205  1.00  0.00    -0.126 A  
HETATM   18  N   UNL     1      -7.189   9.651  65.598  1.00  0.00    -0.094 NA 
HETATM   19  N   UNL     1      -6.987   8.737  66.594  1.00  0.00    -0.079 NA 
BRANCH  19  20
HETATM   20  C   UNL     1      -6.885   7.354  66.256  1.00  0.00    -0.061 A  
HETATM   21  C   UNL     1      -5.651   6.844  65.813  1.00  0.00    -0.030 A  
HETATM   22  C   UNL     1      -5.526   5.506  65.430  1.00  0.00    -0.013 A  
HETATM   23  C   UNL     1      -6.631   4.662  65.469  1.00  0.00    -0.041 A  
HETATM   24  C   UNL     1      -7.852   5.149  65.920  1.00  0.00    -0.102 A  
HETATM   25  C   UNL     1      -7.973   6.480  66.332  1.00  0.00    -0.110 A  
ENDBRANCH  19  20
ENDBRANCH  13  15
ENDBRANCH  10  13
ENDBRANCH   7  10
TORSDOF 4
ENDMDL
MODEL      290
REMARK 921   NORMALIZED FREE ENERGY PREDICTED BY IDOCK:   -0.04 KCAL/MOL
REMARK 922        TOTAL FREE ENERGY PREDICTED BY IDOCK:   -0.78 KCAL/MOL
REMARK 923 INTER-LIGAND FREE ENERGY PREDICTED BY IDOCK:   -3.53 KCAL/MOL
REMARK 924 INTRA-LIGAND FREE ENERGY PREDICTED BY IDOCK:    2.75 KCAL/MOL
REMARK 927      BINDING AFFINITY PREDICTED BY RF-SCORE:    0.00 PKD
ROOT
HETATM    1  N   UNL     1     -13.204  15.792  70.613  1.00  0.00    -0.759 NA 
HETATM    2  H2  UNL     1     -13.053  15.628  71.608  1.00  0.00     0.000 HD 
HETATM    3  C   UNL     1     -12.036  15.447  69.929  1.00  0.00    -0.359 A  
HETATM    4  H1  UNL     1     -13.612  16.719  70.499  1.00  0.00     0.000 HD 
HETATM    5  C   UNL     1     -11.477  14.176  70.086  1.00  0.00    -0.227 A  
HETATM    6  C   UNL     1     -10.363  13.783  69.339  1.00  0.00     0.218 A  
HETATM    7  C   UNL     1      -9.835  14.655  68.387  1.00  0.00    -0.220 A  
HETATM    8  C   UNL     1     -10.425  15.903  68.165  1.00  0.00    -0.270 A  
HETATM    9  C   UNL     1     -11.539  16.283  68.924  1.00  0.00    -0.230 A  
ENDROOT
BRANCH   7  10
HETATM   10  S   UNL     1      -8.336  14.218  67.517  1.00  0.00    -0.200 S  
HETATM   11  O   UNL     1      -8.252  12.775  67.590  1.00  0.00    -0.150 OA 
HETATM   12  O   UNL     1      -8.396  14.880  66.230  1.00  0.00     0.095 OA 
BRANCH  10  13
HETATM   13  N   UNL     1      -7.186  14.878  68.471  1.00  0.00    -0.108 N  
HETATM   14  H   UNL     1      -6.914  15.848  68.309  1.00  0.00     0.000 HD 
BRANCH  13  15
HETATM   15  C   UNL     1      -6.563  14.175  69.492  1.00  0.00    -0.124 A  
HETATM   16  C   UNL     1      -6.153  14.783  70.659  1.00  0.00    -0.113 A  
HETATM   17  C   UNL     1      -5.674  13.740  71.461  1.00  0.00    -0.172 A  
HETATM   18  N   UNL     1      -5.782  12.554  70.870  1.00  0.00    -0.321 NA 
HETATM   19  N   UNL     1      -6.301  12.806  69.632  1.00  0.00    -0.116 NA 
BRANCH  19  20
HETATM   20  C   UNL     1      -6.528  11.715  68.739  1.00  0.00    -0.064 A  
HETATM   21  C   UNL     1      -7.527  10.774  69.045  1.00  0.00    -0.118 A  
HETATM   22  C   UNL     1      -7.746   9.668  68.219  1.00  0.00    -0.082 A  
HETATM   23  C   UNL     1      -6.964   9.478  67.084  1.00  0.00    -0.085 A  
HETATM   24  C   UNL     1      -5.984  10.410  66.761  1.00  0.00    -0.063 A  
HETATM   25  C   UNL     1      -5.783  11.532  67.571  1.00  0.00    -0.063 A  
ENDBRANCH  19  20
ENDBRANCH  13  15
ENDBRANCH  10  13
ENDBRANCH   7  10
TORSDOF 4
ENDMDL
MODEL      291
REMARK 921   NORMALIZED FREE ENERGY PREDICTED BY IDOCK:    1.79 KCAL/MOL
REMARK 922        TOTAL FREE ENERGY PREDICTED BY IDOCK:    1.47 KCAL/MOL
REMARK 923 INTER-LIGAND FREE ENERGY PREDICTED BY IDOCK:   -2.23 KCAL/MOL
REMARK 924 INTRA-LIGAND FREE ENERGY PREDICTED BY IDOCK:    3.70 KCAL/MOL
REMARK 927      BINDING AFFINITY PREDICTED BY RF-SCORE:    0.00 PKD
ROOT
HETATM    1  N   UNL     1      -6.343   3.875  66.744  1.00  0.00    -0.035 NA 
HETATM    2  H2  UNL     1      -7.075   3.620  66.080  1.00  0.00     0.000 HD 
HETATM    3  C   UNL     1      -6.784   3.553  68.029  1.00  0.00    -0.046 A  
HETATM    4  H1  UNL     1      -6.033   4.822  66.529  1.00  0.00     0.000 HD 
HETATM    5  C   UNL     1      -7.210   2.254  68.323  1.00  0.00    -0.047 A  
HETATM    6  C   UNL     1      -7.565   1.891  69.625  1.00  0.00    -0.042 A  
HETATM    7  C   UNL     1      -7.441   2.825  70.654  1.00  0.00    -0.036 A  
HETATM    8  C   UNL     1      -6.949   4.106  70.391  1.00  0.00    -0.034 A  
HETATM    9  C   UNL     1      -6.600   4.457  69.081  1.00  0.00    -0.041 A  
ENDROOT
BRANCH   7  10
HETATM   10  S   UNL     1      -8.012   2.416  72.297  1.00  0.00    -0.054 S  
HETATM   11  O   UNL     1      -9.295   1.772  72.114  1.00  0.00    -0.077 OA 
HETATM   12  O   UNL     1      -6.928   1.709  72.948  1.00  0.00    -0.021 OA 
BRANCH  10  13
HETATM   13  N   UNL     1      -8.236   3.894  72.957  1.00  0.00    -0.087 N  
HETATM   14  H   UNL     1      -8.924   3.996  73.703  1.00  0.00     0.000 HD 
BRANCH  13  15
HETATM   15  C   UNL     1      -7.530   5.015  72.544  1.00  0.00    -0.094 A  
HETATM   16  C   UNL     1      -6.171   5.138  72.732  1.00  0.00    -0.038 A  
HETATM   17  C   UNL     1      -5.826   6.339  72.100  1.00  0.00    -0.037 A  
HETATM   18  N   UNL     1      -6.871   6.933  71.533  1.00  0.00    -0.064 NA 
HETATM   19  N   UNL     1      -7.947   6.144  71.827  1.00  0.00    -0.102 NA 
BRANCH  19  20
HETATM   20  C   UNL     1      -9.239   6.530  71.357  1.00  0.00    -0.148 A  
HETATM   21  C   UNL     1     -10.016   5.598  70.645  1.00  0.00    -0.260 A  
HETATM   22  C   UNL     1     -11.267   5.955  70.131  1.00  0.00    -0.338 A  
HETATM   23  C   UNL     1     -11.752   7.246  70.308  1.00  0.00    -0.164 A  
HETATM   24  C   UNL     1     -11.001   8.171  71.024  1.00  0.00    -0.273 A  
HETATM   25  C   UNL     1      -9.763   7.808  71.564  1.00  0.00    -0.195 A  
ENDBRANCH  19  20
ENDBRANCH  13  15
ENDBRANCH  10  13
ENDBRANCH   7  10
TORSDOF 4
ENDMDL
MODEL      292
REMARK 921   NORMALIZED FREE ENERGY PREDICTED BY IDOCK:    5.89 KCAL/MOL
REMARK 922        TOTAL FREE ENERGY PREDICTED BY IDOCK:    6.53 KCAL/MOL
REMARK 923 INTER-LIGAND FREE ENERGY PREDICTED BY IDOCK:    2.50 KCAL/MOL
REMARK 924 INTRA-LIGAND FREE ENERGY PREDICTED BY IDOCK:    4.03 KCAL/MOL
REMARK 927      BINDING AFFINITY PREDICTED BY RF-SCORE:    0.00 PKD
ROOT
HETATM    1  N   UNL     1     -12.089  12.142  70.012  1.00  0.00    -0.304 NA 
HETATM    2  H2  UNL     1     -12.096  12.541  70.950  1.00  0.00     0.000 HD 
HETATM    3  C   UNL     1     -10.837  11.566  69.788  1.00  0.00     0.114 A  
HETATM    4  H1  UNL     1     -12.459  12.837  69.364  1.00  0.00     0.000 HD 
HETATM    5  C   UNL     1     -10.331  10.612  70.675  1.00  0.00     0.873 A  
HETATM    6  C   UNL     1      -9.122   9.959  70.418  1.00  0.00    -0.021 A  
HETATM    7  C   UNL     1      -8.440  10.226  69.230  1.00  0.00    -0.166 A  
HETATM    8  C   UNL     1      -8.967  11.123  68.297  1.00  0.00    -0.166 A  
HETATM    9  C   UNL     1     -10.177  11.772  68.572  1.00  0.00    -0.215 A  
ENDROOT
BRANCH   7  10
HETATM   10  S   UNL     1      -6.833   9.496  68.947  1.00  0.00    -0.055 S  
HETATM   11  O   UNL     1      -7.090   8.113  68.603  1.00  0.00    -0.069 OA 
HETATM   12  O   UNL     1      -6.144  10.362  68.014  1.00  0.00    -0.048 OA 
BRANCH  10  13
HETATM   13  N   UNL     1      -6.161   9.570  70.434  1.00  0.00    -0.052 N  
HETATM   14  H   UNL     1      -5.936   8.698  70.912  1.00  0.00     0.000 HD 
BRANCH  13  15
HETATM   15  C   UNL     1      -5.882  10.770  71.073  1.00  0.00     0.030 A  
HETATM   16  C   UNL     1      -5.507  10.827  72.398  1.00  0.00     0.575 A  
HETATM   17  C   UNL     1      -5.222  12.177  72.635  1.00  0.00     0.511 A  
HETATM   18  N   UNL     1      -5.381  12.928  71.550  1.00  0.00    -0.349 NA 
HETATM   19  N   UNL     1      -5.823  12.078  70.576  1.00  0.00    -0.241 NA 
BRANCH  19  20
HETATM   20  C   UNL     1      -6.100  12.598  69.274  1.00  0.00    -0.100 A  
HETATM   21  C   UNL     1      -5.205  12.328  68.224  1.00  0.00    -0.056 A  
HETATM   22  C   UNL     1      -5.418  12.858  66.948  1.00  0.00     0.684 A  
HETATM   23  C   UNL     1      -6.519  13.674  66.706  1.00  0.00     1.744 A  
HETATM   24  C   UNL     1      -7.420  13.934  67.732  1.00  0.00    -0.174 A  
HETATM   25  C   UNL     1      -7.223  13.382  69.001  1.00  0.00    -0.018 A  
ENDBRANCH  19  20
ENDBRANCH  13  15
ENDBRANCH  10  13
ENDBRANCH   7  10
TORSDOF 4
ENDMDL
MODEL      293
REMARK 921   NORMALIZED FREE ENERGY PREDICTED BY IDOCK:    6.03 KCAL/MOL
REMARK 922        TOTAL FREE ENERGY PREDICTED BY IDOCK:    6.70 KCAL/MOL
REMARK 923 INTER-LIGAND FREE ENERGY PREDICTED BY IDOCK:    7.08 KCAL/MOL
REMARK 924 INTRA-LIGAND FREE ENERGY PREDICTED BY IDOCK:   -0.38 KCAL/MOL
REMARK 927      BINDING AFFINITY PREDICTED BY RF-SCORE:    0.00 PKD
ROOT
HETATM    1  N   UNL     1      -9.676  20.272  70.255  1.00  0.00     0.390 NA 
HETATM    2  H2  UNL     1     -10.464  20.866  70.514  1.00  0.00     0.000 HD 
HETATM    3  C   UNL     1     -10.173  19.026  69.868  1.00  0.00     0.824 A  
HETATM    4  H1  UNL     1      -8.970  20.339  70.988  1.00  0.00     0.000 HD 
HETATM    5  C   UNL     1     -11.140  18.934  68.863  1.00  0.00     1.495 A  
HETATM    6  C   UNL     1     -11.580  17.691  68.399  1.00  0.00     1.271 A  
HETATM    7  C   UNL     1     -11.005  16.528  68.911  1.00  0.00    -0.325 A  
HETATM    8  C   UNL     1      -9.986  16.601  69.864  1.00  0.00     0.275 A  
HETATM    9  C   UNL     1      -9.559  17.853  70.322  1.00  0.00     2.168 A  
ENDROOT
BRANCH   7  10
HETATM   10  S   UNL     1     -11.647  14.932  68.422  1.00  0.00    -0.320 S  
HETATM   11  O   UNL     1     -10.587  13.986  68.699  1.00  0.00    -0.246 OA 
HETATM   12  O   UNL     1     -12.937  14.790  69.063  1.00  0.00     0.504 OA 
BRANCH  10  13
HETATM   13  N   UNL     1     -11.804  15.112  66.805  1.00  0.00    -0.080 N  
HETATM   14  H   UNL     1     -11.831  16.056  66.419  1.00  0.00     0.000 HD 
BRANCH  13  15
HETATM   15  C   UNL     1     -11.904  14.035  65.936  1.00  0.00    -0.383 A  
HETATM   16  C   UNL     1     -13.031  13.805  65.178  1.00  0.00    -0.279 A  
HETATM   17  C   UNL     1     -12.707  12.706  64.372  1.00  0.00    -0.332 A  
HETATM   18  N   UNL     1     -11.467  12.274  64.578  1.00  0.00    -0.327 NA 
HETATM   19  N   UNL     1     -10.962  13.065  65.571  1.00  0.00    -0.272 NA 
BRANCH  19  20
HETATM   20  C   UNL     1      -9.629  12.837  66.030  1.00  0.00    -0.178 A  
HETATM   21  C   UNL     1      -8.696  13.888  65.980  1.00  0.00     0.736 A  
HETATM   22  C   UNL     1      -7.371  13.688  66.377  1.00  0.00     2.254 A  
HETATM   23  C   UNL     1      -6.955  12.436  66.817  1.00  0.00     0.269 A  
HETATM   24  C   UNL     1      -7.871  11.393  66.888  1.00  0.00    -0.158 A  
HETATM   25  C   UNL     1      -9.204  11.598  66.518  1.00  0.00    -0.205 A  
ENDBRANCH  19  20
ENDBRANCH  13  15
ENDBRANCH  10  13
ENDBRANCH   7  10
TORSDOF 4
ENDMDL
