MODEL        1
REMARK 921   NORMALIZED FREE ENERGY PREDICTED BY IDOCK:   -7.99 KCAL/MOL
REMARK 922        TOTAL FREE ENERGY PREDICTED BY IDOCK:  -12.03 KCAL/MOL
REMARK 923 INTER-LIGAND FREE ENERGY PREDICTED BY IDOCK:  -10.80 KCAL/MOL
REMARK 924 INTRA-LIGAND FREE ENERGY PREDICTED BY IDOCK:   -1.23 KCAL/MOL
REMARK 927      BINDING AFFINITY PREDICTED BY RF-SCORE:    0.00 PKD
ROOT
HETATM    1  O   UNL     1     -11.877  15.952  68.549  1.00  0.00    -0.366 OA 
HETATM    2  C   UNL     1     -11.661  14.758  68.710  1.00  0.00    -0.323 C  
HETATM    3  C   UNL     1     -10.669  13.980  67.890  1.00  0.00    -0.246 C  
HETATM    4  N   UNL     1     -12.128  13.900  69.733  1.00  0.00    -0.332 N  
HETATM    5  C   UNL     1     -10.930  12.565  68.289  1.00  0.00    -0.240 C  
HETATM    6  N   UNL     1     -11.566  12.595  69.542  1.00  0.00    -0.293 N  
HETATM    7  O   UNL     1     -10.583  11.621  67.590  1.00  0.00    -0.192 OA 
ENDROOT
BRANCH   3   8
HETATM    8  C   UNL     1      -9.240  14.359  68.311  1.00  0.00    -0.201 C  
BRANCH   8   9
HETATM    9  C   UNL     1      -8.354  14.856  67.157  1.00  0.00    -0.221 C  
BRANCH   9  10
HETATM   10  S   UNL     1      -7.337  16.264  67.739  1.00  0.00    -0.141 S  
HETATM   11  O   UNL     1      -6.286  16.501  66.692  1.00  0.00    -0.297 OA 
BRANCH  10  12
HETATM   12  C   UNL     1      -8.553  17.586  67.513  1.00  0.00    -0.221 A  
HETATM   13  C   UNL     1      -9.675  19.585  68.306  1.00  0.00    -0.495 A  
HETATM   14  C   UNL     1     -10.439  18.496  66.291  1.00  0.00    -0.441 A  
HETATM   15  C   UNL     1     -10.559  19.522  67.229  1.00  0.00    -0.610 A  
HETATM   16  C   UNL     1      -9.439  17.531  66.430  1.00  0.00    -0.276 A  
HETATM   17  C   UNL     1      -8.678  18.618  68.450  1.00  0.00    -0.361 A  
ENDBRANCH  10  12
ENDBRANCH   9  10
ENDBRANCH   8   9
ENDBRANCH   3   8
BRANCH   6  18
HETATM   18  C   UNL     1     -11.889  11.406  70.275  1.00  0.00    -0.350 A  
HETATM   19  C   UNL     1     -11.271   9.127  70.960  1.00  0.00    -0.380 A  
HETATM   20  C   UNL     1     -12.321   9.093  71.862  1.00  0.00    -0.455 A  
HETATM   21  C   UNL     1     -12.981  11.316  71.144  1.00  0.00    -0.369 A  
HETATM   22  C   UNL     1     -11.055  10.273  70.187  1.00  0.00    -0.385 A  
HETATM   23  C   UNL     1     -13.181  10.183  71.948  1.00  0.00    -0.557 A  
ENDBRANCH   6  18
BRANCH   4  24
HETATM   24  C   UNL     1     -12.439  14.532  70.969  1.00  0.00    -0.341 A  
HETATM   25  C   UNL     1     -13.790  14.768  71.273  1.00  0.00    -0.460 A  
HETATM   26  C   UNL     1     -11.831  15.722  72.988  1.00  0.00    -0.551 A  
HETATM   27  C   UNL     1     -14.161  15.476  72.416  1.00  0.00    -0.627 A  
HETATM   28  C   UNL     1     -11.460  15.002  71.847  1.00  0.00    -0.368 A  
HETATM   29  C   UNL     1     -13.174  15.959  73.269  1.00  0.00    -0.698 A  
ENDBRANCH   4  24
TORSDOF 6
ENDMDL
MODEL        2
REMARK 921   NORMALIZED FREE ENERGY PREDICTED BY IDOCK:   -7.57 KCAL/MOL
REMARK 922        TOTAL FREE ENERGY PREDICTED BY IDOCK:  -11.46 KCAL/MOL
REMARK 923 INTER-LIGAND FREE ENERGY PREDICTED BY IDOCK:  -10.07 KCAL/MOL
REMARK 924 INTRA-LIGAND FREE ENERGY PREDICTED BY IDOCK:   -1.38 KCAL/MOL
REMARK 927      BINDING AFFINITY PREDICTED BY RF-SCORE:    0.00 PKD
ROOT
HETATM    1  O   UNL     1     -11.550  10.772  67.619  1.00  0.00    -0.523 OA 
HETATM    2  C   UNL     1     -11.810  11.250  68.716  1.00  0.00    -0.329 C  
HETATM    3  C   UNL     1     -11.864  10.436  69.979  1.00  0.00    -0.351 C  
HETATM    4  N   UNL     1     -11.954  12.608  69.083  1.00  0.00    -0.276 N  
HETATM    5  C   UNL     1     -12.434  11.391  70.977  1.00  0.00    -0.383 C  
HETATM    6  N   UNL     1     -12.201  12.689  70.492  1.00  0.00    -0.353 N  
HETATM    7  O   UNL     1     -12.960  11.005  72.013  1.00  0.00    -0.452 OA 
ENDROOT
BRANCH   3   8
HETATM    8  C   UNL     1     -10.439  10.056  70.412  1.00  0.00    -0.304 C  
BRANCH   8   9
HETATM    9  C   UNL     1     -10.123   8.557  70.295  1.00  0.00    -0.186 C  
BRANCH   9  10
HETATM   10  S   UNL     1     -11.631   7.590  70.679  1.00  0.00    -0.205 S  
HETATM   11  O   UNL     1     -11.681   6.457  69.693  1.00  0.00    -0.389 OA 
BRANCH  10  12
HETATM   12  C   UNL     1     -11.086   6.852  72.239  1.00  0.00    -0.249 A  
HETATM   13  C   UNL     1      -9.698   6.894  74.227  1.00  0.00    -0.309 A  
HETATM   14  C   UNL     1     -11.042   4.949  73.742  1.00  0.00    -0.295 A  
HETATM   15  C   UNL     1     -10.129   5.612  74.563  1.00  0.00    -0.296 A  
HETATM   16  C   UNL     1     -11.521   5.567  72.584  1.00  0.00    -0.331 A  
HETATM   17  C   UNL     1     -10.172   7.512  73.068  1.00  0.00    -0.360 A  
ENDBRANCH  10  12
ENDBRANCH   9  10
ENDBRANCH   8   9
ENDBRANCH   3   8
BRANCH   6  18
HETATM   18  C   UNL     1     -12.538  13.865  71.239  1.00  0.00    -0.371 A  
HETATM   19  C   UNL     1     -14.246  15.199  72.401  1.00  0.00    -0.540 A  
HETATM   20  C   UNL     1     -13.271  16.043  72.906  1.00  0.00    -0.549 A  
HETATM   21  C   UNL     1     -11.583  14.774  71.707  1.00  0.00    -0.244 A  
HETATM   22  C   UNL     1     -13.880  14.121  71.588  1.00  0.00    -0.442 A  
HETATM   23  C   UNL     1     -11.941  15.836  72.552  1.00  0.00    -0.600 A  
ENDBRANCH   6  18
BRANCH   4  24
HETATM   24  C   UNL     1     -11.241  13.540  68.278  1.00  0.00    -0.274 A  
HETATM   25  C   UNL     1     -11.892  14.088  67.162  1.00  0.00    -0.444 A  
HETATM   26  C   UNL     1      -9.223  14.694  67.602  1.00  0.00    -0.193 A  
HETATM   27  C   UNL     1     -11.220  14.926  66.271  1.00  0.00    -0.331 A  
HETATM   28  C   UNL     1      -9.900  13.863  68.501  1.00  0.00    -0.214 A  
HETATM   29  C   UNL     1      -9.878  15.220  66.492  1.00  0.00    -0.283 A  
ENDBRANCH   4  24
TORSDOF 6
ENDMDL
MODEL        3
REMARK 921   NORMALIZED FREE ENERGY PREDICTED BY IDOCK:   -7.41 KCAL/MOL
REMARK 922        TOTAL FREE ENERGY PREDICTED BY IDOCK:  -11.24 KCAL/MOL
REMARK 923 INTER-LIGAND FREE ENERGY PREDICTED BY IDOCK:   -9.03 KCAL/MOL
REMARK 924 INTRA-LIGAND FREE ENERGY PREDICTED BY IDOCK:   -2.21 KCAL/MOL
REMARK 927      BINDING AFFINITY PREDICTED BY RF-SCORE:    0.00 PKD
ROOT
HETATM    1  O   UNL     1     -11.782  10.829  67.640  1.00  0.00    -0.538 OA 
HETATM    2  C   UNL     1     -12.026  11.301  68.743  1.00  0.00    -0.282 C  
HETATM    3  C   UNL     1     -12.089  10.477  69.999  1.00  0.00    -0.351 C  
HETATM    4  N   UNL     1     -12.141  12.659  69.123  1.00  0.00    -0.209 N  
HETATM    5  C   UNL     1     -12.634  11.434  71.009  1.00  0.00    -0.386 C  
HETATM    6  N   UNL     1     -12.378  12.732  70.535  1.00  0.00    -0.318 N  
HETATM    7  O   UNL     1     -13.161  11.050  72.045  1.00  0.00    -0.499 OA 
ENDROOT
BRANCH   3   8
HETATM    8  C   UNL     1     -10.669  10.066  70.420  1.00  0.00    -0.369 C  
BRANCH   8   9
HETATM    9  C   UNL     1     -10.280   8.636  70.012  1.00  0.00    -0.194 C  
BRANCH   9  10
HETATM   10  S   UNL     1      -8.541   8.625  69.435  1.00  0.00    -0.128 S  
HETATM   11  O   UNL     1      -8.191   7.194  69.142  1.00  0.00    -0.119 OA 
BRANCH  10  12
HETATM   12  C   UNL     1      -8.788   9.404  67.820  1.00  0.00    -0.123 A  
HETATM   13  C   UNL     1      -9.433   9.271  65.485  1.00  0.00    -0.309 A  
HETATM   14  C   UNL     1      -8.468  11.307  66.351  1.00  0.00    -0.169 A  
HETATM   15  C   UNL     1      -9.001  10.581  65.286  1.00  0.00    -0.211 A  
HETATM   16  C   UNL     1      -8.362  10.722  67.616  1.00  0.00    -0.119 A  
HETATM   17  C   UNL     1      -9.324   8.682  66.747  1.00  0.00    -0.229 A  
ENDBRANCH  10  12
ENDBRANCH   9  10
ENDBRANCH   8   9
ENDBRANCH   3   8
BRANCH   6  18
HETATM   18  C   UNL     1     -12.687  13.908  71.293  1.00  0.00    -0.367 A  
HETATM   19  C   UNL     1     -14.384  15.356  72.327  1.00  0.00    -0.576 A  
HETATM   20  C   UNL     1     -13.398  16.086  72.970  1.00  0.00    -0.589 A  
HETATM   21  C   UNL     1     -11.711  14.705  71.901  1.00  0.00    -0.180 A  
HETATM   22  C   UNL     1     -14.030  14.278  71.509  1.00  0.00    -0.415 A  
HETATM   23  C   UNL     1     -12.062  15.765  72.750  1.00  0.00    -0.596 A  
ENDBRANCH   6  18
BRANCH   4  24
HETATM   24  C   UNL     1     -11.414  13.584  68.322  1.00  0.00    -0.310 A  
HETATM   25  C   UNL     1     -12.043  14.114  67.184  1.00  0.00    -0.432 A  
HETATM   26  C   UNL     1      -9.387  14.739  67.677  1.00  0.00    -0.195 A  
HETATM   27  C   UNL     1     -11.354  14.943  66.298  1.00  0.00    -0.306 A  
HETATM   28  C   UNL     1     -10.081  13.917  68.571  1.00  0.00    -0.234 A  
HETATM   29  C   UNL     1     -10.020  15.247  66.545  1.00  0.00    -0.278 A  
ENDBRANCH   4  24
TORSDOF 6
ENDMDL
MODEL        4
REMARK 921   NORMALIZED FREE ENERGY PREDICTED BY IDOCK:   -7.36 KCAL/MOL
REMARK 922        TOTAL FREE ENERGY PREDICTED BY IDOCK:  -11.17 KCAL/MOL
REMARK 923 INTER-LIGAND FREE ENERGY PREDICTED BY IDOCK:   -9.70 KCAL/MOL
REMARK 924 INTRA-LIGAND FREE ENERGY PREDICTED BY IDOCK:   -1.48 KCAL/MOL
REMARK 927      BINDING AFFINITY PREDICTED BY RF-SCORE:    0.00 PKD
ROOT
HETATM    1  O   UNL     1      -9.344  15.380  65.488  1.00  0.00    -0.237 OA 
HETATM    2  C   UNL     1      -9.711  14.964  66.580  1.00  0.00    -0.276 C  
HETATM    3  C   UNL     1      -9.777  15.825  67.811  1.00  0.00    -0.216 C  
HETATM    4  N   UNL     1     -10.281  13.712  66.909  1.00  0.00    -0.257 N  
HETATM    5  C   UNL     1     -10.046  14.840  68.902  1.00  0.00    -0.237 C  
HETATM    6  N   UNL     1     -10.606  13.698  68.305  1.00  0.00    -0.246 N  
HETATM    7  O   UNL     1      -9.812  15.097  70.076  1.00  0.00    -0.146 OA 
ENDROOT
BRANCH   3   8
HETATM    8  C   UNL     1     -10.969  16.788  67.706  1.00  0.00    -0.217 C  
BRANCH   8   9
HETATM    9  C   UNL     1     -10.606  18.266  67.922  1.00  0.00    -0.370 C  
BRANCH   9  10
HETATM   10  S   UNL     1      -9.666  18.875  66.471  1.00  0.00    -0.373 S  
HETATM   11  O   UNL     1     -10.401  20.079  65.954  1.00  0.00    -0.485 OA 
BRANCH  10  12
HETATM   12  C   UNL     1      -8.220  19.527  67.343  1.00  0.00    -0.286 A  
HETATM   13  C   UNL     1      -6.821  19.649  69.320  1.00  0.00    -0.390 A  
HETATM   14  C   UNL     1      -6.400  21.125  67.457  1.00  0.00    -0.433 A  
HETATM   15  C   UNL     1      -6.078  20.675  68.737  1.00  0.00    -0.366 A  
HETATM   16  C   UNL     1      -7.466  20.552  66.759  1.00  0.00    -0.307 A  
HETATM   17  C   UNL     1      -7.890  19.079  68.627  1.00  0.00    -0.383 A  
ENDBRANCH  10  12
ENDBRANCH   9  10
ENDBRANCH   8   9
ENDBRANCH   3   8
BRANCH   6  18
HETATM   18  C   UNL     1     -11.073  12.577  69.066  1.00  0.00    -0.234 A  
HETATM   19  C   UNL     1     -10.771  10.239  69.764  1.00  0.00    -0.328 A  
HETATM   20  C   UNL     1     -11.783  10.368  70.702  1.00  0.00    -0.444 A  
HETATM   21  C   UNL     1     -12.135  12.657  69.973  1.00  0.00    -0.339 A  
HETATM   22  C   UNL     1     -10.418  11.332  68.966  1.00  0.00    -0.221 A  
HETATM   23  C   UNL     1     -12.470  11.574  70.800  1.00  0.00    -0.444 A  
ENDBRANCH   6  18
BRANCH   4  24
HETATM   24  C   UNL     1     -10.979  13.059  65.854  1.00  0.00    -0.271 A  
HETATM   25  C   UNL     1     -10.265  12.168  65.037  1.00  0.00    -0.312 A  
HETATM   26  C   UNL     1     -12.907  12.747  64.424  1.00  0.00    -0.288 A  
HETATM   27  C   UNL     1     -10.859  11.575  63.923  1.00  0.00    -0.469 A  
HETATM   28  C   UNL     1     -12.314  13.333  65.547  1.00  0.00    -0.533 A  
HETATM   29  C   UNL     1     -12.182  11.875  63.615  1.00  0.00    -0.586 A  
ENDBRANCH   4  24
TORSDOF 6
ENDMDL
MODEL        5
REMARK 921   NORMALIZED FREE ENERGY PREDICTED BY IDOCK:   -7.31 KCAL/MOL
REMARK 922        TOTAL FREE ENERGY PREDICTED BY IDOCK:  -11.10 KCAL/MOL
REMARK 923 INTER-LIGAND FREE ENERGY PREDICTED BY IDOCK:   -9.50 KCAL/MOL
REMARK 924 INTRA-LIGAND FREE ENERGY PREDICTED BY IDOCK:   -1.60 KCAL/MOL
REMARK 927      BINDING AFFINITY PREDICTED BY RF-SCORE:    0.00 PKD
ROOT
HETATM    1  O   UNL     1      -9.925  15.307  69.843  1.00  0.00    -0.244 OA 
HETATM    2  C   UNL     1     -10.047  15.152  68.635  1.00  0.00    -0.222 C  
HETATM    3  C   UNL     1      -9.366  16.026  67.617  1.00  0.00    -0.214 C  
HETATM    4  N   UNL     1     -10.676  14.097  67.933  1.00  0.00    -0.238 N  
HETATM    5  C   UNL     1      -9.994  15.602  66.329  1.00  0.00    -0.295 C  
HETATM    6  N   UNL     1     -10.519  14.314  66.524  1.00  0.00    -0.283 N  
HETATM    7  O   UNL     1      -9.970  16.315  65.334  1.00  0.00    -0.514 OA 
ENDROOT
BRANCH   3   8
HETATM    8  C   UNL     1      -7.866  15.694  67.572  1.00  0.00    -0.184 C  
BRANCH   8   9
HETATM    9  C   UNL     1      -7.005  16.539  68.524  1.00  0.00    -0.154 C  
BRANCH   9  10
HETATM   10  S   UNL     1      -6.402  18.025  67.637  1.00  0.00    -0.175 S  
HETATM   11  O   UNL     1      -6.091  17.593  66.232  1.00  0.00    -0.188 OA 
BRANCH  10  12
HETATM   12  C   UNL     1      -7.967  18.928  67.531  1.00  0.00    -0.244 A  
HETATM   13  C   UNL     1      -9.939  19.871  68.582  1.00  0.00    -0.492 A  
HETATM   14  C   UNL     1      -9.750  19.859  66.176  1.00  0.00    -0.527 A  
HETATM   15  C   UNL     1     -10.469  20.173  67.329  1.00  0.00    -0.430 A  
HETATM   16  C   UNL     1      -8.501  19.240  66.275  1.00  0.00    -0.328 A  
HETATM   17  C   UNL     1      -8.694  19.247  68.684  1.00  0.00    -0.402 A  
ENDBRANCH  10  12
ENDBRANCH   9  10
ENDBRANCH   8   9
ENDBRANCH   3   8
BRANCH   6  18
HETATM   18  C   UNL     1     -11.121  13.555  65.467  1.00  0.00    -0.294 A  
HETATM   19  C   UNL     1     -10.844  12.139  63.477  1.00  0.00    -0.518 A  
HETATM   20  C   UNL     1     -12.199  11.851  63.469  1.00  0.00    -0.591 A  
HETATM   21  C   UNL     1     -12.495  13.302  65.394  1.00  0.00    -0.543 A  
HETATM   22  C   UNL     1     -10.315  12.971  64.468  1.00  0.00    -0.386 A  
HETATM   23  C   UNL     1     -13.025  12.439  64.422  1.00  0.00    -0.219 A  
ENDBRANCH   6  18
BRANCH   4  24
HETATM   24  C   UNL     1     -10.721  12.849  68.613  1.00  0.00    -0.247 A  
HETATM   25  C   UNL     1      -9.699  11.919  68.365  1.00  0.00    -0.201 A  
HETATM   26  C   UNL     1     -11.825  11.190  69.988  1.00  0.00    -0.441 A  
HETATM   27  C   UNL     1      -9.737  10.638  68.916  1.00  0.00    -0.210 A  
HETATM   28  C   UNL     1     -11.781  12.478  69.444  1.00  0.00    -0.383 A  
HETATM   29  C   UNL     1     -10.810  10.274  69.723  1.00  0.00    -0.332 A  
ENDBRANCH   4  24
TORSDOF 6
ENDMDL
MODEL        6
REMARK 921   NORMALIZED FREE ENERGY PREDICTED BY IDOCK:   -7.25 KCAL/MOL
REMARK 922        TOTAL FREE ENERGY PREDICTED BY IDOCK:  -11.03 KCAL/MOL
REMARK 923 INTER-LIGAND FREE ENERGY PREDICTED BY IDOCK:   -9.76 KCAL/MOL
REMARK 924 INTRA-LIGAND FREE ENERGY PREDICTED BY IDOCK:   -1.27 KCAL/MOL
REMARK 927      BINDING AFFINITY PREDICTED BY RF-SCORE:    0.00 PKD
ROOT
HETATM    1  O   UNL     1     -11.687  10.603  67.690  1.00  0.00    -0.480 OA 
HETATM    2  C   UNL     1     -11.950  11.131  68.763  1.00  0.00    -0.268 C  
HETATM    3  C   UNL     1     -12.108  10.361  70.045  1.00  0.00    -0.297 C  
HETATM    4  N   UNL     1     -12.009  12.507  69.086  1.00  0.00    -0.270 N  
HETATM    5  C   UNL     1     -12.642  11.384  70.994  1.00  0.00    -0.386 C  
HETATM    6  N   UNL     1     -12.299  12.647  70.483  1.00  0.00    -0.314 N  
HETATM    7  O   UNL     1     -13.231  11.068  72.020  1.00  0.00    -0.499 OA 
ENDROOT
BRANCH   3   8
HETATM    8  C   UNL     1     -10.730   9.895  70.541  1.00  0.00    -0.382 C  
BRANCH   8   9
HETATM    9  C   UNL     1     -10.578   8.368  70.635  1.00  0.00    -0.208 C  
BRANCH   9  10
HETATM   10  S   UNL     1     -11.348   7.779  72.191  1.00  0.00    -0.326 S  
HETATM   11  O   UNL     1     -12.827   7.700  71.938  1.00  0.00    -0.313 OA 
BRANCH  10  12
HETATM   12  C   UNL     1     -10.757   6.069  72.152  1.00  0.00    -0.226 A  
HETATM   13  C   UNL     1      -9.622   4.249  71.018  1.00  0.00    -0.253 A  
HETATM   14  C   UNL     1     -10.753   3.842  73.112  1.00  0.00    -0.267 A  
HETATM   15  C   UNL     1     -10.001   3.373  72.034  1.00  0.00    -0.222 A  
HETATM   16  C   UNL     1     -11.129   5.186  73.173  1.00  0.00    -0.391 A  
HETATM   17  C   UNL     1     -10.001   5.592  71.074  1.00  0.00    -0.253 A  
ENDBRANCH  10  12
ENDBRANCH   9  10
ENDBRANCH   8   9
ENDBRANCH   3   8
BRANCH   6  18
HETATM   18  C   UNL     1     -12.577  13.866  71.184  1.00  0.00    -0.370 A  
HETATM   19  C   UNL     1     -14.217  15.332  72.282  1.00  0.00    -0.642 A  
HETATM   20  C   UNL     1     -13.201  16.139  72.766  1.00  0.00    -0.353 A  
HETATM   21  C   UNL     1     -11.577  14.738  71.628  1.00  0.00    -0.260 A  
HETATM   22  C   UNL     1     -13.905  14.207  71.511  1.00  0.00    -0.385 A  
HETATM   23  C   UNL     1     -11.882  15.847  72.431  1.00  0.00    -0.618 A  
ENDBRANCH   6  18
BRANCH   4  24
HETATM   24  C   UNL     1     -11.202  13.361  68.284  1.00  0.00    -0.279 A  
HETATM   25  C   UNL     1     -11.832  14.127  67.290  1.00  0.00    -0.452 A  
HETATM   26  C   UNL     1      -9.066  14.173  67.486  1.00  0.00    -0.195 A  
HETATM   27  C   UNL     1     -11.091  14.905  66.399  1.00  0.00    -0.342 A  
HETATM   28  C   UNL     1      -9.810  13.402  68.385  1.00  0.00    -0.216 A  
HETATM   29  C   UNL     1      -9.703  14.919  66.497  1.00  0.00    -0.294 A  
ENDBRANCH   4  24
TORSDOF 6
ENDMDL
MODEL        7
REMARK 921   NORMALIZED FREE ENERGY PREDICTED BY IDOCK:   -7.24 KCAL/MOL
REMARK 922        TOTAL FREE ENERGY PREDICTED BY IDOCK:  -11.01 KCAL/MOL
REMARK 923 INTER-LIGAND FREE ENERGY PREDICTED BY IDOCK:   -9.42 KCAL/MOL
REMARK 924 INTRA-LIGAND FREE ENERGY PREDICTED BY IDOCK:   -1.60 KCAL/MOL
REMARK 927      BINDING AFFINITY PREDICTED BY RF-SCORE:    0.00 PKD
ROOT
HETATM    1  O   UNL     1     -11.537  10.412  67.732  1.00  0.00    -0.405 OA 
HETATM    2  C   UNL     1     -11.827  10.969  68.783  1.00  0.00    -0.282 C  
HETATM    3  C   UNL     1     -12.011  10.236  70.083  1.00  0.00    -0.313 C  
HETATM    4  N   UNL     1     -11.896  12.353  69.065  1.00  0.00    -0.310 N  
HETATM    5  C   UNL     1     -12.570  11.283  70.990  1.00  0.00    -0.394 C  
HETATM    6  N   UNL     1     -12.219  12.532  70.450  1.00  0.00    -0.333 N  
HETATM    7  O   UNL     1     -13.181  10.995  72.011  1.00  0.00    -0.499 OA 
ENDROOT
BRANCH   3   8
HETATM    8  C   UNL     1     -10.644   9.789  70.624  1.00  0.00    -0.382 C  
BRANCH   8   9
HETATM    9  C   UNL     1     -10.706   8.584  71.576  1.00  0.00    -0.261 C  
BRANCH   9  10
HETATM   10  S   UNL     1      -9.326   7.440  71.194  1.00  0.00    -0.155 S  
HETATM   11  O   UNL     1      -9.655   6.130  71.852  1.00  0.00    -0.154 OA 
BRANCH  10  12
HETATM   12  C   UNL     1      -9.659   7.196  69.432  1.00  0.00    -0.153 A  
HETATM   13  C   UNL     1      -9.116   7.597  67.102  1.00  0.00    -0.146 A  
HETATM   14  C   UNL     1     -11.145   6.423  67.679  1.00  0.00    -0.388 A  
HETATM   15  C   UNL     1     -10.289   6.951  66.713  1.00  0.00    -0.287 A  
HETATM   16  C   UNL     1     -10.832   6.543  69.035  1.00  0.00    -0.357 A  
HETATM   17  C   UNL     1      -8.803   7.722  68.457  1.00  0.00    -0.130 A  
ENDBRANCH  10  12
ENDBRANCH   9  10
ENDBRANCH   8   9
ENDBRANCH   3   8
BRANCH   6  18
HETATM   18  C   UNL     1     -12.516  13.770  71.109  1.00  0.00    -0.370 A  
HETATM   19  C   UNL     1     -14.146  15.187  72.284  1.00  0.00    -0.633 A  
HETATM   20  C   UNL     1     -13.149  16.088  72.621  1.00  0.00    -0.479 A  
HETATM   21  C   UNL     1     -11.544  14.732  71.406  1.00  0.00    -0.305 A  
HETATM   22  C   UNL     1     -13.828  14.041  71.547  1.00  0.00    -0.334 A  
HETATM   23  C   UNL     1     -11.850  15.865  72.175  1.00  0.00    -0.615 A  
ENDBRANCH   6  18
BRANCH   4  24
HETATM   24  C   UNL     1     -11.074  13.187  68.257  1.00  0.00    -0.266 A  
HETATM   25  C   UNL     1     -11.691  13.966  67.265  1.00  0.00    -0.418 A  
HETATM   26  C   UNL     1      -8.924  13.947  67.445  1.00  0.00    -0.211 A  
HETATM   27  C   UNL     1     -10.937  14.725  66.369  1.00  0.00    -0.331 A  
HETATM   28  C   UNL     1      -9.681  13.195  68.350  1.00  0.00    -0.196 A  
HETATM   29  C   UNL     1      -9.549  14.706  66.459  1.00  0.00    -0.308 A  
ENDBRANCH   4  24
TORSDOF 6
ENDMDL
MODEL        8
REMARK 921   NORMALIZED FREE ENERGY PREDICTED BY IDOCK:   -7.20 KCAL/MOL
REMARK 922        TOTAL FREE ENERGY PREDICTED BY IDOCK:  -10.95 KCAL/MOL
REMARK 923 INTER-LIGAND FREE ENERGY PREDICTED BY IDOCK:   -9.32 KCAL/MOL
REMARK 924 INTRA-LIGAND FREE ENERGY PREDICTED BY IDOCK:   -1.63 KCAL/MOL
REMARK 927      BINDING AFFINITY PREDICTED BY RF-SCORE:    0.00 PKD
ROOT
HETATM    1  O   UNL     1     -12.332  11.857  70.859  1.00  0.00    -0.373 OA 
HETATM    2  C   UNL     1     -11.922  11.425  69.790  1.00  0.00    -0.353 C  
HETATM    3  C   UNL     1     -11.820  12.262  68.545  1.00  0.00    -0.359 C  
HETATM    4  N   UNL     1     -11.328  10.173  69.506  1.00  0.00    -0.229 N  
HETATM    5  C   UNL     1     -11.502  11.259  67.484  1.00  0.00    -0.246 C  
HETATM    6  N   UNL     1     -10.953  10.135  68.123  1.00  0.00    -0.266 N  
HETATM    7  O   UNL     1     -11.697  11.491  66.297  1.00  0.00    -0.384 OA 
ENDROOT
BRANCH   3   8
HETATM    8  C   UNL     1     -10.642  13.240  68.673  1.00  0.00    -0.264 C  
BRANCH   8   9
HETATM    9  C   UNL     1     -11.015  14.711  68.427  1.00  0.00    -0.251 C  
BRANCH   9  10
HETATM   10  S   UNL     1     -10.420  15.727  69.831  1.00  0.00    -0.313 S  
HETATM   11  O   UNL     1     -10.555  17.164  69.413  1.00  0.00    -0.321 OA 
BRANCH  10  12
HETATM   12  C   UNL     1     -11.786  15.425  70.980  1.00  0.00    -0.364 A  
HETATM   13  C   UNL     1     -12.602  14.863  73.193  1.00  0.00    -0.559 A  
HETATM   14  C   UNL     1     -14.151  15.041  71.351  1.00  0.00    -0.576 A  
HETATM   15  C   UNL     1     -13.904  14.791  72.700  1.00  0.00    -0.506 A  
HETATM   16  C   UNL     1     -13.096  15.359  70.491  1.00  0.00    -0.318 A  
HETATM   17  C   UNL     1     -11.545  15.175  72.336  1.00  0.00    -0.457 A  
ENDBRANCH  10  12
ENDBRANCH   9  10
ENDBRANCH   8   9
ENDBRANCH   3   8
BRANCH   6  18
HETATM   18  C   UNL     1     -10.447   9.005  67.401  1.00  0.00    -0.269 A  
HETATM   19  C   UNL     1      -8.746   8.061  65.898  1.00  0.00    -0.184 A  
HETATM   20  C   UNL     1      -9.238   6.784  66.110  1.00  0.00    -0.120 A  
HETATM   21  C   UNL     1     -10.965   7.713  67.542  1.00  0.00    -0.086 A  
HETATM   22  C   UNL     1      -9.338   9.152  66.543  1.00  0.00    -0.244 A  
HETATM   23  C   UNL     1     -10.353   6.611  66.925  1.00  0.00    -0.324 A  
ENDBRANCH   6  18
BRANCH   4  24
HETATM   24  C   UNL     1     -10.661   9.548  70.597  1.00  0.00    -0.309 A  
HETATM   25  C   UNL     1      -9.259   9.481  70.569  1.00  0.00    -0.284 A  
HETATM   26  C   UNL     1     -10.632   8.225  72.624  1.00  0.00    -0.378 A  
HETATM   27  C   UNL     1      -8.548   8.792  71.551  1.00  0.00    -0.253 A  
HETATM   28  C   UNL     1     -11.344   8.926  71.645  1.00  0.00    -0.407 A  
HETATM   29  C   UNL     1      -9.242   8.157  72.576  1.00  0.00    -0.319 A  
ENDBRANCH   4  24
TORSDOF 6
ENDMDL
MODEL        9
REMARK 921   NORMALIZED FREE ENERGY PREDICTED BY IDOCK:   -7.19 KCAL/MOL
REMARK 922        TOTAL FREE ENERGY PREDICTED BY IDOCK:  -10.95 KCAL/MOL
REMARK 923 INTER-LIGAND FREE ENERGY PREDICTED BY IDOCK:   -9.33 KCAL/MOL
REMARK 924 INTRA-LIGAND FREE ENERGY PREDICTED BY IDOCK:   -1.61 KCAL/MOL
REMARK 927      BINDING AFFINITY PREDICTED BY RF-SCORE:    0.00 PKD
ROOT
HETATM    1  O   UNL     1     -10.163  14.133  66.319  1.00  0.00    -0.279 OA 
HETATM    2  C   UNL     1     -10.633  13.952  67.435  1.00  0.00    -0.267 C  
HETATM    3  C   UNL     1     -10.754  12.594  68.069  1.00  0.00    -0.243 C  
HETATM    4  N   UNL     1     -11.003  14.908  68.410  1.00  0.00    -0.252 N  
HETATM    5  C   UNL     1     -11.578  12.858  69.288  1.00  0.00    -0.310 C  
HETATM    6  N   UNL     1     -11.452  14.225  69.588  1.00  0.00    -0.274 N  
HETATM    7  O   UNL     1     -12.187  11.965  69.862  1.00  0.00    -0.265 OA 
ENDROOT
BRANCH   3   8
HETATM    8  C   UNL     1      -9.366  12.100  68.505  1.00  0.00    -0.108 C  
BRANCH   8   9
HETATM    9  C   UNL     1      -8.890  10.834  67.775  1.00  0.00    -0.130 C  
BRANCH   9  10
HETATM   10  S   UNL     1     -10.285  10.127  66.819  1.00  0.00    -0.223 S  
HETATM   11  O   UNL     1      -9.726   9.697  65.492  1.00  0.00    -0.280 OA 
BRANCH  10  12
HETATM   12  C   UNL     1     -10.514   8.602  67.767  1.00  0.00    -0.224 A  
HETATM   13  C   UNL     1     -11.024   6.233  67.869  1.00  0.00    -0.421 A  
HETATM   14  C   UNL     1     -10.782   7.499  69.909  1.00  0.00    -0.254 A  
HETATM   15  C   UNL     1     -11.035   6.290  69.262  1.00  0.00    -0.435 A  
HETATM   16  C   UNL     1     -10.520   8.653  69.165  1.00  0.00    -0.223 A  
HETATM   17  C   UNL     1     -10.768   7.385  67.123  1.00  0.00    -0.400 A  
ENDBRANCH  10  12
ENDBRANCH   9  10
ENDBRANCH   8   9
ENDBRANCH   3   8
BRANCH   6  18
HETATM   18  C   UNL     1     -12.040  14.819  70.752  1.00  0.00    -0.309 A  
HETATM   19  C   UNL     1     -14.068  15.438  71.998  1.00  0.00    -0.647 A  
HETATM   20  C   UNL     1     -13.307  15.771  73.108  1.00  0.00    -0.685 A  
HETATM   21  C   UNL     1     -11.295  15.228  71.863  1.00  0.00    -0.447 A  
HETATM   22  C   UNL     1     -13.440  14.960  70.843  1.00  0.00    -0.356 A  
HETATM   23  C   UNL     1     -11.921  15.674  73.036  1.00  0.00    -0.590 A  
ENDBRANCH   6  18
BRANCH   4  24
HETATM   24  C   UNL     1     -10.314  16.150  68.344  1.00  0.00    -0.257 A  
HETATM   25  C   UNL     1     -11.014  17.274  67.877  1.00  0.00    -0.179 A  
HETATM   26  C   UNL     1      -8.308  17.503  68.438  1.00  0.00    -0.278 A  
HETATM   27  C   UNL     1     -10.372  18.499  67.687  1.00  0.00    -0.442 A  
HETATM   28  C   UNL     1      -8.954  16.279  68.639  1.00  0.00    -0.232 A  
HETATM   29  C   UNL     1      -9.013  18.606  67.963  1.00  0.00    -0.324 A  
ENDBRANCH   4  24
TORSDOF 6
ENDMDL
MODEL       10
REMARK 921   NORMALIZED FREE ENERGY PREDICTED BY IDOCK:   -7.18 KCAL/MOL
REMARK 922        TOTAL FREE ENERGY PREDICTED BY IDOCK:  -10.92 KCAL/MOL
REMARK 923 INTER-LIGAND FREE ENERGY PREDICTED BY IDOCK:   -9.81 KCAL/MOL
REMARK 924 INTRA-LIGAND FREE ENERGY PREDICTED BY IDOCK:   -1.11 KCAL/MOL
REMARK 927      BINDING AFFINITY PREDICTED BY RF-SCORE:    0.00 PKD
ROOT
HETATM    1  O   UNL     1     -11.671  12.279  69.745  1.00  0.00    -0.308 OA 
HETATM    2  C   UNL     1     -11.172  13.216  69.135  1.00  0.00    -0.247 C  
HETATM    3  C   UNL     1     -10.854  13.169  67.666  1.00  0.00    -0.269 C  
HETATM    4  N   UNL     1     -10.934  14.538  69.577  1.00  0.00    -0.246 N  
HETATM    5  C   UNL     1     -10.068  14.421  67.446  1.00  0.00    -0.243 C  
HETATM    6  N   UNL     1     -10.384  15.301  68.495  1.00  0.00    -0.227 N  
HETATM    7  O   UNL     1      -9.334  14.561  66.477  1.00  0.00    -0.269 OA 
ENDROOT
BRANCH   3   8
HETATM    8  C   UNL     1     -12.155  13.251  66.852  1.00  0.00    -0.389 C  
BRANCH   8   9
HETATM    9  C   UNL     1     -11.954  13.641  65.379  1.00  0.00    -0.378 C  
BRANCH   9  10
HETATM   10  S   UNL     1     -12.382  12.213  64.312  1.00  0.00    -0.331 S  
HETATM   11  O   UNL     1     -12.727  12.772  62.961  1.00  0.00    -0.493 OA 
BRANCH  10  12
HETATM   12  C   UNL     1     -10.726  11.504  64.136  1.00  0.00    -0.368 A  
HETATM   13  C   UNL     1      -8.748  11.058  62.806  1.00  0.00    -0.261 A  
HETATM   14  C   UNL     1      -8.968  10.073  64.998  1.00  0.00    -0.234 A  
HETATM   15  C   UNL     1      -8.239  10.252  63.823  1.00  0.00    -0.153 A  
HETATM   16  C   UNL     1     -10.208  10.698  65.157  1.00  0.00    -0.368 A  
HETATM   17  C   UNL     1      -9.989  11.680  62.960  1.00  0.00    -0.321 A  
ENDBRANCH  10  12
ENDBRANCH   9  10
ENDBRANCH   8   9
ENDBRANCH   3   8
BRANCH   6  18
HETATM   18  C   UNL     1      -9.877  16.640  68.560  1.00  0.00    -0.252 A  
HETATM   19  C   UNL     1      -7.952  18.147  68.820  1.00  0.00    -0.259 A  
HETATM   20  C   UNL     1      -8.736  19.239  68.485  1.00  0.00    -0.405 A  
HETATM   21  C   UNL     1     -10.659  17.769  68.292  1.00  0.00    -0.325 A  
HETATM   22  C   UNL     1      -8.515  16.867  68.847  1.00  0.00    -0.202 A  
HETATM   23  C   UNL     1     -10.091  19.050  68.229  1.00  0.00    -0.466 A  
ENDBRANCH   6  18
BRANCH   4  24
HETATM   24  C   UNL     1     -11.793  15.004  70.611  1.00  0.00    -0.313 A  
HETATM   25  C   UNL     1     -11.216  15.375  71.836  1.00  0.00    -0.378 A  
HETATM   26  C   UNL     1     -13.977  15.379  71.584  1.00  0.00    -0.617 A  
HETATM   27  C   UNL     1     -12.007  15.740  72.926  1.00  0.00    -0.599 A  
HETATM   28  C   UNL     1     -13.184  15.023  70.488  1.00  0.00    -0.255 A  
HETATM   29  C   UNL     1     -13.392  15.733  72.797  1.00  0.00    -0.636 A  
ENDBRANCH   4  24
TORSDOF 6
ENDMDL
MODEL       11
REMARK 921   NORMALIZED FREE ENERGY PREDICTED BY IDOCK:   -7.17 KCAL/MOL
REMARK 922        TOTAL FREE ENERGY PREDICTED BY IDOCK:  -10.91 KCAL/MOL
REMARK 923 INTER-LIGAND FREE ENERGY PREDICTED BY IDOCK:   -9.28 KCAL/MOL
REMARK 924 INTRA-LIGAND FREE ENERGY PREDICTED BY IDOCK:   -1.63 KCAL/MOL
REMARK 927      BINDING AFFINITY PREDICTED BY RF-SCORE:    0.00 PKD
ROOT
HETATM    1  O   UNL     1     -10.597  13.043  66.587  1.00  0.00    -0.263 OA 
HETATM    2  C   UNL     1     -11.033  13.059  67.731  1.00  0.00    -0.251 C  
HETATM    3  C   UNL     1     -11.222  11.819  68.560  1.00  0.00    -0.306 C  
HETATM    4  N   UNL     1     -11.295  14.170  68.567  1.00  0.00    -0.266 N  
HETATM    5  C   UNL     1     -11.974  12.316  69.752  1.00  0.00    -0.295 C  
HETATM    6  N   UNL     1     -11.742  13.698  69.845  1.00  0.00    -0.289 N  
HETATM    7  O   UNL     1     -12.619  11.562  70.469  1.00  0.00    -0.270 OA 
ENDROOT
BRANCH   3   8
HETATM    8  C   UNL     1      -9.854  11.291  69.021  1.00  0.00    -0.101 C  
BRANCH   8   9
HETATM    9  C   UNL     1      -9.442   9.960  68.372  1.00  0.00    -0.137 C  
BRANCH   9  10
HETATM   10  S   UNL     1      -8.599   8.915  69.620  1.00  0.00    -0.137 S  
HETATM   11  O   UNL     1      -7.979   9.850  70.620  1.00  0.00    -0.257 OA 
BRANCH  10  12
HETATM   12  C   UNL     1     -10.064   8.235  70.435  1.00  0.00    -0.190 A  
HETATM   13  C   UNL     1     -11.901   6.652  70.506  1.00  0.00    -0.430 A  
HETATM   14  C   UNL     1     -11.776   8.422  72.143  1.00  0.00    -0.442 A  
HETATM   15  C   UNL     1     -12.429   7.307  71.618  1.00  0.00    -0.394 A  
HETATM   16  C   UNL     1     -10.596   8.885  71.555  1.00  0.00    -0.399 A  
HETATM   17  C   UNL     1     -10.724   7.116  69.914  1.00  0.00    -0.258 A  
ENDBRANCH  10  12
ENDBRANCH   9  10
ENDBRANCH   8   9
ENDBRANCH   3   8
BRANCH   6  18
HETATM   18  C   UNL     1     -12.239  14.495  70.928  1.00  0.00    -0.339 A  
HETATM   19  C   UNL     1     -14.158  15.279  72.250  1.00  0.00    -0.651 A  
HETATM   20  C   UNL     1     -13.307  15.859  73.177  1.00  0.00    -0.681 A  
HETATM   21  C   UNL     1     -11.407  15.149  71.842  1.00  0.00    -0.381 A  
HETATM   22  C   UNL     1     -13.628  14.599  71.149  1.00  0.00    -0.404 A  
HETATM   23  C   UNL     1     -11.933  15.802  72.968  1.00  0.00    -0.596 A  
ENDBRANCH   6  18
BRANCH   4  24
HETATM   24  C   UNL     1     -10.525  15.336  68.299  1.00  0.00    -0.244 A  
HETATM   25  C   UNL     1      -9.228  15.412  68.831  1.00  0.00    -0.216 A  
HETATM   26  C   UNL     1     -10.268  17.600  67.481  1.00  0.00    -0.348 A  
HETATM   27  C   UNL     1      -8.458  16.567  68.696  1.00  0.00    -0.243 A  
HETATM   28  C   UNL     1     -11.035  16.437  67.607  1.00  0.00    -0.225 A  
HETATM   29  C   UNL     1      -8.987  17.665  68.025  1.00  0.00    -0.264 A  
ENDBRANCH   4  24
TORSDOF 6
ENDMDL
MODEL       12
REMARK 921   NORMALIZED FREE ENERGY PREDICTED BY IDOCK:   -7.15 KCAL/MOL
REMARK 922        TOTAL FREE ENERGY PREDICTED BY IDOCK:  -10.89 KCAL/MOL
REMARK 923 INTER-LIGAND FREE ENERGY PREDICTED BY IDOCK:  -10.03 KCAL/MOL
REMARK 924 INTRA-LIGAND FREE ENERGY PREDICTED BY IDOCK:   -0.85 KCAL/MOL
REMARK 927      BINDING AFFINITY PREDICTED BY RF-SCORE:    0.00 PKD
ROOT
HETATM    1  O   UNL     1     -12.515  15.463  68.539  1.00  0.00     0.122 OA 
HETATM    2  C   UNL     1     -12.241  14.286  68.736  1.00  0.00    -0.190 C  
HETATM    3  C   UNL     1     -11.412  13.461  67.791  1.00  0.00    -0.351 C  
HETATM    4  N   UNL     1     -12.472  13.501  69.890  1.00  0.00    -0.202 N  
HETATM    5  C   UNL     1     -11.552  12.076  68.333  1.00  0.00    -0.311 C  
HETATM    6  N   UNL     1     -11.927  12.192  69.683  1.00  0.00    -0.303 N  
HETATM    7  O   UNL     1     -11.326  11.087  67.647  1.00  0.00    -0.348 OA 
ENDROOT
BRANCH   3   8
HETATM    8  C   UNL     1      -9.938  13.886  67.889  1.00  0.00    -0.242 C  
BRANCH   8   9
HETATM    9  C   UNL     1      -9.433  14.691  66.682  1.00  0.00    -0.278 C  
BRANCH   9  10
HETATM   10  S   UNL     1     -10.864  15.217  65.665  1.00  0.00    -0.378 S  
HETATM   11  O   UNL     1     -10.353  16.249  64.700  1.00  0.00    -0.429 OA 
BRANCH  10  12
HETATM   12  C   UNL     1     -11.072  13.704  64.692  1.00  0.00    -0.381 A  
HETATM   13  C   UNL     1     -12.493  12.006  63.703  1.00  0.00    -0.637 A  
HETATM   14  C   UNL     1     -10.093  11.753  63.638  1.00  0.00    -0.445 A  
HETATM   15  C   UNL     1     -11.367  11.271  63.334  1.00  0.00    -0.022 A  
HETATM   16  C   UNL     1      -9.945  12.967  64.313  1.00  0.00    -0.135 A  
HETATM   17  C   UNL     1     -12.347  13.217  64.383  1.00  0.00    -0.426 A  
ENDBRANCH  10  12
ENDBRANCH   9  10
ENDBRANCH   8   9
ENDBRANCH   3   8
BRANCH   6  18
HETATM   18  C   UNL     1     -12.066  11.057  70.547  1.00  0.00    -0.377 A  
HETATM   19  C   UNL     1     -13.498   9.690  72.006  1.00  0.00    -0.514 A  
HETATM   20  C   UNL     1     -12.513   8.720  72.097  1.00  0.00    -0.460 A  
HETATM   21  C   UNL     1     -11.066  10.093  70.712  1.00  0.00    -0.372 A  
HETATM   22  C   UNL     1     -13.277  10.836  71.234  1.00  0.00    -0.326 A  
HETATM   23  C   UNL     1     -11.294   8.926  71.457  1.00  0.00    -0.395 A  
ENDBRANCH   6  18
BRANCH   4  24
HETATM   24  C   UNL     1     -12.548  14.219  71.116  1.00  0.00    -0.362 A  
HETATM   25  C   UNL     1     -13.773  14.234  71.802  1.00  0.00    -0.496 A  
HETATM   26  C   UNL     1     -11.664  15.756  72.764  1.00  0.00    -0.515 A  
HETATM   27  C   UNL     1     -13.947  15.003  72.954  1.00  0.00    -0.208 A  
HETATM   28  C   UNL     1     -11.487  14.976  71.616  1.00  0.00    -0.377 A  
HETATM   29  C   UNL     1     -12.889  15.770  73.428  1.00  0.00    -0.680 A  
ENDBRANCH   4  24
TORSDOF 6
ENDMDL
MODEL       13
REMARK 921   NORMALIZED FREE ENERGY PREDICTED BY IDOCK:   -7.08 KCAL/MOL
REMARK 922        TOTAL FREE ENERGY PREDICTED BY IDOCK:  -10.79 KCAL/MOL
REMARK 923 INTER-LIGAND FREE ENERGY PREDICTED BY IDOCK:   -9.08 KCAL/MOL
REMARK 924 INTRA-LIGAND FREE ENERGY PREDICTED BY IDOCK:   -1.71 KCAL/MOL
REMARK 927      BINDING AFFINITY PREDICTED BY RF-SCORE:    0.00 PKD
ROOT
HETATM    1  O   UNL     1      -9.144  15.103  69.365  1.00  0.00    -0.227 OA 
HETATM    2  C   UNL     1      -9.513  15.018  68.201  1.00  0.00    -0.196 C  
HETATM    3  C   UNL     1      -9.190  16.049  67.154  1.00  0.00    -0.221 C  
HETATM    4  N   UNL     1     -10.147  13.937  67.546  1.00  0.00    -0.242 N  
HETATM    5  C   UNL     1     -10.032  15.633  65.993  1.00  0.00    -0.333 C  
HETATM    6  N   UNL     1     -10.337  14.272  66.165  1.00  0.00    -0.290 N  
HETATM    7  O   UNL     1     -10.319  16.410  65.092  1.00  0.00    -0.610 OA 
ENDROOT
BRANCH   3   8
HETATM    8  C   UNL     1      -7.709  15.939  66.759  1.00  0.00    -0.245 C  
BRANCH   8   9
HETATM    9  C   UNL     1      -6.768  16.829  67.586  1.00  0.00    -0.142 C  
BRANCH   9  10
HETATM   10  S   UNL     1      -6.596  18.457  66.762  1.00  0.00    -0.193 S  
HETATM   11  O   UNL     1      -6.669  18.202  65.283  1.00  0.00    -0.443 OA 
BRANCH  10  12
HETATM   12  C   UNL     1      -8.203  19.157  67.213  1.00  0.00    -0.276 A  
HETATM   13  C   UNL     1      -9.898  19.664  68.872  1.00  0.00    -0.498 A  
HETATM   14  C   UNL     1     -10.352  20.052  66.533  1.00  0.00    -0.572 A  
HETATM   15  C   UNL     1     -10.764  20.088  67.865  1.00  0.00    -0.267 A  
HETATM   16  C   UNL     1      -9.075  19.590  66.206  1.00  0.00    -0.403 A  
HETATM   17  C   UNL     1      -8.623  19.198  68.548  1.00  0.00    -0.398 A  
ENDBRANCH  10  12
ENDBRANCH   9  10
ENDBRANCH   8   9
ENDBRANCH   3   8
BRANCH   6  18
HETATM   18  C   UNL     1     -11.061  13.512  65.189  1.00  0.00    -0.316 A  
HETATM   19  C   UNL     1     -11.027  11.898  63.335  1.00  0.00    -0.470 A  
HETATM   20  C   UNL     1     -12.409  11.800  63.369  1.00  0.00    -0.476 A  
HETATM   21  C   UNL     1     -12.458  13.444  65.154  1.00  0.00    -0.509 A  
HETATM   22  C   UNL     1     -10.366  12.735  64.240  1.00  0.00    -0.402 A  
HETATM   23  C   UNL     1     -13.124  12.580  64.273  1.00  0.00    -0.093 A  
ENDBRANCH   6  18
BRANCH   4  24
HETATM   24  C   UNL     1      -9.885  12.649  68.092  1.00  0.00    -0.226 A  
HETATM   25  C   UNL     1     -10.873  12.053  68.891  1.00  0.00    -0.252 A  
HETATM   26  C   UNL     1      -8.423  10.788  68.602  1.00  0.00    -0.143 A  
HETATM   27  C   UNL     1     -10.642  10.841  69.543  1.00  0.00    -0.235 A  
HETATM   28  C   UNL     1      -8.659  11.998  67.939  1.00  0.00    -0.165 A  
HETATM   29  C   UNL     1      -9.409  10.215  69.401  1.00  0.00    -0.235 A  
ENDBRANCH   4  24
TORSDOF 6
ENDMDL
MODEL       14
REMARK 921   NORMALIZED FREE ENERGY PREDICTED BY IDOCK:   -6.98 KCAL/MOL
REMARK 922        TOTAL FREE ENERGY PREDICTED BY IDOCK:  -10.65 KCAL/MOL
REMARK 923 INTER-LIGAND FREE ENERGY PREDICTED BY IDOCK:   -9.14 KCAL/MOL
REMARK 924 INTRA-LIGAND FREE ENERGY PREDICTED BY IDOCK:   -1.51 KCAL/MOL
REMARK 927      BINDING AFFINITY PREDICTED BY RF-SCORE:    0.00 PKD
ROOT
HETATM    1  O   UNL     1     -11.585  11.009  67.489  1.00  0.00    -0.529 OA 
HETATM    2  C   UNL     1     -11.839  11.466  68.596  1.00  0.00    -0.310 C  
HETATM    3  C   UNL     1     -11.951  10.619  69.833  1.00  0.00    -0.385 C  
HETATM    4  N   UNL     1     -11.923  12.818  69.001  1.00  0.00    -0.277 N  
HETATM    5  C   UNL     1     -12.490  11.571  70.851  1.00  0.00    -0.366 C  
HETATM    6  N   UNL     1     -12.187  12.870  70.409  1.00  0.00    -0.345 N  
HETATM    7  O   UNL     1     -13.049  11.181  71.868  1.00  0.00    -0.488 OA 
ENDROOT
BRANCH   3   8
HETATM    8  C   UNL     1     -10.553  10.159  70.274  1.00  0.00    -0.324 C  
BRANCH   8   9
HETATM    9  C   UNL     1     -10.557   8.934  71.203  1.00  0.00    -0.265 C  
BRANCH   9  10
HETATM   10  S   UNL     1      -9.030   7.959  70.923  1.00  0.00    -0.145 S  
HETATM   11  O   UNL     1      -9.086   6.789  71.864  1.00  0.00    -0.143 OA 
BRANCH  10  12
HETATM   12  C   UNL     1      -9.435   7.290  69.291  1.00  0.00    -0.153 A  
HETATM   13  C   UNL     1     -10.811   5.897  67.859  1.00  0.00    -0.323 A  
HETATM   14  C   UNL     1      -8.823   6.940  66.971  1.00  0.00    -0.119 A  
HETATM   15  C   UNL     1      -9.942   6.127  66.793  1.00  0.00    -0.218 A  
HETATM   16  C   UNL     1      -8.569   7.522  68.215  1.00  0.00    -0.124 A  
HETATM   17  C   UNL     1     -10.557   6.474  69.105  1.00  0.00    -0.286 A  
ENDBRANCH  10  12
ENDBRANCH   9  10
ENDBRANCH   8   9
ENDBRANCH   3   8
BRANCH   6  18
HETATM   18  C   UNL     1     -12.479  14.039  71.185  1.00  0.00    -0.371 A  
HETATM   19  C   UNL     1     -14.140  15.428  72.349  1.00  0.00    -0.645 A  
HETATM   20  C   UNL     1     -13.134  16.200  72.905  1.00  0.00    -0.434 A  
HETATM   21  C   UNL     1     -11.488  14.878  71.706  1.00  0.00    -0.275 A  
HETATM   22  C   UNL     1     -13.813  14.358  71.510  1.00  0.00    -0.455 A  
HETATM   23  C   UNL     1     -11.809  15.931  72.577  1.00  0.00    -0.613 A  
ENDBRANCH   6  18
BRANCH   4  24
HETATM   24  C   UNL     1     -11.154  13.738  68.234  1.00  0.00    -0.255 A  
HETATM   25  C   UNL     1      -9.783  13.855  68.516  1.00  0.00    -0.202 A  
HETATM   26  C   UNL     1     -10.929  15.551  66.646  1.00  0.00    -0.248 A  
HETATM   27  C   UNL     1      -8.992  14.810  67.877  1.00  0.00    -0.172 A  
HETATM   28  C   UNL     1     -11.719  14.586  67.279  1.00  0.00    -0.429 A  
HETATM   29  C   UNL     1      -9.573  15.663  66.945  1.00  0.00    -0.244 A  
ENDBRANCH   4  24
TORSDOF 6
ENDMDL
MODEL       15
REMARK 921   NORMALIZED FREE ENERGY PREDICTED BY IDOCK:   -6.96 KCAL/MOL
REMARK 922        TOTAL FREE ENERGY PREDICTED BY IDOCK:  -10.63 KCAL/MOL
REMARK 923 INTER-LIGAND FREE ENERGY PREDICTED BY IDOCK:   -9.38 KCAL/MOL
REMARK 924 INTRA-LIGAND FREE ENERGY PREDICTED BY IDOCK:   -1.25 KCAL/MOL
REMARK 927      BINDING AFFINITY PREDICTED BY RF-SCORE:    0.00 PKD
ROOT
HETATM    1  O   UNL     1     -10.860  10.488  66.674  1.00  0.00    -0.194 OA 
HETATM    2  C   UNL     1     -11.145  10.901  67.790  1.00  0.00    -0.309 C  
HETATM    3  C   UNL     1     -10.825  10.152  69.055  1.00  0.00    -0.257 C  
HETATM    4  N   UNL     1     -11.659  12.164  68.167  1.00  0.00    -0.317 N  
HETATM    5  C   UNL     1     -11.559  10.923  70.103  1.00  0.00    -0.338 C  
HETATM    6  N   UNL     1     -11.781  12.213  69.594  1.00  0.00    -0.321 N  
HETATM    7  O   UNL     1     -11.839  10.431  71.189  1.00  0.00    -0.356 OA 
ENDROOT
BRANCH   3   8
HETATM    8  C   UNL     1      -9.317  10.237  69.339  1.00  0.00    -0.217 C  
BRANCH   8   9
HETATM    9  C   UNL     1      -8.528   8.982  68.935  1.00  0.00    -0.130 C  
BRANCH   9  10
HETATM   10  S   UNL     1      -7.883   8.163  70.443  1.00  0.00    -0.092 S  
HETATM   11  O   UNL     1      -7.484   9.256  71.392  1.00  0.00    -0.316 OA 
BRANCH  10  12
HETATM   12  C   UNL     1      -9.446   7.511  71.083  1.00  0.00    -0.158 A  
HETATM   13  C   UNL     1     -11.524   6.302  70.759  1.00  0.00    -0.383 A  
HETATM   14  C   UNL     1     -11.107   7.438  72.848  1.00  0.00    -0.397 A  
HETATM   15  C   UNL     1     -11.938   6.660  72.042  1.00  0.00    -0.361 A  
HETATM   16  C   UNL     1      -9.864   7.862  72.372  1.00  0.00    -0.287 A  
HETATM   17  C   UNL     1     -10.284   6.729  70.280  1.00  0.00    -0.216 A  
ENDBRANCH  10  12
ENDBRANCH   9  10
ENDBRANCH   8   9
ENDBRANCH   3   8
BRANCH   6  18
HETATM   18  C   UNL     1     -12.386  13.256  70.368  1.00  0.00    -0.295 A  
HETATM   19  C   UNL     1     -13.746  13.915  72.308  1.00  0.00    -0.660 A  
HETATM   20  C   UNL     1     -13.441  15.249  72.094  1.00  0.00    -0.546 A  
HETATM   21  C   UNL     1     -12.152  14.616  70.137  1.00  0.00    -0.385 A  
HETATM   22  C   UNL     1     -13.216  12.935  71.462  1.00  0.00    -0.346 A  
HETATM   23  C   UNL     1     -12.652  15.600  71.003  1.00  0.00    -0.515 A  
ENDBRANCH   6  18
BRANCH   4  24
HETATM   24  C   UNL     1     -11.347  13.240  67.291  1.00  0.00    -0.314 A  
HETATM   25  C   UNL     1     -12.310  13.629  66.346  1.00  0.00    -0.441 A  
HETATM   26  C   UNL     1      -9.813  14.834  66.307  1.00  0.00    -0.316 A  
HETATM   27  C   UNL     1     -12.031  14.605  65.388  1.00  0.00    -0.275 A  
HETATM   28  C   UNL     1     -10.097  13.864  67.274  1.00  0.00    -0.242 A  
HETATM   29  C   UNL     1     -10.774  15.201  65.368  1.00  0.00    -0.396 A  
ENDBRANCH   4  24
TORSDOF 6
ENDMDL
MODEL       16
REMARK 921   NORMALIZED FREE ENERGY PREDICTED BY IDOCK:   -6.95 KCAL/MOL
REMARK 922        TOTAL FREE ENERGY PREDICTED BY IDOCK:  -10.62 KCAL/MOL
REMARK 923 INTER-LIGAND FREE ENERGY PREDICTED BY IDOCK:   -9.24 KCAL/MOL
REMARK 924 INTRA-LIGAND FREE ENERGY PREDICTED BY IDOCK:   -1.38 KCAL/MOL
REMARK 927      BINDING AFFINITY PREDICTED BY RF-SCORE:    0.00 PKD
ROOT
HETATM    1  O   UNL     1      -8.925  13.428  66.557  1.00  0.00    -0.173 OA 
HETATM    2  C   UNL     1      -9.665  14.137  67.226  1.00  0.00    -0.236 C  
HETATM    3  C   UNL     1     -10.241  15.434  66.726  1.00  0.00    -0.273 C  
HETATM    4  N   UNL     1     -10.259  13.868  68.481  1.00  0.00    -0.239 N  
HETATM    5  C   UNL     1     -10.864  16.025  67.949  1.00  0.00    -0.333 C  
HETATM    6  N   UNL     1     -11.097  14.971  68.849  1.00  0.00    -0.253 N  
HETATM    7  O   UNL     1     -11.113  17.220  68.033  1.00  0.00    -0.289 OA 
ENDROOT
BRANCH   3   8
HETATM    8  C   UNL     1     -11.344  15.147  65.695  1.00  0.00    -0.255 C  
BRANCH   8   9
HETATM    9  C   UNL     1     -12.264  13.974  66.067  1.00  0.00    -0.458 C  
BRANCH   9  10
HETATM   10  S   UNL     1     -12.746  13.077  64.543  1.00  0.00    -0.178 S  
HETATM   11  O   UNL     1     -12.510  14.017  63.395  1.00  0.00    -0.826 OA 
BRANCH  10  12
HETATM   12  C   UNL     1     -11.380  11.891  64.487  1.00  0.00    -0.316 A  
HETATM   13  C   UNL     1      -9.970  10.237  65.565  1.00  0.00    -0.364 A  
HETATM   14  C   UNL     1      -9.452  10.984  63.328  1.00  0.00    -0.346 A  
HETATM   15  C   UNL     1      -9.155  10.187  64.434  1.00  0.00    -0.284 A  
HETATM   16  C   UNL     1     -10.562  11.832  63.352  1.00  0.00    -0.479 A  
HETATM   17  C   UNL     1     -11.077  11.088  65.593  1.00  0.00    -0.008 A  
ENDBRANCH  10  12
ENDBRANCH   9  10
ENDBRANCH   8   9
ENDBRANCH   3   8
BRANCH   6  18
HETATM   18  C   UNL     1     -11.769  15.159  70.101  1.00  0.00    -0.307 A  
HETATM   19  C   UNL     1     -11.670  15.869  72.453  1.00  0.00    -0.582 A  
HETATM   20  C   UNL     1     -13.048  15.774  72.560  1.00  0.00    -0.558 A  
HETATM   21  C   UNL     1     -13.150  15.007  70.259  1.00  0.00    -0.124 A  
HETATM   22  C   UNL     1     -11.044  15.574  71.238  1.00  0.00    -0.343 A  
HETATM   23  C   UNL     1     -13.787  15.335  71.465  1.00  0.00    -0.617 A  
ENDBRANCH   6  18
BRANCH   4  24
HETATM   24  C   UNL     1     -10.466  12.492  68.780  1.00  0.00    -0.144 A  
HETATM   25  C   UNL     1     -11.780  12.051  69.001  1.00  0.00    -0.382 A  
HETATM   26  C   UNL     1      -9.679  10.277  69.359  1.00  0.00    -0.242 A  
HETATM   27  C   UNL     1     -12.045  10.740  69.401  1.00  0.00    -0.315 A  
HETATM   28  C   UNL     1      -9.415  11.588  68.947  1.00  0.00    -0.027 A  
HETATM   29  C   UNL     1     -10.987   9.857  69.586  1.00  0.00    -0.285 A  
ENDBRANCH   4  24
TORSDOF 6
ENDMDL
MODEL       17
REMARK 921   NORMALIZED FREE ENERGY PREDICTED BY IDOCK:   -6.88 KCAL/MOL
REMARK 922        TOTAL FREE ENERGY PREDICTED BY IDOCK:  -10.52 KCAL/MOL
REMARK 923 INTER-LIGAND FREE ENERGY PREDICTED BY IDOCK:   -9.21 KCAL/MOL
REMARK 924 INTRA-LIGAND FREE ENERGY PREDICTED BY IDOCK:   -1.31 KCAL/MOL
REMARK 927      BINDING AFFINITY PREDICTED BY RF-SCORE:    0.00 PKD
ROOT
HETATM    1  O   UNL     1      -8.732  12.651  67.384  1.00  0.00    -0.172 OA 
HETATM    2  C   UNL     1      -9.644  12.412  68.164  1.00  0.00    -0.218 C  
HETATM    3  C   UNL     1     -10.739  13.393  68.481  1.00  0.00    -0.278 C  
HETATM    4  N   UNL     1      -9.976  11.191  68.797  1.00  0.00    -0.201 N  
HETATM    5  C   UNL     1     -11.454  12.751  69.625  1.00  0.00    -0.185 C  
HETATM    6  N   UNL     1     -11.162  11.377  69.580  1.00  0.00    -0.252 N  
HETATM    7  O   UNL     1     -12.165  13.395  70.385  1.00  0.00    -0.343 OA 
ENDROOT
BRANCH   3   8
HETATM    8  C   UNL     1     -11.702  13.497  67.288  1.00  0.00    -0.423 C  
BRANCH   8   9
HETATM    9  C   UNL     1     -11.992  14.937  66.835  1.00  0.00    -0.100 C  
BRANCH   9  10
HETATM   10  S   UNL     1     -10.576  15.556  65.849  1.00  0.00    -0.354 S  
HETATM   11  O   UNL     1     -11.112  15.889  64.485  1.00  0.00    -0.495 OA 
BRANCH  10  12
HETATM   12  C   UNL     1     -10.345  17.146  66.681  1.00  0.00    -0.310 A  
HETATM   13  C   UNL     1      -9.971  18.443  68.696  1.00  0.00    -0.415 A  
HETATM   14  C   UNL     1     -10.438  19.568  66.612  1.00  0.00    -0.593 A  
HETATM   15  C   UNL     1     -10.161  19.623  67.977  1.00  0.00    -0.555 A  
HETATM   16  C   UNL     1     -10.528  18.334  65.963  1.00  0.00    -0.380 A  
HETATM   17  C   UNL     1     -10.065  17.209  68.051  1.00  0.00    -0.311 A  
ENDBRANCH  10  12
ENDBRANCH   9  10
ENDBRANCH   8   9
ENDBRANCH   3   8
BRANCH   6  18
HETATM   18  C   UNL     1     -11.753  10.432  70.481  1.00  0.00    -0.344 A  
HETATM   19  C   UNL     1     -11.456   8.663  72.163  1.00  0.00    -0.443 A  
HETATM   20  C   UNL     1     -12.811   8.683  72.452  1.00  0.00    -0.413 A  
HETATM   21  C   UNL     1     -13.126  10.381  70.745  1.00  0.00    -0.362 A  
HETATM   22  C   UNL     1     -10.937   9.533  71.198  1.00  0.00    -0.438 A  
HETATM   23  C   UNL     1     -13.646   9.536  71.737  1.00  0.00    -0.447 A  
ENDBRANCH   6  18
BRANCH   4  24
HETATM   24  C   UNL     1      -9.575  10.013  68.107  1.00  0.00    -0.139 A  
HETATM   25  C   UNL     1     -10.431   9.496  67.121  1.00  0.00    -0.322 A  
HETATM   26  C   UNL     1      -8.138   8.090  67.795  1.00  0.00    -0.128 A  
HETATM   27  C   UNL     1     -10.150   8.289  66.481  1.00  0.00    -0.303 A  
HETATM   28  C   UNL     1      -8.414   9.306  68.429  1.00  0.00    -0.120 A  
HETATM   29  C   UNL     1      -9.003   7.583  66.828  1.00  0.00    -0.164 A  
ENDBRANCH   4  24
TORSDOF 6
ENDMDL
MODEL       18
REMARK 921   NORMALIZED FREE ENERGY PREDICTED BY IDOCK:   -6.87 KCAL/MOL
REMARK 922        TOTAL FREE ENERGY PREDICTED BY IDOCK:  -10.51 KCAL/MOL
REMARK 923 INTER-LIGAND FREE ENERGY PREDICTED BY IDOCK:   -9.30 KCAL/MOL
REMARK 924 INTRA-LIGAND FREE ENERGY PREDICTED BY IDOCK:   -1.22 KCAL/MOL
REMARK 927      BINDING AFFINITY PREDICTED BY RF-SCORE:    0.00 PKD
ROOT
HETATM    1  O   UNL     1     -10.895  16.628  65.183  1.00  0.00    -0.565 OA 
HETATM    2  C   UNL     1     -10.280  15.965  66.008  1.00  0.00    -0.334 C  
HETATM    3  C   UNL     1      -9.949  16.465  67.387  1.00  0.00    -0.251 C  
HETATM    4  N   UNL     1      -9.894  14.606  65.947  1.00  0.00    -0.322 N  
HETATM    5  C   UNL     1      -9.017  15.423  67.913  1.00  0.00    -0.173 C  
HETATM    6  N   UNL     1      -9.242  14.250  67.173  1.00  0.00    -0.213 N  
HETATM    7  O   UNL     1      -8.257  15.647  68.847  1.00  0.00    -0.170 OA 
ENDROOT
BRANCH   3   8
HETATM    8  C   UNL     1     -11.219  16.478  68.252  1.00  0.00    -0.265 C  
BRANCH   8   9
HETATM    9  C   UNL     1     -11.678  15.087  68.718  1.00  0.00    -0.334 C  
BRANCH   9  10
HETATM   10  S   UNL     1     -12.032  15.140  70.516  1.00  0.00    -0.358 S  
HETATM   11  O   UNL     1     -13.373  15.799  70.673  1.00  0.00    -0.486 OA 
BRANCH  10  12
HETATM   12  C   UNL     1     -12.325  13.374  70.783  1.00  0.00    -0.354 A  
HETATM   13  C   UNL     1     -12.212  11.073  70.024  1.00  0.00    -0.418 A  
HETATM   14  C   UNL     1     -13.363  11.605  72.077  1.00  0.00    -0.405 A  
HETATM   15  C   UNL     1     -12.944  10.664  71.138  1.00  0.00    -0.483 A  
HETATM   16  C   UNL     1     -13.054  12.957  71.903  1.00  0.00    -0.474 A  
HETATM   17  C   UNL     1     -11.906  12.423  69.845  1.00  0.00    -0.376 A  
ENDBRANCH  10  12
ENDBRANCH   9  10
ENDBRANCH   8   9
ENDBRANCH   3   8
BRANCH   6  18
HETATM   18  C   UNL     1      -8.580  13.012  67.465  1.00  0.00    -0.192 A  
HETATM   19  C   UNL     1      -8.744  10.624  68.028  1.00  0.00    -0.126 A  
HETATM   20  C   UNL     1      -7.381  10.466  67.839  1.00  0.00    -0.086 A  
HETATM   21  C   UNL     1      -7.197  12.837  67.349  1.00  0.00    -0.134 A  
HETATM   22  C   UNL     1      -9.333  11.878  67.833  1.00  0.00    -0.187 A  
HETATM   23  C   UNL     1      -6.607  11.574  67.508  1.00  0.00    -0.087 A  
ENDBRANCH   6  18
BRANCH   4  24
HETATM   24  C   UNL     1     -10.706  13.773  65.129  1.00  0.00    -0.358 A  
HETATM   25  C   UNL     1     -12.076  13.686  65.423  1.00  0.00    -0.429 A  
HETATM   26  C   UNL     1     -11.019  12.088  63.419  1.00  0.00    -0.475 A  
HETATM   27  C   UNL     1     -12.910  12.809  64.730  1.00  0.00    -0.374 A  
HETATM   28  C   UNL     1     -10.185  12.976  64.107  1.00  0.00    -0.263 A  
HETATM   29  C   UNL     1     -12.374  12.004  63.730  1.00  0.00    -0.602 A  
ENDBRANCH   4  24
TORSDOF 6
ENDMDL
MODEL       19
REMARK 921   NORMALIZED FREE ENERGY PREDICTED BY IDOCK:   -6.82 KCAL/MOL
REMARK 922        TOTAL FREE ENERGY PREDICTED BY IDOCK:  -10.45 KCAL/MOL
REMARK 923 INTER-LIGAND FREE ENERGY PREDICTED BY IDOCK:   -8.89 KCAL/MOL
REMARK 924 INTRA-LIGAND FREE ENERGY PREDICTED BY IDOCK:   -1.56 KCAL/MOL
REMARK 927      BINDING AFFINITY PREDICTED BY RF-SCORE:    0.00 PKD
ROOT
HETATM    1  O   UNL     1      -9.623  15.992  64.971  1.00  0.00    -0.160 OA 
HETATM    2  C   UNL     1      -9.576  15.371  66.025  1.00  0.00    -0.347 C  
HETATM    3  C   UNL     1      -9.400  16.031  67.365  1.00  0.00    -0.220 C  
HETATM    4  N   UNL     1      -9.819  13.998  66.259  1.00  0.00    -0.296 N  
HETATM    5  C   UNL     1      -9.173  14.878  68.287  1.00  0.00    -0.187 C  
HETATM    6  N   UNL     1      -9.703  13.735  67.664  1.00  0.00    -0.221 N  
HETATM    7  O   UNL     1      -8.640  15.019  69.380  1.00  0.00    -0.192 OA 
ENDROOT
BRANCH   3   8
HETATM    8  C   UNL     1     -10.704  16.740  67.768  1.00  0.00    -0.321 C  
BRANCH   8   9
HETATM    9  C   UNL     1     -10.550  18.249  68.012  1.00  0.00    -0.325 C  
BRANCH   9  10
HETATM   10  S   UNL     1      -9.762  19.021  66.549  1.00  0.00    -0.373 S  
HETATM   11  O   UNL     1     -10.566  20.248  66.222  1.00  0.00    -0.317 OA 
BRANCH  10  12
HETATM   12  C   UNL     1      -8.254  19.627  67.345  1.00  0.00    -0.298 A  
HETATM   13  C   UNL     1      -6.802  19.785  69.281  1.00  0.00    -0.370 A  
HETATM   14  C   UNL     1      -6.326  21.097  67.312  1.00  0.00    -0.425 A  
HETATM   15  C   UNL     1      -6.005  20.714  68.614  1.00  0.00    -0.379 A  
HETATM   16  C   UNL     1      -7.446  20.555  66.677  1.00  0.00    -0.265 A  
HETATM   17  C   UNL     1      -7.925  19.245  68.650  1.00  0.00    -0.405 A  
ENDBRANCH  10  12
ENDBRANCH   9  10
ENDBRANCH   8   9
ENDBRANCH   3   8
BRANCH   6  18
HETATM   18  C   UNL     1      -9.740  12.453  68.303  1.00  0.00    -0.218 A  
HETATM   19  C   UNL     1     -11.066  10.644  69.309  1.00  0.00    -0.306 A  
HETATM   20  C   UNL     1      -9.946   9.831  69.372  1.00  0.00    -0.217 A  
HETATM   21  C   UNL     1      -8.613  11.634  68.442  1.00  0.00    -0.156 A  
HETATM   22  C   UNL     1     -10.962  11.931  68.773  1.00  0.00    -0.280 A  
HETATM   23  C   UNL     1      -8.719  10.330  68.947  1.00  0.00    -0.152 A  
ENDBRANCH   6  18
BRANCH   4  24
HETATM   24  C   UNL     1     -10.692  13.362  65.333  1.00  0.00    -0.300 A  
HETATM   25  C   UNL     1     -12.076  13.462  65.548  1.00  0.00    -0.467 A  
HETATM   26  C   UNL     1     -11.140  11.879  63.472  1.00  0.00    -0.506 A  
HETATM   27  C   UNL     1     -12.984  12.777  64.740  1.00  0.00    -0.228 A  
HETATM   28  C   UNL     1     -10.230  12.576  64.275  1.00  0.00    -0.359 A  
HETATM   29  C   UNL     1     -12.509  11.978  63.706  1.00  0.00    -0.594 A  
ENDBRANCH   4  24
TORSDOF 6
ENDMDL
MODEL       20
REMARK 921   NORMALIZED FREE ENERGY PREDICTED BY IDOCK:   -6.81 KCAL/MOL
REMARK 922        TOTAL FREE ENERGY PREDICTED BY IDOCK:  -10.42 KCAL/MOL
REMARK 923 INTER-LIGAND FREE ENERGY PREDICTED BY IDOCK:   -8.68 KCAL/MOL
REMARK 924 INTRA-LIGAND FREE ENERGY PREDICTED BY IDOCK:   -1.75 KCAL/MOL
REMARK 927      BINDING AFFINITY PREDICTED BY RF-SCORE:    0.00 PKD
ROOT
HETATM    1  O   UNL     1      -8.191   9.053  64.543  1.00  0.00    -0.142 OA 
HETATM    2  C   UNL     1      -8.636   9.554  65.568  1.00  0.00    -0.146 C  
HETATM    3  C   UNL     1      -9.143  10.968  65.643  1.00  0.00    -0.223 C  
HETATM    4  N   UNL     1      -8.922   8.937  66.808  1.00  0.00    -0.126 N  
HETATM    5  C   UNL     1      -9.351  11.179  67.107  1.00  0.00    -0.165 C  
HETATM    6  N   UNL     1      -9.484   9.911  67.697  1.00  0.00    -0.146 N  
HETATM    7  O   UNL     1      -9.410  12.300  67.596  1.00  0.00    -0.175 OA 
ENDROOT
BRANCH   3   8
HETATM    8  C   UNL     1     -10.500  11.070  64.928  1.00  0.00    -0.371 C  
BRANCH   8   9
HETATM    9  C   UNL     1     -10.446  11.796  63.575  1.00  0.00    -0.449 C  
BRANCH   9  10
HETATM   10  S   UNL     1     -11.838  12.984  63.471  1.00  0.00    -0.465 S  
HETATM   11  O   UNL     1     -13.088  12.215  63.790  1.00  0.00    -0.774 OA 
BRANCH  10  12
HETATM   12  C   UNL     1     -11.473  13.955  64.954  1.00  0.00    -0.350 A  
HETATM   13  C   UNL     1      -9.990  15.388  66.231  1.00  0.00    -0.308 A  
HETATM   14  C   UNL     1     -12.023  14.561  67.237  1.00  0.00    -0.375 A  
HETATM   15  C   UNL     1     -10.850  15.311  67.326  1.00  0.00    -0.318 A  
HETATM   16  C   UNL     1     -12.336  13.886  66.054  1.00  0.00    -0.511 A  
HETATM   17  C   UNL     1     -10.298  14.710  65.050  1.00  0.00    -0.432 A  
ENDBRANCH  10  12
ENDBRANCH   9  10
ENDBRANCH   8   9
ENDBRANCH   3   8
BRANCH   6  18
HETATM   18  C   UNL     1      -9.785   9.732  69.087  1.00  0.00    -0.184 A  
HETATM   19  C   UNL     1     -11.437   9.810  70.906  1.00  0.00    -0.447 A  
HETATM   20  C   UNL     1     -10.543   9.199  71.771  1.00  0.00    -0.383 A  
HETATM   21  C   UNL     1      -8.881   9.180  70.001  1.00  0.00    -0.193 A  
HETATM   22  C   UNL     1     -11.063  10.062  69.582  1.00  0.00    -0.300 A  
HETATM   23  C   UNL     1      -9.262   8.893  71.320  1.00  0.00    -0.328 A  
ENDBRANCH   6  18
BRANCH   4  24
HETATM   24  C   UNL     1      -9.226   7.549  66.747  1.00  0.00    -0.156 A  
HETATM   25  C   UNL     1     -10.555   7.150  66.960  1.00  0.00    -0.413 A  
HETATM   26  C   UNL     1      -8.596   5.213  66.643  1.00  0.00    -0.110 A  
HETATM   27  C   UNL     1     -10.905   5.800  67.019  1.00  0.00    -0.328 A  
HETATM   28  C   UNL     1      -8.248   6.567  66.573  1.00  0.00    -0.113 A  
HETATM   29  C   UNL     1      -9.917   4.833  66.867  1.00  0.00    -0.245 A  
ENDBRANCH   4  24
TORSDOF 6
ENDMDL
MODEL       21
REMARK 921   NORMALIZED FREE ENERGY PREDICTED BY IDOCK:   -6.79 KCAL/MOL
REMARK 922        TOTAL FREE ENERGY PREDICTED BY IDOCK:  -10.40 KCAL/MOL
REMARK 923 INTER-LIGAND FREE ENERGY PREDICTED BY IDOCK:   -8.69 KCAL/MOL
REMARK 924 INTRA-LIGAND FREE ENERGY PREDICTED BY IDOCK:   -1.71 KCAL/MOL
REMARK 927      BINDING AFFINITY PREDICTED BY RF-SCORE:    0.00 PKD
ROOT
HETATM    1  O   UNL     1      -9.312   7.764  66.707  1.00  0.00    -0.160 OA 
HETATM    2  C   UNL     1      -9.848   8.860  66.808  1.00  0.00    -0.241 C  
HETATM    3  C   UNL     1     -10.417   9.385  68.097  1.00  0.00    -0.267 C  
HETATM    4  N   UNL     1      -9.921   9.904  65.857  1.00  0.00    -0.278 N  
HETATM    5  C   UNL     1     -11.148  10.617  67.670  1.00  0.00    -0.319 C  
HETATM    6  N   UNL     1     -10.600  11.023  66.442  1.00  0.00    -0.262 N  
HETATM    7  O   UNL     1     -12.029  11.116  68.359  1.00  0.00    -0.561 OA 
ENDROOT
BRANCH   3   8
HETATM    8  C   UNL     1      -9.274   9.788  69.041  1.00  0.00    -0.165 C  
BRANCH   8   9
HETATM    9  C   UNL     1      -9.430   9.265  70.478  1.00  0.00    -0.264 C  
BRANCH   9  10
HETATM   10  S   UNL     1     -10.206   7.605  70.435  1.00  0.00    -0.206 S  
HETATM   11  O   UNL     1      -9.541   6.788  71.506  1.00  0.00    -0.164 OA 
BRANCH  10  12
HETATM   12  C   UNL     1     -11.829   8.051  71.102  1.00  0.00    -0.284 A  
HETATM   13  C   UNL     1     -14.142   7.499  71.581  1.00  0.00    -0.562 A  
HETATM   14  C   UNL     1     -13.342   9.748  71.943  1.00  0.00    -0.530 A  
HETATM   15  C   UNL     1     -14.378   8.815  71.979  1.00  0.00    -0.466 A  
HETATM   16  C   UNL     1     -12.070   9.368  71.508  1.00  0.00    -0.456 A  
HETATM   17  C   UNL     1     -12.872   7.119  71.141  1.00  0.00    -0.340 A  
ENDBRANCH  10  12
ENDBRANCH   9  10
ENDBRANCH   8   9
ENDBRANCH   3   8
BRANCH   6  18
HETATM   18  C   UNL     1     -11.002  12.227  65.776  1.00  0.00    -0.301 A  
HETATM   19  C   UNL     1     -10.674  14.636  65.411  1.00  0.00    -0.382 A  
HETATM   20  C   UNL     1     -11.569  14.618  64.354  1.00  0.00    -0.315 A  
HETATM   21  C   UNL     1     -11.952  12.253  64.749  1.00  0.00    -0.429 A  
HETATM   22  C   UNL     1     -10.390  13.454  66.103  1.00  0.00    -0.295 A  
HETATM   23  C   UNL     1     -12.214  13.428  64.029  1.00  0.00    -0.466 A  
ENDBRANCH   6  18
BRANCH   4  24
HETATM   24  C   UNL     1      -8.869   9.938  64.900  1.00  0.00    -0.193 A  
HETATM   25  C   UNL     1      -7.561  10.163  65.360  1.00  0.00    -0.144 A  
HETATM   26  C   UNL     1      -8.029  10.008  62.631  1.00  0.00    -0.141 A  
HETATM   27  C   UNL     1      -6.498  10.313  64.469  1.00  0.00    -0.092 A  
HETATM   28  C   UNL     1      -9.093   9.846  63.525  1.00  0.00    -0.289 A  
HETATM   29  C   UNL     1      -6.739  10.242  63.101  1.00  0.00    -0.117 A  
ENDBRANCH   4  24
TORSDOF 6
ENDMDL
MODEL       22
REMARK 921   NORMALIZED FREE ENERGY PREDICTED BY IDOCK:   -6.78 KCAL/MOL
REMARK 922        TOTAL FREE ENERGY PREDICTED BY IDOCK:  -10.39 KCAL/MOL
REMARK 923 INTER-LIGAND FREE ENERGY PREDICTED BY IDOCK:   -9.40 KCAL/MOL
REMARK 924 INTRA-LIGAND FREE ENERGY PREDICTED BY IDOCK:   -0.99 KCAL/MOL
REMARK 927      BINDING AFFINITY PREDICTED BY RF-SCORE:    0.00 PKD
ROOT
HETATM    1  O   UNL     1     -12.513  11.810  70.799  1.00  0.00    -0.357 OA 
HETATM    2  C   UNL     1     -12.030  11.447  69.734  1.00  0.00    -0.353 C  
HETATM    3  C   UNL     1     -11.885  12.353  68.542  1.00  0.00    -0.352 C  
HETATM    4  N   UNL     1     -11.382  10.230  69.421  1.00  0.00    -0.237 N  
HETATM    5  C   UNL     1     -11.477  11.418  67.450  1.00  0.00    -0.251 C  
HETATM    6  N   UNL     1     -10.929  10.277  68.061  1.00  0.00    -0.283 N  
HETATM    7  O   UNL     1     -11.611  11.707  66.268  1.00  0.00    -0.420 OA 
ENDROOT
BRANCH   3   8
HETATM    8  C   UNL     1     -10.747  13.355  68.789  1.00  0.00    -0.257 C  
BRANCH   8   9
HETATM    9  C   UNL     1     -11.107  14.812  68.458  1.00  0.00    -0.264 C  
BRANCH   9  10
HETATM   10  S   UNL     1     -10.152  15.353  66.991  1.00  0.00    -0.254 S  
HETATM   11  O   UNL     1     -11.018  15.094  65.791  1.00  0.00    -0.336 OA 
BRANCH  10  12
HETATM   12  C   UNL     1     -10.225  17.140  67.266  1.00  0.00    -0.316 A  
HETATM   13  C   UNL     1     -10.362  19.407  66.414  1.00  0.00    -0.575 A  
HETATM   14  C   UNL     1     -10.000  19.029  68.770  1.00  0.00    -0.475 A  
HETATM   15  C   UNL     1     -10.163  19.908  67.700  1.00  0.00    -0.564 A  
HETATM   16  C   UNL     1     -10.032  17.648  68.556  1.00  0.00    -0.368 A  
HETATM   17  C   UNL     1     -10.389  18.028  66.197  1.00  0.00    -0.368 A  
ENDBRANCH  10  12
ENDBRANCH   9  10
ENDBRANCH   8   9
ENDBRANCH   3   8
BRANCH   6  18
HETATM   18  C   UNL     1     -10.350   9.201  67.312  1.00  0.00    -0.270 A  
HETATM   19  C   UNL     1      -8.599   8.416  65.775  1.00  0.00    -0.181 A  
HETATM   20  C   UNL     1      -8.993   7.101  65.966  1.00  0.00    -0.141 A  
HETATM   21  C   UNL     1     -10.769   7.872  67.432  1.00  0.00    -0.278 A  
HETATM   22  C   UNL     1      -9.263   9.446  66.447  1.00  0.00    -0.215 A  
HETATM   23  C   UNL     1     -10.084   6.831  66.787  1.00  0.00    -0.250 A  
ENDBRANCH   6  18
BRANCH   4  24
HETATM   24  C   UNL     1     -10.760   9.566  70.514  1.00  0.00    -0.298 A  
HETATM   25  C   UNL     1      -9.358   9.490  70.534  1.00  0.00    -0.296 A  
HETATM   26  C   UNL     1     -10.812   8.180  72.498  1.00  0.00    -0.431 A  
HETATM   27  C   UNL     1      -8.687   8.765  71.519  1.00  0.00    -0.274 A  
HETATM   28  C   UNL     1     -11.483   8.916  71.517  1.00  0.00    -0.391 A  
HETATM   29  C   UNL     1      -9.421   8.103  72.498  1.00  0.00    -0.339 A  
ENDBRANCH   4  24
TORSDOF 6
ENDMDL
MODEL       23
REMARK 921   NORMALIZED FREE ENERGY PREDICTED BY IDOCK:   -6.76 KCAL/MOL
REMARK 922        TOTAL FREE ENERGY PREDICTED BY IDOCK:  -10.36 KCAL/MOL
REMARK 923 INTER-LIGAND FREE ENERGY PREDICTED BY IDOCK:   -8.70 KCAL/MOL
REMARK 924 INTRA-LIGAND FREE ENERGY PREDICTED BY IDOCK:   -1.66 KCAL/MOL
REMARK 927      BINDING AFFINITY PREDICTED BY RF-SCORE:    0.00 PKD
ROOT
HETATM    1  O   UNL     1      -9.066  14.951  66.080  1.00  0.00    -0.266 OA 
HETATM    2  C   UNL     1      -8.924  13.860  66.616  1.00  0.00    -0.134 C  
HETATM    3  C   UNL     1      -8.399  13.689  68.015  1.00  0.00    -0.170 C  
HETATM    4  N   UNL     1      -9.337  12.585  66.162  1.00  0.00    -0.184 N  
HETATM    5  C   UNL     1      -8.192  12.213  68.125  1.00  0.00    -0.164 C  
HETATM    6  N   UNL     1      -9.005  11.605  67.153  1.00  0.00    -0.168 N  
HETATM    7  O   UNL     1      -7.449  11.726  68.967  1.00  0.00    -0.104 OA 
ENDROOT
BRANCH   3   8
HETATM    8  C   UNL     1      -9.474  14.116  69.027  1.00  0.00     0.062 C  
BRANCH   8   9
HETATM    9  C   UNL     1      -9.310  15.551  69.552  1.00  0.00    -0.276 C  
BRANCH   9  10
HETATM   10  S   UNL     1     -10.913  16.430  69.419  1.00  0.00    -0.304 S  
HETATM   11  O   UNL     1     -11.569  15.945  68.156  1.00  0.00    -0.329 OA 
BRANCH  10  12
HETATM   12  C   UNL     1     -11.787  15.599  70.769  1.00  0.00    -0.384 A  
HETATM   13  C   UNL     1     -13.363  13.934  71.558  1.00  0.00    -0.406 A  
HETATM   14  C   UNL     1     -12.419  15.524  73.109  1.00  0.00    -0.576 A  
HETATM   15  C   UNL     1     -13.260  14.442  72.853  1.00  0.00    -0.613 A  
HETATM   16  C   UNL     1     -11.682  16.102  72.071  1.00  0.00    -0.574 A  
HETATM   17  C   UNL     1     -12.632  14.512  70.519  1.00  0.00    -0.413 A  
ENDBRANCH  10  12
ENDBRANCH   9  10
ENDBRANCH   8   9
ENDBRANCH   3   8
BRANCH   6  18
HETATM   18  C   UNL     1      -9.127  10.182  67.028  1.00  0.00    -0.139 A  
HETATM   19  C   UNL     1     -10.533   8.171  67.191  1.00  0.00    -0.396 A  
HETATM   20  C   UNL     1      -9.540   7.406  66.601  1.00  0.00    -0.251 A  
HETATM   21  C   UNL     1      -8.118   9.371  66.498  1.00  0.00    -0.111 A  
HETATM   22  C   UNL     1     -10.329   9.541  67.391  1.00  0.00    -0.319 A  
HETATM   23  C   UNL     1      -8.330   8.004  66.263  1.00  0.00    -0.121 A  
ENDBRANCH   6  18
BRANCH   4  24
HETATM   24  C   UNL     1     -10.457  12.579  65.285  1.00  0.00    -0.287 A  
HETATM   25  C   UNL     1     -11.688  13.043  65.776  1.00  0.00    -0.427 A  
HETATM   26  C   UNL     1     -11.569  11.967  63.223  1.00  0.00    -0.409 A  
HETATM   27  C   UNL     1     -12.848  12.968  65.006  1.00  0.00    -0.365 A  
HETATM   28  C   UNL     1     -10.403  12.053  63.992  1.00  0.00    -0.406 A  
HETATM   29  C   UNL     1     -12.785  12.420  63.729  1.00  0.00    -0.471 A  
ENDBRANCH   4  24
TORSDOF 6
ENDMDL
MODEL       24
REMARK 921   NORMALIZED FREE ENERGY PREDICTED BY IDOCK:   -6.72 KCAL/MOL
REMARK 922        TOTAL FREE ENERGY PREDICTED BY IDOCK:  -10.31 KCAL/MOL
REMARK 923 INTER-LIGAND FREE ENERGY PREDICTED BY IDOCK:   -8.89 KCAL/MOL
REMARK 924 INTRA-LIGAND FREE ENERGY PREDICTED BY IDOCK:   -1.43 KCAL/MOL
REMARK 927      BINDING AFFINITY PREDICTED BY RF-SCORE:    0.00 PKD
ROOT
HETATM    1  O   UNL     1      -7.442  11.013  69.496  1.00  0.00    -0.114 OA 
HETATM    2  C   UNL     1      -8.345  10.843  68.686  1.00  0.00    -0.148 C  
HETATM    3  C   UNL     1      -9.335   9.714  68.778  1.00  0.00    -0.148 C  
HETATM    4  N   UNL     1      -8.763  11.687  67.631  1.00  0.00    -0.151 N  
HETATM    5  C   UNL     1     -10.064   9.793  67.476  1.00  0.00    -0.197 C  
HETATM    6  N   UNL     1      -9.899  11.099  66.984  1.00  0.00    -0.183 N  
HETATM    7  O   UNL     1     -10.688   8.841  67.027  1.00  0.00    -0.262 OA 
ENDROOT
BRANCH   3   8
HETATM    8  C   UNL     1     -10.326   9.987  69.920  1.00  0.00    -0.315 C  
BRANCH   8   9
HETATM    9  C   UNL     1     -11.444  10.979  69.561  1.00  0.00    -0.299 C  
BRANCH   9  10
HETATM   10  S   UNL     1     -12.738  10.925  70.857  1.00  0.00    -0.357 S  
HETATM   11  O   UNL     1     -12.113  10.288  72.067  1.00  0.00    -0.106 OA 
BRANCH  10  12
HETATM   12  C   UNL     1     -12.820  12.695  71.228  1.00  0.00    -0.250 A  
HETATM   13  C   UNL     1     -13.660  14.539  72.561  1.00  0.00    -0.586 A  
HETATM   14  C   UNL     1     -12.358  14.984  70.578  1.00  0.00    -0.411 A  
HETATM   15  C   UNL     1     -13.074  15.448  71.682  1.00  0.00    -0.540 A  
HETATM   16  C   UNL     1     -12.228  13.612  70.352  1.00  0.00    -0.434 A  
HETATM   17  C   UNL     1     -13.537  13.166  72.334  1.00  0.00    -0.667 A  
ENDBRANCH  10  12
ENDBRANCH   9  10
ENDBRANCH   8   9
ENDBRANCH   3   8
BRANCH   6  18
HETATM   18  C   UNL     1     -10.541  11.562  65.789  1.00  0.00    -0.263 A  
HETATM   19  C   UNL     1     -10.611  11.628  63.332  1.00  0.00    -0.472 A  
HETATM   20  C   UNL     1     -11.854  12.237  63.364  1.00  0.00    -0.563 A  
HETATM   21  C   UNL     1     -11.765  12.239  65.790  1.00  0.00    -0.445 A  
HETATM   22  C   UNL     1      -9.971  11.288  64.529  1.00  0.00    -0.334 A  
HETATM   23  C   UNL     1     -12.427  12.551  64.593  1.00  0.00    -0.539 A  
ENDBRANCH   6  18
BRANCH   4  24
HETATM   24  C   UNL     1      -8.494  13.072  67.809  1.00  0.00    -0.188 A  
HETATM   25  C   UNL     1      -9.482  13.869  68.409  1.00  0.00    -0.211 A  
HETATM   26  C   UNL     1      -7.180  15.071  67.436  1.00  0.00    -0.224 A  
HETATM   27  C   UNL     1      -9.327  15.252  68.519  1.00  0.00    -0.200 A  
HETATM   28  C   UNL     1      -7.330  13.684  67.336  1.00  0.00    -0.127 A  
HETATM   29  C   UNL     1      -8.174  15.851  68.022  1.00  0.00    -0.150 A  
ENDBRANCH   4  24
TORSDOF 6
ENDMDL
MODEL       25
REMARK 921   NORMALIZED FREE ENERGY PREDICTED BY IDOCK:   -6.67 KCAL/MOL
REMARK 922        TOTAL FREE ENERGY PREDICTED BY IDOCK:  -10.23 KCAL/MOL
REMARK 923 INTER-LIGAND FREE ENERGY PREDICTED BY IDOCK:   -9.09 KCAL/MOL
REMARK 924 INTRA-LIGAND FREE ENERGY PREDICTED BY IDOCK:   -1.15 KCAL/MOL
REMARK 927      BINDING AFFINITY PREDICTED BY RF-SCORE:    0.00 PKD
ROOT
HETATM    1  O   UNL     1     -10.297  16.426  64.712  1.00  0.00    -0.532 OA 
HETATM    2  C   UNL     1      -9.714  15.795  65.584  1.00  0.00    -0.297 C  
HETATM    3  C   UNL     1      -9.166  16.427  66.834  1.00  0.00    -0.237 C  
HETATM    4  N   UNL     1      -9.559  14.395  65.716  1.00  0.00    -0.236 N  
HETATM    5  C   UNL     1      -8.364  15.327  67.450  1.00  0.00    -0.181 C  
HETATM    6  N   UNL     1      -8.849  14.115  66.930  1.00  0.00    -0.225 N  
HETATM    7  O   UNL     1      -7.486  15.551  68.273  1.00  0.00    -0.111 OA 
ENDROOT
BRANCH   3   8
HETATM    8  C   UNL     1     -10.322  16.789  67.781  1.00  0.00    -0.318 C  
BRANCH   8   9
HETATM    9  C   UNL     1     -10.422  15.891  69.024  1.00  0.00    -0.234 C  
BRANCH   9  10
HETATM   10  S   UNL     1     -12.074  15.100  69.067  1.00  0.00    -0.149 S  
HETATM   11  O   UNL     1     -11.867  13.647  68.745  1.00  0.00    -0.323 OA 
BRANCH  10  12
HETATM   12  C   UNL     1     -12.358  15.166  70.853  1.00  0.00    -0.354 A  
HETATM   13  C   UNL     1     -13.558  14.440  72.832  1.00  0.00    -0.420 A  
HETATM   14  C   UNL     1     -11.969  16.250  72.987  1.00  0.00    -0.598 A  
HETATM   15  C   UNL     1     -12.901  15.406  73.592  1.00  0.00    -0.685 A  
HETATM   16  C   UNL     1     -11.695  16.130  71.622  1.00  0.00    -0.558 A  
HETATM   17  C   UNL     1     -13.290  14.321  71.466  1.00  0.00    -0.429 A  
ENDBRANCH  10  12
ENDBRANCH   9  10
ENDBRANCH   8   9
ENDBRANCH   3   8
BRANCH   6  18
HETATM   18  C   UNL     1      -8.368  12.838  67.368  1.00  0.00    -0.189 A  
HETATM   19  C   UNL     1      -6.528  11.210  67.478  1.00  0.00    -0.069 A  
HETATM   20  C   UNL     1      -7.245  10.432  68.372  1.00  0.00    -0.080 A  
HETATM   21  C   UNL     1      -9.094  11.997  68.218  1.00  0.00    -0.190 A  
HETATM   22  C   UNL     1      -7.081  12.400  66.993  1.00  0.00    -0.012 A  
HETATM   23  C   UNL     1      -8.530  10.821  68.735  1.00  0.00    -0.148 A  
ENDBRANCH   6  18
BRANCH   4  24
HETATM   24  C   UNL     1     -10.574  13.605  65.110  1.00  0.00    -0.361 A  
HETATM   25  C   UNL     1     -10.225  12.804  64.011  1.00  0.00    -0.323 A  
HETATM   26  C   UNL     1     -12.882  12.949  64.790  1.00  0.00    -0.359 A  
HETATM   27  C   UNL     1     -11.190  12.085  63.304  1.00  0.00    -0.403 A  
HETATM   28  C   UNL     1     -11.913  13.660  65.505  1.00  0.00    -0.409 A  
HETATM   29  C   UNL     1     -12.523  12.168  63.694  1.00  0.00    -0.658 A  
ENDBRANCH   4  24
TORSDOF 6
ENDMDL
MODEL       26
REMARK 921   NORMALIZED FREE ENERGY PREDICTED BY IDOCK:   -6.64 KCAL/MOL
REMARK 922        TOTAL FREE ENERGY PREDICTED BY IDOCK:  -10.20 KCAL/MOL
REMARK 923 INTER-LIGAND FREE ENERGY PREDICTED BY IDOCK:   -8.37 KCAL/MOL
REMARK 924 INTRA-LIGAND FREE ENERGY PREDICTED BY IDOCK:   -1.84 KCAL/MOL
REMARK 927      BINDING AFFINITY PREDICTED BY RF-SCORE:    0.00 PKD
ROOT
HETATM    1  O   UNL     1     -12.590  11.332  71.070  1.00  0.00    -0.376 OA 
HETATM    2  C   UNL     1     -12.057  10.909  70.052  1.00  0.00    -0.355 C  
HETATM    3  C   UNL     1     -11.843  11.748  68.822  1.00  0.00    -0.380 C  
HETATM    4  N   UNL     1     -11.408   9.671  69.837  1.00  0.00    -0.202 N  
HETATM    5  C   UNL     1     -11.390  10.752  67.804  1.00  0.00    -0.279 C  
HETATM    6  N   UNL     1     -10.886   9.642  68.502  1.00  0.00    -0.195 N  
HETATM    7  O   UNL     1     -11.462  10.979  66.603  1.00  0.00    -0.291 OA 
ENDROOT
BRANCH   3   8
HETATM    8  C   UNL     1     -10.708  12.753  69.073  1.00  0.00    -0.136 C  
BRANCH   8   9
HETATM    9  C   UNL     1     -11.176  14.212  69.199  1.00  0.00    -0.272 C  
BRANCH   9  10
HETATM   10  S   UNL     1     -10.253  15.247  68.000  1.00  0.00    -0.232 S  
HETATM   11  O   UNL     1      -8.821  14.795  68.050  1.00  0.00    -0.161 OA 
BRANCH  10  12
HETATM   12  C   UNL     1     -10.928  14.552  66.470  1.00  0.00    -0.321 A  
HETATM   13  C   UNL     1     -12.812  13.802  65.140  1.00  0.00    -0.386 A  
HETATM   14  C   UNL     1     -10.562  13.452  64.341  1.00  0.00    -0.423 A  
HETATM   15  C   UNL     1     -11.939  13.317  64.168  1.00  0.00    -0.505 A  
HETATM   16  C   UNL     1     -10.056  14.069  65.488  1.00  0.00    -0.343 A  
HETATM   17  C   UNL     1     -12.309  14.415  66.289  1.00  0.00    -0.325 A  
ENDBRANCH  10  12
ENDBRANCH   9  10
ENDBRANCH   8   9
ENDBRANCH   3   8
BRANCH   6  18
HETATM   18  C   UNL     1     -10.281   8.523  67.841  1.00  0.00    -0.218 A  
HETATM   19  C   UNL     1      -8.237   7.372  67.105  1.00  0.00    -0.118 A  
HETATM   20  C   UNL     1      -8.971   6.252  66.752  1.00  0.00    -0.128 A  
HETATM   21  C   UNL     1     -11.003   7.404  67.412  1.00  0.00    -0.214 A  
HETATM   22  C   UNL     1      -8.884   8.486  67.650  1.00  0.00    -0.138 A  
HETATM   23  C   UNL     1     -10.355   6.272  66.897  1.00  0.00    -0.306 A  
ENDBRANCH   6  18
BRANCH   4  24
HETATM   24  C   UNL     1     -10.847   9.063  70.995  1.00  0.00    -0.276 A  
HETATM   25  C   UNL     1      -9.453   9.097  71.154  1.00  0.00    -0.331 A  
HETATM   26  C   UNL     1     -10.989   7.684  72.979  1.00  0.00    -0.457 A  
HETATM   27  C   UNL     1      -8.829   8.430  72.209  1.00  0.00    -0.289 A  
HETATM   28  C   UNL     1     -11.615   8.362  71.928  1.00  0.00    -0.395 A  
HETATM   29  C   UNL     1      -9.604   7.716  73.118  1.00  0.00    -0.314 A  
ENDBRANCH   4  24
TORSDOF 6
ENDMDL
MODEL       27
REMARK 921   NORMALIZED FREE ENERGY PREDICTED BY IDOCK:   -6.59 KCAL/MOL
REMARK 922        TOTAL FREE ENERGY PREDICTED BY IDOCK:  -10.13 KCAL/MOL
REMARK 923 INTER-LIGAND FREE ENERGY PREDICTED BY IDOCK:   -8.39 KCAL/MOL
REMARK 924 INTRA-LIGAND FREE ENERGY PREDICTED BY IDOCK:   -1.74 KCAL/MOL
REMARK 927      BINDING AFFINITY PREDICTED BY RF-SCORE:    0.00 PKD
ROOT
HETATM    1  O   UNL     1     -11.957  15.700  68.297  1.00  0.00    -0.246 OA 
HETATM    2  C   UNL     1     -11.694  14.531  68.544  1.00  0.00    -0.318 C  
HETATM    3  C   UNL     1     -10.631  13.752  67.820  1.00  0.00    -0.250 C  
HETATM    4  N   UNL     1     -12.167  13.718  69.601  1.00  0.00    -0.329 N  
HETATM    5  C   UNL     1     -10.845  12.353  68.300  1.00  0.00    -0.237 C  
HETATM    6  N   UNL     1     -11.538  12.432  69.520  1.00  0.00    -0.293 N  
HETATM    7  O   UNL     1     -10.423  11.386  67.679  1.00  0.00    -0.184 OA 
ENDROOT
BRANCH   3   8
HETATM    8  C   UNL     1      -9.241  14.226  68.275  1.00  0.00    -0.197 C  
BRANCH   8   9
HETATM    9  C   UNL     1      -8.212  14.341  67.139  1.00  0.00    -0.160 C  
BRANCH   9  10
HETATM   10  S   UNL     1      -6.594  13.709  67.724  1.00  0.00    -0.170 S  
HETATM   11  O   UNL     1      -6.410  14.223  69.124  1.00  0.00    -0.093 OA 
BRANCH  10  12
HETATM   12  C   UNL     1      -7.037  11.963  67.903  1.00  0.00    -0.093 A  
HETATM   13  C   UNL     1      -7.478  10.025  69.293  1.00  0.00    -0.103 A  
HETATM   14  C   UNL     1      -7.374   9.784  66.894  1.00  0.00    -0.091 A  
HETATM   15  C   UNL     1      -7.552   9.220  68.157  1.00  0.00    -0.084 A  
HETATM   16  C   UNL     1      -7.119  11.152  66.765  1.00  0.00    -0.139 A  
HETATM   17  C   UNL     1      -7.218  11.391  69.168  1.00  0.00    -0.102 A  
ENDBRANCH  10  12
ENDBRANCH   9  10
ENDBRANCH   8   9
ENDBRANCH   3   8
BRANCH   6  18
HETATM   18  C   UNL     1     -11.838  11.278  70.314  1.00  0.00    -0.357 A  
HETATM   19  C   UNL     1     -11.133   9.096  71.203  1.00  0.00    -0.393 A  
HETATM   20  C   UNL     1     -12.240   9.055  72.034  1.00  0.00    -0.446 A  
HETATM   21  C   UNL     1     -12.981  11.176  71.115  1.00  0.00    -0.393 A  
HETATM   22  C   UNL     1     -10.934  10.198  70.364  1.00  0.00    -0.386 A  
HETATM   23  C   UNL     1     -13.168  10.091  71.984  1.00  0.00    -0.545 A  
ENDBRANCH   6  18
BRANCH   4  24
HETATM   24  C   UNL     1     -12.563  14.411  70.779  1.00  0.00    -0.357 A  
HETATM   25  C   UNL     1     -11.568  14.778  71.699  1.00  0.00    -0.260 A  
HETATM   26  C   UNL     1     -14.230  15.239  72.326  1.00  0.00    -0.642 A  
HETATM   27  C   UNL     1     -11.896  15.365  72.922  1.00  0.00    -0.547 A  
HETATM   28  C   UNL     1     -13.900  14.661  71.096  1.00  0.00    -0.340 A  
HETATM   29  C   UNL     1     -13.233  15.587  73.235  1.00  0.00    -0.635 A  
ENDBRANCH   4  24
TORSDOF 6
ENDMDL
MODEL       28
REMARK 921   NORMALIZED FREE ENERGY PREDICTED BY IDOCK:   -6.56 KCAL/MOL
REMARK 922        TOTAL FREE ENERGY PREDICTED BY IDOCK:  -10.09 KCAL/MOL
REMARK 923 INTER-LIGAND FREE ENERGY PREDICTED BY IDOCK:   -8.50 KCAL/MOL
REMARK 924 INTRA-LIGAND FREE ENERGY PREDICTED BY IDOCK:   -1.58 KCAL/MOL
REMARK 927      BINDING AFFINITY PREDICTED BY RF-SCORE:    0.00 PKD
ROOT
HETATM    1  O   UNL     1     -12.310  11.454  68.281  1.00  0.00    -0.506 OA 
HETATM    2  C   UNL     1     -11.480  11.537  67.385  1.00  0.00    -0.274 C  
HETATM    3  C   UNL     1     -11.210  12.806  66.625  1.00  0.00    -0.344 C  
HETATM    4  N   UNL     1     -10.518  10.585  66.974  1.00  0.00    -0.237 N  
HETATM    5  C   UNL     1     -10.316  12.355  65.516  1.00  0.00    -0.271 C  
HETATM    6  N   UNL     1      -9.724  11.147  65.921  1.00  0.00    -0.219 N  
HETATM    7  O   UNL     1     -10.174  13.013  64.493  1.00  0.00    -0.354 OA 
ENDROOT
BRANCH   3   8
HETATM    8  C   UNL     1     -10.438  13.790  67.517  1.00  0.00    -0.245 C  
BRANCH   8   9
HETATM    9  C   UNL     1     -11.280  14.970  68.028  1.00  0.00    -0.316 C  
BRANCH   9  10
HETATM   10  S   UNL     1     -10.450  15.719  69.480  1.00  0.00    -0.293 S  
HETATM   11  O   UNL     1     -10.623  17.207  69.357  1.00  0.00    -0.321 OA 
BRANCH  10  12
HETATM   12  C   UNL     1     -11.621  15.198  70.758  1.00  0.00    -0.317 A  
HETATM   13  C   UNL     1     -12.683  15.527  72.914  1.00  0.00    -0.545 A  
HETATM   14  C   UNL     1     -13.097  13.503  71.666  1.00  0.00    -0.459 A  
HETATM   15  C   UNL     1     -13.309  14.287  72.800  1.00  0.00    -0.621 A  
HETATM   16  C   UNL     1     -12.258  13.957  70.646  1.00  0.00    -0.443 A  
HETATM   17  C   UNL     1     -11.839  15.981  71.898  1.00  0.00    -0.619 A  
ENDBRANCH  10  12
ENDBRANCH   9  10
ENDBRANCH   8   9
ENDBRANCH   3   8
BRANCH   6  18
HETATM   18  C   UNL     1      -8.734  10.470  65.137  1.00  0.00    -0.185 A  
HETATM   19  C   UNL     1      -6.403   9.732  64.876  1.00  0.00    -0.098 A  
HETATM   20  C   UNL     1      -6.748   8.966  63.775  1.00  0.00    -0.088 A  
HETATM   21  C   UNL     1      -9.039   9.742  63.982  1.00  0.00    -0.280 A  
HETATM   22  C   UNL     1      -7.386  10.464  65.550  1.00  0.00    -0.139 A  
HETATM   23  C   UNL     1      -8.064   8.978  63.323  1.00  0.00    -0.170 A  
ENDBRANCH   6  18
BRANCH   4  24
HETATM   24  C   UNL     1     -10.096   9.666  67.975  1.00  0.00    -0.178 A  
HETATM   25  C   UNL     1      -9.304  10.149  69.029  1.00  0.00    -0.192 A  
HETATM   26  C   UNL     1      -9.817   7.430  68.859  1.00  0.00    -0.157 A  
HETATM   27  C   UNL     1      -8.769   9.286  69.986  1.00  0.00    -0.208 A  
HETATM   28  C   UNL     1     -10.363   8.297  67.906  1.00  0.00    -0.278 A  
HETATM   29  C   UNL     1      -9.023   7.922  69.891  1.00  0.00    -0.146 A  
ENDBRANCH   4  24
TORSDOF 6
ENDMDL
MODEL       29
REMARK 921   NORMALIZED FREE ENERGY PREDICTED BY IDOCK:   -6.54 KCAL/MOL
REMARK 922        TOTAL FREE ENERGY PREDICTED BY IDOCK:  -10.06 KCAL/MOL
REMARK 923 INTER-LIGAND FREE ENERGY PREDICTED BY IDOCK:   -8.64 KCAL/MOL
REMARK 924 INTRA-LIGAND FREE ENERGY PREDICTED BY IDOCK:   -1.42 KCAL/MOL
REMARK 927      BINDING AFFINITY PREDICTED BY RF-SCORE:    0.00 PKD
ROOT
HETATM    1  O   UNL     1      -8.671  13.182  66.902  1.00  0.00    -0.209 OA 
HETATM    2  C   UNL     1      -9.251  12.229  67.405  1.00  0.00    -0.182 C  
HETATM    3  C   UNL     1     -10.379  12.375  68.389  1.00  0.00    -0.236 C  
HETATM    4  N   UNL     1      -9.137  10.854  67.095  1.00  0.00    -0.144 N  
HETATM    5  C   UNL     1     -10.589  10.978  68.877  1.00  0.00    -0.207 C  
HETATM    6  N   UNL     1     -10.057  10.113  67.906  1.00  0.00    -0.169 N  
HETATM    7  O   UNL     1     -11.163  10.742  69.932  1.00  0.00    -0.269 OA 
ENDROOT
BRANCH   3   8
HETATM    8  C   UNL     1     -11.647  12.842  67.658  1.00  0.00    -0.406 C  
BRANCH   8   9
HETATM    9  C   UNL     1     -12.195  14.192  68.147  1.00  0.00    -0.144 C  
BRANCH   9  10
HETATM   10  S   UNL     1     -10.949  14.995  69.225  1.00  0.00    -0.277 S  
HETATM   11  O   UNL     1     -10.844  16.424  68.775  1.00  0.00    -0.297 OA 
BRANCH  10  12
HETATM   12  C   UNL     1     -11.909  15.039  70.759  1.00  0.00    -0.320 A  
HETATM   13  C   UNL     1     -12.438  16.061  72.894  1.00  0.00    -0.596 A  
HETATM   14  C   UNL     1     -13.442  13.951  72.291  1.00  0.00    -0.623 A  
HETATM   15  C   UNL     1     -13.280  14.994  73.203  1.00  0.00    -0.587 A  
HETATM   16  C   UNL     1     -12.761  13.973  71.071  1.00  0.00    -0.431 A  
HETATM   17  C   UNL     1     -11.752  16.083  71.678  1.00  0.00    -0.583 A  
ENDBRANCH  10  12
ENDBRANCH   9  10
ENDBRANCH   8   9
ENDBRANCH   3   8
BRANCH   6  18
HETATM   18  C   UNL     1     -10.161   8.687  68.001  1.00  0.00    -0.210 A  
HETATM   19  C   UNL     1     -10.001   6.655  69.376  1.00  0.00    -0.169 A  
HETATM   20  C   UNL     1     -10.552   5.897  68.356  1.00  0.00    -0.314 A  
HETATM   21  C   UNL     1     -10.651   7.884  66.965  1.00  0.00    -0.381 A  
HETATM   22  C   UNL     1      -9.819   8.030  69.201  1.00  0.00    -0.178 A  
HETATM   23  C   UNL     1     -10.869   6.510  67.148  1.00  0.00    -0.472 A  
ENDBRANCH   6  18
BRANCH   4  24
HETATM   24  C   UNL     1      -8.727  10.557  65.765  1.00  0.00    -0.177 A  
HETATM   25  C   UNL     1      -9.659  10.729  64.729  1.00  0.00    -0.314 A  
HETATM   26  C   UNL     1      -7.177   9.638  64.148  1.00  0.00    -0.122 A  
HETATM   27  C   UNL     1      -9.359  10.357  63.418  1.00  0.00    -0.334 A  
HETATM   28  C   UNL     1      -7.474  10.021  65.461  1.00  0.00    -0.137 A  
HETATM   29  C   UNL     1      -8.116   9.803  63.133  1.00  0.00    -0.149 A  
ENDBRANCH   4  24
TORSDOF 6
ENDMDL
MODEL       30
REMARK 921   NORMALIZED FREE ENERGY PREDICTED BY IDOCK:   -6.53 KCAL/MOL
REMARK 922        TOTAL FREE ENERGY PREDICTED BY IDOCK:  -10.06 KCAL/MOL
REMARK 923 INTER-LIGAND FREE ENERGY PREDICTED BY IDOCK:   -8.67 KCAL/MOL
REMARK 924 INTRA-LIGAND FREE ENERGY PREDICTED BY IDOCK:   -1.38 KCAL/MOL
REMARK 927      BINDING AFFINITY PREDICTED BY RF-SCORE:    0.00 PKD
ROOT
HETATM    1  O   UNL     1     -12.233  11.242  68.582  1.00  0.00    -0.562 OA 
HETATM    2  C   UNL     1     -11.524  11.343  67.589  1.00  0.00    -0.273 C  
HETATM    3  C   UNL     1     -11.523  12.552  66.695  1.00  0.00    -0.417 C  
HETATM    4  N   UNL     1     -10.484  10.491  67.150  1.00  0.00    -0.235 N  
HETATM    5  C   UNL     1     -10.696  12.114  65.530  1.00  0.00    -0.283 C  
HETATM    6  N   UNL     1      -9.896  11.044  65.965  1.00  0.00    -0.219 N  
HETATM    7  O   UNL     1     -10.760  12.676  64.444  1.00  0.00    -0.314 OA 
ENDROOT
BRANCH   3   8
HETATM    8  C   UNL     1     -10.811  13.717  67.399  1.00  0.00    -0.282 C  
BRANCH   8   9
HETATM    9  C   UNL     1     -11.401  15.100  67.081  1.00  0.00    -0.290 C  
BRANCH   9  10
HETATM   10  S   UNL     1     -10.276  15.988  65.939  1.00  0.00    -0.384 S  
HETATM   11  O   UNL     1     -11.040  16.210  64.665  1.00  0.00    -0.598 OA 
BRANCH  10  12
HETATM   12  C   UNL     1     -10.255  17.593  66.777  1.00  0.00    -0.335 A  
HETATM   13  C   UNL     1     -10.271  20.017  66.703  1.00  0.00    -0.597 A  
HETATM   14  C   UNL     1      -9.930  18.881  68.805  1.00  0.00    -0.466 A  
HETATM   15  C   UNL     1     -10.046  20.066  68.078  1.00  0.00    -0.557 A  
HETATM   16  C   UNL     1     -10.035  17.647  68.159  1.00  0.00    -0.330 A  
HETATM   17  C   UNL     1     -10.372  18.785  66.053  1.00  0.00    -0.467 A  
ENDBRANCH  10  12
ENDBRANCH   9  10
ENDBRANCH   8   9
ENDBRANCH   3   8
BRANCH   6  18
HETATM   18  C   UNL     1      -8.908  10.427  65.129  1.00  0.00    -0.189 A  
HETATM   19  C   UNL     1      -6.562   9.782  64.775  1.00  0.00    -0.110 A  
HETATM   20  C   UNL     1      -6.914   9.041  63.659  1.00  0.00    -0.089 A  
HETATM   21  C   UNL     1      -9.223   9.728  63.960  1.00  0.00    -0.267 A  
HETATM   22  C   UNL     1      -7.549  10.456  65.503  1.00  0.00    -0.144 A  
HETATM   23  C   UNL     1      -8.243   9.021  63.247  1.00  0.00    -0.181 A  
ENDBRANCH   6  18
BRANCH   4  24
HETATM   24  C   UNL     1      -9.829   9.745  68.169  1.00  0.00    -0.148 A  
HETATM   25  C   UNL     1     -10.070   8.363  68.238  1.00  0.00    -0.232 A  
HETATM   26  C   UNL     1      -8.516   9.566  70.195  1.00  0.00    -0.227 A  
HETATM   27  C   UNL     1      -9.545   7.589  69.274  1.00  0.00    -0.158 A  
HETATM   28  C   UNL     1      -9.033  10.340  69.150  1.00  0.00    -0.187 A  
HETATM   29  C   UNL     1      -8.773   8.199  70.257  1.00  0.00    -0.133 A  
ENDBRANCH   4  24
TORSDOF 6
ENDMDL
MODEL       31
REMARK 921   NORMALIZED FREE ENERGY PREDICTED BY IDOCK:   -6.53 KCAL/MOL
REMARK 922        TOTAL FREE ENERGY PREDICTED BY IDOCK:  -10.05 KCAL/MOL
REMARK 923 INTER-LIGAND FREE ENERGY PREDICTED BY IDOCK:   -9.68 KCAL/MOL
REMARK 924 INTRA-LIGAND FREE ENERGY PREDICTED BY IDOCK:   -0.38 KCAL/MOL
REMARK 927      BINDING AFFINITY PREDICTED BY RF-SCORE:    0.00 PKD
ROOT
HETATM    1  O   UNL     1     -12.392  13.829  71.042  1.00  0.00    -0.355 OA 
HETATM    2  C   UNL     1     -12.101  13.907  69.855  1.00  0.00    -0.344 C  
HETATM    3  C   UNL     1     -11.651  15.182  69.198  1.00  0.00    -0.343 C  
HETATM    4  N   UNL     1     -11.964  12.870  68.903  1.00  0.00    -0.289 N  
HETATM    5  C   UNL     1     -11.644  14.834  67.745  1.00  0.00    -0.357 C  
HETATM    6  N   UNL     1     -11.553  13.435  67.651  1.00  0.00    -0.319 N  
HETATM    7  O   UNL     1     -11.684  15.694  66.874  1.00  0.00     0.070 OA 
ENDROOT
BRANCH   3   8
HETATM    8  C   UNL     1     -10.215  15.512  69.636  1.00  0.00    -0.289 C  
BRANCH   8   9
HETATM    9  C   UNL     1      -9.194  15.526  68.488  1.00  0.00    -0.197 C  
BRANCH   9  10
HETATM   10  S   UNL     1      -7.952  16.838  68.800  1.00  0.00    -0.241 S  
HETATM   11  O   UNL     1      -6.770  16.532  67.925  1.00  0.00    -0.129 OA 
BRANCH  10  12
HETATM   12  C   UNL     1      -8.809  18.215  67.996  1.00  0.00    -0.279 A  
HETATM   13  C   UNL     1      -9.074  19.737  66.127  1.00  0.00    -0.403 A  
HETATM   14  C   UNL     1     -10.381  20.056  68.131  1.00  0.00    -0.503 A  
HETATM   15  C   UNL     1     -10.030  20.457  66.842  1.00  0.00    -0.549 A  
HETATM   16  C   UNL     1      -9.774  18.937  68.708  1.00  0.00    -0.454 A  
HETATM   17  C   UNL     1      -8.463  18.622  66.703  1.00  0.00    -0.301 A  
ENDBRANCH  10  12
ENDBRANCH   9  10
ENDBRANCH   8   9
ENDBRANCH   3   8
BRANCH   6  18
HETATM   18  C   UNL     1     -11.433  12.750  66.398  1.00  0.00    -0.357 A  
HETATM   19  C   UNL     1     -12.277  12.375  64.119  1.00  0.00    -0.558 A  
HETATM   20  C   UNL     1     -11.160  11.617  63.810  1.00  0.00    -0.499 A  
HETATM   21  C   UNL     1     -10.351  11.923  66.078  1.00  0.00    -0.268 A  
HETATM   22  C   UNL     1     -12.403  12.940  65.393  1.00  0.00    -0.538 A  
HETATM   23  C   UNL     1     -10.202  11.384  64.792  1.00  0.00    -0.338 A  
ENDBRANCH   6  18
BRANCH   4  24
HETATM   24  C   UNL     1     -11.614  11.596  69.430  1.00  0.00    -0.327 A  
HETATM   25  C   UNL     1     -12.553  10.927  70.230  1.00  0.00    -0.342 A  
HETATM   26  C   UNL     1     -10.030   9.826  69.900  1.00  0.00    -0.282 A  
HETATM   27  C   UNL     1     -12.238   9.724  70.864  1.00  0.00    -0.390 A  
HETATM   28  C   UNL     1     -10.350  11.026  69.256  1.00  0.00    -0.181 A  
HETATM   29  C   UNL     1     -10.968   9.181  70.702  1.00  0.00    -0.319 A  
ENDBRANCH   4  24
TORSDOF 6
ENDMDL
MODEL       32
REMARK 921   NORMALIZED FREE ENERGY PREDICTED BY IDOCK:   -6.52 KCAL/MOL
REMARK 922        TOTAL FREE ENERGY PREDICTED BY IDOCK:  -10.04 KCAL/MOL
REMARK 923 INTER-LIGAND FREE ENERGY PREDICTED BY IDOCK:   -8.17 KCAL/MOL
REMARK 924 INTRA-LIGAND FREE ENERGY PREDICTED BY IDOCK:   -1.88 KCAL/MOL
REMARK 927      BINDING AFFINITY PREDICTED BY RF-SCORE:    0.00 PKD
ROOT
HETATM    1  O   UNL     1      -8.606  12.664  67.648  1.00  0.00    -0.158 OA 
HETATM    2  C   UNL     1      -9.543  12.378  68.381  1.00  0.00    -0.180 C  
HETATM    3  C   UNL     1     -10.665  13.329  68.697  1.00  0.00    -0.281 C  
HETATM    4  N   UNL     1      -9.880  11.126  68.947  1.00  0.00    -0.191 N  
HETATM    5  C   UNL     1     -11.413  12.626  69.783  1.00  0.00    -0.130 C  
HETATM    6  N   UNL     1     -11.098  11.260  69.690  1.00  0.00    -0.236 N  
HETATM    7  O   UNL     1     -12.163  13.225  70.543  1.00  0.00    -0.354 OA 
ENDROOT
BRANCH   3   8
HETATM    8  C   UNL     1     -11.583  13.471  67.474  1.00  0.00    -0.385 C  
BRANCH   8   9
HETATM    9  C   UNL     1     -11.869  14.925  67.066  1.00  0.00    -0.199 C  
BRANCH   9  10
HETATM   10  S   UNL     1     -10.886  15.339  65.575  1.00  0.00    -0.388 S  
HETATM   11  O   UNL     1      -9.451  15.423  66.012  1.00  0.00    -0.306 OA 
BRANCH  10  12
HETATM   12  C   UNL     1     -11.037  13.758  64.707  1.00  0.00    -0.377 A  
HETATM   13  C   UNL     1     -10.033  11.773  63.739  1.00  0.00    -0.379 A  
HETATM   14  C   UNL     1     -12.390  12.199  63.435  1.00  0.00    -0.648 A  
HETATM   15  C   UNL     1     -11.269  11.399  63.212  1.00  0.00    -0.152 A  
HETATM   16  C   UNL     1     -12.277  13.374  64.182  1.00  0.00    -0.457 A  
HETATM   17  C   UNL     1      -9.916  12.950  64.481  1.00  0.00    -0.160 A  
ENDBRANCH  10  12
ENDBRANCH   9  10
ENDBRANCH   8   9
ENDBRANCH   3   8
BRANCH   6  18
HETATM   18  C   UNL     1     -11.708  10.267  70.525  1.00  0.00    -0.331 A  
HETATM   19  C   UNL     1     -11.470   8.570  72.289  1.00  0.00    -0.445 A  
HETATM   20  C   UNL     1     -12.846   8.440  72.376  1.00  0.00    -0.323 A  
HETATM   21  C   UNL     1     -13.091  10.065  70.588  1.00  0.00    -0.220 A  
HETATM   22  C   UNL     1     -10.913   9.479  71.382  1.00  0.00    -0.415 A  
HETATM   23  C   UNL     1     -13.656   9.181  71.520  1.00  0.00    -0.406 A  
ENDBRANCH   6  18
BRANCH   4  24
HETATM   24  C   UNL     1      -9.434   9.985  68.222  1.00  0.00    -0.140 A  
HETATM   25  C   UNL     1      -8.322   9.281  68.712  1.00  0.00    -0.117 A  
HETATM   26  C   UNL     1      -9.435   8.534  66.284  1.00  0.00    -0.299 A  
HETATM   27  C   UNL     1      -7.768   8.218  67.998  1.00  0.00    -0.107 A  
HETATM   28  C   UNL     1      -9.998   9.592  67.007  1.00  0.00    -0.263 A  
HETATM   29  C   UNL     1      -8.325   7.853  66.777  1.00  0.00    -0.120 A  
ENDBRANCH   4  24
TORSDOF 6
ENDMDL
MODEL       33
REMARK 921   NORMALIZED FREE ENERGY PREDICTED BY IDOCK:   -6.52 KCAL/MOL
REMARK 922        TOTAL FREE ENERGY PREDICTED BY IDOCK:  -10.03 KCAL/MOL
REMARK 923 INTER-LIGAND FREE ENERGY PREDICTED BY IDOCK:   -8.60 KCAL/MOL
REMARK 924 INTRA-LIGAND FREE ENERGY PREDICTED BY IDOCK:   -1.43 KCAL/MOL
REMARK 927      BINDING AFFINITY PREDICTED BY RF-SCORE:    0.00 PKD
ROOT
HETATM    1  O   UNL     1     -10.486  16.136  65.108  1.00  0.00    -0.560 OA 
HETATM    2  C   UNL     1     -10.824  15.547  66.127  1.00  0.00    -0.295 C  
HETATM    3  C   UNL     1     -10.924  14.049  66.220  1.00  0.00    -0.300 C  
HETATM    4  N   UNL     1     -11.033  16.066  67.426  1.00  0.00    -0.284 N  
HETATM    5  C   UNL     1     -11.581  13.833  67.545  1.00  0.00    -0.354 C  
HETATM    6  N   UNL     1     -11.363  14.989  68.313  1.00  0.00    -0.304 N  
HETATM    7  O   UNL     1     -12.153  12.785  67.818  1.00  0.00    -0.314 OA 
ENDROOT
BRANCH   3   8
HETATM    8  C   UNL     1      -9.515  13.438  66.259  1.00  0.00    -0.196 C  
BRANCH   8   9
HETATM    9  C   UNL     1      -8.892  13.378  67.663  1.00  0.00    -0.200 C  
BRANCH   9  10
HETATM   10  S   UNL     1      -7.618  12.062  67.704  1.00  0.00    -0.148 S  
HETATM   11  O   UNL     1      -7.131  11.975  69.123  1.00  0.00    -0.096 OA 
BRANCH  10  12
HETATM   12  C   UNL     1      -8.702  10.631  67.475  1.00  0.00    -0.125 A  
HETATM   13  C   UNL     1      -9.592   8.853  66.085  1.00  0.00    -0.335 A  
HETATM   14  C   UNL     1     -10.526   9.248  68.276  1.00  0.00    -0.260 A  
HETATM   15  C   UNL     1     -10.512   8.528  67.081  1.00  0.00    -0.370 A  
HETATM   16  C   UNL     1      -9.623  10.295  68.475  1.00  0.00    -0.165 A  
HETATM   17  C   UNL     1      -8.693   9.903  66.279  1.00  0.00    -0.152 A  
ENDBRANCH  10  12
ENDBRANCH   9  10
ENDBRANCH   8   9
ENDBRANCH   3   8
BRANCH   6  18
HETATM   18  C   UNL     1     -11.781  15.100  69.679  1.00  0.00    -0.327 A  
HETATM   19  C   UNL     1     -11.180  15.443  72.039  1.00  0.00    -0.362 A  
HETATM   20  C   UNL     1     -12.518  15.553  72.383  1.00  0.00    -0.490 A  
HETATM   21  C   UNL     1     -13.124  15.147  70.068  1.00  0.00     0.076 A  
HETATM   22  C   UNL     1     -10.821  15.230  70.704  1.00  0.00    -0.278 A  
HETATM   23  C   UNL     1     -13.489  15.396  71.399  1.00  0.00    -0.607 A  
ENDBRANCH   6  18
BRANCH   4  24
HETATM   24  C   UNL     1     -10.305  17.248  67.739  1.00  0.00    -0.356 A  
HETATM   25  C   UNL     1      -8.983  17.114  68.191  1.00  0.00    -0.240 A  
HETATM   26  C   UNL     1     -10.145  19.631  68.135  1.00  0.00    -0.556 A  
HETATM   27  C   UNL     1      -8.248  18.222  68.615  1.00  0.00    -0.301 A  
HETATM   28  C   UNL     1     -10.878  18.521  67.700  1.00  0.00    -0.319 A  
HETATM   29  C   UNL     1      -8.838  19.481  68.593  1.00  0.00    -0.386 A  
ENDBRANCH   4  24
TORSDOF 6
ENDMDL
MODEL       34
REMARK 921   NORMALIZED FREE ENERGY PREDICTED BY IDOCK:   -6.47 KCAL/MOL
REMARK 922        TOTAL FREE ENERGY PREDICTED BY IDOCK:   -9.97 KCAL/MOL
REMARK 923 INTER-LIGAND FREE ENERGY PREDICTED BY IDOCK:   -9.20 KCAL/MOL
REMARK 924 INTRA-LIGAND FREE ENERGY PREDICTED BY IDOCK:   -0.77 KCAL/MOL
REMARK 927      BINDING AFFINITY PREDICTED BY RF-SCORE:    0.00 PKD
ROOT
HETATM    1  O   UNL     1     -12.632  12.867  66.930  1.00  0.00    -0.170 OA 
HETATM    2  C   UNL     1     -11.554  12.324  67.134  1.00  0.00    -0.353 C  
HETATM    3  C   UNL     1     -10.385  12.431  66.194  1.00  0.00    -0.271 C  
HETATM    4  N   UNL     1     -11.105  11.645  68.290  1.00  0.00    -0.215 N  
HETATM    5  C   UNL     1      -9.414  11.436  66.742  1.00  0.00    -0.182 C  
HETATM    6  N   UNL     1      -9.749  11.225  68.090  1.00  0.00    -0.179 N  
HETATM    7  O   UNL     1      -8.507  10.975  66.060  1.00  0.00    -0.167 OA 
ENDROOT
BRANCH   3   8
HETATM    8  C   UNL     1      -9.768  13.834  66.293  1.00  0.00    -0.297 C  
BRANCH   8   9
HETATM    9  C   UNL     1     -10.798  14.974  66.338  1.00  0.00    -0.326 C  
BRANCH   9  10
HETATM   10  S   UNL     1     -10.164  16.399  65.375  1.00  0.00    -0.084 S  
HETATM   11  O   UNL     1     -11.271  16.823  64.451  1.00  0.00    -1.112 OA 
BRANCH  10  12
HETATM   12  C   UNL     1     -10.142  17.630  66.702  1.00  0.00    -0.335 A  
HETATM   13  C   UNL     1     -10.316  19.929  67.456  1.00  0.00    -0.557 A  
HETATM   14  C   UNL     1      -9.659  18.201  69.009  1.00  0.00    -0.168 A  
HETATM   15  C   UNL     1      -9.933  19.542  68.740  1.00  0.00    -0.547 A  
HETATM   16  C   UNL     1      -9.765  17.246  67.994  1.00  0.00    -0.277 A  
HETATM   17  C   UNL     1     -10.418  18.977  66.439  1.00  0.00    -0.524 A  
ENDBRANCH  10  12
ENDBRANCH   9  10
ENDBRANCH   8   9
ENDBRANCH   3   8
BRANCH   6  18
HETATM   18  C   UNL     1      -8.971  10.392  68.958  1.00  0.00    -0.179 A  
HETATM   19  C   UNL     1      -6.953  10.092  70.331  1.00  0.00    -0.119 A  
HETATM   20  C   UNL     1      -7.461   8.916  70.857  1.00  0.00    -0.110 A  
HETATM   21  C   UNL     1      -9.428   9.166  69.455  1.00  0.00    -0.170 A  
HETATM   22  C   UNL     1      -7.704  10.821  69.403  1.00  0.00    -0.107 A  
HETATM   23  C   UNL     1      -8.694   8.449  70.412  1.00  0.00    -0.142 A  
ENDBRANCH   6  18
BRANCH   4  24
HETATM   24  C   UNL     1     -11.710  12.048  69.513  1.00  0.00    -0.342 A  
HETATM   25  C   UNL     1     -12.251  11.055  70.346  1.00  0.00    -0.461 A  
HETATM   26  C   UNL     1     -12.576  13.722  71.032  1.00  0.00    -0.446 A  
HETATM   27  C   UNL     1     -12.951  11.388  71.506  1.00  0.00    -0.505 A  
HETATM   28  C   UNL     1     -11.864  13.388  69.875  1.00  0.00    -0.385 A  
HETATM   29  C   UNL     1     -13.117  12.727  71.842  1.00  0.00    -0.474 A  
ENDBRANCH   4  24
TORSDOF 6
ENDMDL
MODEL       35
REMARK 921   NORMALIZED FREE ENERGY PREDICTED BY IDOCK:   -6.46 KCAL/MOL
REMARK 922        TOTAL FREE ENERGY PREDICTED BY IDOCK:   -9.96 KCAL/MOL
REMARK 923 INTER-LIGAND FREE ENERGY PREDICTED BY IDOCK:   -8.22 KCAL/MOL
REMARK 924 INTRA-LIGAND FREE ENERGY PREDICTED BY IDOCK:   -1.74 KCAL/MOL
REMARK 927      BINDING AFFINITY PREDICTED BY RF-SCORE:    0.00 PKD
ROOT
HETATM    1  O   UNL     1      -9.146   9.922  70.145  1.00  0.00    -0.223 OA 
HETATM    2  C   UNL     1      -9.398  10.308  69.011  1.00  0.00    -0.189 C  
HETATM    3  C   UNL     1      -9.008   9.547  67.774  1.00  0.00    -0.126 C  
HETATM    4  N   UNL     1     -10.200  11.398  68.601  1.00  0.00    -0.204 N  
HETATM    5  C   UNL     1      -9.314  10.508  66.671  1.00  0.00    -0.161 C  
HETATM    6  N   UNL     1     -10.251  11.429  67.169  1.00  0.00    -0.198 N  
HETATM    7  O   UNL     1      -8.806  10.401  65.562  1.00  0.00    -0.161 OA 
ENDROOT
BRANCH   3   8
HETATM    8  C   UNL     1      -9.908   8.312  67.620  1.00  0.00    -0.218 C  
BRANCH   8   9
HETATM    9  C   UNL     1      -9.307   7.019  68.193  1.00  0.00    -0.125 C  
BRANCH   9  10
HETATM   10  S   UNL     1     -10.662   5.889  68.689  1.00  0.00    -0.250 S  
HETATM   11  O   UNL     1     -10.029   4.563  69.001  1.00  0.00    -0.165 OA 
BRANCH  10  12
HETATM   12  C   UNL     1     -11.055   6.629  70.293  1.00  0.00    -0.326 A  
HETATM   13  C   UNL     1     -12.653   7.591  71.844  1.00  0.00    -0.324 A  
HETATM   14  C   UNL     1     -10.298   7.616  72.375  1.00  0.00    -0.292 A  
HETATM   15  C   UNL     1     -11.615   7.930  72.711  1.00  0.00    -0.387 A  
HETATM   16  C   UNL     1     -10.017   6.966  71.170  1.00  0.00    -0.187 A  
HETATM   17  C   UNL     1     -12.374   6.946  70.637  1.00  0.00    -0.248 A  
ENDBRANCH  10  12
ENDBRANCH   9  10
ENDBRANCH   8   9
ENDBRANCH   3   8
BRANCH   6  18
HETATM   18  C   UNL     1     -10.841  12.449  66.353  1.00  0.00    -0.258 A  
HETATM   19  C   UNL     1     -10.597  14.574  65.141  1.00  0.00    -0.429 A  
HETATM   20  C   UNL     1     -11.843  14.409  64.559  1.00  0.00    -0.463 A  
HETATM   21  C   UNL     1     -12.124  12.343  65.804  1.00  0.00    -0.381 A  
HETATM   22  C   UNL     1     -10.103  13.602  66.017  1.00  0.00    -0.320 A  
HETATM   23  C   UNL     1     -12.610  13.298  64.898  1.00  0.00    -0.444 A  
ENDBRANCH   6  18
BRANCH   4  24
HETATM   24  C   UNL     1     -11.228  11.780  69.508  1.00  0.00    -0.195 A  
HETATM   25  C   UNL     1     -11.475  13.150  69.693  1.00  0.00    -0.261 A  
HETATM   26  C   UNL     1     -12.848  11.305  71.243  1.00  0.00    -0.491 A  
HETATM   27  C   UNL     1     -12.393  13.597  70.644  1.00  0.00    -0.440 A  
HETATM   28  C   UNL     1     -11.935  10.857  70.282  1.00  0.00    -0.448 A  
HETATM   29  C   UNL     1     -13.074  12.668  71.424  1.00  0.00    -0.308 A  
ENDBRANCH   4  24
TORSDOF 6
ENDMDL
MODEL       36
REMARK 921   NORMALIZED FREE ENERGY PREDICTED BY IDOCK:   -6.45 KCAL/MOL
REMARK 922        TOTAL FREE ENERGY PREDICTED BY IDOCK:   -9.94 KCAL/MOL
REMARK 923 INTER-LIGAND FREE ENERGY PREDICTED BY IDOCK:   -8.99 KCAL/MOL
REMARK 924 INTRA-LIGAND FREE ENERGY PREDICTED BY IDOCK:   -0.95 KCAL/MOL
REMARK 927      BINDING AFFINITY PREDICTED BY RF-SCORE:    0.00 PKD
ROOT
HETATM    1  O   UNL     1     -12.517  14.599  68.078  1.00  0.00    -0.032 OA 
HETATM    2  C   UNL     1     -12.207  13.466  68.424  1.00  0.00    -0.092 C  
HETATM    3  C   UNL     1     -11.416  12.525  67.558  1.00  0.00    -0.397 C  
HETATM    4  N   UNL     1     -12.354  12.852  69.690  1.00  0.00    -0.108 N  
HETATM    5  C   UNL     1     -11.495  11.230  68.300  1.00  0.00    -0.308 C  
HETATM    6  N   UNL     1     -11.793  11.534  69.639  1.00  0.00    -0.327 N  
HETATM    7  O   UNL     1     -11.287  10.157  67.749  1.00  0.00    -0.274 OA 
ENDROOT
BRANCH   3   8
HETATM    8  C   UNL     1      -9.948  12.979  67.506  1.00  0.00    -0.212 C  
BRANCH   8   9
HETATM    9  C   UNL     1      -9.433  13.282  66.091  1.00  0.00    -0.139 C  
BRANCH   9  10
HETATM   10  S   UNL     1     -10.554  12.512  64.862  1.00  0.00    -0.314 S  
HETATM   11  O   UNL     1     -10.445  13.329  63.605  1.00  0.00    -0.134 OA 
BRANCH  10  12
HETATM   12  C   UNL     1      -9.607  11.003  64.543  1.00  0.00    -0.256 A  
HETATM   13  C   UNL     1      -8.069   9.277  65.277  1.00  0.00    -0.121 A  
HETATM   14  C   UNL     1      -8.758   9.369  62.965  1.00  0.00    -0.225 A  
HETATM   15  C   UNL     1      -8.014   8.767  63.980  1.00  0.00    -0.156 A  
HETATM   16  C   UNL     1      -9.554  10.483  63.244  1.00  0.00    -0.373 A  
HETATM   17  C   UNL     1      -8.860  10.393  65.557  1.00  0.00    -0.193 A  
ENDBRANCH  10  12
ENDBRANCH   9  10
ENDBRANCH   8   9
ENDBRANCH   3   8
BRANCH   6  18
HETATM   18  C   UNL     1     -11.858  10.533  70.663  1.00  0.00    -0.360 A  
HETATM   19  C   UNL     1     -13.226   9.165  72.180  1.00  0.00    -0.524 A  
HETATM   20  C   UNL     1     -12.119   8.410  72.530  1.00  0.00    -0.403 A  
HETATM   21  C   UNL     1     -10.746   9.799  71.087  1.00  0.00    -0.284 A  
HETATM   22  C   UNL     1     -13.096  10.204  71.252  1.00  0.00    -0.490 A  
HETATM   23  C   UNL     1     -10.877   8.733  71.990  1.00  0.00    -0.428 A  
ENDBRANCH   6  18
BRANCH   4  24
HETATM   24  C   UNL     1     -12.375  13.738  70.803  1.00  0.00    -0.379 A  
HETATM   25  C   UNL     1     -13.317  13.506  71.819  1.00  0.00    -0.480 A  
HETATM   26  C   UNL     1     -11.715  15.766  71.948  1.00  0.00    -0.572 A  
HETATM   27  C   UNL     1     -13.462  14.394  72.885  1.00  0.00    -0.516 A  
HETATM   28  C   UNL     1     -11.561  14.870  70.885  1.00  0.00    -0.344 A  
HETATM   29  C   UNL     1     -12.662  15.530  72.942  1.00  0.00    -0.545 A  
ENDBRANCH   4  24
TORSDOF 6
ENDMDL
MODEL       37
REMARK 921   NORMALIZED FREE ENERGY PREDICTED BY IDOCK:   -6.45 KCAL/MOL
REMARK 922        TOTAL FREE ENERGY PREDICTED BY IDOCK:   -9.94 KCAL/MOL
REMARK 923 INTER-LIGAND FREE ENERGY PREDICTED BY IDOCK:   -8.17 KCAL/MOL
REMARK 924 INTRA-LIGAND FREE ENERGY PREDICTED BY IDOCK:   -1.77 KCAL/MOL
REMARK 927      BINDING AFFINITY PREDICTED BY RF-SCORE:    0.00 PKD
ROOT
HETATM    1  O   UNL     1     -11.542  11.137  70.336  1.00  0.00    -0.310 OA 
HETATM    2  C   UNL     1     -11.101  10.421  69.446  1.00  0.00    -0.254 C  
HETATM    3  C   UNL     1     -10.536  10.957  68.159  1.00  0.00    -0.233 C  
HETATM    4  N   UNL     1     -10.872   9.025  69.459  1.00  0.00    -0.207 N  
HETATM    5  C   UNL     1     -10.355   9.728  67.329  1.00  0.00    -0.248 C  
HETATM    6  N   UNL     1     -10.291   8.635  68.209  1.00  0.00    -0.212 N  
HETATM    7  O   UNL     1     -10.261   9.781  66.109  1.00  0.00    -0.259 OA 
ENDROOT
BRANCH   3   8
HETATM    8  C   UNL     1      -9.159  11.587  68.421  1.00  0.00    -0.185 C  
BRANCH   8   9
HETATM    9  C   UNL     1      -8.700  12.570  67.333  1.00  0.00    -0.189 C  
BRANCH   9  10
HETATM   10  S   UNL     1      -9.925  13.926  67.189  1.00  0.00    -0.243 S  
HETATM   11  O   UNL     1      -9.174  15.139  66.717  1.00  0.00    -0.221 OA 
BRANCH  10  12
HETATM   12  C   UNL     1     -10.827  13.320  65.741  1.00  0.00    -0.274 A  
HETATM   13  C   UNL     1     -12.898  12.668  64.661  1.00  0.00    -0.361 A  
HETATM   14  C   UNL     1     -10.793  12.322  63.531  1.00  0.00    -0.508 A  
HETATM   15  C   UNL     1     -12.184  12.218  63.551  1.00  0.00    -0.669 A  
HETATM   16  C   UNL     1     -10.115  12.873  64.621  1.00  0.00    -0.254 A  
HETATM   17  C   UNL     1     -12.222  13.214  65.754  1.00  0.00    -0.514 A  
ENDBRANCH  10  12
ENDBRANCH   9  10
ENDBRANCH   8   9
ENDBRANCH   3   8
BRANCH   6  18
HETATM   18  C   UNL     1     -10.032   7.297  67.763  1.00  0.00    -0.166 A  
HETATM   19  C   UNL     1      -8.493   5.383  67.642  1.00  0.00    -0.105 A  
HETATM   20  C   UNL     1      -9.498   4.584  67.122  1.00  0.00    -0.182 A  
HETATM   21  C   UNL     1     -11.007   6.485  67.174  1.00  0.00    -0.480 A  
HETATM   22  C   UNL     1      -8.763   6.717  67.965  1.00  0.00    -0.118 A  
HETATM   23  C   UNL     1     -10.752   5.137  66.880  1.00  0.00    -0.148 A  
ENDBRANCH   6  18
BRANCH   4  24
HETATM   24  C   UNL     1     -10.626   8.456  70.740  1.00  0.00    -0.207 A  
HETATM   25  C   UNL     1     -11.683   7.795  71.386  1.00  0.00    -0.310 A  
HETATM   26  C   UNL     1      -9.273   8.121  72.719  1.00  0.00    -0.341 A  
HETATM   27  C   UNL     1     -11.542   7.305  72.685  1.00  0.00    -0.259 A  
HETATM   28  C   UNL     1      -9.411   8.601  71.412  1.00  0.00    -0.305 A  
HETATM   29  C   UNL     1     -10.334   7.478  73.352  1.00  0.00    -0.405 A  
ENDBRANCH   4  24
TORSDOF 6
ENDMDL
MODEL       38
REMARK 921   NORMALIZED FREE ENERGY PREDICTED BY IDOCK:   -6.33 KCAL/MOL
REMARK 922        TOTAL FREE ENERGY PREDICTED BY IDOCK:   -9.78 KCAL/MOL
REMARK 923 INTER-LIGAND FREE ENERGY PREDICTED BY IDOCK:   -8.95 KCAL/MOL
REMARK 924 INTRA-LIGAND FREE ENERGY PREDICTED BY IDOCK:   -0.83 KCAL/MOL
REMARK 927      BINDING AFFINITY PREDICTED BY RF-SCORE:    0.00 PKD
ROOT
HETATM    1  O   UNL     1     -10.896  16.584  64.189  1.00  0.00    -0.560 OA 
HETATM    2  C   UNL     1     -11.240  15.806  65.069  1.00  0.00    -0.308 C  
HETATM    3  C   UNL     1     -11.618  14.375  64.805  1.00  0.00    -0.410 C  
HETATM    4  N   UNL     1     -11.216  15.984  66.472  1.00  0.00     0.033 N  
HETATM    5  C   UNL     1     -12.171  13.920  66.116  1.00  0.00    -0.464 C  
HETATM    6  N   UNL     1     -11.660  14.777  67.105  1.00  0.00    -0.374 N  
HETATM    7  O   UNL     1     -12.905  12.944  66.203  1.00  0.00    -0.168 OA 
ENDROOT
BRANCH   3   8
HETATM    8  C   UNL     1     -10.356  13.556  64.488  1.00  0.00    -0.381 C  
BRANCH   8   9
HETATM    9  C   UNL     1      -9.970  12.546  65.579  1.00  0.00    -0.234 C  
BRANCH   9  10
HETATM   10  S   UNL     1     -10.099  10.847  64.904  1.00  0.00    -0.332 S  
HETATM   11  O   UNL     1      -8.755  10.509  64.325  1.00  0.00    -0.183 OA 
BRANCH  10  12
HETATM   12  C   UNL     1     -10.195   9.943  66.469  1.00  0.00    -0.222 A  
HETATM   13  C   UNL     1     -10.309   7.857  67.701  1.00  0.00    -0.307 A  
HETATM   14  C   UNL     1     -10.562   9.957  68.865  1.00  0.00    -0.239 A  
HETATM   15  C   UNL     1     -10.519   8.563  68.886  1.00  0.00    -0.207 A  
HETATM   16  C   UNL     1     -10.399  10.646  67.661  1.00  0.00    -0.246 A  
HETATM   17  C   UNL     1     -10.151   8.544  66.496  1.00  0.00    -0.328 A  
ENDBRANCH  10  12
ENDBRANCH   9  10
ENDBRANCH   8   9
ENDBRANCH   3   8
BRANCH   6  18
HETATM   18  C   UNL     1     -11.912  14.583  68.502  1.00  0.00    -0.286 A  
HETATM   19  C   UNL     1     -12.158  13.037  70.399  1.00  0.00    -0.391 A  
HETATM   20  C   UNL     1     -12.183  14.100  71.287  1.00  0.00    -0.419 A  
HETATM   21  C   UNL     1     -12.009  15.638  69.417  1.00  0.00    -0.349 A  
HETATM   22  C   UNL     1     -12.015  13.279  69.028  1.00  0.00    -0.336 A  
HETATM   23  C   UNL     1     -12.117  15.400  70.795  1.00  0.00    -0.413 A  
ENDBRANCH   6  18
BRANCH   4  24
HETATM   24  C   UNL     1     -10.247  16.906  66.958  1.00  0.00    -0.297 A  
HETATM   25  C   UNL     1     -10.661  18.218  67.238  1.00  0.00    -0.406 A  
HETATM   26  C   UNL     1      -7.973  17.572  67.451  1.00  0.00    -0.217 A  
HETATM   27  C   UNL     1      -9.744  19.200  67.617  1.00  0.00    -0.391 A  
HETATM   28  C   UNL     1      -8.894  16.585  67.083  1.00  0.00    -0.213 A  
HETATM   29  C   UNL     1      -8.396  18.872  67.715  1.00  0.00    -0.305 A  
ENDBRANCH   4  24
TORSDOF 6
ENDMDL
MODEL       39
REMARK 921   NORMALIZED FREE ENERGY PREDICTED BY IDOCK:   -6.31 KCAL/MOL
REMARK 922        TOTAL FREE ENERGY PREDICTED BY IDOCK:   -9.76 KCAL/MOL
REMARK 923 INTER-LIGAND FREE ENERGY PREDICTED BY IDOCK:   -8.49 KCAL/MOL
REMARK 924 INTRA-LIGAND FREE ENERGY PREDICTED BY IDOCK:   -1.26 KCAL/MOL
REMARK 927      BINDING AFFINITY PREDICTED BY RF-SCORE:    0.00 PKD
ROOT
HETATM    1  O   UNL     1     -10.838  15.465  69.920  1.00  0.00    -0.253 OA 
HETATM    2  C   UNL     1     -10.826  15.241  68.716  1.00  0.00    -0.254 C  
HETATM    3  C   UNL     1     -10.269  16.202  67.703  1.00  0.00    -0.265 C  
HETATM    4  N   UNL     1     -11.156  14.048  68.031  1.00  0.00    -0.255 N  
HETATM    5  C   UNL     1     -10.686  15.603  66.399  1.00  0.00    -0.291 C  
HETATM    6  N   UNL     1     -10.937  14.240  66.627  1.00  0.00    -0.305 N  
HETATM    7  O   UNL     1     -10.735  16.265  65.370  1.00  0.00    -0.379 OA 
ENDROOT
BRANCH   3   8
HETATM    8  C   UNL     1      -8.734  16.203  67.780  1.00  0.00    -0.174 C  
BRANCH   8   9
HETATM    9  C   UNL     1      -8.147  17.353  68.614  1.00  0.00    -0.264 C  
BRANCH   9  10
HETATM   10  S   UNL     1      -6.334  17.423  68.353  1.00  0.00    -0.180 S  
HETATM   11  O   UNL     1      -5.961  16.192  67.577  1.00  0.00    -0.143 OA 
BRANCH  10  12
HETATM   12  C   UNL     1      -6.286  18.783  67.159  1.00  0.00    -0.186 A  
HETATM   13  C   UNL     1      -6.385  21.152  66.648  1.00  0.00    -0.362 A  
HETATM   14  C   UNL     1      -6.330  19.536  64.855  1.00  0.00    -0.297 A  
HETATM   15  C   UNL     1      -6.384  20.862  65.284  1.00  0.00    -0.232 A  
HETATM   16  C   UNL     1      -6.279  18.498  65.789  1.00  0.00    -0.281 A  
HETATM   17  C   UNL     1      -6.340  20.116  67.583  1.00  0.00    -0.260 A  
ENDBRANCH  10  12
ENDBRANCH   9  10
ENDBRANCH   8   9
ENDBRANCH   3   8
BRANCH   6  18
HETATM   18  C   UNL     1     -11.276  13.328  65.574  1.00  0.00    -0.287 A  
HETATM   19  C   UNL     1     -12.992  12.362  64.103  1.00  0.00    -0.267 A  
HETATM   20  C   UNL     1     -12.018  11.723  63.353  1.00  0.00    -0.443 A  
HETATM   21  C   UNL     1     -10.320  12.617  64.840  1.00  0.00    -0.330 A  
HETATM   22  C   UNL     1     -12.622  13.160  65.190  1.00  0.00    -0.525 A  
HETATM   23  C   UNL     1     -10.683  11.844  63.727  1.00  0.00    -0.476 A  
ENDBRANCH   6  18
BRANCH   4  24
HETATM   24  C   UNL     1     -10.988  12.847  68.774  1.00  0.00    -0.254 A  
HETATM   25  C   UNL     1      -9.903  12.015  68.455  1.00  0.00    -0.204 A  
HETATM   26  C   UNL     1     -11.742  11.171  70.350  1.00  0.00    -0.415 A  
HETATM   27  C   UNL     1      -9.738  10.774  69.070  1.00  0.00    -0.201 A  
HETATM   28  C   UNL     1     -11.901  12.421  69.741  1.00  0.00    -0.387 A  
HETATM   29  C   UNL     1     -10.668  10.352  70.014  1.00  0.00    -0.321 A  
ENDBRANCH   4  24
TORSDOF 6
ENDMDL
MODEL       40
REMARK 921   NORMALIZED FREE ENERGY PREDICTED BY IDOCK:   -6.31 KCAL/MOL
REMARK 922        TOTAL FREE ENERGY PREDICTED BY IDOCK:   -9.75 KCAL/MOL
REMARK 923 INTER-LIGAND FREE ENERGY PREDICTED BY IDOCK:   -8.75 KCAL/MOL
REMARK 924 INTRA-LIGAND FREE ENERGY PREDICTED BY IDOCK:   -1.00 KCAL/MOL
REMARK 927      BINDING AFFINITY PREDICTED BY RF-SCORE:    0.00 PKD
ROOT
HETATM    1  O   UNL     1     -10.989  10.193  67.090  1.00  0.00    -0.235 OA 
HETATM    2  C   UNL     1     -11.255  10.656  68.191  1.00  0.00    -0.302 C  
HETATM    3  C   UNL     1     -10.985   9.929  69.480  1.00  0.00    -0.274 C  
HETATM    4  N   UNL     1     -11.698  11.957  68.525  1.00  0.00    -0.315 N  
HETATM    5  C   UNL     1     -11.678  10.773  70.500  1.00  0.00    -0.351 C  
HETATM    6  N   UNL     1     -11.823  12.058  69.950  1.00  0.00    -0.337 N  
HETATM    7  O   UNL     1     -11.991  10.332  71.598  1.00  0.00    -0.332 OA 
ENDROOT
BRANCH   3   8
HETATM    8  C   UNL     1      -9.476   9.936  69.772  1.00  0.00    -0.254 C  
BRANCH   8   9
HETATM    9  C   UNL     1      -8.787   8.579  69.562  1.00  0.00    -0.141 C  
BRANCH   9  10
HETATM   10  S   UNL     1      -7.903   8.591  67.957  1.00  0.00    -0.104 S  
HETATM   11  O   UNL     1      -6.477   8.214  68.245  1.00  0.00    -0.052 OA 
BRANCH  10  12
HETATM   12  C   UNL     1      -8.656   7.116  67.225  1.00  0.00    -0.121 A  
HETATM   13  C   UNL     1      -8.539   5.191  65.754  1.00  0.00    -0.135 A  
HETATM   14  C   UNL     1     -10.629   5.767  66.815  1.00  0.00    -0.373 A  
HETATM   15  C   UNL     1      -9.893   4.938  65.970  1.00  0.00    -0.219 A  
HETATM   16  C   UNL     1     -10.013   6.853  67.444  1.00  0.00    -0.212 A  
HETATM   17  C   UNL     1      -7.923   6.279  66.376  1.00  0.00    -0.109 A  
ENDBRANCH  10  12
ENDBRANCH   9  10
ENDBRANCH   8   9
ENDBRANCH   3   8
BRANCH   6  18
HETATM   18  C   UNL     1     -12.371  13.157  70.688  1.00  0.00    -0.326 A  
HETATM   19  C   UNL     1     -12.605  15.588  70.972  1.00  0.00    -0.513 A  
HETATM   20  C   UNL     1     -13.578  15.401  71.941  1.00  0.00    -0.590 A  
HETATM   21  C   UNL     1     -13.305  12.999  71.717  1.00  0.00    -0.468 A  
HETATM   22  C   UNL     1     -12.020  14.481  70.350  1.00  0.00    -0.386 A  
HETATM   23  C   UNL     1     -13.921  14.107  72.319  1.00  0.00    -0.646 A  
ENDBRANCH   6  18
BRANCH   4  24
HETATM   24  C   UNL     1     -11.319  12.986  67.619  1.00  0.00    -0.300 A  
HETATM   25  C   UNL     1     -12.258  13.409  66.665  1.00  0.00    -0.391 A  
HETATM   26  C   UNL     1      -9.689  14.450  66.588  1.00  0.00    -0.289 A  
HETATM   27  C   UNL     1     -11.920  14.338  65.680  1.00  0.00    -0.390 A  
HETATM   28  C   UNL     1     -10.032  13.527  67.583  1.00  0.00    -0.229 A  
HETATM   29  C   UNL     1     -10.628  14.851  65.641  1.00  0.00    -0.358 A  
ENDBRANCH   4  24
TORSDOF 6
ENDMDL
MODEL       41
REMARK 921   NORMALIZED FREE ENERGY PREDICTED BY IDOCK:   -6.29 KCAL/MOL
REMARK 922        TOTAL FREE ENERGY PREDICTED BY IDOCK:   -9.73 KCAL/MOL
REMARK 923 INTER-LIGAND FREE ENERGY PREDICTED BY IDOCK:   -8.61 KCAL/MOL
REMARK 924 INTRA-LIGAND FREE ENERGY PREDICTED BY IDOCK:   -1.12 KCAL/MOL
REMARK 927      BINDING AFFINITY PREDICTED BY RF-SCORE:    0.00 PKD
ROOT
HETATM    1  O   UNL     1      -8.330  10.593  69.523  1.00  0.00    -0.115 OA 
HETATM    2  C   UNL     1      -8.881  10.505  68.433  1.00  0.00    -0.140 C  
HETATM    3  C   UNL     1      -9.047   9.206  67.693  1.00  0.00    -0.133 C  
HETATM    4  N   UNL     1      -9.596  11.493  67.717  1.00  0.00    -0.171 N  
HETATM    5  C   UNL     1      -9.550   9.638  66.354  1.00  0.00    -0.210 C  
HETATM    6  N   UNL     1     -10.115  10.915  66.512  1.00  0.00    -0.215 N  
HETATM    7  O   UNL     1      -9.463   8.917  65.368  1.00  0.00    -0.172 OA 
ENDROOT
BRANCH   3   8
HETATM    8  C   UNL     1     -10.126   8.354  68.378  1.00  0.00    -0.224 C  
BRANCH   8   9
HETATM    9  C   UNL     1      -9.687   7.737  69.716  1.00  0.00    -0.176 C  
BRANCH   9  10
HETATM   10  S   UNL     1     -10.917   6.480  70.234  1.00  0.00    -0.340 S  
HETATM   11  O   UNL     1     -10.298   5.710  71.366  1.00  0.00    -0.211 OA 
BRANCH  10  12
HETATM   12  C   UNL     1     -12.124   7.588  71.003  1.00  0.00    -0.277 A  
HETATM   13  C   UNL     1     -12.675   9.675  72.109  1.00  0.00    -0.427 A  
HETATM   14  C   UNL     1     -14.345   7.944  71.909  1.00  0.00    -0.549 A  
HETATM   15  C   UNL     1     -13.969   9.214  72.346  1.00  0.00    -0.488 A  
HETATM   16  C   UNL     1     -13.427   7.132  71.238  1.00  0.00    -0.309 A  
HETATM   17  C   UNL     1     -11.754   8.864  71.443  1.00  0.00    -0.385 A  
ENDBRANCH  10  12
ENDBRANCH   9  10
ENDBRANCH   8   9
ENDBRANCH   3   8
BRANCH   6  18
HETATM   18  C   UNL     1     -10.778  11.605  65.445  1.00  0.00    -0.287 A  
HETATM   19  C   UNL     1     -12.466  13.244  64.731  1.00  0.00    -0.439 A  
HETATM   20  C   UNL     1     -12.001  13.184  63.428  1.00  0.00    -0.552 A  
HETATM   21  C   UNL     1     -10.375  11.514  64.108  1.00  0.00    -0.386 A  
HETATM   22  C   UNL     1     -11.855  12.471  65.724  1.00  0.00    -0.494 A  
HETATM   23  C   UNL     1     -10.962  12.313  63.115  1.00  0.00    -0.203 A  
ENDBRANCH   6  18
BRANCH   4  24
HETATM   24  C   UNL     1     -10.192  12.515  68.508  1.00  0.00    -0.203 A  
HETATM   25  C   UNL     1     -11.300  12.179  69.302  1.00  0.00    -0.327 A  
HETATM   26  C   UNL     1     -10.480  14.825  69.172  1.00  0.00    -0.243 A  
HETATM   27  C   UNL     1     -11.996  13.152  70.020  1.00  0.00    -0.391 A  
HETATM   28  C   UNL     1      -9.776  13.848  68.461  1.00  0.00    -0.202 A  
HETATM   29  C   UNL     1     -11.586  14.479  69.945  1.00  0.00    -0.340 A  
ENDBRANCH   4  24
TORSDOF 6
ENDMDL
MODEL       42
REMARK 921   NORMALIZED FREE ENERGY PREDICTED BY IDOCK:   -6.29 KCAL/MOL
REMARK 922        TOTAL FREE ENERGY PREDICTED BY IDOCK:   -9.72 KCAL/MOL
REMARK 923 INTER-LIGAND FREE ENERGY PREDICTED BY IDOCK:   -8.75 KCAL/MOL
REMARK 924 INTRA-LIGAND FREE ENERGY PREDICTED BY IDOCK:   -0.97 KCAL/MOL
REMARK 927      BINDING AFFINITY PREDICTED BY RF-SCORE:    0.00 PKD
ROOT
HETATM    1  O   UNL     1      -9.438   9.052  69.733  1.00  0.00    -0.163 OA 
HETATM    2  C   UNL     1      -9.797   8.254  70.589  1.00  0.00    -0.182 C  
HETATM    3  C   UNL     1     -10.631   8.640  71.779  1.00  0.00    -0.395 C  
HETATM    4  N   UNL     1      -9.672   6.845  70.600  1.00  0.00    -0.176 N  
HETATM    5  C   UNL     1     -10.607   7.409  72.627  1.00  0.00    -0.275 C  
HETATM    6  N   UNL     1     -10.290   6.329  71.785  1.00  0.00    -0.203 N  
HETATM    7  O   UNL     1     -10.863   7.444  73.823  1.00  0.00    -0.321 OA 
ENDROOT
BRANCH   3   8
HETATM    8  C   UNL     1     -12.078   8.906  71.333  1.00  0.00    -0.381 C  
BRANCH   8   9
HETATM    9  C   UNL     1     -12.556  10.346  71.576  1.00  0.00    -0.439 C  
BRANCH   9  10
HETATM   10  S   UNL     1     -11.841  11.445  70.296  1.00  0.00    -0.329 S  
HETATM   11  O   UNL     1     -12.517  11.098  69.000  1.00  0.00    -0.439 OA 
BRANCH  10  12
HETATM   12  C   UNL     1     -12.589  13.004  70.831  1.00  0.00    -0.280 A  
HETATM   13  C   UNL     1     -12.803  15.414  70.663  1.00  0.00    -0.484 A  
HETATM   14  C   UNL     1     -13.936  14.228  72.433  1.00  0.00    -0.597 A  
HETATM   15  C   UNL     1     -13.626  15.425  71.788  1.00  0.00    -0.596 A  
HETATM   16  C   UNL     1     -13.421  13.020  71.957  1.00  0.00    -0.584 A  
HETATM   17  C   UNL     1     -12.283  14.209  70.187  1.00  0.00    -0.415 A  
ENDBRANCH  10  12
ENDBRANCH   9  10
ENDBRANCH   8   9
ENDBRANCH   3   8
BRANCH   6  18
HETATM   18  C   UNL     1     -10.266   4.972  72.245  1.00  0.00    -0.201 A  
HETATM   19  C   UNL     1     -11.361   3.154  73.486  1.00  0.00    -0.237 A  
HETATM   20  C   UNL     1     -10.425   2.245  73.020  1.00  0.00    -0.243 A  
HETATM   21  C   UNL     1      -9.296   4.046  71.846  1.00  0.00    -0.192 A  
HETATM   22  C   UNL     1     -11.285   4.494  73.094  1.00  0.00    -0.339 A  
HETATM   23  C   UNL     1      -9.388   2.694  72.208  1.00  0.00    -0.159 A  
ENDBRANCH   6  18
BRANCH   4  24
HETATM   24  C   UNL     1      -9.608   6.225  69.321  1.00  0.00    -0.133 A  
HETATM   25  C   UNL     1      -8.346   5.874  68.815  1.00  0.00    -0.105 A  
HETATM   26  C   UNL     1     -10.588   5.527  67.220  1.00  0.00    -0.294 A  
HETATM   27  C   UNL     1      -8.202   5.360  67.526  1.00  0.00    -0.100 A  
HETATM   28  C   UNL     1     -10.734   6.032  68.517  1.00  0.00    -0.354 A  
HETATM   29  C   UNL     1      -9.328   5.195  66.727  1.00  0.00    -0.134 A  
ENDBRANCH   4  24
TORSDOF 6
ENDMDL
MODEL       43
REMARK 921   NORMALIZED FREE ENERGY PREDICTED BY IDOCK:   -6.29 KCAL/MOL
REMARK 922        TOTAL FREE ENERGY PREDICTED BY IDOCK:   -9.72 KCAL/MOL
REMARK 923 INTER-LIGAND FREE ENERGY PREDICTED BY IDOCK:   -8.66 KCAL/MOL
REMARK 924 INTRA-LIGAND FREE ENERGY PREDICTED BY IDOCK:   -1.06 KCAL/MOL
REMARK 927      BINDING AFFINITY PREDICTED BY RF-SCORE:    0.00 PKD
ROOT
HETATM    1  O   UNL     1     -11.702  11.008  67.527  1.00  0.00    -0.565 OA 
HETATM    2  C   UNL     1     -11.044  10.230  68.207  1.00  0.00    -0.254 C  
HETATM    3  C   UNL     1      -9.696   9.707  67.792  1.00  0.00    -0.173 C  
HETATM    4  N   UNL     1     -11.282   9.784  69.528  1.00  0.00    -0.187 N  
HETATM    5  C   UNL     1      -9.415   8.645  68.805  1.00  0.00    -0.143 C  
HETATM    6  N   UNL     1     -10.209   8.922  69.931  1.00  0.00    -0.194 N  
HETATM    7  O   UNL     1      -8.598   7.757  68.601  1.00  0.00    -0.128 OA 
ENDROOT
BRANCH   3   8
HETATM    8  C   UNL     1      -8.644  10.818  67.932  1.00  0.00    -0.125 C  
BRANCH   8   9
HETATM    9  C   UNL     1      -8.514  11.722  66.696  1.00  0.00    -0.153 C  
BRANCH   9  10
HETATM   10  S   UNL     1      -9.304  13.338  67.043  1.00  0.00    -0.248 S  
HETATM   11  O   UNL     1      -8.286  14.396  66.723  1.00  0.00    -0.098 OA 
BRANCH  10  12
HETATM   12  C   UNL     1     -10.479  13.364  65.667  1.00  0.00    -0.290 A  
HETATM   13  C   UNL     1     -11.234  12.537  63.515  1.00  0.00    -0.525 A  
HETATM   14  C   UNL     1     -12.319  14.446  64.517  1.00  0.00    -0.440 A  
HETATM   15  C   UNL     1     -12.205  13.536  63.466  1.00  0.00    -0.410 A  
HETATM   16  C   UNL     1     -11.461  14.361  65.616  1.00  0.00    -0.336 A  
HETATM   17  C   UNL     1     -10.371  12.453  64.610  1.00  0.00    -0.332 A  
ENDBRANCH  10  12
ENDBRANCH   9  10
ENDBRANCH   8   9
ENDBRANCH   3   8
BRANCH   6  18
HETATM   18  C   UNL     1     -10.133   8.155  71.139  1.00  0.00    -0.184 A  
HETATM   19  C   UNL     1      -9.276   7.926  73.432  1.00  0.00    -0.351 A  
HETATM   20  C   UNL     1     -10.092   6.828  73.649  1.00  0.00    -0.324 A  
HETATM   21  C   UNL     1     -10.894   7.003  71.364  1.00  0.00    -0.253 A  
HETATM   22  C   UNL     1      -9.306   8.583  72.198  1.00  0.00    -0.353 A  
HETATM   23  C   UNL     1     -10.894   6.362  72.612  1.00  0.00    -0.270 A  
ENDBRANCH   6  18
BRANCH   4  24
HETATM   24  C   UNL     1     -12.030  10.672  70.350  1.00  0.00    -0.346 A  
HETATM   25  C   UNL     1     -11.793  12.050  70.227  1.00  0.00    -0.356 A  
HETATM   26  C   UNL     1     -13.535  11.146  72.187  1.00  0.00    -0.193 A  
HETATM   27  C   UNL     1     -12.414  12.969  71.074  1.00  0.00    -0.385 A  
HETATM   28  C   UNL     1     -12.921  10.226  71.330  1.00  0.00    -0.517 A  
HETATM   29  C   UNL     1     -13.280  12.510  72.061  1.00  0.00    -0.524 A  
ENDBRANCH   4  24
TORSDOF 6
ENDMDL
MODEL       44
REMARK 921   NORMALIZED FREE ENERGY PREDICTED BY IDOCK:   -6.27 KCAL/MOL
REMARK 922        TOTAL FREE ENERGY PREDICTED BY IDOCK:   -9.70 KCAL/MOL
REMARK 923 INTER-LIGAND FREE ENERGY PREDICTED BY IDOCK:   -8.16 KCAL/MOL
REMARK 924 INTRA-LIGAND FREE ENERGY PREDICTED BY IDOCK:   -1.54 KCAL/MOL
REMARK 927      BINDING AFFINITY PREDICTED BY RF-SCORE:    0.00 PKD
ROOT
HETATM    1  O   UNL     1      -8.256  13.674  68.221  1.00  0.00    -0.145 OA 
HETATM    2  C   UNL     1      -9.073  12.762  68.195  1.00  0.00    -0.203 C  
HETATM    3  C   UNL     1     -10.557  12.985  68.096  1.00  0.00    -0.257 C  
HETATM    4  N   UNL     1      -8.847  11.369  68.095  1.00  0.00    -0.155 N  
HETATM    5  C   UNL     1     -11.123  11.623  68.333  1.00  0.00    -0.234 C  
HETATM    6  N   UNL     1     -10.110  10.693  68.043  1.00  0.00    -0.154 N  
HETATM    7  O   UNL     1     -12.284  11.459  68.685  1.00  0.00    -0.532 OA 
ENDROOT
BRANCH   3   8
HETATM    8  C   UNL     1     -10.919  13.432  66.671  1.00  0.00    -0.297 C  
BRANCH   8   9
HETATM    9  C   UNL     1     -11.498  14.853  66.585  1.00  0.00    -0.296 C  
BRANCH   9  10
HETATM   10  S   UNL     1     -10.458  15.863  65.464  1.00  0.00    -0.403 S  
HETATM   11  O   UNL     1     -11.339  16.293  64.326  1.00  0.00    -0.741 OA 
BRANCH  10  12
HETATM   12  C   UNL     1     -10.274  17.326  66.515  1.00  0.00    -0.325 A  
HETATM   13  C   UNL     1     -10.269  19.734  66.803  1.00  0.00    -0.582 A  
HETATM   14  C   UNL     1      -9.596  18.304  68.628  1.00  0.00    -0.351 A  
HETATM   15  C   UNL     1      -9.816  19.581  68.113  1.00  0.00    -0.506 A  
HETATM   16  C   UNL     1      -9.826  17.178  67.832  1.00  0.00    -0.283 A  
HETATM   17  C   UNL     1     -10.494  18.611  66.005  1.00  0.00    -0.456 A  
ENDBRANCH  10  12
ENDBRANCH   9  10
ENDBRANCH   8   9
ENDBRANCH   3   8
BRANCH   6  18
HETATM   18  C   UNL     1     -10.328   9.277  68.077  1.00  0.00    -0.221 A  
HETATM   19  C   UNL     1     -10.756   7.248  69.398  1.00  0.00    -0.236 A  
HETATM   20  C   UNL     1     -10.984   6.520  68.241  1.00  0.00    -0.362 A  
HETATM   21  C   UNL     1     -10.496   8.501  66.926  1.00  0.00    -0.345 A  
HETATM   22  C   UNL     1     -10.442   8.608  69.313  1.00  0.00    -0.226 A  
HETATM   23  C   UNL     1     -10.846   7.144  67.006  1.00  0.00    -0.382 A  
ENDBRANCH   6  18
BRANCH   4  24
HETATM   24  C   UNL     1      -7.639  10.988  67.448  1.00  0.00    -0.110 A  
HETATM   25  C   UNL     1      -7.625  10.932  66.045  1.00  0.00    -0.094 A  
HETATM   26  C   UNL     1      -5.384  10.108  67.453  1.00  0.00    -0.041 A  
HETATM   27  C   UNL     1      -6.509  10.466  65.350  1.00  0.00    -0.115 A  
HETATM   28  C   UNL     1      -6.499  10.586  68.149  1.00  0.00    -0.062 A  
HETATM   29  C   UNL     1      -5.389  10.047  66.062  1.00  0.00    -0.046 A  
ENDBRANCH   4  24
TORSDOF 6
ENDMDL
MODEL       45
REMARK 921   NORMALIZED FREE ENERGY PREDICTED BY IDOCK:   -6.24 KCAL/MOL
REMARK 922        TOTAL FREE ENERGY PREDICTED BY IDOCK:   -9.66 KCAL/MOL
REMARK 923 INTER-LIGAND FREE ENERGY PREDICTED BY IDOCK:   -8.77 KCAL/MOL
REMARK 924 INTRA-LIGAND FREE ENERGY PREDICTED BY IDOCK:   -0.89 KCAL/MOL
REMARK 927      BINDING AFFINITY PREDICTED BY RF-SCORE:    0.00 PKD
ROOT
HETATM    1  O   UNL     1     -10.646  15.982  64.787  1.00  0.00    -0.600 OA 
HETATM    2  C   UNL     1     -10.995  15.298  65.741  1.00  0.00    -0.338 C  
HETATM    3  C   UNL     1     -11.236  13.816  65.650  1.00  0.00    -0.306 C  
HETATM    4  N   UNL     1     -11.095  15.659  67.105  1.00  0.00    -0.270 N  
HETATM    5  C   UNL     1     -11.852  13.489  66.971  1.00  0.00    -0.402 C  
HETATM    6  N   UNL     1     -11.489  14.510  67.865  1.00  0.00    -0.309 N  
HETATM    7  O   UNL     1     -12.510  12.471  67.142  1.00  0.00    -0.217 OA 
ENDROOT
BRANCH   3   8
HETATM    8  C   UNL     1      -9.892  13.079  65.532  1.00  0.00    -0.150 C  
BRANCH   8   9
HETATM    9  C   UNL     1      -9.364  12.517  66.861  1.00  0.00    -0.219 C  
BRANCH   9  10
HETATM   10  S   UNL     1      -8.936  10.748  66.640  1.00  0.00    -0.157 S  
HETATM   11  O   UNL     1      -7.444  10.682  66.469  1.00  0.00    -0.120 OA 
BRANCH  10  12
HETATM   12  C   UNL     1      -9.256  10.182  68.329  1.00  0.00    -0.130 A  
HETATM   13  C   UNL     1      -8.470   9.305  70.450  1.00  0.00    -0.234 A  
HETATM   14  C   UNL     1     -10.840   9.507  70.036  1.00  0.00    -0.286 A  
HETATM   15  C   UNL     1      -9.787   9.145  70.878  1.00  0.00    -0.359 A  
HETATM   16  C   UNL     1     -10.576  10.025  68.766  1.00  0.00    -0.241 A  
HETATM   17  C   UNL     1      -8.205   9.818  69.179  1.00  0.00    -0.130 A  
ENDBRANCH  10  12
ENDBRANCH   9  10
ENDBRANCH   8   9
ENDBRANCH   3   8
BRANCH   6  18
HETATM   18  C   UNL     1     -11.833  14.478  69.256  1.00  0.00    -0.323 A  
HETATM   19  C   UNL     1     -12.441  15.704  71.299  1.00  0.00    -0.503 A  
HETATM   20  C   UNL     1     -12.736  14.516  71.948  1.00  0.00    -0.410 A  
HETATM   21  C   UNL     1     -12.072  13.292  69.959  1.00  0.00    -0.385 A  
HETATM   22  C   UNL     1     -12.006  15.682  69.970  1.00  0.00    -0.384 A  
HETATM   23  C   UNL     1     -12.543  13.311  71.281  1.00  0.00    -0.398 A  
ENDBRANCH   6  18
BRANCH   4  24
HETATM   24  C   UNL     1     -10.243  16.719  67.523  1.00  0.00    -0.289 A  
HETATM   25  C   UNL     1      -8.904  16.418  67.820  1.00  0.00    -0.189 A  
HETATM   26  C   UNL     1      -9.842  18.990  68.260  1.00  0.00    -0.440 A  
HETATM   27  C   UNL     1      -8.042  17.386  68.336  1.00  0.00    -0.264 A  
HETATM   28  C   UNL     1     -10.703  18.021  67.732  1.00  0.00    -0.350 A  
HETATM   29  C   UNL     1      -8.520  18.673  68.562  1.00  0.00    -0.367 A  
ENDBRANCH   4  24
TORSDOF 6
ENDMDL
MODEL       46
REMARK 921   NORMALIZED FREE ENERGY PREDICTED BY IDOCK:   -6.24 KCAL/MOL
REMARK 922        TOTAL FREE ENERGY PREDICTED BY IDOCK:   -9.66 KCAL/MOL
REMARK 923 INTER-LIGAND FREE ENERGY PREDICTED BY IDOCK:   -8.33 KCAL/MOL
REMARK 924 INTRA-LIGAND FREE ENERGY PREDICTED BY IDOCK:   -1.33 KCAL/MOL
REMARK 927      BINDING AFFINITY PREDICTED BY RF-SCORE:    0.00 PKD
ROOT
HETATM    1  O   UNL     1     -12.177  12.406  67.493  1.00  0.00    -0.442 OA 
HETATM    2  C   UNL     1     -11.071  11.928  67.710  1.00  0.00    -0.239 C  
HETATM    3  C   UNL     1      -9.796  12.524  67.182  1.00  0.00    -0.210 C  
HETATM    4  N   UNL     1     -10.715  10.872  68.580  1.00  0.00    -0.188 N  
HETATM    5  C   UNL     1      -8.773  11.485  67.506  1.00  0.00    -0.145 C  
HETATM    6  N   UNL     1      -9.292  10.699  68.549  1.00  0.00    -0.162 N  
HETATM    7  O   UNL     1      -7.696  11.436  66.927  1.00  0.00    -0.143 OA 
ENDROOT
BRANCH   3   8
HETATM    8  C   UNL     1      -9.463  13.808  67.959  1.00  0.00    -0.207 C  
BRANCH   8   9
HETATM    9  C   UNL     1     -10.695  14.615  68.398  1.00  0.00    -0.241 C  
BRANCH   9  10
HETATM   10  S   UNL     1     -10.220  15.750  69.757  1.00  0.00    -0.269 S  
HETATM   11  O   UNL     1     -10.406  17.148  69.238  1.00  0.00    -0.313 OA 
BRANCH  10  12
HETATM   12  C   UNL     1     -11.624  15.452  70.859  1.00  0.00    -0.358 A  
HETATM   13  C   UNL     1     -14.011  15.234  71.231  1.00  0.00    -0.548 A  
HETATM   14  C   UNL     1     -12.496  15.228  73.111  1.00  0.00    -0.571 A  
HETATM   15  C   UNL     1     -13.795  15.161  72.607  1.00  0.00    -0.567 A  
HETATM   16  C   UNL     1     -11.412  15.371  72.241  1.00  0.00    -0.506 A  
HETATM   17  C   UNL     1     -12.930  15.382  70.360  1.00  0.00    -0.295 A  
ENDBRANCH  10  12
ENDBRANCH   9  10
ENDBRANCH   8   9
ENDBRANCH   3   8
BRANCH   6  18
HETATM   18  C   UNL     1      -8.540   9.654  69.178  1.00  0.00    -0.146 A  
HETATM   19  C   UNL     1      -6.960   8.964  70.931  1.00  0.00    -0.080 A  
HETATM   20  C   UNL     1      -7.182   7.630  70.633  1.00  0.00    -0.062 A  
HETATM   21  C   UNL     1      -8.691   8.301  68.854  1.00  0.00    -0.137 A  
HETATM   22  C   UNL     1      -7.639   9.958  70.219  1.00  0.00    -0.172 A  
HETATM   23  C   UNL     1      -8.040   7.299  69.589  1.00  0.00    -0.129 A  
ENDBRANCH   6  18
BRANCH   4  24
HETATM   24  C   UNL     1     -11.583  10.670  69.689  1.00  0.00    -0.296 A  
HETATM   25  C   UNL     1     -12.106  11.800  70.337  1.00  0.00    -0.440 A  
HETATM   26  C   UNL     1     -12.630   9.283  71.375  1.00  0.00    -0.411 A  
HETATM   27  C   UNL     1     -12.879  11.678  71.493  1.00  0.00    -0.469 A  
HETATM   28  C   UNL     1     -11.865   9.405  70.209  1.00  0.00    -0.063 A  
HETATM   29  C   UNL     1     -13.132  10.413  72.014  1.00  0.00    -0.521 A  
ENDBRANCH   4  24
TORSDOF 6
ENDMDL
MODEL       47
REMARK 921   NORMALIZED FREE ENERGY PREDICTED BY IDOCK:   -6.20 KCAL/MOL
REMARK 922        TOTAL FREE ENERGY PREDICTED BY IDOCK:   -9.60 KCAL/MOL
REMARK 923 INTER-LIGAND FREE ENERGY PREDICTED BY IDOCK:   -8.12 KCAL/MOL
REMARK 924 INTRA-LIGAND FREE ENERGY PREDICTED BY IDOCK:   -1.48 KCAL/MOL
REMARK 927      BINDING AFFINITY PREDICTED BY RF-SCORE:    0.00 PKD
ROOT
HETATM    1  O   UNL     1      -9.923   7.922  66.542  1.00  0.00    -0.243 OA 
HETATM    2  C   UNL     1     -10.263   9.077  66.767  1.00  0.00    -0.271 C  
HETATM    3  C   UNL     1     -10.761   9.545  68.106  1.00  0.00    -0.247 C  
HETATM    4  N   UNL     1     -10.133  10.218  65.942  1.00  0.00    -0.256 N  
HETATM    5  C   UNL     1     -11.258  10.925  67.822  1.00  0.00    -0.317 C  
HETATM    6  N   UNL     1     -10.620  11.365  66.650  1.00  0.00    -0.247 N  
HETATM    7  O   UNL     1     -12.053  11.490  68.562  1.00  0.00    -0.522 OA 
ENDROOT
BRANCH   3   8
HETATM    8  C   UNL     1      -9.586   9.633  69.093  1.00  0.00    -0.176 C  
BRANCH   8   9
HETATM    9  C   UNL     1      -9.411   8.388  69.976  1.00  0.00    -0.164 C  
BRANCH   9  10
HETATM   10  S   UNL     1     -11.051   7.627  70.280  1.00  0.00    -0.210 S  
HETATM   11  O   UNL     1     -11.145   6.430  69.377  1.00  0.00    -0.323 OA 
BRANCH  10  12
HETATM   12  C   UNL     1     -10.736   6.964  71.935  1.00  0.00    -0.218 A  
HETATM   13  C   UNL     1      -9.699   7.137  74.120  1.00  0.00    -0.264 A  
HETATM   14  C   UNL     1     -10.850   5.109  73.493  1.00  0.00    -0.360 A  
HETATM   15  C   UNL     1     -10.118   5.843  74.427  1.00  0.00    -0.302 A  
HETATM   16  C   UNL     1     -11.161   5.667  72.250  1.00  0.00    -0.318 A  
HETATM   17  C   UNL     1     -10.004   7.695  72.877  1.00  0.00    -0.319 A  
ENDBRANCH  10  12
ENDBRANCH   9  10
ENDBRANCH   8   9
ENDBRANCH   3   8
BRANCH   6  18
HETATM   18  C   UNL     1     -10.793  12.688  66.126  1.00  0.00    -0.273 A  
HETATM   19  C   UNL     1      -9.841  14.910  65.673  1.00  0.00    -0.372 A  
HETATM   20  C   UNL     1     -10.953  15.255  64.922  1.00  0.00    -0.445 A  
HETATM   21  C   UNL     1     -11.932  13.090  65.420  1.00  0.00    -0.457 A  
HETATM   22  C   UNL     1      -9.761  13.641  66.256  1.00  0.00    -0.295 A  
HETATM   23  C   UNL     1     -12.001  14.348  64.804  1.00  0.00    -0.455 A  
ENDBRANCH   6  18
BRANCH   4  24
HETATM   24  C   UNL     1      -9.069  10.176  64.998  1.00  0.00    -0.205 A  
HETATM   25  C   UNL     1      -9.389   9.970  63.646  1.00  0.00    -0.301 A  
HETATM   26  C   UNL     1      -6.724  10.073  64.406  1.00  0.00    -0.128 A  
HETATM   27  C   UNL     1      -8.391   9.813  62.683  1.00  0.00    -0.162 A  
HETATM   28  C   UNL     1      -7.725  10.242  65.370  1.00  0.00    -0.146 A  
HETATM   29  C   UNL     1      -7.056   9.858  63.071  1.00  0.00    -0.124 A  
ENDBRANCH   4  24
TORSDOF 6
ENDMDL
MODEL       48
REMARK 921   NORMALIZED FREE ENERGY PREDICTED BY IDOCK:   -6.18 KCAL/MOL
REMARK 922        TOTAL FREE ENERGY PREDICTED BY IDOCK:   -9.58 KCAL/MOL
REMARK 923 INTER-LIGAND FREE ENERGY PREDICTED BY IDOCK:   -8.34 KCAL/MOL
REMARK 924 INTRA-LIGAND FREE ENERGY PREDICTED BY IDOCK:   -1.24 KCAL/MOL
REMARK 927      BINDING AFFINITY PREDICTED BY RF-SCORE:    0.00 PKD
ROOT
HETATM    1  O   UNL     1     -12.351  11.164  68.790  1.00  0.00    -0.539 OA 
HETATM    2  C   UNL     1     -11.782  11.474  67.751  1.00  0.00    -0.227 C  
HETATM    3  C   UNL     1     -11.747  12.879  67.216  1.00  0.00    -0.431 C  
HETATM    4  N   UNL     1     -10.938  10.689  66.931  1.00  0.00    -0.211 N  
HETATM    5  C   UNL     1     -11.160  12.711  65.852  1.00  0.00    -0.289 C  
HETATM    6  N   UNL     1     -10.456  11.494  65.848  1.00  0.00    -0.248 N  
HETATM    7  O   UNL     1     -11.302  13.557  64.979  1.00  0.00    -0.307 OA 
ENDROOT
BRANCH   3   8
HETATM    8  C   UNL     1     -10.793  13.732  68.066  1.00  0.00    -0.263 C  
BRANCH   8   9
HETATM    9  C   UNL     1     -11.417  15.030  68.603  1.00  0.00    -0.311 C  
BRANCH   9  10
HETATM   10  S   UNL     1     -10.096  16.095  69.294  1.00  0.00    -0.267 S  
HETATM   11  O   UNL     1      -8.787  15.461  68.916  1.00  0.00    -0.181 OA 
BRANCH  10  12
HETATM   12  C   UNL     1     -10.286  17.513  68.185  1.00  0.00    -0.375 A  
HETATM   13  C   UNL     1     -10.545  18.433  65.956  1.00  0.00    -0.339 A  
HETATM   14  C   UNL     1     -10.212  19.911  67.835  1.00  0.00    -0.571 A  
HETATM   15  C   UNL     1     -10.406  19.723  66.467  1.00  0.00    -0.621 A  
HETATM   16  C   UNL     1     -10.154  18.810  68.693  1.00  0.00    -0.432 A  
HETATM   17  C   UNL     1     -10.482  17.331  66.811  1.00  0.00    -0.261 A  
ENDBRANCH  10  12
ENDBRANCH   9  10
ENDBRANCH   8   9
ENDBRANCH   3   8
BRANCH   6  18
HETATM   18  C   UNL     1      -9.688  11.049  64.723  1.00  0.00    -0.262 A  
HETATM   19  C   UNL     1      -7.617  10.045  63.857  1.00  0.00    -0.138 A  
HETATM   20  C   UNL     1      -8.175   9.937  62.594  1.00  0.00    -0.145 A  
HETATM   21  C   UNL     1     -10.199  10.991  63.422  1.00  0.00    -0.404 A  
HETATM   22  C   UNL     1      -8.370  10.584  64.906  1.00  0.00    -0.135 A  
HETATM   23  C   UNL     1      -9.462  10.419  62.375  1.00  0.00    -0.256 A  
ENDBRANCH   6  18
BRANCH   4  24
HETATM   24  C   UNL     1     -10.252   9.632  67.591  1.00  0.00    -0.216 A  
HETATM   25  C   UNL     1      -9.197   9.963  68.457  1.00  0.00    -0.136 A  
HETATM   26  C   UNL     1      -9.732   7.293  67.938  1.00  0.00    -0.161 A  
HETATM   27  C   UNL     1      -8.415   8.975  69.055  1.00  0.00    -0.132 A  
HETATM   28  C   UNL     1     -10.524   8.284  67.348  1.00  0.00    -0.353 A  
HETATM   29  C   UNL     1      -8.682   7.637  68.785  1.00  0.00    -0.128 A  
ENDBRANCH   4  24
TORSDOF 6
ENDMDL
MODEL       49
REMARK 921   NORMALIZED FREE ENERGY PREDICTED BY IDOCK:   -6.15 KCAL/MOL
REMARK 922        TOTAL FREE ENERGY PREDICTED BY IDOCK:   -9.54 KCAL/MOL
REMARK 923 INTER-LIGAND FREE ENERGY PREDICTED BY IDOCK:   -8.07 KCAL/MOL
REMARK 924 INTRA-LIGAND FREE ENERGY PREDICTED BY IDOCK:   -1.48 KCAL/MOL
REMARK 927      BINDING AFFINITY PREDICTED BY RF-SCORE:    0.00 PKD
ROOT
HETATM    1  O   UNL     1     -10.411   7.801  66.738  1.00  0.00    -0.321 OA 
HETATM    2  C   UNL     1     -10.513   8.936  67.187  1.00  0.00    -0.274 C  
HETATM    3  C   UNL     1     -10.799   9.229  68.634  1.00  0.00    -0.120 C  
HETATM    4  N   UNL     1     -10.247  10.171  66.550  1.00  0.00    -0.229 N  
HETATM    5  C   UNL     1     -11.056  10.701  68.640  1.00  0.00    -0.263 C  
HETATM    6  N   UNL     1     -10.453  11.235  67.488  1.00  0.00    -0.193 N  
HETATM    7  O   UNL     1     -11.668  11.246  69.549  1.00  0.00    -0.282 OA 
ENDROOT
BRANCH   3   8
HETATM    8  C   UNL     1      -9.548   8.940  69.478  1.00  0.00    -0.171 C  
BRANCH   8   9
HETATM    9  C   UNL     1      -9.479   7.509  70.034  1.00  0.00    -0.161 C  
BRANCH   9  10
HETATM   10  S   UNL     1      -9.798   7.547  71.838  1.00  0.00    -0.165 S  
HETATM   11  O   UNL     1      -9.126   8.781  72.371  1.00  0.00    -0.366 OA 
BRANCH  10  12
HETATM   12  C   UNL     1     -11.564   7.939  71.791  1.00  0.00    -0.278 A  
HETATM   13  C   UNL     1     -13.418   9.411  72.319  1.00  0.00    -0.539 A  
HETATM   14  C   UNL     1     -13.845   7.234  71.368  1.00  0.00    -0.416 A  
HETATM   15  C   UNL     1     -14.319   8.449  71.864  1.00  0.00    -0.561 A  
HETATM   16  C   UNL     1     -12.472   6.979  71.329  1.00  0.00    -0.430 A  
HETATM   17  C   UNL     1     -12.046   9.156  72.286  1.00  0.00    -0.311 A  
ENDBRANCH  10  12
ENDBRANCH   9  10
ENDBRANCH   8   9
ENDBRANCH   3   8
BRANCH   6  18
HETATM   18  C   UNL     1     -10.423  12.641  67.212  1.00  0.00    -0.228 A  
HETATM   19  C   UNL     1     -11.598  14.801  67.178  1.00  0.00    -0.373 A  
HETATM   20  C   UNL     1     -10.412  15.463  66.907  1.00  0.00    -0.295 A  
HETATM   21  C   UNL     1      -9.254  13.330  66.870  1.00  0.00    -0.242 A  
HETATM   22  C   UNL     1     -11.598  13.411  67.337  1.00  0.00    -0.394 A  
HETATM   23  C   UNL     1      -9.243  14.727  66.744  1.00  0.00    -0.282 A  
ENDBRANCH   6  18
BRANCH   4  24
HETATM   24  C   UNL     1      -9.295  10.124  65.494  1.00  0.00    -0.207 A  
HETATM   25  C   UNL     1      -9.761  10.235  64.174  1.00  0.00    -0.357 A  
HETATM   26  C   UNL     1      -7.071   9.734  64.622  1.00  0.00    -0.127 A  
HETATM   27  C   UNL     1      -8.897  10.093  63.088  1.00  0.00    -0.232 A  
HETATM   28  C   UNL     1      -7.935   9.888  65.711  1.00  0.00    -0.120 A  
HETATM   29  C   UNL     1      -7.549   9.834  63.318  1.00  0.00    -0.128 A  
ENDBRANCH   4  24
TORSDOF 6
ENDMDL
MODEL       50
REMARK 921   NORMALIZED FREE ENERGY PREDICTED BY IDOCK:   -6.14 KCAL/MOL
REMARK 922        TOTAL FREE ENERGY PREDICTED BY IDOCK:   -9.52 KCAL/MOL
REMARK 923 INTER-LIGAND FREE ENERGY PREDICTED BY IDOCK:   -8.37 KCAL/MOL
REMARK 924 INTRA-LIGAND FREE ENERGY PREDICTED BY IDOCK:   -1.16 KCAL/MOL
REMARK 927      BINDING AFFINITY PREDICTED BY RF-SCORE:    0.00 PKD
ROOT
HETATM    1  O   UNL     1      -8.241  14.825  67.699  1.00  0.00    -0.150 OA 
HETATM    2  C   UNL     1      -9.209  14.894  68.446  1.00  0.00    -0.189 C  
HETATM    3  C   UNL     1      -9.821  16.195  68.886  1.00  0.00    -0.239 C  
HETATM    4  N   UNL     1     -10.041  13.854  68.921  1.00  0.00    -0.157 N  
HETATM    5  C   UNL     1     -10.791  15.776  69.942  1.00  0.00    -0.327 C  
HETATM    6  N   UNL     1     -11.085  14.420  69.724  1.00  0.00    -0.204 N  
HETATM    7  O   UNL     1     -11.214  16.563  70.779  1.00  0.00    -0.304 OA 
ENDROOT
BRANCH   3   8
HETATM    8  C   UNL     1     -10.598  16.824  67.718  1.00  0.00    -0.341 C  
BRANCH   8   9
HETATM    9  C   UNL     1     -10.789  18.344  67.835  1.00  0.00    -0.202 C  
BRANCH   9  10
HETATM   10  S   UNL     1      -9.884  19.172  66.473  1.00  0.00    -0.396 S  
HETATM   11  O   UNL     1      -9.997  20.651  66.715  1.00  0.00    -0.386 OA 
BRANCH  10  12
HETATM   12  C   UNL     1      -8.199  18.728  66.961  1.00  0.00    -0.264 A  
HETATM   13  C   UNL     1      -6.126  17.536  66.558  1.00  0.00    -0.248 A  
HETATM   14  C   UNL     1      -6.455  18.700  68.646  1.00  0.00    -0.247 A  
HETATM   15  C   UNL     1      -5.658  17.912  67.816  1.00  0.00    -0.146 A  
HETATM   16  C   UNL     1      -7.722  19.109  68.221  1.00  0.00    -0.350 A  
HETATM   17  C   UNL     1      -7.393  17.939  66.132  1.00  0.00    -0.327 A  
ENDBRANCH  10  12
ENDBRANCH   9  10
ENDBRANCH   8   9
ENDBRANCH   3   8
BRANCH   6  18
HETATM   18  C   UNL     1     -12.054  13.704  70.501  1.00  0.00    -0.339 A  
HETATM   19  C   UNL     1     -12.869  11.559  71.385  1.00  0.00    -0.489 A  
HETATM   20  C   UNL     1     -13.785  12.217  72.190  1.00  0.00    -0.207 A  
HETATM   21  C   UNL     1     -13.035  14.336  71.272  1.00  0.00    -0.422 A  
HETATM   22  C   UNL     1     -12.011  12.296  70.562  1.00  0.00    -0.296 A  
HETATM   23  C   UNL     1     -13.874  13.605  72.126  1.00  0.00    -0.642 A  
ENDBRANCH   6  18
BRANCH   4  24
HETATM   24  C   UNL     1     -10.123  12.704  68.087  1.00  0.00    -0.231 A  
HETATM   25  C   UNL     1     -11.016  12.731  67.004  1.00  0.00    -0.295 A  
HETATM   26  C   UNL     1      -9.637  10.391  67.563  1.00  0.00    -0.178 A  
HETATM   27  C   UNL     1     -11.223  11.602  66.210  1.00  0.00    -0.332 A  
HETATM   28  C   UNL     1      -9.421  11.526  68.352  1.00  0.00    -0.195 A  
HETATM   29  C   UNL     1     -10.535  10.429  66.499  1.00  0.00    -0.262 A  
ENDBRANCH   4  24
TORSDOF 6
ENDMDL
MODEL       51
REMARK 921   NORMALIZED FREE ENERGY PREDICTED BY IDOCK:   -6.14 KCAL/MOL
REMARK 922        TOTAL FREE ENERGY PREDICTED BY IDOCK:   -9.52 KCAL/MOL
REMARK 923 INTER-LIGAND FREE ENERGY PREDICTED BY IDOCK:   -7.97 KCAL/MOL
REMARK 924 INTRA-LIGAND FREE ENERGY PREDICTED BY IDOCK:   -1.56 KCAL/MOL
REMARK 927      BINDING AFFINITY PREDICTED BY RF-SCORE:    0.00 PKD
ROOT
HETATM    1  O   UNL     1     -10.670  16.135  69.890  1.00  0.00    -0.303 OA 
HETATM    2  C   UNL     1     -10.648  15.888  68.692  1.00  0.00    -0.250 C  
HETATM    3  C   UNL     1      -9.874  16.705  67.694  1.00  0.00    -0.256 C  
HETATM    4  N   UNL     1     -11.167  14.765  68.006  1.00  0.00    -0.286 N  
HETATM    5  C   UNL     1     -10.339  16.168  66.379  1.00  0.00    -0.315 C  
HETATM    6  N   UNL     1     -10.854  14.882  66.612  1.00  0.00    -0.314 N  
HETATM    7  O   UNL     1     -10.216  16.806  65.341  1.00  0.00    -0.599 OA 
ENDROOT
BRANCH   3   8
HETATM    8  C   UNL     1      -8.372  16.418  67.845  1.00  0.00    -0.174 C  
BRANCH   8   9
HETATM    9  C   UNL     1      -7.968  14.977  67.497  1.00  0.00    -0.178 C  
BRANCH   9  10
HETATM   10  S   UNL     1      -6.665  14.418  68.660  1.00  0.00    -0.098 S  
HETATM   11  O   UNL     1      -7.176  14.692  70.046  1.00  0.00    -0.100 OA 
BRANCH  10  12
HETATM   12  C   UNL     1      -6.841  12.633  68.422  1.00  0.00    -0.090 A  
HETATM   13  C   UNL     1      -6.667  10.362  69.255  1.00  0.00    -0.067 A  
HETATM   14  C   UNL     1      -7.187  10.752  66.930  1.00  0.00    -0.115 A  
HETATM   15  C   UNL     1      -6.952   9.867  67.983  1.00  0.00    -0.077 A  
HETATM   16  C   UNL     1      -7.133  12.131  67.148  1.00  0.00    -0.120 A  
HETATM   17  C   UNL     1      -6.609  11.739  69.474  1.00  0.00    -0.102 A  
ENDBRANCH  10  12
ENDBRANCH   9  10
ENDBRANCH   8   9
ENDBRANCH   3   8
BRANCH   6  18
HETATM   18  C   UNL     1     -11.312  14.029  65.555  1.00  0.00    -0.313 A  
HETATM   19  C   UNL     1     -10.774  12.555  63.662  1.00  0.00    -0.469 A  
HETATM   20  C   UNL     1     -12.097  12.152  63.574  1.00  0.00    -0.649 A  
HETATM   21  C   UNL     1     -12.651  13.656  65.398  1.00  0.00    -0.533 A  
HETATM   22  C   UNL     1     -10.390  13.473  64.645  1.00  0.00    -0.406 A  
HETATM   23  C   UNL     1     -13.036  12.709  64.437  1.00  0.00    -0.232 A  
ENDBRANCH   6  18
BRANCH   4  24
HETATM   24  C   UNL     1     -11.263  13.569  68.771  1.00  0.00    -0.274 A  
HETATM   25  C   UNL     1     -10.503  12.460  68.366  1.00  0.00    -0.245 A  
HETATM   26  C   UNL     1     -12.275  12.188  70.482  1.00  0.00    -0.392 A  
HETATM   27  C   UNL     1     -10.628  11.226  69.006  1.00  0.00    -0.241 A  
HETATM   28  C   UNL     1     -12.141  13.427  69.847  1.00  0.00    -0.389 A  
HETATM   29  C   UNL     1     -11.524  11.093  70.062  1.00  0.00    -0.376 A  
ENDBRANCH   4  24
TORSDOF 6
ENDMDL
MODEL       52
REMARK 921   NORMALIZED FREE ENERGY PREDICTED BY IDOCK:   -6.12 KCAL/MOL
REMARK 922        TOTAL FREE ENERGY PREDICTED BY IDOCK:   -9.50 KCAL/MOL
REMARK 923 INTER-LIGAND FREE ENERGY PREDICTED BY IDOCK:   -8.13 KCAL/MOL
REMARK 924 INTRA-LIGAND FREE ENERGY PREDICTED BY IDOCK:   -1.38 KCAL/MOL
REMARK 927      BINDING AFFINITY PREDICTED BY RF-SCORE:    0.00 PKD
ROOT
HETATM    1  O   UNL     1      -7.473  11.381  69.435  1.00  0.00    -0.059 OA 
HETATM    2  C   UNL     1      -8.378  11.165  68.639  1.00  0.00    -0.154 C  
HETATM    3  C   UNL     1      -9.296   9.978  68.735  1.00  0.00    -0.162 C  
HETATM    4  N   UNL     1      -8.864  11.992  67.599  1.00  0.00    -0.165 N  
HETATM    5  C   UNL     1     -10.051  10.025  67.446  1.00  0.00    -0.208 C  
HETATM    6  N   UNL     1      -9.973  11.343  66.965  1.00  0.00    -0.198 N  
HETATM    7  O   UNL     1     -10.625   9.041  66.997  1.00  0.00    -0.261 OA 
ENDROOT
BRANCH   3   8
HETATM    8  C   UNL     1     -10.282  10.179  69.896  1.00  0.00    -0.284 C  
BRANCH   8   9
HETATM    9  C   UNL     1     -10.137   9.154  71.031  1.00  0.00    -0.303 C  
BRANCH   9  10
HETATM   10  S   UNL     1     -11.454   7.889  70.876  1.00  0.00    -0.267 S  
HETATM   11  O   UNL     1     -11.100   7.040  69.687  1.00  0.00    -0.254 OA 
BRANCH  10  12
HETATM   12  C   UNL     1     -11.039   6.890  72.327  1.00  0.00    -0.249 A  
HETATM   13  C   UNL     1      -9.842   6.588  74.414  1.00  0.00    -0.355 A  
HETATM   14  C   UNL     1     -11.090   4.751  73.469  1.00  0.00    -0.412 A  
HETATM   15  C   UNL     1     -10.273   5.264  74.476  1.00  0.00    -0.299 A  
HETATM   16  C   UNL     1     -11.475   5.561  72.397  1.00  0.00    -0.266 A  
HETATM   17  C   UNL     1     -10.221   7.398  73.342  1.00  0.00    -0.402 A  
ENDBRANCH  10  12
ENDBRANCH   9  10
ENDBRANCH   8   9
ENDBRANCH   3   8
BRANCH   6  18
HETATM   18  C   UNL     1     -10.662  11.778  65.786  1.00  0.00    -0.280 A  
HETATM   19  C   UNL     1     -10.853  11.753  63.335  1.00  0.00    -0.460 A  
HETATM   20  C   UNL     1     -12.077  12.398  63.404  1.00  0.00    -0.620 A  
HETATM   21  C   UNL     1     -11.867  12.489  65.821  1.00  0.00    -0.494 A  
HETATM   22  C   UNL     1     -10.164  11.441  64.511  1.00  0.00    -0.352 A  
HETATM   23  C   UNL     1     -12.579  12.773  64.646  1.00  0.00    -0.491 A  
ENDBRANCH   6  18
BRANCH   4  24
HETATM   24  C   UNL     1      -8.675  13.389  67.788  1.00  0.00    -0.197 A  
HETATM   25  C   UNL     1      -7.462  13.958  67.366  1.00  0.00    -0.147 A  
HETATM   26  C   UNL     1      -9.304  15.538  68.709  1.00  0.00    -0.209 A  
HETATM   27  C   UNL     1      -7.168  15.300  67.614  1.00  0.00    -0.204 A  
HETATM   28  C   UNL     1      -9.603  14.196  68.450  1.00  0.00    -0.225 A  
HETATM   29  C   UNL     1      -8.092  16.086  68.295  1.00  0.00    -0.150 A  
ENDBRANCH   4  24
TORSDOF 6
ENDMDL
MODEL       53
REMARK 921   NORMALIZED FREE ENERGY PREDICTED BY IDOCK:   -6.12 KCAL/MOL
REMARK 922        TOTAL FREE ENERGY PREDICTED BY IDOCK:   -9.50 KCAL/MOL
REMARK 923 INTER-LIGAND FREE ENERGY PREDICTED BY IDOCK:   -8.59 KCAL/MOL
REMARK 924 INTRA-LIGAND FREE ENERGY PREDICTED BY IDOCK:   -0.91 KCAL/MOL
REMARK 927      BINDING AFFINITY PREDICTED BY RF-SCORE:    0.00 PKD
ROOT
HETATM    1  O   UNL     1      -6.799  13.922  68.178  1.00  0.00    -0.093 OA 
HETATM    2  C   UNL     1      -7.599  13.230  67.563  1.00  0.00    -0.164 C  
HETATM    3  C   UNL     1      -7.703  11.739  67.731  1.00  0.00    -0.133 C  
HETATM    4  N   UNL     1      -8.663  13.635  66.722  1.00  0.00    -0.143 N  
HETATM    5  C   UNL     1      -8.628  11.335  66.629  1.00  0.00    -0.167 C  
HETATM    6  N   UNL     1      -9.367  12.473  66.266  1.00  0.00    -0.213 N  
HETATM    7  O   UNL     1      -8.674  10.183  66.215  1.00  0.00    -0.137 OA 
ENDROOT
BRANCH   3   8
HETATM    8  C   UNL     1      -8.364  11.415  69.079  1.00  0.00     0.036 C  
BRANCH   8   9
HETATM    9  C   UNL     1      -9.477  10.359  68.997  1.00  0.00    -0.197 C  
BRANCH   9  10
HETATM   10  S   UNL     1     -11.103  11.176  69.215  1.00  0.00    -0.272 S  
HETATM   11  O   UNL     1     -11.916  10.855  67.993  1.00  0.00    -0.586 OA 
BRANCH  10  12
HETATM   12  C   UNL     1     -11.762  10.117  70.527  1.00  0.00    -0.322 A  
HETATM   13  C   UNL     1     -13.520   9.541  72.096  1.00  0.00    -0.535 A  
HETATM   14  C   UNL     1     -11.406   8.378  72.179  1.00  0.00    -0.437 A  
HETATM   15  C   UNL     1     -12.694   8.577  72.674  1.00  0.00    -0.241 A  
HETATM   16  C   UNL     1     -10.940   9.144  71.107  1.00  0.00    -0.390 A  
HETATM   17  C   UNL     1     -13.055  10.311  71.028  1.00  0.00    -0.458 A  
ENDBRANCH  10  12
ENDBRANCH   9  10
ENDBRANCH   8   9
ENDBRANCH   3   8
BRANCH   6  18
HETATM   18  C   UNL     1     -10.419  12.434  65.293  1.00  0.00    -0.286 A  
HETATM   19  C   UNL     1     -11.240  11.637  63.116  1.00  0.00    -0.180 A  
HETATM   20  C   UNL     1     -12.511  12.108  63.402  1.00  0.00    -0.625 A  
HETATM   21  C   UNL     1     -11.695  12.958  65.524  1.00  0.00    -0.423 A  
HETATM   22  C   UNL     1     -10.214  11.791  64.055  1.00  0.00    -0.387 A  
HETATM   23  C   UNL     1     -12.736  12.775  64.602  1.00  0.00    -0.439 A  
ENDBRANCH   6  18
BRANCH   4  24
HETATM   24  C   UNL     1      -9.207  14.920  66.997  1.00  0.00    -0.234 A  
HETATM   25  C   UNL     1      -9.935  15.093  68.185  1.00  0.00    -0.221 A  
HETATM   26  C   UNL     1      -9.783  17.188  66.375  1.00  0.00    -0.307 A  
HETATM   27  C   UNL     1     -10.584  16.296  68.467  1.00  0.00    -0.294 A  
HETATM   28  C   UNL     1      -9.122  15.986  66.098  1.00  0.00    -0.387 A  
HETATM   29  C   UNL     1     -10.511  17.341  67.552  1.00  0.00    -0.356 A  
ENDBRANCH   4  24
TORSDOF 6
ENDMDL
MODEL       54
REMARK 921   NORMALIZED FREE ENERGY PREDICTED BY IDOCK:   -6.08 KCAL/MOL
REMARK 922        TOTAL FREE ENERGY PREDICTED BY IDOCK:   -9.45 KCAL/MOL
REMARK 923 INTER-LIGAND FREE ENERGY PREDICTED BY IDOCK:   -8.11 KCAL/MOL
REMARK 924 INTRA-LIGAND FREE ENERGY PREDICTED BY IDOCK:   -1.33 KCAL/MOL
REMARK 927      BINDING AFFINITY PREDICTED BY RF-SCORE:    0.00 PKD
ROOT
HETATM    1  O   UNL     1     -11.310  11.615  67.545  1.00  0.00    -0.270 OA 
HETATM    2  C   UNL     1     -10.867  10.706  68.235  1.00  0.00    -0.241 C  
HETATM    3  C   UNL     1      -9.544  10.039  67.973  1.00  0.00    -0.154 C  
HETATM    4  N   UNL     1     -11.362  10.195  69.458  1.00  0.00    -0.229 N  
HETATM    5  C   UNL     1      -9.557   8.875  68.909  1.00  0.00    -0.160 C  
HETATM    6  N   UNL     1     -10.479   9.169  69.928  1.00  0.00    -0.214 N  
HETATM    7  O   UNL     1      -8.831   7.903  68.742  1.00  0.00    -0.138 OA 
ENDROOT
BRANCH   3   8
HETATM    8  C   UNL     1      -8.401  10.985  68.373  1.00  0.00    -0.139 C  
BRANCH   8   9
HETATM    9  C   UNL     1      -8.118  12.098  67.351  1.00  0.00    -0.171 C  
BRANCH   9  10
HETATM   10  S   UNL     1      -7.515  13.588  68.233  1.00  0.00    -0.134 S  
HETATM   11  O   UNL     1      -6.648  14.341  67.265  1.00  0.00    -0.278 OA 
BRANCH  10  12
HETATM   12  C   UNL     1      -9.074  14.506  68.304  1.00  0.00    -0.196 A  
HETATM   13  C   UNL     1     -11.152  15.226  67.281  1.00  0.00    -0.325 A  
HETATM   14  C   UNL     1     -10.487  16.131  69.418  1.00  0.00    -0.283 A  
HETATM   15  C   UNL     1     -11.397  16.070  68.363  1.00  0.00    -0.355 A  
HETATM   16  C   UNL     1      -9.329  15.350  69.391  1.00  0.00    -0.266 A  
HETATM   17  C   UNL     1      -9.992  14.449  67.249  1.00  0.00    -0.247 A  
ENDBRANCH  10  12
ENDBRANCH   9  10
ENDBRANCH   8   9
ENDBRANCH   3   8
BRANCH   6  18
HETATM   18  C   UNL     1     -10.688   8.307  71.054  1.00  0.00    -0.218 A  
HETATM   19  C   UNL     1     -11.750   6.300  71.997  1.00  0.00    -0.374 A  
HETATM   20  C   UNL     1     -10.994   6.417  73.151  1.00  0.00    -0.249 A  
HETATM   21  C   UNL     1      -9.988   8.439  72.259  1.00  0.00    -0.383 A  
HETATM   22  C   UNL     1     -11.590   7.227  70.962  1.00  0.00    -0.329 A  
HETATM   23  C   UNL     1     -10.119   7.491  73.285  1.00  0.00    -0.386 A  
ENDBRANCH   6  18
BRANCH   4  24
HETATM   24  C   UNL     1     -12.118  11.109  70.244  1.00  0.00    -0.377 A  
HETATM   25  C   UNL     1     -11.882  12.483  70.075  1.00  0.00    -0.363 A  
HETATM   26  C   UNL     1     -13.636  11.644  72.052  1.00  0.00    -0.144 A  
HETATM   27  C   UNL     1     -12.510  13.429  70.885  1.00  0.00    -0.439 A  
HETATM   28  C   UNL     1     -13.015  10.696  71.232  1.00  0.00    -0.513 A  
HETATM   29  C   UNL     1     -13.383  13.003  71.881  1.00  0.00    -0.539 A  
ENDBRANCH   4  24
TORSDOF 6
ENDMDL
MODEL       55
REMARK 921   NORMALIZED FREE ENERGY PREDICTED BY IDOCK:   -6.08 KCAL/MOL
REMARK 922        TOTAL FREE ENERGY PREDICTED BY IDOCK:   -9.44 KCAL/MOL
REMARK 923 INTER-LIGAND FREE ENERGY PREDICTED BY IDOCK:   -7.97 KCAL/MOL
REMARK 924 INTRA-LIGAND FREE ENERGY PREDICTED BY IDOCK:   -1.47 KCAL/MOL
REMARK 927      BINDING AFFINITY PREDICTED BY RF-SCORE:    0.00 PKD
ROOT
HETATM    1  O   UNL     1      -7.757  11.661  66.406  1.00  0.00    -0.076 OA 
HETATM    2  C   UNL     1      -8.716  11.110  66.930  1.00  0.00    -0.152 C  
HETATM    3  C   UNL     1     -10.141  11.529  66.691  1.00  0.00    -0.242 C  
HETATM    4  N   UNL     1      -8.748   9.926  67.703  1.00  0.00    -0.122 N  
HETATM    5  C   UNL     1     -10.904  10.735  67.702  1.00  0.00    -0.279 C  
HETATM    6  N   UNL     1     -10.106   9.634  68.056  1.00  0.00    -0.169 N  
HETATM    7  O   UNL     1     -12.028  11.059  68.062  1.00  0.00    -0.623 OA 
ENDROOT
BRANCH   3   8
HETATM    8  C   UNL     1     -10.580  11.095  65.284  1.00  0.00    -0.303 C  
BRANCH   8   9
HETATM    9  C   UNL     1     -10.383  12.170  64.203  1.00  0.00    -0.354 C  
BRANCH   9  10
HETATM   10  S   UNL     1     -11.901  13.191  64.085  1.00  0.00    -0.458 S  
HETATM   11  O   UNL     1     -13.015  12.381  64.685  1.00  0.00    -0.793 OA 
BRANCH  10  12
HETATM   12  C   UNL     1     -11.483  14.438  65.328  1.00  0.00    -0.350 A  
HETATM   13  C   UNL     1     -10.228  16.394  66.021  1.00  0.00    -0.373 A  
HETATM   14  C   UNL     1     -11.594  15.214  67.623  1.00  0.00    -0.290 A  
HETATM   15  C   UNL     1     -10.719  16.256  67.319  1.00  0.00    -0.265 A  
HETATM   16  C   UNL     1     -11.978  14.307  66.631  1.00  0.00    -0.454 A  
HETATM   17  C   UNL     1     -10.605  15.487  65.029  1.00  0.00    -0.435 A  
ENDBRANCH  10  12
ENDBRANCH   9  10
ENDBRANCH   8   9
ENDBRANCH   3   8
BRANCH   6  18
HETATM   18  C   UNL     1     -10.560   8.604  68.943  1.00  0.00    -0.144 A  
HETATM   19  C   UNL     1     -11.538   7.979  71.111  1.00  0.00    -0.307 A  
HETATM   20  C   UNL     1     -11.687   6.668  70.688  1.00  0.00    -0.452 A  
HETATM   21  C   UNL     1     -10.661   7.260  68.569  1.00  0.00    -0.207 A  
HETATM   22  C   UNL     1     -10.991   8.932  70.245  1.00  0.00    -0.266 A  
HETATM   23  C   UNL     1     -11.241   6.308  69.420  1.00  0.00    -0.489 A  
ENDBRANCH   6  18
BRANCH   4  24
HETATM   24  C   UNL     1      -7.705   8.994  67.443  1.00  0.00    -0.092 A  
HETATM   25  C   UNL     1      -7.822   8.164  66.316  1.00  0.00    -0.095 A  
HETATM   26  C   UNL     1      -5.693   7.795  68.053  1.00  0.00    -0.033 A  
HETATM   27  C   UNL     1      -6.891   7.158  66.060  1.00  0.00    -0.057 A  
HETATM   28  C   UNL     1      -6.621   8.812  68.304  1.00  0.00    -0.060 A  
HETATM   29  C   UNL     1      -5.829   6.972  66.938  1.00  0.00    -0.026 A  
ENDBRANCH   4  24
TORSDOF 6
ENDMDL
MODEL       56
REMARK 921   NORMALIZED FREE ENERGY PREDICTED BY IDOCK:   -6.05 KCAL/MOL
REMARK 922        TOTAL FREE ENERGY PREDICTED BY IDOCK:   -9.40 KCAL/MOL
REMARK 923 INTER-LIGAND FREE ENERGY PREDICTED BY IDOCK:   -7.56 KCAL/MOL
REMARK 924 INTRA-LIGAND FREE ENERGY PREDICTED BY IDOCK:   -1.84 KCAL/MOL
REMARK 927      BINDING AFFINITY PREDICTED BY RF-SCORE:    0.00 PKD
ROOT
HETATM    1  O   UNL     1      -9.845   7.800  66.703  1.00  0.00    -0.219 OA 
HETATM    2  C   UNL     1     -10.253   8.942  66.871  1.00  0.00    -0.276 C  
HETATM    3  C   UNL     1     -10.763   9.451  68.191  1.00  0.00    -0.230 C  
HETATM    4  N   UNL     1     -10.202  10.044  65.985  1.00  0.00    -0.237 N  
HETATM    5  C   UNL     1     -11.346  10.782  67.842  1.00  0.00    -0.299 C  
HETATM    6  N   UNL     1     -10.750  11.196  66.639  1.00  0.00    -0.268 N  
HETATM    7  O   UNL     1     -12.166  11.336  68.563  1.00  0.00    -0.588 OA 
ENDROOT
BRANCH   3   8
HETATM    8  C   UNL     1      -9.584   9.662  69.155  1.00  0.00    -0.176 C  
BRANCH   8   9
HETATM    9  C   UNL     1      -9.947   9.499  70.639  1.00  0.00    -0.276 C  
BRANCH   9  10
HETATM   10  S   UNL     1      -8.647   8.513  71.474  1.00  0.00    -0.194 S  
HETATM   11  O   UNL     1      -9.147   8.225  72.861  1.00  0.00    -0.247 OA 
BRANCH  10  12
HETATM   12  C   UNL     1      -8.850   6.967  70.554  1.00  0.00    -0.154 A  
HETATM   13  C   UNL     1      -8.013   5.310  68.994  1.00  0.00    -0.086 A  
HETATM   14  C   UNL     1     -10.285   5.167  69.794  1.00  0.00    -0.357 A  
HETATM   15  C   UNL     1      -9.249   4.666  69.006  1.00  0.00    -0.183 A  
HETATM   16  C   UNL     1     -10.088   6.313  70.568  1.00  0.00    -0.230 A  
HETATM   17  C   UNL     1      -7.814   6.459  69.763  1.00  0.00    -0.114 A  
ENDBRANCH  10  12
ENDBRANCH   9  10
ENDBRANCH   8   9
ENDBRANCH   3   8
BRANCH   6  18
HETATM   18  C   UNL     1     -11.009  12.476  66.048  1.00  0.00    -0.283 A  
HETATM   19  C   UNL     1     -10.187  14.709  65.430  1.00  0.00    -0.415 A  
HETATM   20  C   UNL     1     -11.344  14.956  64.709  1.00  0.00    -0.400 A  
HETATM   21  C   UNL     1     -12.194  12.781  65.370  1.00  0.00    -0.532 A  
HETATM   22  C   UNL     1     -10.022  13.482  66.081  1.00  0.00    -0.310 A  
HETATM   23  C   UNL     1     -12.350  13.996  64.687  1.00  0.00    -0.425 A  
ENDBRANCH   6  18
BRANCH   4  24
HETATM   24  C   UNL     1      -9.149  10.015  65.029  1.00  0.00    -0.211 A  
HETATM   25  C   UNL     1      -7.825  10.030  65.498  1.00  0.00    -0.134 A  
HETATM   26  C   UNL     1      -8.295  10.151  62.768  1.00  0.00    -0.171 A  
HETATM   27  C   UNL     1      -6.747  10.109  64.617  1.00  0.00    -0.120 A  
HETATM   28  C   UNL     1      -9.375  10.060  63.652  1.00  0.00    -0.301 A  
HETATM   29  C   UNL     1      -6.988  10.177  63.249  1.00  0.00    -0.125 A  
ENDBRANCH   4  24
TORSDOF 6
ENDMDL
MODEL       57
REMARK 921   NORMALIZED FREE ENERGY PREDICTED BY IDOCK:   -6.03 KCAL/MOL
REMARK 922        TOTAL FREE ENERGY PREDICTED BY IDOCK:   -9.38 KCAL/MOL
REMARK 923 INTER-LIGAND FREE ENERGY PREDICTED BY IDOCK:   -7.46 KCAL/MOL
REMARK 924 INTRA-LIGAND FREE ENERGY PREDICTED BY IDOCK:   -1.91 KCAL/MOL
REMARK 927      BINDING AFFINITY PREDICTED BY RF-SCORE:    0.00 PKD
ROOT
HETATM    1  O   UNL     1      -8.835  11.196  65.254  1.00  0.00    -0.171 OA 
HETATM    2  C   UNL     1      -9.124  11.289  66.440  1.00  0.00    -0.192 C  
HETATM    3  C   UNL     1      -8.160  10.981  67.552  1.00  0.00    -0.117 C  
HETATM    4  N   UNL     1     -10.292  11.825  67.031  1.00  0.00    -0.210 N  
HETATM    5  C   UNL     1      -9.023  11.013  68.771  1.00  0.00    -0.149 C  
HETATM    6  N   UNL     1     -10.161  11.775  68.457  1.00  0.00    -0.209 N  
HETATM    7  O   UNL     1      -8.688  10.466  69.814  1.00  0.00    -0.114 OA 
ENDROOT
BRANCH   3   8
HETATM    8  C   UNL     1      -7.113  12.102  67.655  1.00  0.00    -0.124 C  
BRANCH   8   9
HETATM    9  C   UNL     1      -7.375  13.106  68.789  1.00  0.00    -0.068 C  
BRANCH   9  10
HETATM   10  S   UNL     1      -6.289  14.565  68.566  1.00  0.00    -0.096 S  
HETATM   11  O   UNL     1      -5.582  14.382  67.253  1.00  0.00    -0.288 OA 
BRANCH  10  12
HETATM   12  C   UNL     1      -7.570  15.807  68.258  1.00  0.00    -0.127 A  
HETATM   13  C   UNL     1      -9.627  16.925  68.891  1.00  0.00    -0.251 A  
HETATM   14  C   UNL     1      -8.608  17.403  66.756  1.00  0.00    -0.284 A  
HETATM   15  C   UNL     1      -9.633  17.612  67.678  1.00  0.00    -0.268 A  
HETATM   16  C   UNL     1      -7.577  16.505  67.044  1.00  0.00    -0.240 A  
HETATM   17  C   UNL     1      -8.601  16.023  69.179  1.00  0.00    -0.247 A  
ENDBRANCH  10  12
ENDBRANCH   9  10
ENDBRANCH   8   9
ENDBRANCH   3   8
BRANCH   6  18
HETATM   18  C   UNL     1     -11.171  12.091  69.424  1.00  0.00    -0.196 A  
HETATM   19  C   UNL     1     -12.776  11.314  71.117  1.00  0.00    -0.492 A  
HETATM   20  C   UNL     1     -13.020  12.619  71.513  1.00  0.00    -0.380 A  
HETATM   21  C   UNL     1     -11.489  13.401  69.799  1.00  0.00    -0.236 A  
HETATM   22  C   UNL     1     -11.857  11.057  70.094  1.00  0.00    -0.441 A  
HETATM   23  C   UNL     1     -12.383  13.662  70.848  1.00  0.00    -0.450 A  
ENDBRANCH   6  18
BRANCH   4  24
HETATM   24  C   UNL     1     -10.972  12.811  66.262  1.00  0.00    -0.280 A  
HETATM   25  C   UNL     1     -12.070  12.407  65.485  1.00  0.00    -0.417 A  
HETATM   26  C   UNL     1     -11.182  15.028  65.314  1.00  0.00    -0.368 A  
HETATM   27  C   UNL     1     -12.716  13.298  64.628  1.00  0.00    -0.283 A  
HETATM   28  C   UNL     1     -10.542  14.137  66.182  1.00  0.00    -0.293 A  
HETATM   29  C   UNL     1     -12.262  14.610  64.540  1.00  0.00    -0.473 A  
ENDBRANCH   4  24
TORSDOF 6
ENDMDL
MODEL       58
REMARK 921   NORMALIZED FREE ENERGY PREDICTED BY IDOCK:   -6.02 KCAL/MOL
REMARK 922        TOTAL FREE ENERGY PREDICTED BY IDOCK:   -9.36 KCAL/MOL
REMARK 923 INTER-LIGAND FREE ENERGY PREDICTED BY IDOCK:   -7.98 KCAL/MOL
REMARK 924 INTRA-LIGAND FREE ENERGY PREDICTED BY IDOCK:   -1.38 KCAL/MOL
REMARK 927      BINDING AFFINITY PREDICTED BY RF-SCORE:    0.00 PKD
ROOT
HETATM    1  O   UNL     1      -8.752  11.790  68.053  1.00  0.00    -0.152 OA 
HETATM    2  C   UNL     1      -9.196  10.667  68.255  1.00  0.00    -0.153 C  
HETATM    3  C   UNL     1     -10.153  10.347  69.370  1.00  0.00    -0.251 C  
HETATM    4  N   UNL     1      -9.069   9.504  67.460  1.00  0.00    -0.130 N  
HETATM    5  C   UNL     1     -10.214   8.854  69.349  1.00  0.00    -0.209 C  
HETATM    6  N   UNL     1      -9.808   8.438  68.070  1.00  0.00    -0.163 N  
HETATM    7  O   UNL     1     -10.595   8.209  70.317  1.00  0.00    -0.219 OA 
ENDROOT
BRANCH   3   8
HETATM    8  C   UNL     1     -11.545  10.906  69.035  1.00  0.00    -0.387 C  
BRANCH   8   9
HETATM    9  C   UNL     1     -12.098  11.887  70.080  1.00  0.00    -0.302 C  
BRANCH   9  10
HETATM   10  S   UNL     1     -11.559  13.587  69.657  1.00  0.00    -0.247 S  
HETATM   11  O   UNL     1     -12.351  14.004  68.450  1.00  0.00    -0.254 OA 
BRANCH  10  12
HETATM   12  C   UNL     1     -12.309  14.461  71.054  1.00  0.00    -0.357 A  
HETATM   13  C   UNL     1     -14.265  15.254  72.248  1.00  0.00    -0.642 A  
HETATM   14  C   UNL     1     -12.062  15.922  72.973  1.00  0.00    -0.615 A  
HETATM   15  C   UNL     1     -13.448  15.965  73.126  1.00  0.00    -0.650 A  
HETATM   16  C   UNL     1     -11.492  15.172  71.942  1.00  0.00    -0.457 A  
HETATM   17  C   UNL     1     -13.698  14.507  71.214  1.00  0.00    -0.407 A  
ENDBRANCH  10  12
ENDBRANCH   9  10
ENDBRANCH   8   9
ENDBRANCH   3   8
BRANCH   6  18
HETATM   18  C   UNL     1      -9.828   7.064  67.661  1.00  0.00    -0.147 A  
HETATM   19  C   UNL     1      -8.844   4.815  67.801  1.00  0.00    -0.112 A  
HETATM   20  C   UNL     1      -9.908   4.284  67.091  1.00  0.00    -0.205 A  
HETATM   21  C   UNL     1     -10.853   6.511  66.887  1.00  0.00    -0.427 A  
HETATM   22  C   UNL     1      -8.813   6.184  68.089  1.00  0.00    -0.112 A  
HETATM   23  C   UNL     1     -10.907   5.133  66.626  1.00  0.00    -0.102 A  
ENDBRANCH   6  18
BRANCH   4  24
HETATM   24  C   UNL     1      -8.869   9.730  66.070  1.00  0.00    -0.147 A  
HETATM   25  C   UNL     1      -7.554   9.727  65.579  1.00  0.00    -0.118 A  
HETATM   26  C   UNL     1      -9.637  10.367  63.864  1.00  0.00    -0.370 A  
HETATM   27  C   UNL     1      -7.278  10.044  64.248  1.00  0.00    -0.133 A  
HETATM   28  C   UNL     1      -9.914  10.038  65.195  1.00  0.00    -0.350 A  
HETATM   29  C   UNL     1      -8.326  10.373  63.394  1.00  0.00    -0.158 A  
ENDBRANCH   4  24
TORSDOF 6
ENDMDL
MODEL       59
REMARK 921   NORMALIZED FREE ENERGY PREDICTED BY IDOCK:   -6.01 KCAL/MOL
REMARK 922        TOTAL FREE ENERGY PREDICTED BY IDOCK:   -9.35 KCAL/MOL
REMARK 923 INTER-LIGAND FREE ENERGY PREDICTED BY IDOCK:   -8.05 KCAL/MOL
REMARK 924 INTRA-LIGAND FREE ENERGY PREDICTED BY IDOCK:   -1.30 KCAL/MOL
REMARK 927      BINDING AFFINITY PREDICTED BY RF-SCORE:    0.00 PKD
ROOT
HETATM    1  O   UNL     1     -10.055   7.917  66.452  1.00  0.00    -0.209 OA 
HETATM    2  C   UNL     1     -10.402   9.063  66.705  1.00  0.00    -0.219 C  
HETATM    3  C   UNL     1     -10.780   9.527  68.084  1.00  0.00    -0.247 C  
HETATM    4  N   UNL     1     -10.382  10.203  65.867  1.00  0.00    -0.198 N  
HETATM    5  C   UNL     1     -11.338  10.892  67.845  1.00  0.00    -0.308 C  
HETATM    6  N   UNL     1     -10.829  11.341  66.615  1.00  0.00    -0.276 N  
HETATM    7  O   UNL     1     -12.073  11.441  68.656  1.00  0.00    -0.518 OA 
ENDROOT
BRANCH   3   8
HETATM    8  C   UNL     1      -9.519   9.651  68.953  1.00  0.00    -0.157 C  
BRANCH   8   9
HETATM    9  C   UNL     1      -9.220   8.412  69.811  1.00  0.00    -0.157 C  
BRANCH   9  10
HETATM   10  S   UNL     1      -9.776   8.719  71.530  1.00  0.00    -0.307 S  
HETATM   11  O   UNL     1     -11.154   9.310  71.440  1.00  0.00    -0.313 OA 
BRANCH  10  12
HETATM   12  C   UNL     1     -10.017   7.001  72.046  1.00  0.00    -0.159 A  
HETATM   13  C   UNL     1      -9.981   4.624  71.564  1.00  0.00    -0.265 A  
HETATM   14  C   UNL     1     -10.867   5.411  73.667  1.00  0.00    -0.321 A  
HETATM   15  C   UNL     1     -10.562   4.359  72.803  1.00  0.00    -0.254 A  
HETATM   16  C   UNL     1     -10.594   6.729  73.292  1.00  0.00    -0.335 A  
HETATM   17  C   UNL     1      -9.712   5.941  71.185  1.00  0.00    -0.209 A  
ENDBRANCH  10  12
ENDBRANCH   9  10
ENDBRANCH   8   9
ENDBRANCH   3   8
BRANCH   6  18
HETATM   18  C   UNL     1     -11.086  12.656  66.105  1.00  0.00    -0.292 A  
HETATM   19  C   UNL     1     -10.324  14.972  65.787  1.00  0.00    -0.354 A  
HETATM   20  C   UNL     1     -11.395  15.229  64.946  1.00  0.00    -0.387 A  
HETATM   21  C   UNL     1     -12.193  12.966  65.308  1.00  0.00    -0.524 A  
HETATM   22  C   UNL     1     -10.170  13.700  66.348  1.00  0.00    -0.292 A  
HETATM   23  C   UNL     1     -12.333  14.229  64.715  1.00  0.00    -0.440 A  
ENDBRANCH   6  18
BRANCH   4  24
HETATM   24  C   UNL     1      -9.414  10.182  64.825  1.00  0.00    -0.295 A  
HETATM   25  C   UNL     1      -8.065  10.014  65.175  1.00  0.00    -0.144 A  
HETATM   26  C   UNL     1      -8.725  10.494  62.525  1.00  0.00    -0.270 A  
HETATM   27  C   UNL     1      -7.054  10.089  64.216  1.00  0.00    -0.130 A  
HETATM   28  C   UNL     1      -9.739  10.408  63.485  1.00  0.00    -0.333 A  
HETATM   29  C   UNL     1      -7.390  10.338  62.890  1.00  0.00    -0.136 A  
ENDBRANCH   4  24
TORSDOF 6
ENDMDL
MODEL       60
REMARK 921   NORMALIZED FREE ENERGY PREDICTED BY IDOCK:   -6.01 KCAL/MOL
REMARK 922        TOTAL FREE ENERGY PREDICTED BY IDOCK:   -9.34 KCAL/MOL
REMARK 923 INTER-LIGAND FREE ENERGY PREDICTED BY IDOCK:   -8.02 KCAL/MOL
REMARK 924 INTRA-LIGAND FREE ENERGY PREDICTED BY IDOCK:   -1.32 KCAL/MOL
REMARK 927      BINDING AFFINITY PREDICTED BY RF-SCORE:    0.00 PKD
ROOT
HETATM    1  O   UNL     1     -11.030  10.188  67.095  1.00  0.00    -0.235 OA 
HETATM    2  C   UNL     1     -11.299  10.620  68.209  1.00  0.00    -0.289 C  
HETATM    3  C   UNL     1     -11.058   9.846  69.475  1.00  0.00    -0.255 C  
HETATM    4  N   UNL     1     -11.720  11.918  68.581  1.00  0.00    -0.305 N  
HETATM    5  C   UNL     1     -11.745  10.669  70.515  1.00  0.00    -0.356 C  
HETATM    6  N   UNL     1     -11.859  11.974  70.007  1.00  0.00    -0.331 N  
HETATM    7  O   UNL     1     -12.079  10.199  71.595  1.00  0.00    -0.375 OA 
ENDROOT
BRANCH   3   8
HETATM    8  C   UNL     1      -9.553   9.813  69.783  1.00  0.00    -0.256 C  
BRANCH   8   9
HETATM    9  C   UNL     1      -8.976   8.399  69.957  1.00  0.00    -0.138 C  
BRANCH   9  10
HETATM   10  S   UNL     1      -7.846   8.031  68.562  1.00  0.00    -0.116 S  
HETATM   11  O   UNL     1      -8.712   7.733  67.371  1.00  0.00    -0.127 OA 
BRANCH  10  12
HETATM   12  C   UNL     1      -7.204   9.701  68.289  1.00  0.00    -0.079 A  
HETATM   13  C   UNL     1      -6.887  11.638  66.864  1.00  0.00    -0.129 A  
HETATM   14  C   UNL     1      -5.800  11.539  69.017  1.00  0.00    -0.049 A  
HETATM   15  C   UNL     1      -6.055  12.214  67.823  1.00  0.00    -0.090 A  
HETATM   16  C   UNL     1      -6.373  10.287  69.252  1.00  0.00    -0.047 A  
HETATM   17  C   UNL     1      -7.458  10.384  67.094  1.00  0.00    -0.092 A  
ENDBRANCH  10  12
ENDBRANCH   9  10
ENDBRANCH   8   9
ENDBRANCH   3   8
BRANCH   6  18
HETATM   18  C   UNL     1     -12.393  13.060  70.775  1.00  0.00    -0.310 A  
HETATM   19  C   UNL     1     -12.519  15.481  71.186  1.00  0.00    -0.491 A  
HETATM   20  C   UNL     1     -13.556  15.294  72.085  1.00  0.00    -0.576 A  
HETATM   21  C   UNL     1     -13.394  12.896  71.738  1.00  0.00    -0.451 A  
HETATM   22  C   UNL     1     -11.955  14.379  70.535  1.00  0.00    -0.395 A  
HETATM   23  C   UNL     1     -13.987  14.001  72.368  1.00  0.00    -0.622 A  
ENDBRANCH   6  18
BRANCH   4  24
HETATM   24  C   UNL     1     -11.311  12.968  67.713  1.00  0.00    -0.292 A  
HETATM   25  C   UNL     1     -12.185  13.360  66.686  1.00  0.00    -0.391 A  
HETATM   26  C   UNL     1      -9.663  14.505  66.827  1.00  0.00    -0.269 A  
HETATM   27  C   UNL     1     -11.805  14.309  65.736  1.00  0.00    -0.377 A  
HETATM   28  C   UNL     1     -10.048  13.562  67.786  1.00  0.00    -0.236 A  
HETATM   29  C   UNL     1     -10.537  14.875  65.807  1.00  0.00    -0.342 A  
ENDBRANCH   4  24
TORSDOF 6
ENDMDL
MODEL       61
REMARK 921   NORMALIZED FREE ENERGY PREDICTED BY IDOCK:   -5.98 KCAL/MOL
REMARK 922        TOTAL FREE ENERGY PREDICTED BY IDOCK:   -9.30 KCAL/MOL
REMARK 923 INTER-LIGAND FREE ENERGY PREDICTED BY IDOCK:   -7.76 KCAL/MOL
REMARK 924 INTRA-LIGAND FREE ENERGY PREDICTED BY IDOCK:   -1.55 KCAL/MOL
REMARK 927      BINDING AFFINITY PREDICTED BY RF-SCORE:    0.00 PKD
ROOT
HETATM    1  O   UNL     1     -12.129  10.891  70.467  1.00  0.00    -0.309 OA 
HETATM    2  C   UNL     1     -11.554  10.345  69.534  1.00  0.00    -0.219 C  
HETATM    3  C   UNL     1     -11.031  11.090  68.337  1.00  0.00    -0.281 C  
HETATM    4  N   UNL     1     -11.120   9.004  69.420  1.00  0.00    -0.064 N  
HETATM    5  C   UNL     1     -10.639   9.995  67.398  1.00  0.00    -0.271 C  
HETATM    6  N   UNL     1     -10.442   8.836  68.168  1.00  0.00    -0.212 N  
HETATM    7  O   UNL     1     -10.510  10.191  66.196  1.00  0.00    -0.192 OA 
ENDROOT
BRANCH   3   8
HETATM    8  C   UNL     1      -9.774  11.882  68.729  1.00  0.00    -0.051 C  
BRANCH   8   9
HETATM    9  C   UNL     1      -9.930  13.407  68.616  1.00  0.00    -0.135 C  
BRANCH   9  10
HETATM   10  S   UNL     1     -11.708  13.822  68.454  1.00  0.00    -0.374 S  
HETATM   11  O   UNL     1     -11.971  14.967  69.391  1.00  0.00    -0.308 OA 
BRANCH  10  12
HETATM   12  C   UNL     1     -11.663  14.550  66.798  1.00  0.00    -0.377 A  
HETATM   13  C   UNL     1     -12.273  14.503  64.451  1.00  0.00    -0.480 A  
HETATM   14  C   UNL     1     -10.724  16.169  65.257  1.00  0.00    -0.386 A  
HETATM   15  C   UNL     1     -11.442  15.595  64.207  1.00  0.00    -0.199 A  
HETATM   16  C   UNL     1     -10.835  15.651  66.549  1.00  0.00    -0.260 A  
HETATM   17  C   UNL     1     -12.382  13.980  65.741  1.00  0.00    -0.506 A  
ENDBRANCH  10  12
ENDBRANCH   9  10
ENDBRANCH   8   9
ENDBRANCH   3   8
BRANCH   6  18
HETATM   18  C   UNL     1      -9.971   7.605  67.605  1.00  0.00    -0.175 A  
HETATM   19  C   UNL     1     -10.484   5.402  66.641  1.00  0.00    -0.356 A  
HETATM   20  C   UNL     1      -9.158   5.229  66.280  1.00  0.00    -0.139 A  
HETATM   21  C   UNL     1      -8.628   7.373  67.289  1.00  0.00    -0.118 A  
HETATM   22  C   UNL     1     -10.883   6.578  67.285  1.00  0.00    -0.463 A  
HETATM   23  C   UNL     1      -8.229   6.211  66.612  1.00  0.00    -0.110 A  
ENDBRANCH   6  18
BRANCH   4  24
HETATM   24  C   UNL     1     -10.837   8.343  70.648  1.00  0.00    -0.231 A  
HETATM   25  C   UNL     1      -9.731   8.778  71.396  1.00  0.00    -0.351 A  
HETATM   26  C   UNL     1     -11.152   6.555  72.248  1.00  0.00    -0.297 A  
HETATM   27  C   UNL     1      -9.334   8.109  72.555  1.00  0.00    -0.329 A  
HETATM   28  C   UNL     1     -11.557   7.232  71.093  1.00  0.00    -0.323 A  
HETATM   29  C   UNL     1     -10.046   6.989  72.973  1.00  0.00    -0.242 A  
ENDBRANCH   4  24
TORSDOF 6
ENDMDL
MODEL       62
REMARK 921   NORMALIZED FREE ENERGY PREDICTED BY IDOCK:   -5.97 KCAL/MOL
REMARK 922        TOTAL FREE ENERGY PREDICTED BY IDOCK:   -9.30 KCAL/MOL
REMARK 923 INTER-LIGAND FREE ENERGY PREDICTED BY IDOCK:   -8.15 KCAL/MOL
REMARK 924 INTRA-LIGAND FREE ENERGY PREDICTED BY IDOCK:   -1.15 KCAL/MOL
REMARK 927      BINDING AFFINITY PREDICTED BY RF-SCORE:    0.00 PKD
ROOT
HETATM    1  O   UNL     1      -8.579  10.501  66.449  1.00  0.00    -0.136 OA 
HETATM    2  C   UNL     1      -9.427  10.663  67.318  1.00  0.00    -0.158 C  
HETATM    3  C   UNL     1     -10.337  11.859  67.371  1.00  0.00    -0.228 C  
HETATM    4  N   UNL     1      -9.853   9.763  68.322  1.00  0.00    -0.145 N  
HETATM    5  C   UNL     1     -11.006  11.720  68.700  1.00  0.00    -0.224 C  
HETATM    6  N   UNL     1     -10.912  10.369  69.075  1.00  0.00    -0.225 N  
HETATM    7  O   UNL     1     -11.537  12.671  69.258  1.00  0.00    -0.285 OA 
ENDROOT
BRANCH   3   8
HETATM    8  C   UNL     1     -11.399  11.752  66.266  1.00  0.00    -0.350 C  
BRANCH   8   9
HETATM    9  C   UNL     1     -12.236  13.026  66.071  1.00  0.00    -0.399 C  
BRANCH   9  10
HETATM   10  S   UNL     1     -11.418  14.103  64.834  1.00  0.00    -0.387 S  
HETATM   11  O   UNL     1     -12.488  14.560  63.884  1.00  0.00    -0.814 OA 
BRANCH  10  12
HETATM   12  C   UNL     1     -11.075  15.524  65.900  1.00  0.00    -0.205 A  
HETATM   13  C   UNL     1     -10.153  17.743  66.235  1.00  0.00    -0.345 A  
HETATM   14  C   UNL     1     -10.985  16.489  68.123  1.00  0.00    -0.336 A  
HETATM   15  C   UNL     1     -10.398  17.643  67.604  1.00  0.00    -0.368 A  
HETATM   16  C   UNL     1     -11.325  15.433  67.275  1.00  0.00    -0.220 A  
HETATM   17  C   UNL     1     -10.487  16.686  65.386  1.00  0.00    -0.253 A  
ENDBRANCH  10  12
ENDBRANCH   9  10
ENDBRANCH   8   9
ENDBRANCH   3   8
BRANCH   6  18
HETATM   18  C   UNL     1     -11.527   9.852  70.262  1.00  0.00    -0.281 A  
HETATM   19  C   UNL     1     -11.299   8.640  72.389  1.00  0.00    -0.353 A  
HETATM   20  C   UNL     1     -12.594   8.980  72.744  1.00  0.00    -0.074 A  
HETATM   21  C   UNL     1     -12.853  10.121  70.616  1.00  0.00    -0.314 A  
HETATM   22  C   UNL     1     -10.773   9.080  71.170  1.00  0.00    -0.358 A  
HETATM   23  C   UNL     1     -13.374   9.712  71.853  1.00  0.00    -0.526 A  
ENDBRANCH   6  18
BRANCH   4  24
HETATM   24  C   UNL     1      -9.693   8.382  68.018  1.00  0.00    -0.158 A  
HETATM   25  C   UNL     1      -8.453   7.783  68.288  1.00  0.00    -0.124 A  
HETATM   26  C   UNL     1     -10.419   6.306  67.006  1.00  0.00    -0.341 A  
HETATM   27  C   UNL     1      -8.193   6.462  67.919  1.00  0.00    -0.115 A  
HETATM   28  C   UNL     1     -10.683   7.627  67.387  1.00  0.00    -0.318 A  
HETATM   29  C   UNL     1      -9.180   5.729  67.270  1.00  0.00    -0.110 A  
ENDBRANCH   4  24
TORSDOF 6
ENDMDL
MODEL       63
REMARK 921   NORMALIZED FREE ENERGY PREDICTED BY IDOCK:   -5.96 KCAL/MOL
REMARK 922        TOTAL FREE ENERGY PREDICTED BY IDOCK:   -9.28 KCAL/MOL
REMARK 923 INTER-LIGAND FREE ENERGY PREDICTED BY IDOCK:   -7.99 KCAL/MOL
REMARK 924 INTRA-LIGAND FREE ENERGY PREDICTED BY IDOCK:   -1.28 KCAL/MOL
REMARK 927      BINDING AFFINITY PREDICTED BY RF-SCORE:    0.00 PKD
ROOT
HETATM    1  O   UNL     1      -7.557  10.149  69.856  1.00  0.00    -0.152 OA 
HETATM    2  C   UNL     1      -8.770   9.993  69.797  1.00  0.00    -0.179 C  
HETATM    3  C   UNL     1      -9.588  10.331  68.581  1.00  0.00    -0.169 C  
HETATM    4  N   UNL     1      -9.630   9.352  70.719  1.00  0.00    -0.269 N  
HETATM    5  C   UNL     1     -10.995  10.193  69.067  1.00  0.00    -0.226 C  
HETATM    6  N   UNL     1     -10.965   9.361  70.199  1.00  0.00    -0.237 N  
HETATM    7  O   UNL     1     -11.933  10.725  68.488  1.00  0.00    -0.487 OA 
ENDROOT
BRANCH   3   8
HETATM    8  C   UNL     1      -9.338   9.287  67.482  1.00  0.00    -0.148 C  
BRANCH   8   9
HETATM    9  C   UNL     1     -10.095   9.558  66.172  1.00  0.00    -0.256 C  
BRANCH   9  10
HETATM   10  S   UNL     1      -9.093  10.670  65.114  1.00  0.00    -0.209 S  
HETATM   11  O   UNL     1      -8.936   9.980  63.788  1.00  0.00    -0.207 OA 
BRANCH  10  12
HETATM   12  C   UNL     1     -10.326  11.966  64.842  1.00  0.00    -0.286 A  
HETATM   13  C   UNL     1     -12.127  12.931  63.536  1.00  0.00    -0.633 A  
HETATM   14  C   UNL     1     -11.207  14.155  65.401  1.00  0.00    -0.325 A  
HETATM   15  C   UNL     1     -12.111  14.068  64.342  1.00  0.00    -0.486 A  
HETATM   16  C   UNL     1     -10.318  13.107  65.653  1.00  0.00    -0.291 A  
HETATM   17  C   UNL     1     -11.236  11.884  63.782  1.00  0.00    -0.519 A  
ENDBRANCH  10  12
ENDBRANCH   9  10
ENDBRANCH   8   9
ENDBRANCH   3   8
BRANCH   6  18
HETATM   18  C   UNL     1     -12.154   8.938  70.878  1.00  0.00    -0.177 A  
HETATM   19  C   UNL     1     -13.630   7.102  71.585  1.00  0.00    -0.399 A  
HETATM   20  C   UNL     1     -14.361   7.970  72.380  1.00  0.00    -0.256 A  
HETATM   21  C   UNL     1     -12.953   9.802  71.635  1.00  0.00    -0.517 A  
HETATM   22  C   UNL     1     -12.537   7.581  70.854  1.00  0.00    -0.139 A  
HETATM   23  C   UNL     1     -14.028   9.321  72.398  1.00  0.00    -0.432 A  
ENDBRANCH   6  18
BRANCH   4  24
HETATM   24  C   UNL     1      -9.026   8.347  71.525  1.00  0.00    -0.194 A  
HETATM   25  C   UNL     1      -8.474   7.225  70.886  1.00  0.00    -0.128 A  
HETATM   26  C   UNL     1      -8.534   7.310  73.657  1.00  0.00    -0.182 A  
HETATM   27  C   UNL     1      -7.961   6.155  71.619  1.00  0.00    -0.103 A  
HETATM   28  C   UNL     1      -9.038   8.388  72.921  1.00  0.00    -0.282 A  
HETATM   29  C   UNL     1      -8.000   6.199  73.009  1.00  0.00    -0.108 A  
ENDBRANCH   4  24
TORSDOF 6
ENDMDL
MODEL       64
REMARK 921   NORMALIZED FREE ENERGY PREDICTED BY IDOCK:   -5.95 KCAL/MOL
REMARK 922        TOTAL FREE ENERGY PREDICTED BY IDOCK:   -9.27 KCAL/MOL
REMARK 923 INTER-LIGAND FREE ENERGY PREDICTED BY IDOCK:   -7.70 KCAL/MOL
REMARK 924 INTRA-LIGAND FREE ENERGY PREDICTED BY IDOCK:   -1.57 KCAL/MOL
REMARK 927      BINDING AFFINITY PREDICTED BY RF-SCORE:    0.00 PKD
ROOT
HETATM    1  O   UNL     1      -8.667  12.562  67.987  1.00  0.00    -0.171 OA 
HETATM    2  C   UNL     1      -9.480  11.887  68.605  1.00  0.00    -0.080 C  
HETATM    3  C   UNL     1     -10.909  12.305  68.816  1.00  0.00    -0.266 C  
HETATM    4  N   UNL     1      -9.347  10.570  69.101  1.00  0.00    -0.199 N  
HETATM    5  C   UNL     1     -11.418  11.298  69.797  1.00  0.00    -0.310 C  
HETATM    6  N   UNL     1     -10.583  10.171  69.709  1.00  0.00    -0.244 N  
HETATM    7  O   UNL     1     -12.410  11.508  70.482  1.00  0.00    -0.350 OA 
ENDROOT
BRANCH   3   8
HETATM    8  C   UNL     1     -11.691  12.157  67.502  1.00  0.00    -0.385 C  
BRANCH   8   9
HETATM    9  C   UNL     1     -12.209  13.483  66.924  1.00  0.00    -0.327 C  
BRANCH   9  10
HETATM   10  S   UNL     1     -10.982  14.141  65.731  1.00  0.00    -0.310 S  
HETATM   11  O   UNL     1     -11.736  14.472  64.474  1.00  0.00    -0.411 OA 
BRANCH  10  12
HETATM   12  C   UNL     1     -10.654  15.731  66.533  1.00  0.00    -0.306 A  
HETATM   13  C   UNL     1     -10.530  17.108  68.526  1.00  0.00    -0.377 A  
HETATM   14  C   UNL     1     -10.261  18.116  66.349  1.00  0.00    -0.405 A  
HETATM   15  C   UNL     1     -10.313  18.237  67.738  1.00  0.00    -0.419 A  
HETATM   16  C   UNL     1     -10.429  16.867  65.747  1.00  0.00    -0.279 A  
HETATM   17  C   UNL     1     -10.703  15.859  67.926  1.00  0.00    -0.312 A  
ENDBRANCH  10  12
ENDBRANCH   9  10
ENDBRANCH   8   9
ENDBRANCH   3   8
BRANCH   6  18
HETATM   18  C   UNL     1     -10.827   8.968  70.449  1.00  0.00    -0.246 A  
HETATM   19  C   UNL     1     -11.167   7.870  72.622  1.00  0.00    -0.459 A  
HETATM   20  C   UNL     1     -11.526   6.690  71.992  1.00  0.00    -0.329 A  
HETATM   21  C   UNL     1     -11.128   7.744  69.842  1.00  0.00    -0.142 A  
HETATM   22  C   UNL     1     -10.833   8.994  71.858  1.00  0.00    -0.413 A  
HETATM   23  C   UNL     1     -11.497   6.625  70.602  1.00  0.00    -0.420 A  
ENDBRANCH   6  18
BRANCH   4  24
HETATM   24  C   UNL     1      -8.423   9.742  68.406  1.00  0.00    -0.114 A  
HETATM   25  C   UNL     1      -8.835   9.154  67.199  1.00  0.00    -0.130 A  
HETATM   26  C   UNL     1      -6.348   8.506  68.239  1.00  0.00    -0.055 A  
HETATM   27  C   UNL     1      -8.018   8.250  66.519  1.00  0.00    -0.100 A  
HETATM   28  C   UNL     1      -7.162   9.421  68.914  1.00  0.00    -0.072 A  
HETATM   29  C   UNL     1      -6.775   7.922  67.049  1.00  0.00    -0.068 A  
ENDBRANCH   4  24
TORSDOF 6
ENDMDL
MODEL       65
REMARK 921   NORMALIZED FREE ENERGY PREDICTED BY IDOCK:   -5.95 KCAL/MOL
REMARK 922        TOTAL FREE ENERGY PREDICTED BY IDOCK:   -9.26 KCAL/MOL
REMARK 923 INTER-LIGAND FREE ENERGY PREDICTED BY IDOCK:   -7.82 KCAL/MOL
REMARK 924 INTRA-LIGAND FREE ENERGY PREDICTED BY IDOCK:   -1.45 KCAL/MOL
REMARK 927      BINDING AFFINITY PREDICTED BY RF-SCORE:    0.00 PKD
ROOT
HETATM    1  O   UNL     1     -10.299  14.346  66.189  1.00  0.00    -0.280 OA 
HETATM    2  C   UNL     1     -10.768  14.121  67.297  1.00  0.00    -0.279 C  
HETATM    3  C   UNL     1     -10.950  12.735  67.852  1.00  0.00    -0.262 C  
HETATM    4  N   UNL     1     -11.083  15.034  68.331  1.00  0.00    -0.265 N  
HETATM    5  C   UNL     1     -11.749  12.966  69.093  1.00  0.00    -0.324 C  
HETATM    6  N   UNL     1     -11.555  14.305  69.471  1.00  0.00    -0.284 N  
HETATM    7  O   UNL     1     -12.396  12.071  69.620  1.00  0.00    -0.159 OA 
ENDROOT
BRANCH   3   8
HETATM    8  C   UNL     1      -9.584  12.150  68.242  1.00  0.00    -0.210 C  
BRANCH   8   9
HETATM    9  C   UNL     1      -9.341  10.722  67.730  1.00  0.00    -0.152 C  
BRANCH   9  10
HETATM   10  S   UNL     1      -7.572  10.294  67.951  1.00  0.00    -0.089 S  
HETATM   11  O   UNL     1      -6.829  11.591  68.106  1.00  0.00    -0.064 OA 
BRANCH  10  12
HETATM   12  C   UNL     1      -7.672   9.590  69.615  1.00  0.00    -0.112 A  
HETATM   13  C   UNL     1      -8.974   8.763  71.486  1.00  0.00    -0.306 A  
HETATM   14  C   UNL     1      -6.584   9.022  71.707  1.00  0.00    -0.017 A  
HETATM   15  C   UNL     1      -7.815   8.663  72.256  1.00  0.00    -0.062 A  
HETATM   16  C   UNL     1      -6.510   9.482  70.389  1.00  0.00    -0.079 A  
HETATM   17  C   UNL     1      -8.904   9.227  70.172  1.00  0.00    -0.235 A  
ENDBRANCH  10  12
ENDBRANCH   9  10
ENDBRANCH   8   9
ENDBRANCH   3   8
BRANCH   6  18
HETATM   18  C   UNL     1     -12.104  14.856  70.675  1.00  0.00    -0.307 A  
HETATM   19  C   UNL     1     -14.076  15.293  72.077  1.00  0.00    -0.662 A  
HETATM   20  C   UNL     1     -13.266  15.716  73.119  1.00  0.00    -0.674 A  
HETATM   21  C   UNL     1     -11.316  15.353  71.719  1.00  0.00    -0.457 A  
HETATM   22  C   UNL     1     -13.499  14.861  70.878  1.00  0.00    -0.356 A  
HETATM   23  C   UNL     1     -11.887  15.754  72.936  1.00  0.00    -0.568 A  
ENDBRANCH   6  18
BRANCH   4  24
HETATM   24  C   UNL     1     -10.335  16.244  68.330  1.00  0.00    -0.271 A  
HETATM   25  C   UNL     1      -9.033  16.221  68.856  1.00  0.00    -0.248 A  
HETATM   26  C   UNL     1     -10.123  18.639  68.049  1.00  0.00    -0.413 A  
HETATM   27  C   UNL     1      -8.283  17.390  68.983  1.00  0.00    -0.080 A  
HETATM   28  C   UNL     1     -10.870  17.464  67.911  1.00  0.00    -0.270 A  
HETATM   29  C   UNL     1      -8.837  18.602  68.584  1.00  0.00    -0.333 A  
ENDBRANCH   4  24
TORSDOF 6
ENDMDL
MODEL       66
REMARK 921   NORMALIZED FREE ENERGY PREDICTED BY IDOCK:   -5.92 KCAL/MOL
REMARK 922        TOTAL FREE ENERGY PREDICTED BY IDOCK:   -9.23 KCAL/MOL
REMARK 923 INTER-LIGAND FREE ENERGY PREDICTED BY IDOCK:   -7.24 KCAL/MOL
REMARK 924 INTRA-LIGAND FREE ENERGY PREDICTED BY IDOCK:   -1.99 KCAL/MOL
REMARK 927      BINDING AFFINITY PREDICTED BY RF-SCORE:    0.00 PKD
ROOT
HETATM    1  O   UNL     1      -7.413  11.449  69.373  1.00  0.00    -0.059 OA 
HETATM    2  C   UNL     1      -8.318  11.216  68.581  1.00  0.00    -0.154 C  
HETATM    3  C   UNL     1      -9.150   9.964  68.624  1.00  0.00    -0.132 C  
HETATM    4  N   UNL     1      -8.883  12.065  67.602  1.00  0.00    -0.165 N  
HETATM    5  C   UNL     1      -9.935  10.032  67.354  1.00  0.00    -0.197 C  
HETATM    6  N   UNL     1      -9.960  11.378  66.951  1.00  0.00    -0.203 N  
HETATM    7  O   UNL     1     -10.449   9.038  66.858  1.00  0.00    -0.260 OA 
ENDROOT
BRANCH   3   8
HETATM    8  C   UNL     1     -10.122  10.028  69.813  1.00  0.00    -0.284 C  
BRANCH   8   9
HETATM    9  C   UNL     1      -9.635   9.280  71.064  1.00  0.00    -0.259 C  
BRANCH   9  10
HETATM   10  S   UNL     1     -10.707   7.821  71.350  1.00  0.00    -0.225 S  
HETATM   11  O   UNL     1     -12.112   8.247  71.034  1.00  0.00    -0.288 OA 
BRANCH  10  12
HETATM   12  C   UNL     1     -10.175   6.818  69.941  1.00  0.00    -0.190 A  
HETATM   13  C   UNL     1      -8.419   5.851  68.576  1.00  0.00    -0.111 A  
HETATM   14  C   UNL     1     -10.722   5.663  67.879  1.00  0.00    -0.241 A  
HETATM   15  C   UNL     1      -9.369   5.408  67.657  1.00  0.00    -0.122 A  
HETATM   16  C   UNL     1     -11.126   6.365  69.018  1.00  0.00    -0.424 A  
HETATM   17  C   UNL     1      -8.819   6.556  69.712  1.00  0.00    -0.143 A  
ENDBRANCH  10  12
ENDBRANCH   9  10
ENDBRANCH   8   9
ENDBRANCH   3   8
BRANCH   6  18
HETATM   18  C   UNL     1     -10.703  11.830  65.812  1.00  0.00    -0.280 A  
HETATM   19  C   UNL     1     -10.915  11.985  63.367  1.00  0.00    -0.475 A  
HETATM   20  C   UNL     1     -12.201  12.486  63.491  1.00  0.00    -0.652 A  
HETATM   21  C   UNL     1     -11.976  12.402  65.907  1.00  0.00    -0.434 A  
HETATM   22  C   UNL     1     -10.184  11.654  64.513  1.00  0.00    -0.337 A  
HETATM   23  C   UNL     1     -12.727  12.703  64.760  1.00  0.00    -0.460 A  
ENDBRANCH   6  18
BRANCH   4  24
HETATM   24  C   UNL     1      -8.788  13.459  67.869  1.00  0.00    -0.194 A  
HETATM   25  C   UNL     1      -9.793  14.058  68.645  1.00  0.00    -0.191 A  
HETATM   26  C   UNL     1      -7.820  15.652  67.526  1.00  0.00    -0.184 A  
HETATM   27  C   UNL     1      -9.818  15.436  68.858  1.00  0.00    -0.216 A  
HETATM   28  C   UNL     1      -7.789  14.268  67.322  1.00  0.00    -0.170 A  
HETATM   29  C   UNL     1      -8.831  16.233  68.288  1.00  0.00    -0.188 A  
ENDBRANCH   4  24
TORSDOF 6
ENDMDL
MODEL       67
REMARK 921   NORMALIZED FREE ENERGY PREDICTED BY IDOCK:   -5.92 KCAL/MOL
REMARK 922        TOTAL FREE ENERGY PREDICTED BY IDOCK:   -9.22 KCAL/MOL
REMARK 923 INTER-LIGAND FREE ENERGY PREDICTED BY IDOCK:   -7.40 KCAL/MOL
REMARK 924 INTRA-LIGAND FREE ENERGY PREDICTED BY IDOCK:   -1.82 KCAL/MOL
REMARK 927      BINDING AFFINITY PREDICTED BY RF-SCORE:    0.00 PKD
ROOT
HETATM    1  O   UNL     1      -9.144   9.576  70.813  1.00  0.00    -0.231 OA 
HETATM    2  C   UNL     1      -9.291   8.489  70.269  1.00  0.00    -0.162 C  
HETATM    3  C   UNL     1      -9.927   7.306  70.945  1.00  0.00    -0.186 C  
HETATM    4  N   UNL     1      -9.072   8.135  68.917  1.00  0.00    -0.147 N  
HETATM    5  C   UNL     1      -9.670   6.187  69.988  1.00  0.00    -0.164 C  
HETATM    6  N   UNL     1      -9.435   6.762  68.728  1.00  0.00    -0.131 N  
HETATM    7  O   UNL     1      -9.712   5.015  70.339  1.00  0.00    -0.176 OA 
ENDROOT
BRANCH   3   8
HETATM    8  C   UNL     1     -11.443   7.526  71.056  1.00  0.00    -0.299 C  
BRANCH   8   9
HETATM    9  C   UNL     1     -11.853   8.563  72.113  1.00  0.00    -0.379 C  
BRANCH   9  10
HETATM   10  S   UNL     1     -13.461   9.305  71.640  1.00  0.00    -0.388 S  
HETATM   11  O   UNL     1     -14.257   9.457  72.905  1.00  0.00    -0.389 OA 
BRANCH  10  12
HETATM   12  C   UNL     1     -12.879  10.969  71.230  1.00  0.00    -0.425 A  
HETATM   13  C   UNL     1     -12.826  13.356  71.659  1.00  0.00    -0.414 A  
HETATM   14  C   UNL     1     -11.774  12.467  69.676  1.00  0.00    -0.372 A  
HETATM   15  C   UNL     1     -12.110  13.557  70.479  1.00  0.00    -0.409 A  
HETATM   16  C   UNL     1     -12.155  11.176  70.050  1.00  0.00    -0.437 A  
HETATM   17  C   UNL     1     -13.212  12.067  72.032  1.00  0.00    -0.481 A  
ENDBRANCH  10  12
ENDBRANCH   9  10
ENDBRANCH   8   9
ENDBRANCH   3   8
BRANCH   6  18
HETATM   18  C   UNL     1      -9.238   5.977  67.544  1.00  0.00    -0.111 A  
HETATM   19  C   UNL     1     -10.203   4.590  65.758  1.00  0.00    -0.289 A  
HETATM   20  C   UNL     1      -8.995   4.587  65.081  1.00  0.00    -0.147 A  
HETATM   21  C   UNL     1      -8.014   5.899  66.872  1.00  0.00    -0.102 A  
HETATM   22  C   UNL     1     -10.322   5.284  66.967  1.00  0.00    -0.286 A  
HETATM   23  C   UNL     1      -7.898   5.234  65.643  1.00  0.00    -0.100 A  
ENDBRANCH   6  18
BRANCH   4  24
HETATM   24  C   UNL     1      -9.194   9.196  67.977  1.00  0.00    -0.134 A  
HETATM   25  C   UNL     1     -10.453   9.434  67.403  1.00  0.00    -0.343 A  
HETATM   26  C   UNL     1      -8.268  10.898  66.525  1.00  0.00    -0.157 A  
HETATM   27  C   UNL     1     -10.621  10.388  66.399  1.00  0.00    -0.198 A  
HETATM   28  C   UNL     1      -8.101   9.949  67.540  1.00  0.00    -0.110 A  
HETATM   29  C   UNL     1      -9.520  11.114  65.956  1.00  0.00    -0.234 A  
ENDBRANCH   4  24
TORSDOF 6
ENDMDL
MODEL       68
REMARK 921   NORMALIZED FREE ENERGY PREDICTED BY IDOCK:   -5.92 KCAL/MOL
REMARK 922        TOTAL FREE ENERGY PREDICTED BY IDOCK:   -9.22 KCAL/MOL
REMARK 923 INTER-LIGAND FREE ENERGY PREDICTED BY IDOCK:   -7.40 KCAL/MOL
REMARK 924 INTRA-LIGAND FREE ENERGY PREDICTED BY IDOCK:   -1.82 KCAL/MOL
REMARK 927      BINDING AFFINITY PREDICTED BY RF-SCORE:    0.00 PKD
ROOT
HETATM    1  O   UNL     1      -8.433  12.407  67.505  1.00  0.00    -0.155 OA 
HETATM    2  C   UNL     1      -9.111  11.558  68.069  1.00  0.00    -0.174 C  
HETATM    3  C   UNL     1     -10.299  11.887  68.930  1.00  0.00    -0.131 C  
HETATM    4  N   UNL     1      -9.061  10.150  67.940  1.00  0.00    -0.131 N  
HETATM    5  C   UNL     1     -10.635  10.577  69.565  1.00  0.00    -0.246 C  
HETATM    6  N   UNL     1     -10.086   9.568  68.755  1.00  0.00    -0.181 N  
HETATM    7  O   UNL     1     -11.302  10.508  70.589  1.00  0.00    -0.322 OA 
ENDROOT
BRANCH   3   8
HETATM    8  C   UNL     1     -11.475  12.326  68.043  1.00  0.00    -0.378 C  
BRANCH   8   9
HETATM    9  C   UNL     1     -11.957  13.762  68.301  1.00  0.00    -0.357 C  
BRANCH   9  10
HETATM   10  S   UNL     1     -11.347  14.854  66.961  1.00  0.00    -0.315 S  
HETATM   11  O   UNL     1      -9.867  15.010  67.171  1.00  0.00    -0.229 OA 
BRANCH  10  12
HETATM   12  C   UNL     1     -11.521  13.702  65.576  1.00  0.00    -0.305 A  
HETATM   13  C   UNL     1     -10.593  12.552  63.652  1.00  0.00    -0.446 A  
HETATM   14  C   UNL     1     -12.950  12.370  64.139  1.00  0.00    -0.267 A  
HETATM   15  C   UNL     1     -11.855  12.052  63.336  1.00  0.00    -0.542 A  
HETATM   16  C   UNL     1     -12.785  13.191  65.258  1.00  0.00    -0.457 A  
HETATM   17  C   UNL     1     -10.426  13.377  64.767  1.00  0.00    -0.419 A  
ENDBRANCH  10  12
ENDBRANCH   9  10
ENDBRANCH   8   9
ENDBRANCH   3   8
BRANCH   6  18
HETATM   18  C   UNL     1     -10.288   8.173  69.014  1.00  0.00    -0.218 A  
HETATM   19  C   UNL     1     -11.024   5.971  68.205  1.00  0.00    -0.340 A  
HETATM   20  C   UNL     1     -10.523   5.363  69.344  1.00  0.00    -0.331 A  
HETATM   21  C   UNL     1      -9.853   7.541  70.184  1.00  0.00    -0.180 A  
HETATM   22  C   UNL     1     -10.898   7.355  68.041  1.00  0.00    -0.127 A  
HETATM   23  C   UNL     1      -9.946   6.149  70.337  1.00  0.00    -0.223 A  
ENDBRANCH   6  18
BRANCH   4  24
HETATM   24  C   UNL     1      -8.570   9.665  66.696  1.00  0.00    -0.130 A  
HETATM   25  C   UNL     1      -9.345   9.884  65.545  1.00  0.00    -0.280 A  
HETATM   26  C   UNL     1      -7.036   8.361  65.352  1.00  0.00    -0.081 A  
HETATM   27  C   UNL     1      -8.976   9.346  64.312  1.00  0.00    -0.204 A  
HETATM   28  C   UNL     1      -7.400   8.910  66.586  1.00  0.00    -0.085 A  
HETATM   29  C   UNL     1      -7.821   8.576  64.222  1.00  0.00    -0.142 A  
ENDBRANCH   4  24
TORSDOF 6
ENDMDL
MODEL       69
REMARK 921   NORMALIZED FREE ENERGY PREDICTED BY IDOCK:   -5.90 KCAL/MOL
REMARK 922        TOTAL FREE ENERGY PREDICTED BY IDOCK:   -9.20 KCAL/MOL
REMARK 923 INTER-LIGAND FREE ENERGY PREDICTED BY IDOCK:   -7.67 KCAL/MOL
REMARK 924 INTRA-LIGAND FREE ENERGY PREDICTED BY IDOCK:   -1.53 KCAL/MOL
REMARK 927      BINDING AFFINITY PREDICTED BY RF-SCORE:    0.00 PKD
ROOT
HETATM    1  O   UNL     1     -10.811   8.977  68.096  1.00  0.00    -0.151 OA 
HETATM    2  C   UNL     1      -9.971   8.718  68.947  1.00  0.00    -0.192 C  
HETATM    3  C   UNL     1      -8.536   9.157  68.852  1.00  0.00    -0.131 C  
HETATM    4  N   UNL     1     -10.148   8.126  70.220  1.00  0.00    -0.190 N  
HETATM    5  C   UNL     1      -7.878   8.420  69.973  1.00  0.00    -0.103 C  
HETATM    6  N   UNL     1      -8.883   8.073  70.891  1.00  0.00    -0.136 N  
HETATM    7  O   UNL     1      -6.668   8.234  70.001  1.00  0.00    -0.041 OA 
ENDROOT
BRANCH   3   8
HETATM    8  C   UNL     1      -8.438  10.667  69.126  1.00  0.00    -0.134 C  
BRANCH   8   9
HETATM    9  C   UNL     1      -8.705  11.548  67.896  1.00  0.00    -0.144 C  
BRANCH   9  10
HETATM   10  S   UNL     1     -10.272  12.467  68.140  1.00  0.00    -0.229 S  
HETATM   11  O   UNL     1      -9.904  13.912  68.318  1.00  0.00    -0.220 OA 
BRANCH  10  12
HETATM   12  C   UNL     1     -10.925  12.336  66.457  1.00  0.00    -0.279 A  
HETATM   13  C   UNL     1     -12.603  12.877  64.792  1.00  0.00    -0.493 A  
HETATM   14  C   UNL     1     -10.879  11.268  64.280  1.00  0.00    -0.398 A  
HETATM   15  C   UNL     1     -12.014  11.983  63.899  1.00  0.00    -0.542 A  
HETATM   16  C   UNL     1     -10.333  11.444  65.554  1.00  0.00    -0.317 A  
HETATM   17  C   UNL     1     -12.063  13.051  66.068  1.00  0.00    -0.493 A  
ENDBRANCH  10  12
ENDBRANCH   9  10
ENDBRANCH   8   9
ENDBRANCH   3   8
BRANCH   6  18
HETATM   18  C   UNL     1      -8.600   7.429  72.140  1.00  0.00    -0.113 A  
HETATM   19  C   UNL     1      -8.025   5.373  73.361  1.00  0.00    -0.111 A  
HETATM   20  C   UNL     1      -7.813   6.099  74.522  1.00  0.00    -0.098 A  
HETATM   21  C   UNL     1      -8.445   8.125  73.343  1.00  0.00    -0.303 A  
HETATM   22  C   UNL     1      -8.404   6.033  72.187  1.00  0.00    -0.110 A  
HETATM   23  C   UNL     1      -8.032   7.474  74.515  1.00  0.00    -0.223 A  
ENDBRANCH   6  18
BRANCH   4  24
HETATM   24  C   UNL     1     -11.430   8.311  70.809  1.00  0.00    -0.252 A  
HETATM   25  C   UNL     1     -12.249   7.184  70.983  1.00  0.00    -0.384 A  
HETATM   26  C   UNL     1     -13.251   9.694  71.604  1.00  0.00    -0.499 A  
HETATM   27  C   UNL     1     -13.556   7.306  71.456  1.00  0.00    -0.442 A  
HETATM   28  C   UNL     1     -11.937   9.569  71.140  1.00  0.00    -0.429 A  
HETATM   29  C   UNL     1     -14.056   8.568  71.759  1.00  0.00    -0.515 A  
ENDBRANCH   4  24
TORSDOF 6
ENDMDL
MODEL       70
REMARK 921   NORMALIZED FREE ENERGY PREDICTED BY IDOCK:   -5.89 KCAL/MOL
REMARK 922        TOTAL FREE ENERGY PREDICTED BY IDOCK:   -9.19 KCAL/MOL
REMARK 923 INTER-LIGAND FREE ENERGY PREDICTED BY IDOCK:   -7.62 KCAL/MOL
REMARK 924 INTRA-LIGAND FREE ENERGY PREDICTED BY IDOCK:   -1.57 KCAL/MOL
REMARK 927      BINDING AFFINITY PREDICTED BY RF-SCORE:    0.00 PKD
ROOT
HETATM    1  O   UNL     1      -7.972   8.767  65.540  1.00  0.00    -0.094 OA 
HETATM    2  C   UNL     1      -8.514   9.193  66.552  1.00  0.00    -0.123 C  
HETATM    3  C   UNL     1      -8.990  10.612  66.697  1.00  0.00    -0.162 C  
HETATM    4  N   UNL     1      -8.950   8.482  67.694  1.00  0.00    -0.135 N  
HETATM    5  C   UNL     1      -9.353  10.704  68.144  1.00  0.00    -0.151 C  
HETATM    6  N   UNL     1      -9.582   9.395  68.600  1.00  0.00    -0.146 N  
HETATM    7  O   UNL     1      -9.438  11.780  68.722  1.00  0.00    -0.142 OA 
ENDROOT
BRANCH   3   8
HETATM    8  C   UNL     1     -10.257  10.823  65.853  1.00  0.00    -0.319 C  
BRANCH   8   9
HETATM    9  C   UNL     1     -10.446  12.262  65.348  1.00  0.00    -0.269 C  
BRANCH   9  10
HETATM   10  S   UNL     1     -11.974  12.963  66.079  1.00  0.00    -0.431 S  
HETATM   11  O   UNL     1     -12.263  12.168  67.321  1.00  0.00    -0.496 OA 
BRANCH  10  12
HETATM   12  C   UNL     1     -11.296  14.538  66.658  1.00  0.00    -0.356 A  
HETATM   13  C   UNL     1     -11.093  16.255  68.358  1.00  0.00    -0.362 A  
HETATM   14  C   UNL     1     -10.117  16.602  66.178  1.00  0.00    -0.361 A  
HETATM   15  C   UNL     1     -10.378  17.058  67.470  1.00  0.00    -0.329 A  
HETATM   16  C   UNL     1     -10.572  15.345  65.772  1.00  0.00    -0.361 A  
HETATM   17  C   UNL     1     -11.553  15.001  67.953  1.00  0.00    -0.350 A  
ENDBRANCH  10  12
ENDBRANCH   9  10
ENDBRANCH   8   9
ENDBRANCH   3   8
BRANCH   6  18
HETATM   18  C   UNL     1     -10.039   9.108  69.928  1.00  0.00    -0.202 A  
HETATM   19  C   UNL     1     -11.918   8.812  71.487  1.00  0.00    -0.386 A  
HETATM   20  C   UNL     1     -11.058   8.337  72.464  1.00  0.00    -0.439 A  
HETATM   21  C   UNL     1      -9.187   8.690  70.957  1.00  0.00    -0.253 A  
HETATM   22  C   UNL     1     -11.413   9.182  70.236  1.00  0.00    -0.174 A  
HETATM   23  C   UNL     1      -9.692   8.285  72.201  1.00  0.00    -0.344 A  
ENDBRANCH   6  18
BRANCH   4  24
HETATM   24  C   UNL     1      -9.280   7.115  67.477  1.00  0.00    -0.125 A  
HETATM   25  C   UNL     1      -8.351   6.138  67.867  1.00  0.00    -0.117 A  
HETATM   26  C   UNL     1     -10.651   5.360  66.529  1.00  0.00    -0.353 A  
HETATM   27  C   UNL     1      -8.563   4.787  67.590  1.00  0.00    -0.103 A  
HETATM   28  C   UNL     1     -10.444   6.713  66.817  1.00  0.00    -0.298 A  
HETATM   29  C   UNL     1      -9.715   4.403  66.911  1.00  0.00    -0.233 A  
ENDBRANCH   4  24
TORSDOF 6
ENDMDL
MODEL       71
REMARK 921   NORMALIZED FREE ENERGY PREDICTED BY IDOCK:   -5.87 KCAL/MOL
REMARK 922        TOTAL FREE ENERGY PREDICTED BY IDOCK:   -9.17 KCAL/MOL
REMARK 923 INTER-LIGAND FREE ENERGY PREDICTED BY IDOCK:   -8.64 KCAL/MOL
REMARK 924 INTRA-LIGAND FREE ENERGY PREDICTED BY IDOCK:   -0.52 KCAL/MOL
REMARK 927      BINDING AFFINITY PREDICTED BY RF-SCORE:    0.00 PKD
ROOT
HETATM    1  O   UNL     1     -11.636  16.075  68.863  1.00  0.00    -0.372 OA 
HETATM    2  C   UNL     1     -10.987  15.084  68.556  1.00  0.00    -0.256 C  
HETATM    3  C   UNL     1      -9.636  15.153  67.899  1.00  0.00    -0.203 C  
HETATM    4  N   UNL     1     -11.238  13.726  68.862  1.00  0.00    -0.259 N  
HETATM    5  C   UNL     1      -9.366  13.733  67.522  1.00  0.00    -0.222 C  
HETATM    6  N   UNL     1     -10.171  12.924  68.342  1.00  0.00    -0.240 N  
HETATM    7  O   UNL     1      -8.547  13.437  66.661  1.00  0.00    -0.092 OA 
ENDROOT
BRANCH   3   8
HETATM    8  C   UNL     1      -8.583  15.603  68.925  1.00  0.00    -0.211 C  
BRANCH   8   9
HETATM    9  C   UNL     1      -7.296  16.165  68.302  1.00  0.00    -0.140 C  
BRANCH   9  10
HETATM   10  S   UNL     1      -7.009  17.861  68.937  1.00  0.00    -0.246 S  
HETATM   11  O   UNL     1      -5.774  18.375  68.252  1.00  0.00    -0.171 OA 
BRANCH  10  12
HETATM   12  C   UNL     1      -8.396  18.691  68.123  1.00  0.00    -0.307 A  
HETATM   13  C   UNL     1     -10.659  19.561  68.169  1.00  0.00    -0.404 A  
HETATM   14  C   UNL     1      -9.429  19.519  66.092  1.00  0.00    -0.401 A  
HETATM   15  C   UNL     1     -10.593  19.820  66.800  1.00  0.00    -0.586 A  
HETATM   16  C   UNL     1      -8.332  18.958  66.751  1.00  0.00    -0.289 A  
HETATM   17  C   UNL     1      -9.566  18.996  68.828  1.00  0.00    -0.451 A  
ENDBRANCH  10  12
ENDBRANCH   9  10
ENDBRANCH   8   9
ENDBRANCH   3   8
BRANCH   6  18
HETATM   18  C   UNL     1     -10.107  11.492  68.316  1.00  0.00    -0.199 A  
HETATM   19  C   UNL     1     -10.836   9.374  67.301  1.00  0.00    -0.165 A  
HETATM   20  C   UNL     1      -9.889   8.675  68.033  1.00  0.00    -0.201 A  
HETATM   21  C   UNL     1      -9.209  10.752  69.092  1.00  0.00    -0.131 A  
HETATM   22  C   UNL     1     -10.934  10.763  67.436  1.00  0.00    -0.361 A  
HETATM   23  C   UNL     1      -9.082   9.363  68.934  1.00  0.00    -0.140 A  
ENDBRANCH   6  18
BRANCH   4  24
HETATM   24  C   UNL     1     -11.994  13.494  70.045  1.00  0.00    -0.340 A  
HETATM   25  C   UNL     1     -12.231  12.165  70.431  1.00  0.00    -0.378 A  
HETATM   26  C   UNL     1     -13.410  14.222  71.868  1.00  0.00    -0.470 A  
HETATM   27  C   UNL     1     -13.051  11.863  71.519  1.00  0.00    -0.377 A  
HETATM   28  C   UNL     1     -12.579  14.524  70.784  1.00  0.00    -0.418 A  
HETATM   29  C   UNL     1     -13.646  12.898  72.232  1.00  0.00    -0.611 A  
ENDBRANCH   4  24
TORSDOF 6
ENDMDL
MODEL       72
REMARK 921   NORMALIZED FREE ENERGY PREDICTED BY IDOCK:   -5.87 KCAL/MOL
REMARK 922        TOTAL FREE ENERGY PREDICTED BY IDOCK:   -9.15 KCAL/MOL
REMARK 923 INTER-LIGAND FREE ENERGY PREDICTED BY IDOCK:   -7.55 KCAL/MOL
REMARK 924 INTRA-LIGAND FREE ENERGY PREDICTED BY IDOCK:   -1.60 KCAL/MOL
REMARK 927      BINDING AFFINITY PREDICTED BY RF-SCORE:    0.00 PKD
ROOT
HETATM    1  O   UNL     1     -10.908  15.389  69.994  1.00  0.00    -0.264 OA 
HETATM    2  C   UNL     1     -10.894  15.251  68.778  1.00  0.00    -0.254 C  
HETATM    3  C   UNL     1     -10.412  16.316  67.832  1.00  0.00    -0.295 C  
HETATM    4  N   UNL     1     -11.150  14.090  68.011  1.00  0.00    -0.255 N  
HETATM    5  C   UNL     1     -10.801  15.784  66.491  1.00  0.00    -0.230 C  
HETATM    6  N   UNL     1     -10.958  14.394  66.624  1.00  0.00    -0.312 N  
HETATM    7  O   UNL     1     -10.905  16.512  65.512  1.00  0.00    -0.298 OA 
ENDROOT
BRANCH   3   8
HETATM    8  C   UNL     1      -8.880  16.416  67.901  1.00  0.00    -0.184 C  
BRANCH   8   9
HETATM    9  C   UNL     1      -8.362  17.693  68.581  1.00  0.00    -0.267 C  
BRANCH   9  10
HETATM   10  S   UNL     1      -6.529  17.675  68.584  1.00  0.00    -0.213 S  
HETATM   11  O   UNL     1      -6.093  18.261  69.897  1.00  0.00    -0.233 OA 
BRANCH  10  12
HETATM   12  C   UNL     1      -6.279  15.889  68.742  1.00  0.00    -0.109 A  
HETATM   13  C   UNL     1      -5.932  13.706  67.744  1.00  0.00    -0.128 A  
HETATM   14  C   UNL     1      -6.301  13.895  70.122  1.00  0.00    -0.083 A  
HETATM   15  C   UNL     1      -6.066  13.107  68.996  1.00  0.00    -0.089 A  
HETATM   16  C   UNL     1      -6.406  15.283  69.998  1.00  0.00    -0.147 A  
HETATM   17  C   UNL     1      -6.041  15.092  67.616  1.00  0.00    -0.127 A  
ENDBRANCH  10  12
ENDBRANCH   9  10
ENDBRANCH   8   9
ENDBRANCH   3   8
BRANCH   6  18
HETATM   18  C   UNL     1     -11.246  13.538  65.510  1.00  0.00    -0.292 A  
HETATM   19  C   UNL     1     -12.904  12.287  64.195  1.00  0.00    -0.371 A  
HETATM   20  C   UNL     1     -11.960  12.028  63.215  1.00  0.00    -0.477 A  
HETATM   21  C   UNL     1     -10.298  13.203  64.538  1.00  0.00    -0.389 A  
HETATM   22  C   UNL     1     -12.551  13.040  65.320  1.00  0.00    -0.516 A  
HETATM   23  C   UNL     1     -10.656  12.478  63.391  1.00  0.00    -0.294 A  
ENDBRANCH   6  18
BRANCH   4  24
HETATM   24  C   UNL     1     -10.894  12.853  68.666  1.00  0.00    -0.258 A  
HETATM   25  C   UNL     1      -9.686  12.193  68.391  1.00  0.00    -0.193 A  
HETATM   26  C   UNL     1     -11.563  10.958  70.016  1.00  0.00    -0.424 A  
HETATM   27  C   UNL     1      -9.417  10.929  68.916  1.00  0.00    -0.182 A  
HETATM   28  C   UNL     1     -11.827  12.231  69.499  1.00  0.00    -0.380 A  
HETATM   29  C   UNL     1     -10.365  10.310  69.724  1.00  0.00    -0.287 A  
ENDBRANCH   4  24
TORSDOF 6
ENDMDL
MODEL       73
REMARK 921   NORMALIZED FREE ENERGY PREDICTED BY IDOCK:   -5.84 KCAL/MOL
REMARK 922        TOTAL FREE ENERGY PREDICTED BY IDOCK:   -9.12 KCAL/MOL
REMARK 923 INTER-LIGAND FREE ENERGY PREDICTED BY IDOCK:   -7.80 KCAL/MOL
REMARK 924 INTRA-LIGAND FREE ENERGY PREDICTED BY IDOCK:   -1.32 KCAL/MOL
REMARK 927      BINDING AFFINITY PREDICTED BY RF-SCORE:    0.00 PKD
ROOT
HETATM    1  O   UNL     1     -12.163  12.130  70.760  1.00  0.00    -0.377 OA 
HETATM    2  C   UNL     1     -11.976  12.425  69.586  1.00  0.00    -0.274 C  
HETATM    3  C   UNL     1     -12.138  13.820  69.048  1.00  0.00    -0.359 C  
HETATM    4  N   UNL     1     -11.442  11.630  68.544  1.00  0.00    -0.270 N  
HETATM    5  C   UNL     1     -12.036  13.630  67.570  1.00  0.00    -0.358 C  
HETATM    6  N   UNL     1     -11.358  12.419  67.350  1.00  0.00    -0.300 N  
HETATM    7  O   UNL     1     -12.470  14.459  66.781  1.00  0.00    -0.331 OA 
ENDROOT
BRANCH   3   8
HETATM    8  C   UNL     1     -10.967  14.695  69.519  1.00  0.00    -0.269 C  
BRANCH   8   9
HETATM    9  C   UNL     1     -11.306  16.190  69.640  1.00  0.00    -0.316 C  
BRANCH   9  10
HETATM   10  S   UNL     1     -10.427  17.116  68.325  1.00  0.00    -0.384 S  
HETATM   11  O   UNL     1     -10.033  18.439  68.919  1.00  0.00    -0.381 OA 
BRANCH  10  12
HETATM   12  C   UNL     1      -8.908  16.135  68.275  1.00  0.00    -0.188 A  
HETATM   13  C   UNL     1      -6.615  15.750  68.967  1.00  0.00    -0.134 A  
HETATM   14  C   UNL     1      -7.600  14.368  67.250  1.00  0.00    -0.135 A  
HETATM   15  C   UNL     1      -6.509  14.704  68.051  1.00  0.00    -0.161 A  
HETATM   16  C   UNL     1      -8.798  15.079  67.362  1.00  0.00    -0.202 A  
HETATM   17  C   UNL     1      -7.809  16.466  69.076  1.00  0.00    -0.231 A  
ENDBRANCH  10  12
ENDBRANCH   9  10
ENDBRANCH   8   9
ENDBRANCH   3   8
BRANCH   6  18
HETATM   18  C   UNL     1     -11.002  11.958  66.041  1.00  0.00    -0.309 A  
HETATM   19  C   UNL     1     -11.476  11.912  63.628  1.00  0.00    -0.551 A  
HETATM   20  C   UNL     1     -10.265  11.286  63.383  1.00  0.00    -0.454 A  
HETATM   21  C   UNL     1      -9.817  11.265  65.769  1.00  0.00    -0.273 A  
HETATM   22  C   UNL     1     -11.831  12.250  64.938  1.00  0.00    -0.417 A  
HETATM   23  C   UNL     1      -9.440  10.956  64.454  1.00  0.00    -0.287 A  
ENDBRANCH   6  18
BRANCH   4  24
HETATM   24  C   UNL     1     -10.562  10.590  68.954  1.00  0.00    -0.216 A  
HETATM   25  C   UNL     1      -9.212  10.910  69.169  1.00  0.00    -0.077 A  
HETATM   26  C   UNL     1     -10.024   8.265  69.357  1.00  0.00    -0.188 A  
HETATM   27  C   UNL     1      -8.274   9.921  69.470  1.00  0.00    -0.163 A  
HETATM   28  C   UNL     1     -10.965   9.258  69.067  1.00  0.00    -0.060 A  
HETATM   29  C   UNL     1      -8.685   8.595  69.555  1.00  0.00    -0.139 A  
ENDBRANCH   4  24
TORSDOF 6
ENDMDL
MODEL       74
REMARK 921   NORMALIZED FREE ENERGY PREDICTED BY IDOCK:   -5.81 KCAL/MOL
REMARK 922        TOTAL FREE ENERGY PREDICTED BY IDOCK:   -9.08 KCAL/MOL
REMARK 923 INTER-LIGAND FREE ENERGY PREDICTED BY IDOCK:   -7.57 KCAL/MOL
REMARK 924 INTRA-LIGAND FREE ENERGY PREDICTED BY IDOCK:   -1.51 KCAL/MOL
REMARK 927      BINDING AFFINITY PREDICTED BY RF-SCORE:    0.00 PKD
ROOT
HETATM    1  O   UNL     1      -8.023   9.102  67.697  1.00  0.00    -0.100 OA 
HETATM    2  C   UNL     1      -8.468   8.727  68.774  1.00  0.00    -0.129 C  
HETATM    3  C   UNL     1      -8.878   9.669  69.872  1.00  0.00    -0.240 C  
HETATM    4  N   UNL     1      -8.840   7.423  69.176  1.00  0.00    -0.136 N  
HETATM    5  C   UNL     1      -9.122   8.758  71.031  1.00  0.00    -0.218 C  
HETATM    6  N   UNL     1      -9.364   7.476  70.509  1.00  0.00    -0.161 N  
HETATM    7  O   UNL     1      -9.121   9.166  72.185  1.00  0.00    -0.312 OA 
ENDROOT
BRANCH   3   8
HETATM    8  C   UNL     1     -10.198  10.360  69.496  1.00  0.00    -0.258 C  
BRANCH   8   9
HETATM    9  C   UNL     1     -10.024  11.640  68.664  1.00  0.00    -0.184 C  
BRANCH   9  10
HETATM   10  S   UNL     1     -11.671  12.235  68.120  1.00  0.00    -0.320 S  
HETATM   11  O   UNL     1     -11.679  13.724  68.318  1.00  0.00    -0.318 OA 
BRANCH  10  12
HETATM   12  C   UNL     1     -11.472  11.983  66.339  1.00  0.00    -0.353 A  
HETATM   13  C   UNL     1     -10.300  10.991  64.461  1.00  0.00    -0.420 A  
HETATM   14  C   UNL     1     -12.045  12.612  64.068  1.00  0.00    -0.542 A  
HETATM   15  C   UNL     1     -11.071  11.743  63.576  1.00  0.00    -0.503 A  
HETATM   16  C   UNL     1     -12.247  12.731  65.445  1.00  0.00    -0.532 A  
HETATM   17  C   UNL     1     -10.497  11.112  65.838  1.00  0.00    -0.310 A  
ENDBRANCH  10  12
ENDBRANCH   9  10
ENDBRANCH   8   9
ENDBRANCH   3   8
BRANCH   6  18
HETATM   18  C   UNL     1      -9.726   6.361  71.334  1.00  0.00    -0.172 A  
HETATM   19  C   UNL     1     -11.402   5.249  72.748  1.00  0.00    -0.342 A  
HETATM   20  C   UNL     1     -10.625   4.104  72.804  1.00  0.00    -0.226 A  
HETATM   21  C   UNL     1      -8.932   5.216  71.466  1.00  0.00    -0.154 A  
HETATM   22  C   UNL     1     -10.960   6.355  72.015  1.00  0.00    -0.289 A  
HETATM   23  C   UNL     1      -9.386   4.091  72.170  1.00  0.00    -0.181 A  
ENDBRANCH   6  18
BRANCH   4  24
HETATM   24  C   UNL     1      -9.237   6.547  68.128  1.00  0.00    -0.112 A  
HETATM   25  C   UNL     1     -10.498   6.741  67.542  1.00  0.00    -0.302 A  
HETATM   26  C   UNL     1      -8.968   4.562  66.768  1.00  0.00    -0.115 A  
HETATM   27  C   UNL     1     -10.994   5.857  66.583  1.00  0.00    -0.228 A  
HETATM   28  C   UNL     1      -8.466   5.456  67.721  1.00  0.00    -0.105 A  
HETATM   29  C   UNL     1     -10.226   4.761  66.204  1.00  0.00    -0.313 A  
ENDBRANCH   4  24
TORSDOF 6
ENDMDL
MODEL       75
REMARK 921   NORMALIZED FREE ENERGY PREDICTED BY IDOCK:   -5.77 KCAL/MOL
REMARK 922        TOTAL FREE ENERGY PREDICTED BY IDOCK:   -9.03 KCAL/MOL
REMARK 923 INTER-LIGAND FREE ENERGY PREDICTED BY IDOCK:   -7.27 KCAL/MOL
REMARK 924 INTRA-LIGAND FREE ENERGY PREDICTED BY IDOCK:   -1.75 KCAL/MOL
REMARK 927      BINDING AFFINITY PREDICTED BY RF-SCORE:    0.00 PKD
ROOT
HETATM    1  O   UNL     1      -9.731   7.990  73.228  1.00  0.00    -0.286 OA 
HETATM    2  C   UNL     1      -9.545   8.590  72.177  1.00  0.00    -0.312 C  
HETATM    3  C   UNL     1      -8.219   8.626  71.470  1.00  0.00    -0.209 C  
HETATM    4  N   UNL     1     -10.491   9.218  71.333  1.00  0.00    -0.341 N  
HETATM    5  C   UNL     1      -8.431   9.645  70.397  1.00  0.00    -0.146 C  
HETATM    6  N   UNL     1      -9.816   9.741  70.181  1.00  0.00    -0.253 N  
HETATM    7  O   UNL     1      -7.494  10.211  69.849  1.00  0.00    -0.145 OA 
ENDROOT
BRANCH   3   8
HETATM    8  C   UNL     1      -7.944   7.264  70.813  1.00  0.00    -0.099 C  
BRANCH   8   9
HETATM    9  C   UNL     1      -6.572   7.159  70.130  1.00  0.00    -0.047 C  
BRANCH   9  10
HETATM   10  S   UNL     1      -6.608   5.792  68.910  1.00  0.00    -0.057 S  
HETATM   11  O   UNL     1      -6.646   4.512  69.696  1.00  0.00    -0.031 OA 
BRANCH  10  12
HETATM   12  C   UNL     1      -8.291   6.030  68.289  1.00  0.00    -0.113 A  
HETATM   13  C   UNL     1     -10.616   5.349  68.167  1.00  0.00    -0.146 A  
HETATM   14  C   UNL     1      -9.811   7.134  66.755  1.00  0.00    -0.272 A  
HETATM   15  C   UNL     1     -10.851   6.309  67.184  1.00  0.00    -0.460 A  
HETATM   16  C   UNL     1      -8.534   6.997  67.306  1.00  0.00    -0.121 A  
HETATM   17  C   UNL     1      -9.340   5.207  68.716  1.00  0.00    -0.166 A  
ENDBRANCH  10  12
ENDBRANCH   9  10
ENDBRANCH   8   9
ENDBRANCH   3   8
BRANCH   6  18
HETATM   18  C   UNL     1     -10.383  10.564  69.154  1.00  0.00    -0.220 A  
HETATM   19  C   UNL     1     -10.779  10.963  66.760  1.00  0.00    -0.309 A  
HETATM   20  C   UNL     1     -11.651  11.998  67.057  1.00  0.00    -0.387 A  
HETATM   21  C   UNL     1     -11.215  11.658  69.421  1.00  0.00    -0.311 A  
HETATM   22  C   UNL     1     -10.164  10.253  67.797  1.00  0.00    -0.225 A  
HETATM   23  C   UNL     1     -11.861  12.351  68.387  1.00  0.00    -0.361 A  
ENDBRANCH   6  18
BRANCH   4  24
HETATM   24  C   UNL     1     -11.812   8.692  71.393  1.00  0.00    -0.297 A  
HETATM   25  C   UNL     1     -12.818   9.488  71.963  1.00  0.00    -0.499 A  
HETATM   26  C   UNL     1     -13.421   6.896  71.186  1.00  0.00    -0.080 A  
HETATM   27  C   UNL     1     -14.110   8.996  72.150  1.00  0.00    -0.461 A  
HETATM   28  C   UNL     1     -12.128   7.393  70.989  1.00  0.00    -0.330 A  
HETATM   29  C   UNL     1     -14.406   7.693  71.765  1.00  0.00    -0.586 A  
ENDBRANCH   4  24
TORSDOF 6
ENDMDL
MODEL       76
REMARK 921   NORMALIZED FREE ENERGY PREDICTED BY IDOCK:   -5.74 KCAL/MOL
REMARK 922        TOTAL FREE ENERGY PREDICTED BY IDOCK:   -8.98 KCAL/MOL
REMARK 923 INTER-LIGAND FREE ENERGY PREDICTED BY IDOCK:   -8.27 KCAL/MOL
REMARK 924 INTRA-LIGAND FREE ENERGY PREDICTED BY IDOCK:   -0.71 KCAL/MOL
REMARK 927      BINDING AFFINITY PREDICTED BY RF-SCORE:    0.00 PKD
ROOT
HETATM    1  O   UNL     1     -13.216  10.508  71.767  1.00  0.00    -0.425 OA 
HETATM    2  C   UNL     1     -12.535  10.446  70.751  1.00  0.00    -0.368 C  
HETATM    3  C   UNL     1     -12.536  11.512  69.691  1.00  0.00    -0.089 C  
HETATM    4  N   UNL     1     -11.528   9.513  70.412  1.00  0.00    -0.255 N  
HETATM    5  C   UNL     1     -11.754  10.889  68.580  1.00  0.00    -0.237 C  
HETATM    6  N   UNL     1     -10.965   9.873  69.144  1.00  0.00    -0.220 N  
HETATM    7  O   UNL     1     -11.839  11.291  67.426  1.00  0.00    -0.590 OA 
ENDROOT
BRANCH   3   8
HETATM    8  C   UNL     1     -11.777  12.748  70.199  1.00  0.00    -0.239 C  
BRANCH   8   9
HETATM    9  C   UNL     1     -11.855  13.964  69.263  1.00  0.00    -0.348 C  
BRANCH   9  10
HETATM   10  S   UNL     1     -11.825  15.500  70.263  1.00  0.00    -0.385 S  
HETATM   11  O   UNL     1     -11.380  15.108  71.644  1.00  0.00    -0.381 OA 
BRANCH  10  12
HETATM   12  C   UNL     1     -10.389  16.292  69.497  1.00  0.00    -0.284 A  
HETATM   13  C   UNL     1      -8.043  16.276  68.883  1.00  0.00    -0.231 A  
HETATM   14  C   UNL     1      -9.358  18.273  68.554  1.00  0.00    -0.334 A  
HETATM   15  C   UNL     1      -8.138  17.602  68.463  1.00  0.00    -0.283 A  
HETATM   16  C   UNL     1     -10.481  17.621  69.067  1.00  0.00    -0.200 A  
HETATM   17  C   UNL     1      -9.163  15.623  69.402  1.00  0.00    -0.279 A  
ENDBRANCH  10  12
ENDBRANCH   9  10
ENDBRANCH   8   9
ENDBRANCH   3   8
BRANCH   6  18
HETATM   18  C   UNL     1     -10.016   9.117  68.380  1.00  0.00    -0.181 A  
HETATM   19  C   UNL     1      -9.577   7.319  66.761  1.00  0.00    -0.240 A  
HETATM   20  C   UNL     1      -8.251   7.707  66.661  1.00  0.00    -0.124 A  
HETATM   21  C   UNL     1      -8.657   9.441  68.311  1.00  0.00    -0.120 A  
HETATM   22  C   UNL     1     -10.446   8.023  67.602  1.00  0.00    -0.301 A  
HETATM   23  C   UNL     1      -7.789   8.762  67.443  1.00  0.00    -0.098 A  
ENDBRANCH   6  18
BRANCH   4  24
HETATM   24  C   UNL     1     -10.859   8.905  71.511  1.00  0.00    -0.326 A  
HETATM   25  C   UNL     1      -9.469   9.073  71.618  1.00  0.00    -0.293 A  
HETATM   26  C   UNL     1     -10.774   7.416  73.418  1.00  0.00    -0.407 A  
HETATM   27  C   UNL     1      -8.736   8.419  72.609  1.00  0.00    -0.267 A  
HETATM   28  C   UNL     1     -11.511   8.081  72.431  1.00  0.00    -0.449 A  
HETATM   29  C   UNL     1      -9.395   7.583  73.504  1.00  0.00    -0.316 A  
ENDBRANCH   4  24
TORSDOF 6
ENDMDL
MODEL       77
REMARK 921   NORMALIZED FREE ENERGY PREDICTED BY IDOCK:   -5.73 KCAL/MOL
REMARK 922        TOTAL FREE ENERGY PREDICTED BY IDOCK:   -8.97 KCAL/MOL
REMARK 923 INTER-LIGAND FREE ENERGY PREDICTED BY IDOCK:   -7.51 KCAL/MOL
REMARK 924 INTRA-LIGAND FREE ENERGY PREDICTED BY IDOCK:   -1.46 KCAL/MOL
REMARK 927      BINDING AFFINITY PREDICTED BY RF-SCORE:    0.00 PKD
ROOT
HETATM    1  O   UNL     1     -11.405   6.934  67.871  1.00  0.00    -0.083 OA 
HETATM    2  C   UNL     1     -10.432   6.934  68.614  1.00  0.00    -0.195 C  
HETATM    3  C   UNL     1      -9.016   7.036  68.120  1.00  0.00    -0.127 C  
HETATM    4  N   UNL     1     -10.393   6.999  70.026  1.00  0.00    -0.198 N  
HETATM    5  C   UNL     1      -8.206   6.763  69.346  1.00  0.00    -0.128 C  
HETATM    6  N   UNL     1      -9.026   7.029  70.455  1.00  0.00    -0.154 N  
HETATM    7  O   UNL     1      -7.037   6.404  69.281  1.00  0.00    -0.075 OA 
ENDROOT
BRANCH   3   8
HETATM    8  C   UNL     1      -8.734   8.472  67.649  1.00  0.00    -0.136 C  
BRANCH   8   9
HETATM    9  C   UNL     1      -9.160   8.755  66.200  1.00  0.00    -0.202 C  
BRANCH   9  10
HETATM   10  S   UNL     1      -8.500  10.385  65.684  1.00  0.00    -0.169 S  
HETATM   11  O   UNL     1      -7.791  10.169  64.377  1.00  0.00    -0.143 OA 
BRANCH  10  12
HETATM   12  C   UNL     1     -10.066  11.186  65.259  1.00  0.00    -0.276 A  
HETATM   13  C   UNL     1     -11.661  11.969  63.608  1.00  0.00    -0.587 A  
HETATM   14  C   UNL     1     -11.990  12.496  65.941  1.00  0.00    -0.472 A  
HETATM   15  C   UNL     1     -12.408  12.583  64.613  1.00  0.00    -0.547 A  
HETATM   16  C   UNL     1     -10.823  11.799  66.265  1.00  0.00    -0.325 A  
HETATM   17  C   UNL     1     -10.493  11.276  63.929  1.00  0.00    -0.452 A  
ENDBRANCH  10  12
ENDBRANCH   9  10
ENDBRANCH   8   9
ENDBRANCH   3   8
BRANCH   6  18
HETATM   18  C   UNL     1      -8.548   6.958  71.805  1.00  0.00    -0.119 A  
HETATM   19  C   UNL     1      -7.874   8.127  73.860  1.00  0.00    -0.259 A  
HETATM   20  C   UNL     1      -7.815   6.926  74.548  1.00  0.00    -0.141 A  
HETATM   21  C   UNL     1      -8.413   5.755  72.507  1.00  0.00    -0.117 A  
HETATM   22  C   UNL     1      -8.245   8.140  72.511  1.00  0.00    -0.215 A  
HETATM   23  C   UNL     1      -8.076   5.740  73.868  1.00  0.00    -0.109 A  
ENDBRANCH   6  18
BRANCH   4  24
HETATM   24  C   UNL     1     -11.504   7.637  70.643  1.00  0.00    -0.258 A  
HETATM   25  C   UNL     1     -11.505   9.039  70.722  1.00  0.00    -0.331 A  
HETATM   26  C   UNL     1     -13.548   7.615  71.941  1.00  0.00    -0.321 A  
HETATM   27  C   UNL     1     -12.510   9.725  71.405  1.00  0.00    -0.482 A  
HETATM   28  C   UNL     1     -12.546   6.929  71.247  1.00  0.00    -0.394 A  
HETATM   29  C   UNL     1     -13.528   9.005  72.022  1.00  0.00    -0.498 A  
ENDBRANCH   4  24
TORSDOF 6
ENDMDL
MODEL       78
REMARK 921   NORMALIZED FREE ENERGY PREDICTED BY IDOCK:   -5.72 KCAL/MOL
REMARK 922        TOTAL FREE ENERGY PREDICTED BY IDOCK:   -8.96 KCAL/MOL
REMARK 923 INTER-LIGAND FREE ENERGY PREDICTED BY IDOCK:   -7.46 KCAL/MOL
REMARK 924 INTRA-LIGAND FREE ENERGY PREDICTED BY IDOCK:   -1.50 KCAL/MOL
REMARK 927      BINDING AFFINITY PREDICTED BY RF-SCORE:    0.00 PKD
ROOT
HETATM    1  O   UNL     1      -9.074  14.666  65.976  1.00  0.00    -0.182 OA 
HETATM    2  C   UNL     1      -8.992  13.581  66.536  1.00  0.00    -0.044 C  
HETATM    3  C   UNL     1      -8.575  13.422  67.972  1.00  0.00    -0.174 C  
HETATM    4  N   UNL     1      -9.394  12.307  66.069  1.00  0.00    -0.190 N  
HETATM    5  C   UNL     1      -8.404  11.944  68.116  1.00  0.00    -0.161 C  
HETATM    6  N   UNL     1      -9.154  11.336  67.096  1.00  0.00    -0.156 N  
HETATM    7  O   UNL     1      -7.734  11.457  69.018  1.00  0.00    -0.125 OA 
ENDROOT
BRANCH   3   8
HETATM    8  C   UNL     1      -9.713  13.883  68.896  1.00  0.00    -0.013 C  
BRANCH   8   9
HETATM    9  C   UNL     1      -9.526  15.297  69.468  1.00  0.00    -0.201 C  
BRANCH   9  10
HETATM   10  S   UNL     1     -11.104  16.218  69.331  1.00  0.00    -0.311 S  
HETATM   11  O   UNL     1     -11.457  16.680  70.717  1.00  0.00    -0.190 OA 
BRANCH  10  12
HETATM   12  C   UNL     1     -10.485  17.686  68.473  1.00  0.00    -0.337 A  
HETATM   13  C   UNL     1      -9.637  19.958  68.514  1.00  0.00    -0.377 A  
HETATM   14  C   UNL     1     -10.140  18.901  66.403  1.00  0.00    -0.457 A  
HETATM   15  C   UNL     1      -9.693  20.010  67.122  1.00  0.00    -0.545 A  
HETATM   16  C   UNL     1     -10.533  17.741  67.075  1.00  0.00    -0.324 A  
HETATM   17  C   UNL     1     -10.035  18.802  69.188  1.00  0.00    -0.257 A  
ENDBRANCH  10  12
ENDBRANCH   9  10
ENDBRANCH   8   9
ENDBRANCH   3   8
BRANCH   6  18
HETATM   18  C   UNL     1      -9.294   9.914  66.982  1.00  0.00    -0.147 A  
HETATM   19  C   UNL     1     -10.641   7.896  67.380  1.00  0.00    -0.342 A  
HETATM   20  C   UNL     1      -9.771   7.140  66.611  1.00  0.00    -0.233 A  
HETATM   21  C   UNL     1      -8.396   9.112  66.268  1.00  0.00    -0.121 A  
HETATM   22  C   UNL     1     -10.407   9.264  67.552  1.00  0.00    -0.323 A  
HETATM   23  C   UNL     1      -8.644   7.746  66.063  1.00  0.00    -0.166 A  
ENDBRANCH   6  18
BRANCH   4  24
HETATM   24  C   UNL     1     -10.446  12.308  65.112  1.00  0.00    -0.288 A  
HETATM   25  C   UNL     1     -11.707  12.780  65.512  1.00  0.00    -0.436 A  
HETATM   26  C   UNL     1     -11.408  11.701  62.975  1.00  0.00     0.035 A  
HETATM   27  C   UNL     1     -12.809  12.711  64.658  1.00  0.00    -0.361 A  
HETATM   28  C   UNL     1     -10.301  11.780  63.827  1.00  0.00    -0.451 A  
HETATM   29  C   UNL     1     -12.655  12.162  63.389  1.00  0.00    -0.584 A  
ENDBRANCH   4  24
TORSDOF 6
ENDMDL
MODEL       79
REMARK 921   NORMALIZED FREE ENERGY PREDICTED BY IDOCK:   -5.69 KCAL/MOL
REMARK 922        TOTAL FREE ENERGY PREDICTED BY IDOCK:   -8.92 KCAL/MOL
REMARK 923 INTER-LIGAND FREE ENERGY PREDICTED BY IDOCK:   -6.99 KCAL/MOL
REMARK 924 INTRA-LIGAND FREE ENERGY PREDICTED BY IDOCK:   -1.93 KCAL/MOL
REMARK 927      BINDING AFFINITY PREDICTED BY RF-SCORE:    0.00 PKD
ROOT
HETATM    1  O   UNL     1      -9.352   7.879  72.716  1.00  0.00    -0.185 OA 
HETATM    2  C   UNL     1      -9.311   8.499  71.662  1.00  0.00    -0.241 C  
HETATM    3  C   UNL     1      -8.151   8.429  70.707  1.00  0.00    -0.114 C  
HETATM    4  N   UNL     1     -10.329   9.254  71.034  1.00  0.00    -0.295 N  
HETATM    5  C   UNL     1      -8.456   9.506  69.718  1.00  0.00    -0.177 C  
HETATM    6  N   UNL     1      -9.838   9.753  69.783  1.00  0.00    -0.221 N  
HETATM    7  O   UNL     1      -7.587   9.996  69.008  1.00  0.00    -0.079 OA 
ENDROOT
BRANCH   3   8
HETATM    8  C   UNL     1      -8.158   7.073  69.983  1.00  0.00    -0.128 C  
BRANCH   8   9
HETATM    9  C   UNL     1      -7.227   6.021  70.606  1.00  0.00    -0.080 C  
BRANCH   9  10
HETATM   10  S   UNL     1      -8.048   4.383  70.554  1.00  0.00    -0.067 S  
HETATM   11  O   UNL     1      -6.982   3.357  70.818  1.00  0.00    -0.032 OA 
BRANCH  10  12
HETATM   12  C   UNL     1      -8.994   4.507  72.092  1.00  0.00    -0.125 A  
HETATM   13  C   UNL     1      -9.114   4.428  74.513  1.00  0.00    -0.111 A  
HETATM   14  C   UNL     1     -11.139   4.627  73.215  1.00  0.00    -0.403 A  
HETATM   15  C   UNL     1     -10.503   4.531  74.453  1.00  0.00    -0.318 A  
HETATM   16  C   UNL     1     -10.389   4.618  72.037  1.00  0.00    -0.234 A  
HETATM   17  C   UNL     1      -8.361   4.413  73.336  1.00  0.00    -0.098 A  
ENDBRANCH  10  12
ENDBRANCH   9  10
ENDBRANCH   8   9
ENDBRANCH   3   8
BRANCH   6  18
HETATM   18  C   UNL     1     -10.502  10.671  68.905  1.00  0.00    -0.210 A  
HETATM   19  C   UNL     1     -11.456  12.906  68.533  1.00  0.00    -0.345 A  
HETATM   20  C   UNL     1     -11.614  12.636  67.184  1.00  0.00    -0.434 A  
HETATM   21  C   UNL     1     -10.737  10.402  67.552  1.00  0.00    -0.339 A  
HETATM   22  C   UNL     1     -10.899  11.939  69.376  1.00  0.00    -0.089 A  
HETATM   23  C   UNL     1     -11.262  11.381  66.695  1.00  0.00    -0.298 A  
ENDBRANCH   6  18
BRANCH   4  24
HETATM   24  C   UNL     1     -11.661   8.864  71.343  1.00  0.00    -0.315 A  
HETATM   25  C   UNL     1     -12.045   7.540  71.078  1.00  0.00    -0.305 A  
HETATM   26  C   UNL     1     -13.946   9.343  71.986  1.00  0.00    -0.334 A  
HETATM   27  C   UNL     1     -13.363   7.119  71.258  1.00  0.00    -0.321 A  
HETATM   28  C   UNL     1     -12.622   9.762  71.816  1.00  0.00    -0.506 A  
HETATM   29  C   UNL     1     -14.314   8.029  71.706  1.00  0.00    -0.583 A  
ENDBRANCH   4  24
TORSDOF 6
ENDMDL
MODEL       80
REMARK 921   NORMALIZED FREE ENERGY PREDICTED BY IDOCK:   -5.66 KCAL/MOL
REMARK 922        TOTAL FREE ENERGY PREDICTED BY IDOCK:   -8.88 KCAL/MOL
REMARK 923 INTER-LIGAND FREE ENERGY PREDICTED BY IDOCK:   -7.12 KCAL/MOL
REMARK 924 INTRA-LIGAND FREE ENERGY PREDICTED BY IDOCK:   -1.76 KCAL/MOL
REMARK 927      BINDING AFFINITY PREDICTED BY RF-SCORE:    0.00 PKD
ROOT
HETATM    1  O   UNL     1      -9.715  12.271  68.260  1.00  0.00    -0.214 OA 
HETATM    2  C   UNL     1      -9.277  13.412  68.193  1.00  0.00    -0.215 C  
HETATM    3  C   UNL     1      -7.922  13.808  68.709  1.00  0.00    -0.041 C  
HETATM    4  N   UNL     1      -9.817  14.532  67.519  1.00  0.00    -0.221 N  
HETATM    5  C   UNL     1      -7.943  15.299  68.615  1.00  0.00    -0.149 C  
HETATM    6  N   UNL     1      -8.925  15.644  67.671  1.00  0.00    -0.179 N  
HETATM    7  O   UNL     1      -7.177  15.998  69.266  1.00  0.00    -0.205 OA 
ENDROOT
BRANCH   3   8
HETATM    8  C   UNL     1      -6.832  13.268  67.769  1.00  0.00    -0.154 C  
BRANCH   8   9
HETATM    9  C   UNL     1      -6.399  11.824  68.072  1.00  0.00    -0.053 C  
BRANCH   9  10
HETATM   10  S   UNL     1      -6.473  10.836  66.531  1.00  0.00    -0.129 S  
HETATM   11  O   UNL     1      -5.368   9.821  66.615  1.00  0.00    -0.043 OA 
BRANCH  10  12
HETATM   12  C   UNL     1      -7.998   9.922  66.871  1.00  0.00    -0.109 A  
HETATM   13  C   UNL     1     -10.227   9.215  66.227  1.00  0.00    -0.257 A  
HETATM   14  C   UNL     1      -9.397   8.711  68.438  1.00  0.00    -0.141 A  
HETATM   15  C   UNL     1     -10.416   8.647  67.487  1.00  0.00    -0.335 A  
HETATM   16  C   UNL     1      -8.190   9.345  68.131  1.00  0.00    -0.118 A  
HETATM   17  C   UNL     1      -9.023   9.853  65.921  1.00  0.00    -0.183 A  
ENDBRANCH  10  12
ENDBRANCH   9  10
ENDBRANCH   8   9
ENDBRANCH   3   8
BRANCH   6  18
HETATM   18  C   UNL     1      -9.161  16.997  67.260  1.00  0.00    -0.221 A  
HETATM   19  C   UNL     1     -10.448  19.077  67.516  1.00  0.00    -0.537 A  
HETATM   20  C   UNL     1      -9.570  19.746  66.679  1.00  0.00    -0.499 A  
HETATM   21  C   UNL     1      -8.332  17.681  66.365  1.00  0.00    -0.288 A  
HETATM   22  C   UNL     1     -10.238  17.725  67.808  1.00  0.00    -0.362 A  
HETATM   23  C   UNL     1      -8.518  19.045  66.097  1.00  0.00    -0.216 A  
ENDBRANCH   6  18
BRANCH   4  24
HETATM   24  C   UNL     1     -10.642  14.236  66.398  1.00  0.00    -0.286 A  
HETATM   25  C   UNL     1     -12.035  14.281  66.568  1.00  0.00    -0.448 A  
HETATM   26  C   UNL     1     -10.994  13.429  64.143  1.00  0.00    -0.329 A  
HETATM   27  C   UNL     1     -12.901  13.901  65.542  1.00  0.00    -0.471 A  
HETATM   28  C   UNL     1     -10.126  13.821  65.168  1.00  0.00    -0.314 A  
HETATM   29  C   UNL     1     -12.374  13.467  64.331  1.00  0.00    -0.399 A  
ENDBRANCH   4  24
TORSDOF 6
ENDMDL
MODEL       81
REMARK 921   NORMALIZED FREE ENERGY PREDICTED BY IDOCK:   -5.65 KCAL/MOL
REMARK 922        TOTAL FREE ENERGY PREDICTED BY IDOCK:   -8.87 KCAL/MOL
REMARK 923 INTER-LIGAND FREE ENERGY PREDICTED BY IDOCK:   -8.26 KCAL/MOL
REMARK 924 INTRA-LIGAND FREE ENERGY PREDICTED BY IDOCK:   -0.61 KCAL/MOL
REMARK 927      BINDING AFFINITY PREDICTED BY RF-SCORE:    0.00 PKD
ROOT
HETATM    1  O   UNL     1      -8.746  13.090  68.835  1.00  0.00     0.101 OA 
HETATM    2  C   UNL     1      -8.856  14.154  68.240  1.00  0.00    -0.187 C  
HETATM    3  C   UNL     1      -8.429  14.349  66.811  1.00  0.00    -0.076 C  
HETATM    4  N   UNL     1      -9.511  15.339  68.650  1.00  0.00    -0.196 N  
HETATM    5  C   UNL     1      -8.541  15.827  66.619  1.00  0.00    -0.287 C  
HETATM    6  N   UNL     1      -9.429  16.308  67.597  1.00  0.00    -0.220 N  
HETATM    7  O   UNL     1      -7.948  16.408  65.720  1.00  0.00     0.014 OA 
ENDROOT
BRANCH   3   8
HETATM    8  C   UNL     1      -9.424  13.649  65.873  1.00  0.00    -0.057 C  
BRANCH   8   9
HETATM    9  C   UNL     1     -10.568  14.551  65.383  1.00  0.00    -0.370 C  
BRANCH   9  10
HETATM   10  S   UNL     1     -12.120  13.577  65.320  1.00  0.00    -0.440 S  
HETATM   11  O   UNL     1     -12.468  13.411  63.868  1.00  0.00    -0.658 OA 
BRANCH  10  12
HETATM   12  C   UNL     1     -11.456  11.978  65.847  1.00  0.00    -0.333 A  
HETATM   13  C   UNL     1     -11.005  10.344  67.581  1.00  0.00    -0.374 A  
HETATM   14  C   UNL     1     -10.128  10.009  65.357  1.00  0.00    -0.317 A  
HETATM   15  C   UNL     1     -10.269   9.580  66.677  1.00  0.00    -0.310 A  
HETATM   16  C   UNL     1     -10.721  11.204  64.941  1.00  0.00    -0.318 A  
HETATM   17  C   UNL     1     -11.594  11.541  67.169  1.00  0.00    -0.249 A  
ENDBRANCH  10  12
ENDBRANCH   9  10
ENDBRANCH   8   9
ENDBRANCH   3   8
BRANCH   6  18
HETATM   18  C   UNL     1      -9.843  17.678  67.657  1.00  0.00    -0.294 A  
HETATM   19  C   UNL     1      -9.852  19.820  68.865  1.00  0.00    -0.454 A  
HETATM   20  C   UNL     1     -10.421  20.456  67.774  1.00  0.00    -0.235 A  
HETATM   21  C   UNL     1     -10.480  18.333  66.597  1.00  0.00    -0.382 A  
HETATM   22  C   UNL     1      -9.560  18.453  68.800  1.00  0.00    -0.345 A  
HETATM   23  C   UNL     1     -10.743  19.710  66.644  1.00  0.00    -0.552 A  
ENDBRANCH   6  18
BRANCH   4  24
HETATM   24  C   UNL     1     -10.576  15.162  69.577  1.00  0.00    -0.270 A  
HETATM   25  C   UNL     1     -11.657  14.350  69.200  1.00  0.00    -0.344 A  
HETATM   26  C   UNL     1     -11.761  15.706  71.616  1.00  0.00    -0.521 A  
HETATM   27  C   UNL     1     -12.781  14.217  70.016  1.00  0.00    -0.167 A  
HETATM   28  C   UNL     1     -10.630  15.829  70.803  1.00  0.00     0.002 A  
HETATM   29  C   UNL     1     -12.832  14.906  71.223  1.00  0.00    -0.419 A  
ENDBRANCH   4  24
TORSDOF 6
ENDMDL
MODEL       82
REMARK 921   NORMALIZED FREE ENERGY PREDICTED BY IDOCK:   -5.64 KCAL/MOL
REMARK 922        TOTAL FREE ENERGY PREDICTED BY IDOCK:   -8.85 KCAL/MOL
REMARK 923 INTER-LIGAND FREE ENERGY PREDICTED BY IDOCK:   -7.34 KCAL/MOL
REMARK 924 INTRA-LIGAND FREE ENERGY PREDICTED BY IDOCK:   -1.51 KCAL/MOL
REMARK 927      BINDING AFFINITY PREDICTED BY RF-SCORE:    0.00 PKD
ROOT
HETATM    1  O   UNL     1     -11.619  10.969  66.842  1.00  0.00    -0.378 OA 
HETATM    2  C   UNL     1     -10.434  10.948  67.148  1.00  0.00    -0.237 C  
HETATM    3  C   UNL     1      -9.359  11.612  66.333  1.00  0.00    -0.224 C  
HETATM    4  N   UNL     1      -9.831  10.474  68.336  1.00  0.00    -0.156 N  
HETATM    5  C   UNL     1      -8.098  11.120  66.965  1.00  0.00    -0.148 C  
HETATM    6  N   UNL     1      -8.418  10.707  68.269  1.00  0.00    -0.122 N  
HETATM    7  O   UNL     1      -7.026  11.146  66.373  1.00  0.00    -0.135 OA 
ENDROOT
BRANCH   3   8
HETATM    8  C   UNL     1      -9.442  13.136  66.511  1.00  0.00    -0.246 C  
BRANCH   8   9
HETATM    9  C   UNL     1     -10.292  13.849  65.448  1.00  0.00    -0.348 C  
BRANCH   9  10
HETATM   10  S   UNL     1     -10.088  15.662  65.627  1.00  0.00    -0.368 S  
HETATM   11  O   UNL     1     -11.134  16.303  64.759  1.00  0.00    -0.561 OA 
BRANCH  10  12
HETATM   12  C   UNL     1     -10.692  15.835  67.324  1.00  0.00    -0.313 A  
HETATM   13  C   UNL     1     -10.502  16.778  69.550  1.00  0.00    -0.263 A  
HETATM   14  C   UNL     1     -12.156  15.077  69.103  1.00  0.00    -0.261 A  
HETATM   15  C   UNL     1     -11.539  15.956  69.992  1.00  0.00    -0.346 A  
HETATM   16  C   UNL     1     -11.737  15.017  67.771  1.00  0.00    -0.294 A  
HETATM   17  C   UNL     1     -10.078  16.715  68.222  1.00  0.00    -0.268 A  
ENDBRANCH  10  12
ENDBRANCH   9  10
ENDBRANCH   8   9
ENDBRANCH   3   8
BRANCH   6  18
HETATM   18  C   UNL     1      -7.428  10.257  69.203  1.00  0.00    -0.105 A  
HETATM   19  C   UNL     1      -5.741  10.805  70.905  1.00  0.00    -0.066 A  
HETATM   20  C   UNL     1      -5.608   9.466  71.233  1.00  0.00    -0.064 A  
HETATM   21  C   UNL     1      -7.222   8.907  69.508  1.00  0.00    -0.063 A  
HETATM   22  C   UNL     1      -6.646  11.192  69.911  1.00  0.00    -0.129 A  
HETATM   23  C   UNL     1      -6.342   8.516  70.528  1.00  0.00    -0.036 A  
ENDBRANCH   6  18
BRANCH   4  24
HETATM   24  C   UNL     1     -10.654  10.499  69.496  1.00  0.00    -0.246 A  
HETATM   25  C   UNL     1     -10.768   9.324  70.256  1.00  0.00    -0.284 A  
HETATM   26  C   UNL     1     -12.300  11.532  70.940  1.00  0.00    -0.460 A  
HETATM   27  C   UNL     1     -11.639   9.248  71.343  1.00  0.00    -0.437 A  
HETATM   28  C   UNL     1     -11.418  11.612  69.857  1.00  0.00    -0.308 A  
HETATM   29  C   UNL     1     -12.411  10.356  71.677  1.00  0.00    -0.471 A  
ENDBRANCH   4  24
TORSDOF 6
ENDMDL
MODEL       83
REMARK 921   NORMALIZED FREE ENERGY PREDICTED BY IDOCK:   -5.63 KCAL/MOL
REMARK 922        TOTAL FREE ENERGY PREDICTED BY IDOCK:   -8.83 KCAL/MOL
REMARK 923 INTER-LIGAND FREE ENERGY PREDICTED BY IDOCK:   -8.43 KCAL/MOL
REMARK 924 INTRA-LIGAND FREE ENERGY PREDICTED BY IDOCK:   -0.40 KCAL/MOL
REMARK 927      BINDING AFFINITY PREDICTED BY RF-SCORE:    0.00 PKD
ROOT
HETATM    1  O   UNL     1     -12.261  13.525  67.378  1.00  0.00    -0.339 OA 
HETATM    2  C   UNL     1     -11.872  12.486  67.896  1.00  0.00    -0.323 C  
HETATM    3  C   UNL     1     -10.951  11.516  67.210  1.00  0.00    -0.323 C  
HETATM    4  N   UNL     1     -12.040  12.040  69.227  1.00  0.00    -0.239 N  
HETATM    5  C   UNL     1     -10.958  10.334  68.123  1.00  0.00    -0.274 C  
HETATM    6  N   UNL     1     -11.362  10.787  69.390  1.00  0.00    -0.261 N  
HETATM    7  O   UNL     1     -10.624   9.220  67.740  1.00  0.00    -0.254 OA 
ENDROOT
BRANCH   3   8
HETATM    8  C   UNL     1      -9.529  12.098  67.162  1.00  0.00    -0.190 C  
BRANCH   8   9
HETATM    9  C   UNL     1      -9.427  13.553  67.648  1.00  0.00    -0.222 C  
BRANCH   9  10
HETATM   10  S   UNL     1      -7.755  13.843  68.339  1.00  0.00    -0.146 S  
HETATM   11  O   UNL     1      -6.771  13.394  67.296  1.00  0.00    -0.196 OA 
BRANCH  10  12
HETATM   12  C   UNL     1      -7.745  15.651  68.269  1.00  0.00    -0.130 A  
HETATM   13  C   UNL     1      -8.880  17.782  68.503  1.00  0.00    -0.284 A  
HETATM   14  C   UNL     1      -6.636  17.706  67.615  1.00  0.00    -0.185 A  
HETATM   15  C   UNL     1      -7.763  18.439  67.987  1.00  0.00    -0.273 A  
HETATM   16  C   UNL     1      -6.625  16.316  67.757  1.00  0.00    -0.162 A  
HETATM   17  C   UNL     1      -8.873  16.393  68.641  1.00  0.00    -0.234 A  
ENDBRANCH  10  12
ENDBRANCH   9  10
ENDBRANCH   8   9
ENDBRANCH   3   8
BRANCH   6  18
HETATM   18  C   UNL     1     -11.399   9.934  70.541  1.00  0.00    -0.327 A  
HETATM   19  C   UNL     1     -12.726   8.622  72.142  1.00  0.00    -0.447 A  
HETATM   20  C   UNL     1     -11.572   8.068  72.674  1.00  0.00    -0.448 A  
HETATM   21  C   UNL     1     -10.250   9.411  71.143  1.00  0.00    -0.361 A  
HETATM   22  C   UNL     1     -12.637   9.533  71.085  1.00  0.00    -0.383 A  
HETATM   23  C   UNL     1     -10.335   8.470  72.180  1.00  0.00    -0.409 A  
ENDBRANCH   6  18
BRANCH   4  24
HETATM   24  C   UNL     1     -12.206  13.063  70.202  1.00  0.00    -0.272 A  
HETATM   25  C   UNL     1     -11.390  14.202  70.114  1.00  0.00    -0.147 A  
HETATM   26  C   UNL     1     -13.107  13.931  72.274  1.00  0.00    -0.512 A  
HETATM   27  C   UNL     1     -11.426  15.195  71.094  1.00  0.00    -0.387 A  
HETATM   28  C   UNL     1     -13.079  12.942  71.285  1.00  0.00    -0.253 A  
HETATM   29  C   UNL     1     -12.283  15.050  72.180  1.00  0.00    -0.446 A  
ENDBRANCH   4  24
TORSDOF 6
ENDMDL
MODEL       84
REMARK 921   NORMALIZED FREE ENERGY PREDICTED BY IDOCK:   -5.55 KCAL/MOL
REMARK 922        TOTAL FREE ENERGY PREDICTED BY IDOCK:   -8.73 KCAL/MOL
REMARK 923 INTER-LIGAND FREE ENERGY PREDICTED BY IDOCK:   -7.45 KCAL/MOL
REMARK 924 INTRA-LIGAND FREE ENERGY PREDICTED BY IDOCK:   -1.28 KCAL/MOL
REMARK 927      BINDING AFFINITY PREDICTED BY RF-SCORE:    0.00 PKD
ROOT
HETATM    1  O   UNL     1      -6.202   7.522  68.869  1.00  0.00    -0.033 OA 
HETATM    2  C   UNL     1      -7.108   8.338  68.976  1.00  0.00    -0.065 C  
HETATM    3  C   UNL     1      -7.083   9.690  68.319  1.00  0.00    -0.078 C  
HETATM    4  N   UNL     1      -8.385   8.177  69.562  1.00  0.00    -0.121 N  
HETATM    5  C   UNL     1      -8.261  10.385  68.921  1.00  0.00    -0.132 C  
HETATM    6  N   UNL     1      -9.130   9.391  69.403  1.00  0.00    -0.152 N  
HETATM    7  O   UNL     1      -8.365  11.604  68.915  1.00  0.00    -0.087 OA 
ENDROOT
BRANCH   3   8
HETATM    8  C   UNL     1      -7.318   9.535  66.808  1.00  0.00    -0.090 C  
BRANCH   8   9
HETATM    9  C   UNL     1      -8.227  10.614  66.198  1.00  0.00    -0.156 C  
BRANCH   9  10
HETATM   10  S   UNL     1      -9.609   9.805  65.306  1.00  0.00    -0.280 S  
HETATM   11  O   UNL     1     -10.344   8.969  66.316  1.00  0.00    -0.247 OA 
BRANCH  10  12
HETATM   12  C   UNL     1     -10.645  11.264  65.037  1.00  0.00    -0.289 A  
HETATM   13  C   UNL     1     -11.991  13.090  65.896  1.00  0.00    -0.491 A  
HETATM   14  C   UNL     1     -11.911  12.671  63.521  1.00  0.00    -0.619 A  
HETATM   15  C   UNL     1     -12.387  13.415  64.600  1.00  0.00    -0.433 A  
HETATM   16  C   UNL     1     -11.041  11.599  63.736  1.00  0.00    -0.499 A  
HETATM   17  C   UNL     1     -11.126  12.016  66.115  1.00  0.00    -0.367 A  
ENDBRANCH  10  12
ENDBRANCH   9  10
ENDBRANCH   8   9
ENDBRANCH   3   8
BRANCH   6  18
HETATM   18  C   UNL     1     -10.411   9.692  69.970  1.00  0.00    -0.261 A  
HETATM   19  C   UNL     1     -11.956   9.532  71.877  1.00  0.00    -0.381 A  
HETATM   20  C   UNL     1     -12.828  10.421  71.269  1.00  0.00    -0.533 A  
HETATM   21  C   UNL     1     -11.343  10.533  69.352  1.00  0.00    -0.331 A  
HETATM   22  C   UNL     1     -10.761   9.183  71.237  1.00  0.00    -0.401 A  
HETATM   23  C   UNL     1     -12.525  10.914  70.004  1.00  0.00    -0.332 A  
ENDBRANCH   6  18
BRANCH   4  24
HETATM   24  C   UNL     1      -8.893   6.848  69.570  1.00  0.00    -0.133 A  
HETATM   25  C   UNL     1      -8.780   6.100  70.752  1.00  0.00    -0.136 A  
HETATM   26  C   UNL     1      -9.791   4.884  68.474  1.00  0.00    -0.208 A  
HETATM   27  C   UNL     1      -9.161   4.758  70.799  1.00  0.00    -0.195 A  
HETATM   28  C   UNL     1      -9.418   6.232  68.431  1.00  0.00    -0.118 A  
HETATM   29  C   UNL     1      -9.660   4.151  69.651  1.00  0.00    -0.277 A  
ENDBRANCH   4  24
TORSDOF 6
ENDMDL
MODEL       85
REMARK 921   NORMALIZED FREE ENERGY PREDICTED BY IDOCK:   -5.54 KCAL/MOL
REMARK 922        TOTAL FREE ENERGY PREDICTED BY IDOCK:   -8.72 KCAL/MOL
REMARK 923 INTER-LIGAND FREE ENERGY PREDICTED BY IDOCK:   -6.60 KCAL/MOL
REMARK 924 INTRA-LIGAND FREE ENERGY PREDICTED BY IDOCK:   -2.12 KCAL/MOL
REMARK 927      BINDING AFFINITY PREDICTED BY RF-SCORE:    0.00 PKD
ROOT
HETATM    1  O   UNL     1      -9.153   8.219  72.394  1.00  0.00    -0.192 OA 
HETATM    2  C   UNL     1      -9.177   8.896  71.374  1.00  0.00    -0.258 C  
HETATM    3  C   UNL     1      -8.023   8.984  70.414  1.00  0.00    -0.134 C  
HETATM    4  N   UNL     1     -10.266   9.586  70.791  1.00  0.00    -0.293 N  
HETATM    5  C   UNL     1      -8.434  10.081  69.486  1.00  0.00    -0.176 C  
HETATM    6  N   UNL     1      -9.833  10.194  69.568  1.00  0.00    -0.227 N  
HETATM    7  O   UNL     1      -7.620  10.686  68.801  1.00  0.00    -0.093 OA 
ENDROOT
BRANCH   3   8
HETATM    8  C   UNL     1      -7.911   7.675  69.617  1.00  0.00    -0.124 C  
BRANCH   8   9
HETATM    9  C   UNL     1      -6.493   7.364  69.113  1.00  0.00    -0.040 C  
BRANCH   9  10
HETATM   10  S   UNL     1      -6.602   6.494  67.503  1.00  0.00    -0.064 S  
HETATM   11  O   UNL     1      -7.825   5.624  67.564  1.00  0.00    -0.099 OA 
BRANCH  10  12
HETATM   12  C   UNL     1      -7.061   7.905  66.466  1.00  0.00    -0.075 A  
HETATM   13  C   UNL     1      -6.550  10.065  65.489  1.00  0.00    -0.100 A  
HETATM   14  C   UNL     1      -8.759   9.125  65.239  1.00  0.00    -0.219 A  
HETATM   15  C   UNL     1      -7.853  10.158  65.000  1.00  0.00    -0.140 A  
HETATM   16  C   UNL     1      -8.366   8.000  65.968  1.00  0.00    -0.126 A  
HETATM   17  C   UNL     1      -6.156   8.944  66.222  1.00  0.00    -0.063 A  
ENDBRANCH  10  12
ENDBRANCH   9  10
ENDBRANCH   8   9
ENDBRANCH   3   8
BRANCH   6  18
HETATM   18  C   UNL     1     -10.585  11.093  68.742  1.00  0.00    -0.202 A  
HETATM   19  C   UNL     1     -11.742  13.248  68.494  1.00  0.00    -0.388 A  
HETATM   20  C   UNL     1     -11.886  13.036  67.133  1.00  0.00    -0.431 A  
HETATM   21  C   UNL     1     -10.807  10.875  67.378  1.00  0.00    -0.333 A  
HETATM   22  C   UNL     1     -11.091  12.293  69.282  1.00  0.00    -0.220 A  
HETATM   23  C   UNL     1     -11.427  11.846  66.577  1.00  0.00    -0.381 A  
ENDBRANCH   6  18
BRANCH   4  24
HETATM   24  C   UNL     1     -11.554   9.058  71.083  1.00  0.00    -0.306 A  
HETATM   25  C   UNL     1     -12.461   9.869  71.785  1.00  0.00    -0.487 A  
HETATM   26  C   UNL     1     -13.160   7.251  71.199  1.00  0.00    -0.291 A  
HETATM   27  C   UNL     1     -13.701   9.379  72.195  1.00  0.00    -0.490 A  
HETATM   28  C   UNL     1     -11.921   7.746  70.778  1.00  0.00    -0.168 A  
HETATM   29  C   UNL     1     -14.044   8.063  71.905  1.00  0.00    -0.482 A  
ENDBRANCH   4  24
TORSDOF 6
ENDMDL
MODEL       86
REMARK 921   NORMALIZED FREE ENERGY PREDICTED BY IDOCK:   -5.54 KCAL/MOL
REMARK 922        TOTAL FREE ENERGY PREDICTED BY IDOCK:   -8.71 KCAL/MOL
REMARK 923 INTER-LIGAND FREE ENERGY PREDICTED BY IDOCK:   -7.08 KCAL/MOL
REMARK 924 INTRA-LIGAND FREE ENERGY PREDICTED BY IDOCK:   -1.63 KCAL/MOL
REMARK 927      BINDING AFFINITY PREDICTED BY RF-SCORE:    0.00 PKD
ROOT
HETATM    1  O   UNL     1     -10.524  10.450  67.707  1.00  0.00    -0.195 OA 
HETATM    2  C   UNL     1      -9.923  11.516  67.722  1.00  0.00    -0.183 C  
HETATM    3  C   UNL     1      -8.573  11.694  68.360  1.00  0.00    -0.156 C  
HETATM    4  N   UNL     1     -10.237  12.724  67.056  1.00  0.00    -0.240 N  
HETATM    5  C   UNL     1      -8.372  13.174  68.328  1.00  0.00    -0.152 C  
HETATM    6  N   UNL     1      -9.211  13.688  67.325  1.00  0.00    -0.223 N  
HETATM    7  O   UNL     1      -7.572  13.734  69.066  1.00  0.00    -0.085 OA 
ENDROOT
BRANCH   3   8
HETATM    8  C   UNL     1      -7.496  11.028  67.488  1.00  0.00    -0.102 C  
BRANCH   8   9
HETATM    9  C   UNL     1      -6.982   9.688  68.036  1.00  0.00    -0.078 C  
BRANCH   9  10
HETATM   10  S   UNL     1      -7.369   8.357  66.837  1.00  0.00    -0.084 S  
HETATM   11  O   UNL     1      -6.301   7.311  66.992  1.00  0.00    -0.047 OA 
BRANCH  10  12
HETATM   12  C   UNL     1      -8.835   7.678  67.654  1.00  0.00    -0.125 A  
HETATM   13  C   UNL     1      -9.994   6.954  69.657  1.00  0.00    -0.179 A  
HETATM   14  C   UNL     1     -10.994   6.587  67.491  1.00  0.00    -0.444 A  
HETATM   15  C   UNL     1     -11.044   6.466  68.880  1.00  0.00    -0.420 A  
HETATM   16  C   UNL     1      -9.894   7.192  66.878  1.00  0.00    -0.271 A  
HETATM   17  C   UNL     1      -8.892   7.555  69.047  1.00  0.00    -0.132 A  
ENDBRANCH  10  12
ENDBRANCH   9  10
ENDBRANCH   8   9
ENDBRANCH   3   8
BRANCH   6  18
HETATM   18  C   UNL     1      -9.216  15.072  66.954  1.00  0.00    -0.246 A  
HETATM   19  C   UNL     1     -10.418  17.214  66.844  1.00  0.00    -0.274 A  
HETATM   20  C   UNL     1      -9.258  17.868  66.462  1.00  0.00    -0.286 A  
HETATM   21  C   UNL     1      -8.077  15.747  66.502  1.00  0.00    -0.231 A  
HETATM   22  C   UNL     1     -10.391  15.838  67.094  1.00  0.00    -0.291 A  
HETATM   23  C   UNL     1      -8.090  17.133  66.283  1.00  0.00    -0.325 A  
ENDBRANCH   6  18
BRANCH   4  24
HETATM   24  C   UNL     1     -10.999  12.585  65.862  1.00  0.00    -0.279 A  
HETATM   25  C   UNL     1     -10.332  12.188  64.692  1.00  0.00    -0.328 A  
HETATM   26  C   UNL     1     -13.017  12.869  64.555  1.00  0.00    -0.168 A  
HETATM   27  C   UNL     1     -10.995  12.134  63.465  1.00  0.00    -0.521 A  
HETATM   28  C   UNL     1     -12.355  12.911  65.787  1.00  0.00    -0.437 A  
HETATM   29  C   UNL     1     -12.340  12.484  63.401  1.00  0.00    -0.577 A  
ENDBRANCH   4  24
TORSDOF 6
ENDMDL
MODEL       87
REMARK 921   NORMALIZED FREE ENERGY PREDICTED BY IDOCK:   -5.54 KCAL/MOL
REMARK 922        TOTAL FREE ENERGY PREDICTED BY IDOCK:   -8.71 KCAL/MOL
REMARK 923 INTER-LIGAND FREE ENERGY PREDICTED BY IDOCK:   -7.32 KCAL/MOL
REMARK 924 INTRA-LIGAND FREE ENERGY PREDICTED BY IDOCK:   -1.39 KCAL/MOL
REMARK 927      BINDING AFFINITY PREDICTED BY RF-SCORE:    0.00 PKD
ROOT
HETATM    1  O   UNL     1     -12.115   6.565  72.185  1.00  0.00    -0.315 OA 
HETATM    2  C   UNL     1     -11.498   6.401  71.140  1.00  0.00    -0.323 C  
HETATM    3  C   UNL     1     -11.534   7.378  69.997  1.00  0.00    -0.089 C  
HETATM    4  N   UNL     1     -10.537   5.413  70.821  1.00  0.00    -0.248 N  
HETATM    5  C   UNL     1     -10.837   6.645  68.898  1.00  0.00    -0.277 C  
HETATM    6  N   UNL     1     -10.041   5.653  69.497  1.00  0.00    -0.203 N  
HETATM    7  O   UNL     1     -10.980   6.955  67.722  1.00  0.00    -0.241 OA 
ENDROOT
BRANCH   3   8
HETATM    8  C   UNL     1     -10.714   8.627  70.359  1.00  0.00    -0.248 C  
BRANCH   8   9
HETATM    9  C   UNL     1     -11.563   9.835  70.787  1.00  0.00    -0.339 C  
BRANCH   9  10
HETATM   10  S   UNL     1     -11.290  11.212  69.609  1.00  0.00    -0.297 S  
HETATM   11  O   UNL     1     -12.080  10.887  68.373  1.00  0.00    -0.559 OA 
BRANCH  10  12
HETATM   12  C   UNL     1     -12.238  12.492  70.468  1.00  0.00    -0.297 A  
HETATM   13  C   UNL     1     -12.828  14.821  70.802  1.00  0.00    -0.418 A  
HETATM   14  C   UNL     1     -13.671  13.139  72.314  1.00  0.00    -0.647 A  
HETATM   15  C   UNL     1     -13.582  14.475  71.922  1.00  0.00    -0.484 A  
HETATM   16  C   UNL     1     -13.003  12.149  71.589  1.00  0.00    -0.427 A  
HETATM   17  C   UNL     1     -12.155  13.834  70.079  1.00  0.00    -0.416 A  
ENDBRANCH  10  12
ENDBRANCH   9  10
ENDBRANCH   8   9
ENDBRANCH   3   8
BRANCH   6  18
HETATM   18  C   UNL     1      -9.160   4.810  68.745  1.00  0.00    -0.112 A  
HETATM   19  C   UNL     1      -7.005   4.514  67.597  1.00  0.00    -0.060 A  
HETATM   20  C   UNL     1      -7.251   3.159  67.444  1.00  0.00    -0.058 A  
HETATM   21  C   UNL     1      -9.410   3.453  68.515  1.00  0.00    -0.231 A  
HETATM   22  C   UNL     1      -7.944   5.322  68.247  1.00  0.00    -0.088 A  
HETATM   23  C   UNL     1      -8.457   2.631  67.895  1.00  0.00    -0.104 A  
ENDBRANCH   6  18
BRANCH   4  24
HETATM   24  C   UNL     1      -9.819   4.875  71.925  1.00  0.00    -0.184 A  
HETATM   25  C   UNL     1      -8.786   5.644  72.485  1.00  0.00    -0.130 A  
HETATM   26  C   UNL     1      -9.221   3.071  73.425  1.00  0.00    -0.097 A  
HETATM   27  C   UNL     1      -7.975   5.135  73.499  1.00  0.00    -0.110 A  
HETATM   28  C   UNL     1     -10.042   3.586  72.416  1.00  0.00    -0.232 A  
HETATM   29  C   UNL     1      -8.192   3.841  73.962  1.00  0.00    -0.086 A  
ENDBRANCH   4  24
TORSDOF 6
ENDMDL
MODEL       88
REMARK 921   NORMALIZED FREE ENERGY PREDICTED BY IDOCK:   -5.52 KCAL/MOL
REMARK 922        TOTAL FREE ENERGY PREDICTED BY IDOCK:   -8.69 KCAL/MOL
REMARK 923 INTER-LIGAND FREE ENERGY PREDICTED BY IDOCK:   -7.11 KCAL/MOL
REMARK 924 INTRA-LIGAND FREE ENERGY PREDICTED BY IDOCK:   -1.57 KCAL/MOL
REMARK 927      BINDING AFFINITY PREDICTED BY RF-SCORE:    0.00 PKD
ROOT
HETATM    1  O   UNL     1      -8.745   8.678  72.818  1.00  0.00    -0.387 OA 
HETATM    2  C   UNL     1      -9.440   8.106  71.989  1.00  0.00    -0.215 C  
HETATM    3  C   UNL     1     -10.935   8.255  71.919  1.00  0.00    -0.354 C  
HETATM    4  N   UNL     1      -9.039   7.345  70.866  1.00  0.00    -0.153 N  
HETATM    5  C   UNL     1     -11.337   7.212  70.928  1.00  0.00    -0.286 C  
HETATM    6  N   UNL     1     -10.204   6.918  70.149  1.00  0.00    -0.190 N  
HETATM    7  O   UNL     1     -12.482   6.782  70.871  1.00  0.00    -0.364 OA 
ENDROOT
BRANCH   3   8
HETATM    8  C   UNL     1     -11.291   9.640  71.354  1.00  0.00    -0.444 C  
BRANCH   8   9
HETATM    9  C   UNL     1     -11.128   9.759  69.830  1.00  0.00    -0.254 C  
BRANCH   9  10
HETATM   10  S   UNL     1     -12.136  11.164  69.223  1.00  0.00    -0.222 S  
HETATM   11  O   UNL     1     -11.672  12.383  69.969  1.00  0.00    -0.301 OA 
BRANCH  10  12
HETATM   12  C   UNL     1     -11.425  11.309  67.565  1.00  0.00    -0.246 A  
HETATM   13  C   UNL     1     -11.293  12.414  65.411  1.00  0.00    -0.379 A  
HETATM   14  C   UNL     1     -10.077  10.363  65.786  1.00  0.00    -0.329 A  
HETATM   15  C   UNL     1     -10.442  11.414  64.944  1.00  0.00    -0.363 A  
HETATM   16  C   UNL     1     -10.565  10.310  67.094  1.00  0.00    -0.320 A  
HETATM   17  C   UNL     1     -11.786  12.361  66.716  1.00  0.00    -0.430 A  
ENDBRANCH  10  12
ENDBRANCH   9  10
ENDBRANCH   8   9
ENDBRANCH   3   8
BRANCH   6  18
HETATM   18  C   UNL     1     -10.245   6.017  69.035  1.00  0.00    -0.193 A  
HETATM   19  C   UNL     1     -10.743   5.636  66.658  1.00  0.00    -0.339 A  
HETATM   20  C   UNL     1     -10.157   4.382  66.716  1.00  0.00    -0.177 A  
HETATM   21  C   UNL     1      -9.722   4.720  69.080  1.00  0.00    -0.258 A  
HETATM   22  C   UNL     1     -10.775   6.442  67.800  1.00  0.00    -0.377 A  
HETATM   23  C   UNL     1      -9.655   3.921  67.929  1.00  0.00    -0.193 A  
ENDBRANCH   6  18
BRANCH   4  24
HETATM   24  C   UNL     1      -7.767   7.677  70.322  1.00  0.00    -0.091 A  
HETATM   25  C   UNL     1      -7.692   8.740  69.407  1.00  0.00    -0.093 A  
HETATM   26  C   UNL     1      -5.417   7.244  69.932  1.00  0.00    -0.023 A  
HETATM   27  C   UNL     1      -6.497   9.051  68.757  1.00  0.00    -0.053 A  
HETATM   28  C   UNL     1      -6.612   6.939  70.593  1.00  0.00    -0.052 A  
HETATM   29  C   UNL     1      -5.361   8.293  69.018  1.00  0.00    -0.027 A  
ENDBRANCH   4  24
TORSDOF 6
ENDMDL
MODEL       89
REMARK 921   NORMALIZED FREE ENERGY PREDICTED BY IDOCK:   -5.51 KCAL/MOL
REMARK 922        TOTAL FREE ENERGY PREDICTED BY IDOCK:   -8.67 KCAL/MOL
REMARK 923 INTER-LIGAND FREE ENERGY PREDICTED BY IDOCK:   -7.20 KCAL/MOL
REMARK 924 INTRA-LIGAND FREE ENERGY PREDICTED BY IDOCK:   -1.48 KCAL/MOL
REMARK 927      BINDING AFFINITY PREDICTED BY RF-SCORE:    0.00 PKD
ROOT
HETATM    1  O   UNL     1      -8.460   9.080  66.886  1.00  0.00    -0.117 OA 
HETATM    2  C   UNL     1      -8.718   8.715  68.026  1.00  0.00    -0.141 C  
HETATM    3  C   UNL     1      -9.223   9.643  69.096  1.00  0.00    -0.168 C  
HETATM    4  N   UNL     1      -8.763   7.402  68.550  1.00  0.00    -0.128 N  
HETATM    5  C   UNL     1      -9.163   8.806  70.331  1.00  0.00    -0.180 C  
HETATM    6  N   UNL     1      -9.167   7.461  69.924  1.00  0.00    -0.145 N  
HETATM    7  O   UNL     1      -9.148   9.304  71.450  1.00  0.00    -0.299 OA 
ENDROOT
BRANCH   3   8
HETATM    8  C   UNL     1     -10.689  10.009  68.814  1.00  0.00    -0.250 C  
BRANCH   8   9
HETATM    9  C   UNL     1     -11.108  11.387  69.348  1.00  0.00    -0.241 C  
BRANCH   9  10
HETATM   10  S   UNL     1     -12.533  11.187  70.483  1.00  0.00    -0.309 S  
HETATM   11  O   UNL     1     -12.026  10.446  71.688  1.00  0.00    -0.291 OA 
BRANCH  10  12
HETATM   12  C   UNL     1     -12.701  12.911  71.010  1.00  0.00    -0.251 A  
HETATM   13  C   UNL     1     -13.815  14.623  72.317  1.00  0.00    -0.583 A  
HETATM   14  C   UNL     1     -12.122  15.247  70.713  1.00  0.00    -0.399 A  
HETATM   15  C   UNL     1     -13.060  15.608  71.681  1.00  0.00    -0.554 A  
HETATM   16  C   UNL     1     -11.941  13.903  70.379  1.00  0.00    -0.393 A  
HETATM   17  C   UNL     1     -13.639  13.280  71.981  1.00  0.00    -0.573 A  
ENDBRANCH  10  12
ENDBRANCH   9  10
ENDBRANCH   8   9
ENDBRANCH   3   8
BRANCH   6  18
HETATM   18  C   UNL     1      -9.206   6.371  70.855  1.00  0.00    -0.158 A  
HETATM   19  C   UNL     1     -10.536   4.858  72.264  1.00  0.00    -0.251 A  
HETATM   20  C   UNL     1      -9.416   4.086  72.527  1.00  0.00    -0.178 A  
HETATM   21  C   UNL     1      -8.080   5.613  71.193  1.00  0.00    -0.116 A  
HETATM   22  C   UNL     1     -10.431   5.977  71.432  1.00  0.00    -0.282 A  
HETATM   23  C   UNL     1      -8.187   4.469  71.998  1.00  0.00    -0.101 A  
ENDBRANCH   6  18
BRANCH   4  24
HETATM   24  C   UNL     1      -9.052   6.375  67.610  1.00  0.00    -0.114 A  
HETATM   25  C   UNL     1     -10.386   6.197  67.210  1.00  0.00    -0.272 A  
HETATM   26  C   UNL     1      -8.455   4.423  66.307  1.00  0.00    -0.112 A  
HETATM   27  C   UNL     1     -10.755   5.144  66.373  1.00  0.00    -0.275 A  
HETATM   28  C   UNL     1      -8.083   5.486  67.138  1.00  0.00    -0.101 A  
HETATM   29  C   UNL     1      -9.784   4.252  65.929  1.00  0.00    -0.211 A  
ENDBRANCH   4  24
TORSDOF 6
ENDMDL
MODEL       90
REMARK 921   NORMALIZED FREE ENERGY PREDICTED BY IDOCK:   -5.51 KCAL/MOL
REMARK 922        TOTAL FREE ENERGY PREDICTED BY IDOCK:   -8.67 KCAL/MOL
REMARK 923 INTER-LIGAND FREE ENERGY PREDICTED BY IDOCK:   -7.02 KCAL/MOL
REMARK 924 INTRA-LIGAND FREE ENERGY PREDICTED BY IDOCK:   -1.65 KCAL/MOL
REMARK 927      BINDING AFFINITY PREDICTED BY RF-SCORE:    0.00 PKD
ROOT
HETATM    1  O   UNL     1      -9.479  12.527  68.441  1.00  0.00    -0.214 OA 
HETATM    2  C   UNL     1      -9.131  13.699  68.389  1.00  0.00    -0.165 C  
HETATM    3  C   UNL     1      -7.805  14.190  68.900  1.00  0.00    -0.076 C  
HETATM    4  N   UNL     1      -9.762  14.786  67.740  1.00  0.00    -0.212 N  
HETATM    5  C   UNL     1      -7.942  15.677  68.832  1.00  0.00    -0.193 C  
HETATM    6  N   UNL     1      -8.957  15.961  67.904  1.00  0.00    -0.181 N  
HETATM    7  O   UNL     1      -7.225  16.422  69.489  1.00  0.00    -0.219 OA 
ENDROOT
BRANCH   3   8
HETATM    8  C   UNL     1      -6.686  13.751  67.941  1.00  0.00    -0.162 C  
BRANCH   8   9
HETATM    9  C   UNL     1      -5.335  13.495  68.626  1.00  0.00    -0.077 C  
BRANCH   9  10
HETATM   10  S   UNL     1      -5.230  11.731  69.116  1.00  0.00    -0.047 S  
HETATM   11  O   UNL     1      -6.265  11.517  70.184  1.00  0.00    -0.150 OA 
BRANCH  10  12
HETATM   12  C   UNL     1      -5.923  10.995  67.615  1.00  0.00    -0.044 A  
HETATM   13  C   UNL     1      -7.578   9.608  66.510  1.00  0.00    -0.098 A  
HETATM   14  C   UNL     1      -5.707  10.476  65.256  1.00  0.00    -0.141 A  
HETATM   15  C   UNL     1      -6.880   9.722  65.309  1.00  0.00    -0.103 A  
HETATM   16  C   UNL     1      -5.230  11.112  66.405  1.00  0.00    -0.125 A  
HETATM   17  C   UNL     1      -7.100  10.239  67.660  1.00  0.00    -0.086 A  
ENDBRANCH  10  12
ENDBRANCH   9  10
ENDBRANCH   8   9
ENDBRANCH   3   8
BRANCH   6  18
HETATM   18  C   UNL     1      -9.301  17.298  67.518  1.00  0.00    -0.236 A  
HETATM   19  C   UNL     1      -8.753  19.321  66.233  1.00  0.00    -0.333 A  
HETATM   20  C   UNL     1      -9.996  19.863  66.519  1.00  0.00    -0.591 A  
HETATM   21  C   UNL     1     -10.520  17.899  67.847  1.00  0.00    -0.404 A  
HETATM   22  C   UNL     1      -8.418  18.053  66.719  1.00  0.00    -0.274 A  
HETATM   23  C   UNL     1     -10.875  19.155  67.333  1.00  0.00    -0.533 A  
ENDBRANCH   6  18
BRANCH   4  24
HETATM   24  C   UNL     1     -10.573  14.446  66.622  1.00  0.00    -0.282 A  
HETATM   25  C   UNL     1     -11.956  14.308  66.821  1.00  0.00    -0.462 A  
HETATM   26  C   UNL     1     -10.883  13.715  64.334  1.00  0.00    -0.374 A  
HETATM   27  C   UNL     1     -12.795  13.875  65.795  1.00  0.00    -0.437 A  
HETATM   28  C   UNL     1     -10.043  14.160  65.361  1.00  0.00    -0.359 A  
HETATM   29  C   UNL     1     -12.251  13.571  64.551  1.00  0.00    -0.445 A  
ENDBRANCH   4  24
TORSDOF 6
ENDMDL
MODEL       91
REMARK 921   NORMALIZED FREE ENERGY PREDICTED BY IDOCK:   -5.51 KCAL/MOL
REMARK 922        TOTAL FREE ENERGY PREDICTED BY IDOCK:   -8.67 KCAL/MOL
REMARK 923 INTER-LIGAND FREE ENERGY PREDICTED BY IDOCK:   -6.61 KCAL/MOL
REMARK 924 INTRA-LIGAND FREE ENERGY PREDICTED BY IDOCK:   -2.05 KCAL/MOL
REMARK 927      BINDING AFFINITY PREDICTED BY RF-SCORE:    0.00 PKD
ROOT
HETATM    1  O   UNL     1      -9.727  10.482  67.268  1.00  0.00    -0.164 OA 
HETATM    2  C   UNL     1      -9.327  11.630  67.414  1.00  0.00    -0.168 C  
HETATM    3  C   UNL     1      -7.999  11.970  68.033  1.00  0.00    -0.149 C  
HETATM    4  N   UNL     1      -9.888  12.835  66.929  1.00  0.00    -0.231 N  
HETATM    5  C   UNL     1      -8.070  13.453  68.200  1.00  0.00    -0.155 C  
HETATM    6  N   UNL     1      -9.039  13.929  67.301  1.00  0.00    -0.217 N  
HETATM    7  O   UNL     1      -7.346  14.050  68.987  1.00  0.00    -0.120 OA 
ENDROOT
BRANCH   3   8
HETATM    8  C   UNL     1      -6.868  11.635  67.049  1.00  0.00    -0.144 C  
BRANCH   8   9
HETATM    9  C   UNL     1      -5.801  10.685  67.616  1.00  0.00    -0.044 C  
BRANCH   9  10
HETATM   10  S   UNL     1      -6.022   9.021  66.881  1.00  0.00    -0.057 S  
HETATM   11  O   UNL     1      -7.261   8.436  67.498  1.00  0.00    -0.085 OA 
BRANCH  10  12
HETATM   12  C   UNL     1      -6.503   9.526  65.211  1.00  0.00    -0.078 A  
HETATM   13  C   UNL     1      -8.125   9.597  63.409  1.00  0.00    -0.151 A  
HETATM   14  C   UNL     1      -5.884  10.417  63.042  1.00  0.00    -0.145 A  
HETATM   15  C   UNL     1      -7.170  10.164  62.565  1.00  0.00    -0.141 A  
HETATM   16  C   UNL     1      -5.551  10.102  64.362  1.00  0.00    -0.121 A  
HETATM   17  C   UNL     1      -7.792   9.276  64.726  1.00  0.00    -0.118 A  
ENDBRANCH  10  12
ENDBRANCH   9  10
ENDBRANCH   8   9
ENDBRANCH   3   8
BRANCH   6  18
HETATM   18  C   UNL     1      -9.312  15.325  67.124  1.00  0.00    -0.216 A  
HETATM   19  C   UNL     1     -10.642  17.300  67.737  1.00  0.00    -0.367 A  
HETATM   20  C   UNL     1      -9.791  18.121  67.016  1.00  0.00    -0.324 A  
HETATM   21  C   UNL     1      -8.510  16.169  66.350  1.00  0.00    -0.369 A  
HETATM   22  C   UNL     1     -10.398  15.924  67.796  1.00  0.00    -0.278 A  
HETATM   23  C   UNL     1      -8.730  17.554  66.316  1.00  0.00    -0.226 A  
ENDBRANCH   6  18
BRANCH   4  24
HETATM   24  C   UNL     1     -10.673  12.715  65.749  1.00  0.00    -0.268 A  
HETATM   25  C   UNL     1     -12.066  12.848  65.861  1.00  0.00    -0.503 A  
HETATM   26  C   UNL     1     -10.966  12.165  63.409  1.00  0.00    -0.480 A  
HETATM   27  C   UNL     1     -12.903  12.638  64.765  1.00  0.00    -0.349 A  
HETATM   28  C   UNL     1     -10.126  12.386  64.506  1.00  0.00    -0.276 A  
HETATM   29  C   UNL     1     -12.347  12.288  63.539  1.00  0.00    -0.670 A  
ENDBRANCH   4  24
TORSDOF 6
ENDMDL
MODEL       92
REMARK 921   NORMALIZED FREE ENERGY PREDICTED BY IDOCK:   -5.49 KCAL/MOL
REMARK 922        TOTAL FREE ENERGY PREDICTED BY IDOCK:   -8.65 KCAL/MOL
REMARK 923 INTER-LIGAND FREE ENERGY PREDICTED BY IDOCK:   -7.39 KCAL/MOL
REMARK 924 INTRA-LIGAND FREE ENERGY PREDICTED BY IDOCK:   -1.26 KCAL/MOL
REMARK 927      BINDING AFFINITY PREDICTED BY RF-SCORE:    0.00 PKD
ROOT
HETATM    1  O   UNL     1      -7.788   9.893  67.804  1.00  0.00    -0.094 OA 
HETATM    2  C   UNL     1      -8.575   9.502  68.658  1.00  0.00    -0.119 C  
HETATM    3  C   UNL     1      -9.649  10.372  69.250  1.00  0.00    -0.226 C  
HETATM    4  N   UNL     1      -8.773   8.192  69.151  1.00  0.00    -0.139 N  
HETATM    5  C   UNL     1     -10.175   9.544  70.377  1.00  0.00    -0.279 C  
HETATM    6  N   UNL     1      -9.844   8.207  70.103  1.00  0.00    -0.183 N  
HETATM    7  O   UNL     1     -10.797  10.041  71.308  1.00  0.00    -0.205 OA 
ENDROOT
BRANCH   3   8
HETATM    8  C   UNL     1     -10.772  10.582  68.222  1.00  0.00    -0.270 C  
BRANCH   8   9
HETATM    9  C   UNL     1     -11.881  11.539  68.687  1.00  0.00    -0.318 C  
BRANCH   9  10
HETATM   10  S   UNL     1     -11.165  13.202  68.971  1.00  0.00    -0.244 S  
HETATM   11  O   UNL     1     -11.481  14.022  67.752  1.00  0.00    -0.287 OA 
BRANCH  10  12
HETATM   12  C   UNL     1     -12.310  13.772  70.251  1.00  0.00    -0.337 A  
HETATM   13  C   UNL     1     -13.438  15.566  71.431  1.00  0.00    -0.583 A  
HETATM   14  C   UNL     1     -13.649  13.292  72.215  1.00  0.00    -0.703 A  
HETATM   15  C   UNL     1     -13.950  14.648  72.347  1.00  0.00    -0.578 A  
HETATM   16  C   UNL     1     -12.833  12.854  71.169  1.00  0.00    -0.326 A  
HETATM   17  C   UNL     1     -12.618  15.131  70.388  1.00  0.00    -0.405 A  
ENDBRANCH  10  12
ENDBRANCH   9  10
ENDBRANCH   8   9
ENDBRANCH   3   8
BRANCH   6  18
HETATM   18  C   UNL     1     -10.271   7.119  70.932  1.00  0.00    -0.197 A  
HETATM   19  C   UNL     1      -9.684   5.308  72.489  1.00  0.00    -0.176 A  
HETATM   20  C   UNL     1     -11.023   5.090  72.771  1.00  0.00    -0.312 A  
HETATM   21  C   UNL     1     -11.616   6.830  71.185  1.00  0.00    -0.377 A  
HETATM   22  C   UNL     1      -9.317   6.314  71.590  1.00  0.00    -0.153 A  
HETATM   23  C   UNL     1     -11.989   5.846  72.113  1.00  0.00    -0.191 A  
ENDBRANCH   6  18
BRANCH   4  24
HETATM   24  C   UNL     1      -8.429   7.140  68.256  1.00  0.00    -0.124 A  
HETATM   25  C   UNL     1      -9.250   6.925  67.138  1.00  0.00    -0.153 A  
HETATM   26  C   UNL     1      -7.155   5.178  67.635  1.00  0.00    -0.066 A  
HETATM   27  C   UNL     1      -9.033   5.848  66.278  1.00  0.00    -0.153 A  
HETATM   28  C   UNL     1      -7.366   6.265  68.490  1.00  0.00    -0.086 A  
HETATM   29  C   UNL     1      -7.985   4.970  66.536  1.00  0.00    -0.107 A  
ENDBRANCH   4  24
TORSDOF 6
ENDMDL
MODEL       93
REMARK 921   NORMALIZED FREE ENERGY PREDICTED BY IDOCK:   -5.49 KCAL/MOL
REMARK 922        TOTAL FREE ENERGY PREDICTED BY IDOCK:   -8.65 KCAL/MOL
REMARK 923 INTER-LIGAND FREE ENERGY PREDICTED BY IDOCK:   -7.65 KCAL/MOL
REMARK 924 INTRA-LIGAND FREE ENERGY PREDICTED BY IDOCK:   -0.99 KCAL/MOL
REMARK 927      BINDING AFFINITY PREDICTED BY RF-SCORE:    0.00 PKD
ROOT
HETATM    1  O   UNL     1     -12.273  11.732  67.631  1.00  0.00    -0.534 OA 
HETATM    2  C   UNL     1     -11.601  10.935  68.273  1.00  0.00    -0.262 C  
HETATM    3  C   UNL     1     -10.421  10.200  67.700  1.00  0.00    -0.293 C  
HETATM    4  N   UNL     1     -11.650  10.642  69.656  1.00  0.00    -0.275 N  
HETATM    5  C   UNL     1     -10.091   9.203  68.763  1.00  0.00    -0.197 C  
HETATM    6  N   UNL     1     -10.632   9.682  69.967  1.00  0.00    -0.240 N  
HETATM    7  O   UNL     1      -9.433   8.198  68.524  1.00  0.00    -0.142 OA 
ENDROOT
BRANCH   3   8
HETATM    8  C   UNL     1      -9.237  11.166  67.541  1.00  0.00    -0.155 C  
BRANCH   8   9
HETATM    9  C   UNL     1      -8.294  10.822  66.377  1.00  0.00    -0.153 C  
BRANCH   9  10
HETATM   10  S   UNL     1      -9.274  10.126  64.993  1.00  0.00    -0.241 S  
HETATM   11  O   UNL     1      -9.190  11.114  63.864  1.00  0.00    -0.190 OA 
BRANCH  10  12
HETATM   12  C   UNL     1      -8.165   8.770  64.534  1.00  0.00    -0.167 A  
HETATM   13  C   UNL     1      -6.408   7.857  63.134  1.00  0.00    -0.068 A  
HETATM   14  C   UNL     1      -7.538   6.435  64.724  1.00  0.00    -0.098 A  
HETATM   15  C   UNL     1      -6.579   6.606  63.725  1.00  0.00    -0.044 A  
HETATM   16  C   UNL     1      -8.329   7.514  65.130  1.00  0.00    -0.092 A  
HETATM   17  C   UNL     1      -7.200   8.935  63.534  1.00  0.00    -0.093 A  
ENDBRANCH  10  12
ENDBRANCH   9  10
ENDBRANCH   8   9
ENDBRANCH   3   8
BRANCH   6  18
HETATM   18  C   UNL     1     -10.433   9.020  71.223  1.00  0.00    -0.311 A  
HETATM   19  C   UNL     1     -11.352   7.650  73.046  1.00  0.00    -0.334 A  
HETATM   20  C   UNL     1     -10.088   7.493  73.591  1.00  0.00    -0.343 A  
HETATM   21  C   UNL     1      -9.180   8.901  71.835  1.00  0.00    -0.240 A  
HETATM   22  C   UNL     1     -11.516   8.395  71.873  1.00  0.00    -0.384 A  
HETATM   23  C   UNL     1      -9.004   8.126  72.991  1.00  0.00    -0.335 A  
ENDBRANCH   6  18
BRANCH   4  24
HETATM   24  C   UNL     1     -12.129  11.691  70.489  1.00  0.00    -0.366 A  
HETATM   25  C   UNL     1     -13.054  11.370  71.496  1.00  0.00    -0.438 A  
HETATM   26  C   UNL     1     -12.387  14.028  71.068  1.00  0.00    -0.443 A  
HETATM   27  C   UNL     1     -13.643  12.363  72.279  1.00  0.00    -0.371 A  
HETATM   28  C   UNL     1     -11.787  13.031  70.291  1.00  0.00    -0.294 A  
HETATM   29  C   UNL     1     -13.311  13.695  72.055  1.00  0.00    -0.548 A  
ENDBRANCH   4  24
TORSDOF 6
ENDMDL
MODEL       94
REMARK 921   NORMALIZED FREE ENERGY PREDICTED BY IDOCK:   -5.48 KCAL/MOL
REMARK 922        TOTAL FREE ENERGY PREDICTED BY IDOCK:   -8.63 KCAL/MOL
REMARK 923 INTER-LIGAND FREE ENERGY PREDICTED BY IDOCK:   -7.52 KCAL/MOL
REMARK 924 INTRA-LIGAND FREE ENERGY PREDICTED BY IDOCK:   -1.11 KCAL/MOL
REMARK 927      BINDING AFFINITY PREDICTED BY RF-SCORE:    0.00 PKD
ROOT
HETATM    1  O   UNL     1     -10.247  10.371  64.464  1.00  0.00    -0.342 OA 
HETATM    2  C   UNL     1     -10.409  10.353  65.677  1.00  0.00    -0.190 C  
HETATM    3  C   UNL     1      -9.731   9.365  66.586  1.00  0.00    -0.280 C  
HETATM    4  N   UNL     1     -11.092  11.281  66.497  1.00  0.00    -0.261 N  
HETATM    5  C   UNL     1     -10.409   9.587  67.899  1.00  0.00    -0.227 C  
HETATM    6  N   UNL     1     -10.969  10.875  67.866  1.00  0.00    -0.249 N  
HETATM    7  O   UNL     1     -10.391   8.743  68.786  1.00  0.00    -0.210 OA 
ENDROOT
BRANCH   3   8
HETATM    8  C   UNL     1      -8.244   9.728  66.727  1.00  0.00    -0.120 C  
BRANCH   8   9
HETATM    9  C   UNL     1      -7.287   8.537  66.566  1.00  0.00    -0.084 C  
BRANCH   9  10
HETATM   10  S   UNL     1      -8.227   7.082  65.969  1.00  0.00    -0.135 S  
HETATM   11  O   UNL     1      -7.300   6.303  65.080  1.00  0.00    -0.070 OA 
BRANCH  10  12
HETATM   12  C   UNL     1      -8.303   6.155  67.522  1.00  0.00    -0.109 A  
HETATM   13  C   UNL     1      -7.366   5.565  69.679  1.00  0.00    -0.066 A  
HETATM   14  C   UNL     1      -9.306   4.392  68.850  1.00  0.00    -0.216 A  
HETATM   15  C   UNL     1      -8.345   4.586  69.842  1.00  0.00    -0.073 A  
HETATM   16  C   UNL     1      -9.288   5.175  67.693  1.00  0.00    -0.134 A  
HETATM   17  C   UNL     1      -7.343   6.346  68.522  1.00  0.00    -0.087 A  
ENDBRANCH  10  12
ENDBRANCH   9  10
ENDBRANCH   8   9
ENDBRANCH   3   8
BRANCH   6  18
HETATM   18  C   UNL     1     -11.626  11.461  68.997  1.00  0.00    -0.317 A  
HETATM   19  C   UNL     1     -12.708  11.165  71.185  1.00  0.00    -0.510 A  
HETATM   20  C   UNL     1     -12.737  12.537  71.378  1.00  0.00    -0.345 A  
HETATM   21  C   UNL     1     -11.731  12.843  69.190  1.00  0.00    -0.376 A  
HETATM   22  C   UNL     1     -12.151  10.639  70.015  1.00  0.00    -0.393 A  
HETATM   23  C   UNL     1     -12.256  13.375  70.377  1.00  0.00    -0.415 A  
ENDBRANCH   6  18
BRANCH   4  24
HETATM   24  C   UNL     1     -11.158  12.611  65.995  1.00  0.00    -0.287 A  
HETATM   25  C   UNL     1     -12.376  13.059  65.460  1.00  0.00    -0.527 A  
HETATM   26  C   UNL     1     -10.149  14.705  65.318  1.00  0.00    -0.393 A  
HETATM   27  C   UNL     1     -12.483  14.313  64.857  1.00  0.00    -0.403 A  
HETATM   28  C   UNL     1     -10.045  13.453  65.933  1.00  0.00    -0.300 A  
HETATM   29  C   UNL     1     -11.361  15.131  64.781  1.00  0.00    -0.399 A  
ENDBRANCH   4  24
TORSDOF 6
ENDMDL
MODEL       95
REMARK 921   NORMALIZED FREE ENERGY PREDICTED BY IDOCK:   -5.46 KCAL/MOL
REMARK 922        TOTAL FREE ENERGY PREDICTED BY IDOCK:   -8.60 KCAL/MOL
REMARK 923 INTER-LIGAND FREE ENERGY PREDICTED BY IDOCK:   -7.38 KCAL/MOL
REMARK 924 INTRA-LIGAND FREE ENERGY PREDICTED BY IDOCK:   -1.22 KCAL/MOL
REMARK 927      BINDING AFFINITY PREDICTED BY RF-SCORE:    0.00 PKD
ROOT
HETATM    1  O   UNL     1      -8.080  11.339  66.061  1.00  0.00    -0.119 OA 
HETATM    2  C   UNL     1      -8.468  11.049  67.186  1.00  0.00    -0.137 C  
HETATM    3  C   UNL     1      -7.538  10.712  68.319  1.00  0.00    -0.097 C  
HETATM    4  N   UNL     1      -9.777  11.109  67.718  1.00  0.00    -0.169 N  
HETATM    5  C   UNL     1      -8.462  10.215  69.383  1.00  0.00    -0.171 C  
HETATM    6  N   UNL     1      -9.740  10.727  69.099  1.00  0.00    -0.194 N  
HETATM    7  O   UNL     1      -8.066   9.518  70.308  1.00  0.00    -0.152 OA 
ENDROOT
BRANCH   3   8
HETATM    8  C   UNL     1      -6.848  11.991  68.819  1.00  0.00    -0.094 C  
BRANCH   8   9
HETATM    9  C   UNL     1      -7.212  13.255  68.025  1.00  0.00    -0.121 C  
BRANCH   9  10
HETATM   10  S   UNL     1      -7.206  14.699  69.154  1.00  0.00    -0.144 S  
HETATM   11  O   UNL     1      -5.844  15.325  69.049  1.00  0.00    -0.096 OA 
BRANCH  10  12
HETATM   12  C   UNL     1      -8.311  15.781  68.212  1.00  0.00    -0.163 A  
HETATM   13  C   UNL     1      -8.960  16.843  66.131  1.00  0.00    -0.271 A  
HETATM   14  C   UNL     1     -10.085  17.433  68.183  1.00  0.00    -0.328 A  
HETATM   15  C   UNL     1      -9.923  17.591  66.807  1.00  0.00    -0.313 A  
HETATM   16  C   UNL     1      -9.284  16.529  68.885  1.00  0.00    -0.258 A  
HETATM   17  C   UNL     1      -8.154  15.943  66.831  1.00  0.00    -0.285 A  
ENDBRANCH  10  12
ENDBRANCH   9  10
ENDBRANCH   8   9
ENDBRANCH   3   8
BRANCH   6  18
HETATM   18  C   UNL     1     -10.864  10.524  69.964  1.00  0.00    -0.259 A  
HETATM   19  C   UNL     1     -12.826  11.458  71.114  1.00  0.00    -0.440 A  
HETATM   20  C   UNL     1     -13.237  10.189  71.486  1.00  0.00    -0.496 A  
HETATM   21  C   UNL     1     -11.267   9.261  70.412  1.00  0.00    -0.290 A  
HETATM   22  C   UNL     1     -11.661  11.618  70.356  1.00  0.00    -0.292 A  
HETATM   23  C   UNL     1     -12.453   9.092  71.143  1.00  0.00    -0.285 A  
ENDBRANCH   6  18
BRANCH   4  24
HETATM   24  C   UNL     1     -10.644  12.061  67.111  1.00  0.00    -0.224 A  
HETATM   25  C   UNL     1     -10.834  13.293  67.756  1.00  0.00    -0.268 A  
HETATM   26  C   UNL     1     -12.300  12.721  65.473  1.00  0.00    -0.495 A  
HETATM   27  C   UNL     1     -11.749  14.229  67.272  1.00  0.00    -0.422 A  
HETATM   28  C   UNL     1     -11.375  11.787  65.952  1.00  0.00    -0.324 A  
HETATM   29  C   UNL     1     -12.488  13.933  66.131  1.00  0.00    -0.478 A  
ENDBRANCH   4  24
TORSDOF 6
ENDMDL
MODEL       96
REMARK 921   NORMALIZED FREE ENERGY PREDICTED BY IDOCK:   -5.45 KCAL/MOL
REMARK 922        TOTAL FREE ENERGY PREDICTED BY IDOCK:   -8.59 KCAL/MOL
REMARK 923 INTER-LIGAND FREE ENERGY PREDICTED BY IDOCK:   -7.60 KCAL/MOL
REMARK 924 INTRA-LIGAND FREE ENERGY PREDICTED BY IDOCK:   -0.99 KCAL/MOL
REMARK 927      BINDING AFFINITY PREDICTED BY RF-SCORE:    0.00 PKD
ROOT
HETATM    1  O   UNL     1      -9.292  10.221  69.619  1.00  0.00    -0.205 OA 
HETATM    2  C   UNL     1      -9.557  10.584  68.480  1.00  0.00    -0.163 C  
HETATM    3  C   UNL     1      -9.395   9.702  67.273  1.00  0.00    -0.163 C  
HETATM    4  N   UNL     1     -10.190  11.774  68.051  1.00  0.00    -0.187 N  
HETATM    5  C   UNL     1      -9.613  10.641  66.131  1.00  0.00    -0.188 C  
HETATM    6  N   UNL     1     -10.341  11.737  66.626  1.00  0.00    -0.213 N  
HETATM    7  O   UNL     1      -9.215  10.388  65.002  1.00  0.00    -0.181 OA 
ENDROOT
BRANCH   3   8
HETATM    8  C   UNL     1     -10.502   8.636  67.258  1.00  0.00    -0.360 C  
BRANCH   8   9
HETATM    9  C   UNL     1      -9.984   7.191  67.189  1.00  0.00    -0.209 C  
BRANCH   9  10
HETATM   10  S   UNL     1      -9.509   6.638  68.870  1.00  0.00    -0.129 S  
HETATM   11  O   UNL     1     -10.695   6.887  69.759  1.00  0.00    -0.222 OA 
BRANCH  10  12
HETATM   12  C   UNL     1      -9.493   4.853  68.572  1.00  0.00    -0.143 A  
HETATM   13  C   UNL     1      -9.372   2.573  69.390  1.00  0.00    -0.171 A  
HETATM   14  C   UNL     1      -9.320   3.001  67.015  1.00  0.00    -0.159 A  
HETATM   15  C   UNL     1      -9.295   2.101  68.081  1.00  0.00    -0.257 A  
HETATM   16  C   UNL     1      -9.421   4.373  67.258  1.00  0.00    -0.197 A  
HETATM   17  C   UNL     1      -9.468   3.944  69.636  1.00  0.00    -0.263 A  
ENDBRANCH  10  12
ENDBRANCH   9  10
ENDBRANCH   8   9
ENDBRANCH   3   8
BRANCH   6  18
HETATM   18  C   UNL     1     -10.807  12.798  65.784  1.00  0.00    -0.272 A  
HETATM   19  C   UNL     1     -12.480  13.633  64.186  1.00  0.00    -0.292 A  
HETATM   20  C   UNL     1     -11.939  14.907  64.256  1.00  0.00    -0.355 A  
HETATM   21  C   UNL     1     -10.242  14.078  65.781  1.00  0.00    -0.343 A  
HETATM   22  C   UNL     1     -11.925  12.599  64.948  1.00  0.00    -0.459 A  
HETATM   23  C   UNL     1     -10.816  15.127  65.047  1.00  0.00    -0.457 A  
ENDBRANCH   6  18
BRANCH   4  24
HETATM   24  C   UNL     1     -11.067  12.378  68.995  1.00  0.00    -0.235 A  
HETATM   25  C   UNL     1     -11.014  13.772  69.154  1.00  0.00    -0.246 A  
HETATM   26  C   UNL     1     -12.659  12.282  70.816  1.00  0.00    -0.302 A  
HETATM   27  C   UNL     1     -11.770  14.417  70.133  1.00  0.00    -0.361 A  
HETATM   28  C   UNL     1     -11.911  11.636  69.826  1.00  0.00    -0.428 A  
HETATM   29  C   UNL     1     -12.587  13.664  70.970  1.00  0.00    -0.441 A  
ENDBRANCH   4  24
TORSDOF 6
ENDMDL
MODEL       97
REMARK 921   NORMALIZED FREE ENERGY PREDICTED BY IDOCK:   -5.45 KCAL/MOL
REMARK 922        TOTAL FREE ENERGY PREDICTED BY IDOCK:   -8.59 KCAL/MOL
REMARK 923 INTER-LIGAND FREE ENERGY PREDICTED BY IDOCK:   -6.82 KCAL/MOL
REMARK 924 INTRA-LIGAND FREE ENERGY PREDICTED BY IDOCK:   -1.78 KCAL/MOL
REMARK 927      BINDING AFFINITY PREDICTED BY RF-SCORE:    0.00 PKD
ROOT
HETATM    1  O   UNL     1      -8.216   7.564  69.987  1.00  0.00    -0.125 OA 
HETATM    2  C   UNL     1      -8.636   6.552  69.441  1.00  0.00    -0.134 C  
HETATM    3  C   UNL     1      -9.283   5.418  70.188  1.00  0.00    -0.177 C  
HETATM    4  N   UNL     1      -8.765   6.276  68.060  1.00  0.00    -0.115 N  
HETATM    5  C   UNL     1      -9.406   4.351  69.149  1.00  0.00    -0.155 C  
HETATM    6  N   UNL     1      -9.361   4.983  67.895  1.00  0.00    -0.119 N  
HETATM    7  O   UNL     1      -9.548   3.172  69.448  1.00  0.00    -0.150 OA 
ENDROOT
BRANCH   3   8
HETATM    8  C   UNL     1     -10.691   5.834  70.641  1.00  0.00    -0.351 C  
BRANCH   8   9
HETATM    9  C   UNL     1     -11.013   5.479  72.102  1.00  0.00    -0.231 C  
BRANCH   9  10
HETATM   10  S   UNL     1     -10.649   6.925  73.168  1.00  0.00    -0.326 S  
HETATM   11  O   UNL     1      -9.186   7.224  73.008  1.00  0.00    -0.135 OA 
BRANCH  10  12
HETATM   12  C   UNL     1     -11.512   8.192  72.206  1.00  0.00    -0.371 A  
HETATM   13  C   UNL     1     -11.480  10.192  70.834  1.00  0.00    -0.444 A  
HETATM   14  C   UNL     1     -13.588   9.269  71.563  1.00  0.00    -0.412 A  
HETATM   15  C   UNL     1     -12.873  10.243  70.867  1.00  0.00    -0.463 A  
HETATM   16  C   UNL     1     -12.911   8.244  72.230  1.00  0.00    -0.313 A  
HETATM   17  C   UNL     1     -10.801   9.172  71.504  1.00  0.00    -0.436 A  
ENDBRANCH  10  12
ENDBRANCH   9  10
ENDBRANCH   8   9
ENDBRANCH   3   8
BRANCH   6  18
HETATM   18  C   UNL     1      -9.540   4.271  66.664  1.00  0.00    -0.201 A  
HETATM   19  C   UNL     1     -10.768   4.002  64.551  1.00  0.00    -0.181 A  
HETATM   20  C   UNL     1      -9.840   3.074  64.106  1.00  0.00    -0.158 A  
HETATM   21  C   UNL     1      -8.657   3.281  66.216  1.00  0.00    -0.121 A  
HETATM   22  C   UNL     1     -10.611   4.596  65.807  1.00  0.00    -0.264 A  
HETATM   23  C   UNL     1      -8.790   2.708  64.943  1.00  0.00    -0.121 A  
ENDBRANCH   6  18
BRANCH   4  24
HETATM   24  C   UNL     1      -8.924   7.412  67.218  1.00  0.00    -0.124 A  
HETATM   25  C   UNL     1     -10.069   8.206  67.384  1.00  0.00    -0.298 A  
HETATM   26  C   UNL     1      -8.314   8.779  65.315  1.00  0.00    -0.168 A  
HETATM   27  C   UNL     1     -10.341   9.272  66.525  1.00  0.00    -0.270 A  
HETATM   28  C   UNL     1      -8.037   7.717  66.183  1.00  0.00    -0.118 A  
HETATM   29  C   UNL     1      -9.461   9.550  65.484  1.00  0.00    -0.334 A  
ENDBRANCH   4  24
TORSDOF 6
ENDMDL
MODEL       98
REMARK 921   NORMALIZED FREE ENERGY PREDICTED BY IDOCK:   -5.45 KCAL/MOL
REMARK 922        TOTAL FREE ENERGY PREDICTED BY IDOCK:   -8.59 KCAL/MOL
REMARK 923 INTER-LIGAND FREE ENERGY PREDICTED BY IDOCK:   -7.08 KCAL/MOL
REMARK 924 INTRA-LIGAND FREE ENERGY PREDICTED BY IDOCK:   -1.51 KCAL/MOL
REMARK 927      BINDING AFFINITY PREDICTED BY RF-SCORE:    0.00 PKD
ROOT
HETATM    1  O   UNL     1     -11.965  11.768  67.516  1.00  0.00    -0.607 OA 
HETATM    2  C   UNL     1     -11.467  10.830  68.126  1.00  0.00    -0.271 C  
HETATM    3  C   UNL     1     -10.343   9.994  67.580  1.00  0.00    -0.282 C  
HETATM    4  N   UNL     1     -11.686  10.422  69.462  1.00  0.00    -0.221 N  
HETATM    5  C   UNL     1     -10.248   8.868  68.557  1.00  0.00    -0.197 C  
HETATM    6  N   UNL     1     -10.836   9.306  69.756  1.00  0.00    -0.232 N  
HETATM    7  O   UNL     1      -9.707   7.808  68.271  1.00  0.00    -0.153 OA 
ENDROOT
BRANCH   3   8
HETATM    8  C   UNL     1      -9.033  10.798  67.619  1.00  0.00    -0.140 C  
BRANCH   8   9
HETATM    9  C   UNL     1      -8.074  10.498  66.457  1.00  0.00    -0.134 C  
BRANCH   9  10
HETATM   10  S   UNL     1      -6.346  10.606  67.056  1.00  0.00    -0.080 S  
HETATM   11  O   UNL     1      -6.268  11.822  67.936  1.00  0.00    -0.047 OA 
BRANCH  10  12
HETATM   12  C   UNL     1      -6.364   9.191  68.184  1.00  0.00    -0.055 A  
HETATM   13  C   UNL     1      -6.383   8.279  70.432  1.00  0.00    -0.035 A  
HETATM   14  C   UNL     1      -6.127   6.803  68.538  1.00  0.00    -0.026 A  
HETATM   15  C   UNL     1      -6.216   6.994  69.917  1.00  0.00    -0.031 A  
HETATM   16  C   UNL     1      -6.203   7.898  67.673  1.00  0.00    -0.051 A  
HETATM   17  C   UNL     1      -6.454   9.374  69.569  1.00  0.00    -0.043 A  
ENDBRANCH  10  12
ENDBRANCH   9  10
ENDBRANCH   8   9
ENDBRANCH   3   8
BRANCH   6  18
HETATM   18  C   UNL     1     -10.845   8.510  70.948  1.00  0.00    -0.232 A  
HETATM   19  C   UNL     1     -11.719   6.563  72.169  1.00  0.00    -0.353 A  
HETATM   20  C   UNL     1     -10.778   6.744  73.170  1.00  0.00    -0.326 A  
HETATM   21  C   UNL     1      -9.952   8.709  72.007  1.00  0.00    -0.399 A  
HETATM   22  C   UNL     1     -11.742   7.430  71.071  1.00  0.00    -0.326 A  
HETATM   23  C   UNL     1      -9.901   7.822  73.093  1.00  0.00    -0.361 A  
ENDBRANCH   6  18
BRANCH   4  24
HETATM   24  C   UNL     1     -12.102  11.447  70.357  1.00  0.00    -0.384 A  
HETATM   25  C   UNL     1     -12.910  11.088  71.448  1.00  0.00    -0.548 A  
HETATM   26  C   UNL     1     -12.356  13.768  70.997  1.00  0.00    -0.452 A  
HETATM   27  C   UNL     1     -13.440  12.054  72.303  1.00  0.00    -0.239 A  
HETATM   28  C   UNL     1     -11.816  12.798  70.147  1.00  0.00    -0.326 A  
HETATM   29  C   UNL     1     -13.166  13.398  72.069  1.00  0.00    -0.531 A  
ENDBRANCH   4  24
TORSDOF 6
ENDMDL
MODEL       99
REMARK 921   NORMALIZED FREE ENERGY PREDICTED BY IDOCK:   -5.45 KCAL/MOL
REMARK 922        TOTAL FREE ENERGY PREDICTED BY IDOCK:   -8.59 KCAL/MOL
REMARK 923 INTER-LIGAND FREE ENERGY PREDICTED BY IDOCK:   -7.53 KCAL/MOL
REMARK 924 INTRA-LIGAND FREE ENERGY PREDICTED BY IDOCK:   -1.06 KCAL/MOL
REMARK 927      BINDING AFFINITY PREDICTED BY RF-SCORE:    0.00 PKD
ROOT
HETATM    1  O   UNL     1     -12.249  11.705  67.208  1.00  0.00    -0.414 OA 
HETATM    2  C   UNL     1     -11.044  11.622  67.408  1.00  0.00    -0.281 C  
HETATM    3  C   UNL     1     -10.052  12.630  66.898  1.00  0.00    -0.234 C  
HETATM    4  N   UNL     1     -10.341  10.722  68.242  1.00  0.00    -0.165 N  
HETATM    5  C   UNL     1      -8.734  11.988  67.186  1.00  0.00    -0.183 C  
HETATM    6  N   UNL     1      -8.944  11.041  68.203  1.00  0.00    -0.145 N  
HETATM    7  O   UNL     1      -7.711  12.323  66.603  1.00  0.00     0.008 OA 
ENDROOT
BRANCH   3   8
HETATM    8  C   UNL     1     -10.162  13.926  67.717  1.00  0.00    -0.237 C  
BRANCH   8   9
HETATM    9  C   UNL     1     -11.037  15.009  67.066  1.00  0.00    -0.334 C  
BRANCH   9  10
HETATM   10  S   UNL     1     -10.043  15.925  65.828  1.00  0.00    -0.369 S  
HETATM   11  O   UNL     1     -10.924  16.124  64.628  1.00  0.00    -0.642 OA 
BRANCH  10  12
HETATM   12  C   UNL     1      -9.990  17.531  66.662  1.00  0.00    -0.314 A  
HETATM   13  C   UNL     1     -10.406  18.918  68.608  1.00  0.00    -0.267 A  
HETATM   14  C   UNL     1      -9.678  19.933  66.542  1.00  0.00    -0.547 A  
HETATM   15  C   UNL     1     -10.062  20.055  67.878  1.00  0.00    -0.559 A  
HETATM   16  C   UNL     1      -9.639  18.675  65.935  1.00  0.00     0.091 A  
HETATM   17  C   UNL     1     -10.373  17.660  68.002  1.00  0.00    -0.375 A  
ENDBRANCH  10  12
ENDBRANCH   9  10
ENDBRANCH   8   9
ENDBRANCH   3   8
BRANCH   6  18
HETATM   18  C   UNL     1      -7.875  10.293  68.796  1.00  0.00    -0.106 A  
HETATM   19  C   UNL     1      -6.215  10.064  70.595  1.00  0.00    -0.103 A  
HETATM   20  C   UNL     1      -5.904   8.782  70.172  1.00  0.00    -0.027 A  
HETATM   21  C   UNL     1      -7.492   9.023  68.351  1.00  0.00    -0.082 A  
HETATM   22  C   UNL     1      -7.194  10.801  69.920  1.00  0.00    -0.059 A  
HETATM   23  C   UNL     1      -6.536   8.265  69.045  1.00  0.00    -0.048 A  
ENDBRANCH   6  18
BRANCH   4  24
HETATM   24  C   UNL     1     -11.076  10.205  69.345  1.00  0.00    -0.243 A  
HETATM   25  C   UNL     1     -11.891  11.087  70.072  1.00  0.00    -0.435 A  
HETATM   26  C   UNL     1     -11.611   8.470  70.947  1.00  0.00    -0.295 A  
HETATM   27  C   UNL     1     -12.557  10.671  71.226  1.00  0.00    -0.533 A  
HETATM   28  C   UNL     1     -10.953   8.884  69.784  1.00  0.00    -0.164 A  
HETATM   29  C   UNL     1     -12.407   9.360  71.665  1.00  0.00    -0.465 A  
ENDBRANCH   4  24
TORSDOF 6
ENDMDL
MODEL      100
REMARK 921   NORMALIZED FREE ENERGY PREDICTED BY IDOCK:   -5.44 KCAL/MOL
REMARK 922        TOTAL FREE ENERGY PREDICTED BY IDOCK:   -8.58 KCAL/MOL
REMARK 923 INTER-LIGAND FREE ENERGY PREDICTED BY IDOCK:   -6.88 KCAL/MOL
REMARK 924 INTRA-LIGAND FREE ENERGY PREDICTED BY IDOCK:   -1.71 KCAL/MOL
REMARK 927      BINDING AFFINITY PREDICTED BY RF-SCORE:    0.00 PKD
ROOT
HETATM    1  O   UNL     1      -7.832  14.263  70.289  1.00  0.00     0.730 OA 
HETATM    2  C   UNL     1      -7.915  15.114  69.413  1.00  0.00    -0.205 C  
HETATM    3  C   UNL     1      -6.958  15.205  68.256  1.00  0.00    -0.117 C  
HETATM    4  N   UNL     1      -8.943  16.058  69.184  1.00  0.00    -0.249 N  
HETATM    5  C   UNL     1      -7.320  16.504  67.614  1.00  0.00    -0.138 C  
HETATM    6  N   UNL     1      -8.634  16.811  68.004  1.00  0.00    -0.205 N  
HETATM    7  O   UNL     1      -6.545  17.096  66.873  1.00  0.00    -0.164 OA 
ENDROOT
BRANCH   3   8
HETATM    8  C   UNL     1      -7.237  14.065  67.263  1.00  0.00     0.018 C  
BRANCH   8   9
HETATM    9  C   UNL     1      -8.329  13.085  67.720  1.00  0.00    -0.175 C  
BRANCH   9  10
HETATM   10  S   UNL     1      -8.835  12.041  66.301  1.00  0.00    -0.003 S  
HETATM   11  O   UNL     1      -9.417  10.781  66.877  1.00  0.00    -0.165 OA 
BRANCH  10  12
HETATM   12  C   UNL     1     -10.251  13.017  65.740  1.00  0.00    -0.290 A  
HETATM   13  C   UNL     1     -11.201  15.106  64.953  1.00  0.00    -0.424 A  
HETATM   14  C   UNL     1     -12.650  13.246  65.470  1.00  0.00    -0.505 A  
HETATM   15  C   UNL     1     -12.482  14.562  65.040  1.00  0.00    -0.307 A  
HETATM   16  C   UNL     1     -11.539  12.474  65.818  1.00  0.00    -0.439 A  
HETATM   17  C   UNL     1     -10.089  14.338  65.305  1.00  0.00    -0.378 A  
ENDBRANCH  10  12
ENDBRANCH   9  10
ENDBRANCH   8   9
ENDBRANCH   3   8
BRANCH   6  18
HETATM   18  C   UNL     1      -9.344  17.951  67.503  1.00  0.00    -0.253 A  
HETATM   19  C   UNL     1     -10.070  20.279  67.817  1.00  0.00    -0.505 A  
HETATM   20  C   UNL     1     -10.530  20.332  66.512  1.00  0.00    -0.326 A  
HETATM   21  C   UNL     1      -9.879  18.013  66.212  1.00  0.00    -0.310 A  
HETATM   22  C   UNL     1      -9.477  19.107  68.299  1.00  0.00    -0.408 A  
HETATM   23  C   UNL     1     -10.442  19.196  65.712  1.00  0.00    -0.404 A  
ENDBRANCH   6  18
BRANCH   4  24
HETATM   24  C   UNL     1     -10.233  15.687  69.656  1.00  0.00    -0.291 A  
HETATM   25  C   UNL     1     -10.718  16.306  70.819  1.00  0.00     0.216 A  
HETATM   26  C   UNL     1     -12.201  14.276  69.648  1.00  0.00    -0.371 A  
HETATM   27  C   UNL     1     -11.927  15.915  71.396  1.00  0.00    -0.515 A  
HETATM   28  C   UNL     1     -10.994  14.676  69.064  1.00  0.00    -0.269 A  
HETATM   29  C   UNL     1     -12.663  14.891  70.809  1.00  0.00    -0.421 A  
ENDBRANCH   4  24
TORSDOF 6
ENDMDL
MODEL      101
REMARK 921   NORMALIZED FREE ENERGY PREDICTED BY IDOCK:   -5.44 KCAL/MOL
REMARK 922        TOTAL FREE ENERGY PREDICTED BY IDOCK:   -8.58 KCAL/MOL
REMARK 923 INTER-LIGAND FREE ENERGY PREDICTED BY IDOCK:   -6.68 KCAL/MOL
REMARK 924 INTRA-LIGAND FREE ENERGY PREDICTED BY IDOCK:   -1.91 KCAL/MOL
REMARK 927      BINDING AFFINITY PREDICTED BY RF-SCORE:    0.00 PKD
ROOT
HETATM    1  O   UNL     1     -10.977   9.077  68.165  1.00  0.00    -0.087 OA 
HETATM    2  C   UNL     1     -10.202   8.451  68.876  1.00  0.00    -0.210 C  
HETATM    3  C   UNL     1      -8.707   8.507  68.719  1.00  0.00    -0.139 C  
HETATM    4  N   UNL     1     -10.476   7.699  70.043  1.00  0.00    -0.224 N  
HETATM    5  C   UNL     1      -8.227   7.425  69.632  1.00  0.00    -0.130 C  
HETATM    6  N   UNL     1      -9.245   7.190  70.572  1.00  0.00    -0.158 N  
HETATM    7  O   UNL     1      -7.116   6.925  69.512  1.00  0.00    -0.070 OA 
ENDROOT
BRANCH   3   8
HETATM    8  C   UNL     1      -8.183   9.858  69.231  1.00  0.00    -0.138 C  
BRANCH   8   9
HETATM    9  C   UNL     1      -7.009  10.426  68.420  1.00  0.00    -0.069 C  
BRANCH   9  10
HETATM   10  S   UNL     1      -7.299  12.208  68.103  1.00  0.00    -0.113 S  
HETATM   11  O   UNL     1      -6.408  12.594  66.957  1.00  0.00    -0.212 OA 
BRANCH  10  12
HETATM   12  C   UNL     1      -8.965  12.088  67.404  1.00  0.00    -0.176 A  
HETATM   13  C   UNL     1     -10.451  11.559  65.561  1.00  0.00    -0.327 A  
HETATM   14  C   UNL     1     -11.332  12.588  67.559  1.00  0.00    -0.368 A  
HETATM   15  C   UNL     1     -11.531  12.072  66.279  1.00  0.00    -0.408 A  
HETATM   16  C   UNL     1     -10.053  12.595  68.122  1.00  0.00    -0.231 A  
HETATM   17  C   UNL     1      -9.171  11.570  66.120  1.00  0.00    -0.230 A  
ENDBRANCH  10  12
ENDBRANCH   9  10
ENDBRANCH   8   9
ENDBRANCH   3   8
BRANCH   6  18
HETATM   18  C   UNL     1      -9.094   6.272  71.662  1.00  0.00    -0.145 A  
HETATM   19  C   UNL     1      -9.348   3.988  72.536  1.00  0.00    -0.160 A  
HETATM   20  C   UNL     1      -8.636   4.324  73.676  1.00  0.00    -0.092 A  
HETATM   21  C   UNL     1      -8.438   6.600  72.853  1.00  0.00    -0.123 A  
HETATM   22  C   UNL     1      -9.563   4.948  71.542  1.00  0.00    -0.218 A  
HETATM   23  C   UNL     1      -8.189   5.632  73.838  1.00  0.00    -0.110 A  
ENDBRANCH   6  18
BRANCH   4  24
HETATM   24  C   UNL     1     -11.628   8.101  70.775  1.00  0.00    -0.238 A  
HETATM   25  C   UNL     1     -12.651   7.160  70.972  1.00  0.00    -0.335 A  
HETATM   26  C   UNL     1     -13.027   9.768  71.835  1.00  0.00    -0.535 A  
HETATM   27  C   UNL     1     -13.851   7.515  71.588  1.00  0.00    -0.486 A  
HETATM   28  C   UNL     1     -11.820   9.409  71.227  1.00  0.00    -0.435 A  
HETATM   29  C   UNL     1     -14.038   8.827  72.012  1.00  0.00    -0.508 A  
ENDBRANCH   4  24
TORSDOF 6
ENDMDL
MODEL      102
REMARK 921   NORMALIZED FREE ENERGY PREDICTED BY IDOCK:   -5.44 KCAL/MOL
REMARK 922        TOTAL FREE ENERGY PREDICTED BY IDOCK:   -8.58 KCAL/MOL
REMARK 923 INTER-LIGAND FREE ENERGY PREDICTED BY IDOCK:   -8.68 KCAL/MOL
REMARK 924 INTRA-LIGAND FREE ENERGY PREDICTED BY IDOCK:    0.10 KCAL/MOL
REMARK 927      BINDING AFFINITY PREDICTED BY RF-SCORE:    0.00 PKD
ROOT
HETATM    1  O   UNL     1     -12.255  11.536  67.582  1.00  0.00    -0.513 OA 
HETATM    2  C   UNL     1     -11.457  10.810  68.161  1.00  0.00    -0.271 C  
HETATM    3  C   UNL     1     -10.201  10.288  67.521  1.00  0.00    -0.254 C  
HETATM    4  N   UNL     1     -11.423  10.436  69.525  1.00  0.00    -0.253 N  
HETATM    5  C   UNL     1      -9.700   9.291  68.515  1.00  0.00    -0.150 C  
HETATM    6  N   UNL     1     -10.270   9.618  69.757  1.00  0.00    -0.220 N  
HETATM    7  O   UNL     1      -8.912   8.407  68.202  1.00  0.00    -0.138 OA 
ENDROOT
BRANCH   3   8
HETATM    8  C   UNL     1      -9.173  11.424  67.396  1.00  0.00    -0.164 C  
BRANCH   8   9
HETATM    9  C   UNL     1      -8.056  11.153  66.375  1.00  0.00    -0.159 C  
BRANCH   9  10
HETATM   10  S   UNL     1      -8.800  10.553  64.811  1.00  0.00    -0.192 S  
HETATM   11  O   UNL     1      -9.536   9.285  65.141  1.00  0.00    -0.213 OA 
BRANCH  10  12
HETATM   12  C   UNL     1     -10.078  11.820  64.618  1.00  0.00    -0.272 A  
HETATM   13  C   UNL     1     -10.810  14.126  64.782  1.00  0.00    -0.426 A  
HETATM   14  C   UNL     1     -12.403  12.395  64.241  1.00  0.00    -0.544 A  
HETATM   15  C   UNL     1     -12.115  13.739  64.479  1.00  0.00    -0.463 A  
HETATM   16  C   UNL     1     -11.388  11.437  64.308  1.00  0.00    -0.244 A  
HETATM   17  C   UNL     1      -9.795  13.170  64.855  1.00  0.00    -0.044 A  
ENDBRANCH  10  12
ENDBRANCH   9  10
ENDBRANCH   8   9
ENDBRANCH   3   8
BRANCH   6  18
HETATM   18  C   UNL     1      -9.940   8.922  70.966  1.00  0.00    -0.256 A  
HETATM   19  C   UNL     1      -8.241   8.275  72.622  1.00  0.00    -0.223 A  
HETATM   20  C   UNL     1      -9.222   7.765  73.457  1.00  0.00    -0.350 A  
HETATM   21  C   UNL     1     -10.900   8.338  71.799  1.00  0.00    -0.332 A  
HETATM   22  C   UNL     1      -8.600   8.853  71.399  1.00  0.00    -0.238 A  
HETATM   23  C   UNL     1     -10.550   7.789  73.042  1.00  0.00    -0.441 A  
ENDBRANCH   6  18
BRANCH   4  24
HETATM   24  C   UNL     1     -12.024  11.356  70.429  1.00  0.00    -0.374 A  
HETATM   25  C   UNL     1     -12.859  10.847  71.437  1.00  0.00    -0.554 A  
HETATM   26  C   UNL     1     -12.601  13.593  71.151  1.00  0.00    -0.452 A  
HETATM   27  C   UNL     1     -13.562  11.697  72.291  1.00  0.00    -0.007 A  
HETATM   28  C   UNL     1     -11.887  12.740  70.303  1.00  0.00    -0.292 A  
HETATM   29  C   UNL     1     -13.435  13.074  72.139  1.00  0.00    -0.638 A  
ENDBRANCH   4  24
TORSDOF 6
ENDMDL
MODEL      103
REMARK 921   NORMALIZED FREE ENERGY PREDICTED BY IDOCK:   -5.43 KCAL/MOL
REMARK 922        TOTAL FREE ENERGY PREDICTED BY IDOCK:   -8.57 KCAL/MOL
REMARK 923 INTER-LIGAND FREE ENERGY PREDICTED BY IDOCK:   -7.05 KCAL/MOL
REMARK 924 INTRA-LIGAND FREE ENERGY PREDICTED BY IDOCK:   -1.53 KCAL/MOL
REMARK 927      BINDING AFFINITY PREDICTED BY RF-SCORE:    0.00 PKD
ROOT
HETATM    1  O   UNL     1      -7.665   8.107  66.907  1.00  0.00    -0.093 OA 
HETATM    2  C   UNL     1      -8.302   8.090  67.953  1.00  0.00    -0.129 C  
HETATM    3  C   UNL     1      -8.699   9.335  68.698  1.00  0.00    -0.132 C  
HETATM    4  N   UNL     1      -8.924   6.996  68.598  1.00  0.00    -0.131 N  
HETATM    5  C   UNL     1      -9.234   8.805  69.988  1.00  0.00    -0.168 C  
HETATM    6  N   UNL     1      -9.604   7.468  69.768  1.00  0.00    -0.163 N  
HETATM    7  O   UNL     1      -9.320   9.506  70.988  1.00  0.00    -0.201 OA 
ENDROOT
BRANCH   3   8
HETATM    8  C   UNL     1      -9.833  10.049  67.945  1.00  0.00    -0.171 C  
BRANCH   8   9
HETATM    9  C   UNL     1     -10.027  11.520  68.347  1.00  0.00    -0.206 C  
BRANCH   9  10
HETATM   10  S   UNL     1      -9.241  12.598  67.091  1.00  0.00    -0.221 S  
HETATM   11  O   UNL     1      -7.985  11.901  66.647  1.00  0.00    -0.132 OA 
BRANCH  10  12
HETATM   12  C   UNL     1     -10.430  12.356  65.748  1.00  0.00    -0.259 A  
HETATM   13  C   UNL     1     -10.956  11.624  63.496  1.00  0.00    -0.485 A  
HETATM   14  C   UNL     1     -12.625  12.774  64.807  1.00  0.00    -0.518 A  
HETATM   15  C   UNL     1     -12.242  12.149  63.620  1.00  0.00    -0.663 A  
HETATM   16  C   UNL     1     -11.724  12.877  65.869  1.00  0.00    -0.449 A  
HETATM   17  C   UNL     1     -10.052  11.729  64.555  1.00  0.00    -0.312 A  
ENDBRANCH  10  12
ENDBRANCH   9  10
ENDBRANCH   8   9
ENDBRANCH   3   8
BRANCH   6  18
HETATM   18  C   UNL     1     -10.242   6.667  70.772  1.00  0.00    -0.196 A  
HETATM   19  C   UNL     1     -10.061   4.932  72.505  1.00  0.00    -0.233 A  
HETATM   20  C   UNL     1     -11.354   5.191  72.927  1.00  0.00    -0.354 A  
HETATM   21  C   UNL     1     -11.568   6.858  71.175  1.00  0.00    -0.363 A  
HETATM   22  C   UNL     1      -9.513   5.668  71.449  1.00  0.00    -0.176 A  
HETATM   23  C   UNL     1     -12.110   6.147  72.256  1.00  0.00    -0.237 A  
ENDBRANCH   6  18
BRANCH   4  24
HETATM   24  C   UNL     1      -9.313   5.923  67.749  1.00  0.00    -0.106 A  
HETATM   25  C   UNL     1      -8.454   4.818  67.638  1.00  0.00    -0.104 A  
HETATM   26  C   UNL     1     -10.727   4.927  66.055  1.00  0.00    -0.247 A  
HETATM   27  C   UNL     1      -8.721   3.780  66.745  1.00  0.00    -0.120 A  
HETATM   28  C   UNL     1     -10.464   5.962  66.959  1.00  0.00    -0.341 A  
HETATM   29  C   UNL     1      -9.859   3.844  65.947  1.00  0.00    -0.137 A  
ENDBRANCH   4  24
TORSDOF 6
ENDMDL
MODEL      104
REMARK 921   NORMALIZED FREE ENERGY PREDICTED BY IDOCK:   -5.43 KCAL/MOL
REMARK 922        TOTAL FREE ENERGY PREDICTED BY IDOCK:   -8.57 KCAL/MOL
REMARK 923 INTER-LIGAND FREE ENERGY PREDICTED BY IDOCK:   -7.05 KCAL/MOL
REMARK 924 INTRA-LIGAND FREE ENERGY PREDICTED BY IDOCK:   -1.53 KCAL/MOL
REMARK 927      BINDING AFFINITY PREDICTED BY RF-SCORE:    0.00 PKD
ROOT
HETATM    1  O   UNL     1      -6.493   7.948  68.360  1.00  0.00    -0.050 OA 
HETATM    2  C   UNL     1      -7.582   8.263  67.896  1.00  0.00    -0.102 C  
HETATM    3  C   UNL     1      -8.842   7.479  68.140  1.00  0.00    -0.127 C  
HETATM    4  N   UNL     1      -7.946   9.442  67.204  1.00  0.00    -0.102 N  
HETATM    5  C   UNL     1      -9.822   8.107  67.203  1.00  0.00    -0.217 C  
HETATM    6  N   UNL     1      -9.346   9.395  66.904  1.00  0.00    -0.142 N  
HETATM    7  O   UNL     1     -10.839   7.526  66.848  1.00  0.00    -0.345 OA 
ENDROOT
BRANCH   3   8
HETATM    8  C   UNL     1      -9.321   7.703  69.583  1.00  0.00    -0.156 C  
BRANCH   8   9
HETATM    9  C   UNL     1     -10.733   7.169  69.868  1.00  0.00    -0.239 C  
BRANCH   9  10
HETATM   10  S   UNL     1     -11.187   7.557  71.601  1.00  0.00    -0.249 S  
HETATM   11  O   UNL     1      -9.900   7.735  72.356  1.00  0.00    -0.177 OA 
BRANCH  10  12
HETATM   12  C   UNL     1     -11.832   9.228  71.342  1.00  0.00    -0.358 A  
HETATM   13  C   UNL     1     -11.648  11.437  70.358  1.00  0.00    -0.267 A  
HETATM   14  C   UNL     1     -13.404  10.972  71.947  1.00  0.00    -0.423 A  
HETATM   15  C   UNL     1     -12.754  11.862  71.092  1.00  0.00    -0.384 A  
HETATM   16  C   UNL     1     -12.947   9.658  72.072  1.00  0.00    -0.518 A  
HETATM   17  C   UNL     1     -11.186  10.125  70.484  1.00  0.00    -0.411 A  
ENDBRANCH  10  12
ENDBRANCH   9  10
ENDBRANCH   8   9
ENDBRANCH   3   8
BRANCH   6  18
HETATM   18  C   UNL     1     -10.083  10.323  66.097  1.00  0.00    -0.242 A  
HETATM   19  C   UNL     1     -11.516  12.317  65.966  1.00  0.00    -0.434 A  
HETATM   20  C   UNL     1     -11.389  12.341  64.586  1.00  0.00    -0.375 A  
HETATM   21  C   UNL     1     -10.030  10.332  64.699  1.00  0.00    -0.377 A  
HETATM   22  C   UNL     1     -10.863  11.327  66.707  1.00  0.00    -0.334 A  
HETATM   23  C   UNL     1     -10.654  11.343  63.953  1.00  0.00    -0.452 A  
ENDBRANCH   6  18
BRANCH   4  24
HETATM   24  C   UNL     1      -7.166  10.594  67.501  1.00  0.00    -0.090 A  
HETATM   25  C   UNL     1      -7.531  11.376  68.608  1.00  0.00    -0.119 A  
HETATM   26  C   UNL     1      -5.463  12.232  66.972  1.00  0.00    -0.020 A  
HETATM   27  C   UNL     1      -6.876  12.574  68.895  1.00  0.00    -0.098 A  
HETATM   28  C   UNL     1      -6.112  11.024  66.691  1.00  0.00    -0.124 A  
HETATM   29  C   UNL     1      -5.845  13.003  68.066  1.00  0.00    -0.112 A  
ENDBRANCH   4  24
TORSDOF 6
ENDMDL
MODEL      105
REMARK 921   NORMALIZED FREE ENERGY PREDICTED BY IDOCK:   -5.43 KCAL/MOL
REMARK 922        TOTAL FREE ENERGY PREDICTED BY IDOCK:   -8.56 KCAL/MOL
REMARK 923 INTER-LIGAND FREE ENERGY PREDICTED BY IDOCK:   -7.25 KCAL/MOL
REMARK 924 INTRA-LIGAND FREE ENERGY PREDICTED BY IDOCK:   -1.31 KCAL/MOL
REMARK 927      BINDING AFFINITY PREDICTED BY RF-SCORE:    0.00 PKD
ROOT
HETATM    1  O   UNL     1     -12.227  11.052  68.576  1.00  0.00    -0.582 OA 
HETATM    2  C   UNL     1     -11.394  10.598  67.802  1.00  0.00    -0.244 C  
HETATM    3  C   UNL     1     -10.904  11.339  66.589  1.00  0.00    -0.325 C  
HETATM    4  N   UNL     1     -10.615   9.424  67.923  1.00  0.00    -0.245 N  
HETATM    5  C   UNL     1     -10.101  10.310  65.861  1.00  0.00    -0.251 C  
HETATM    6  N   UNL     1      -9.732   9.330  66.797  1.00  0.00    -0.183 N  
HETATM    7  O   UNL     1      -9.844  10.417  64.669  1.00  0.00    -0.299 OA 
ENDROOT
BRANCH   3   8
HETATM    8  C   UNL     1      -9.971  12.481  67.023  1.00  0.00    -0.217 C  
BRANCH   8   9
HETATM    9  C   UNL     1      -9.898  13.648  66.025  1.00  0.00    -0.276 C  
BRANCH   9  10
HETATM   10  S   UNL     1     -11.472  14.586  66.076  1.00  0.00    -0.339 S  
HETATM   11  O   UNL     1     -12.579  13.579  65.948  1.00  0.00    -0.446 OA 
BRANCH  10  12
HETATM   12  C   UNL     1     -11.446  15.059  67.823  1.00  0.00    -0.334 A  
HETATM   13  C   UNL     1     -10.531  16.374  69.644  1.00  0.00    -0.278 A  
HETATM   14  C   UNL     1     -12.146  14.641  70.106  1.00  0.00    -0.385 A  
HETATM   15  C   UNL     1     -11.300  15.654  70.557  1.00  0.00    -0.386 A  
HETATM   16  C   UNL     1     -12.221  14.344  68.743  1.00  0.00    -0.200 A  
HETATM   17  C   UNL     1     -10.600  16.075  68.282  1.00  0.00    -0.283 A  
ENDBRANCH  10  12
ENDBRANCH   9  10
ENDBRANCH   8   9
ENDBRANCH   3   8
BRANCH   6  18
HETATM   18  C   UNL     1      -8.877   8.228  66.467  1.00  0.00    -0.150 A  
HETATM   19  C   UNL     1      -6.604   7.378  66.069  1.00  0.00    -0.049 A  
HETATM   20  C   UNL     1      -7.076   6.076  66.038  1.00  0.00    -0.074 A  
HETATM   21  C   UNL     1      -9.333   6.910  66.362  1.00  0.00    -0.183 A  
HETATM   22  C   UNL     1      -7.493   8.435  66.290  1.00  0.00    -0.089 A  
HETATM   23  C   UNL     1      -8.441   5.843  66.176  1.00  0.00    -0.132 A  
ENDBRANCH   6  18
BRANCH   4  24
HETATM   24  C   UNL     1     -10.363   8.988  69.254  1.00  0.00    -0.219 A  
HETATM   25  C   UNL     1      -9.316   9.596  69.965  1.00  0.00    -0.276 A  
HETATM   26  C   UNL     1     -10.677   7.470  71.114  1.00  0.00    -0.242 A  
HETATM   27  C   UNL     1      -8.947   9.146  71.234  1.00  0.00    -0.207 A  
HETATM   28  C   UNL     1     -11.054   7.928  69.847  1.00  0.00    -0.123 A  
HETATM   29  C   UNL     1      -9.628   8.075  71.802  1.00  0.00    -0.231 A  
ENDBRANCH   4  24
TORSDOF 6
ENDMDL
MODEL      106
REMARK 921   NORMALIZED FREE ENERGY PREDICTED BY IDOCK:   -5.42 KCAL/MOL
REMARK 922        TOTAL FREE ENERGY PREDICTED BY IDOCK:   -8.55 KCAL/MOL
REMARK 923 INTER-LIGAND FREE ENERGY PREDICTED BY IDOCK:   -7.35 KCAL/MOL
REMARK 924 INTRA-LIGAND FREE ENERGY PREDICTED BY IDOCK:   -1.20 KCAL/MOL
REMARK 927      BINDING AFFINITY PREDICTED BY RF-SCORE:    0.00 PKD
ROOT
HETATM    1  O   UNL     1      -9.576   8.120  73.331  1.00  0.00    -0.254 OA 
HETATM    2  C   UNL     1      -9.453   8.658  72.238  1.00  0.00    -0.265 C  
HETATM    3  C   UNL     1      -8.173   8.641  71.449  1.00  0.00    -0.205 C  
HETATM    4  N   UNL     1     -10.445   9.248  71.421  1.00  0.00    -0.341 N  
HETATM    5  C   UNL     1      -8.444   9.600  70.336  1.00  0.00    -0.146 C  
HETATM    6  N   UNL     1      -9.839   9.700  70.202  1.00  0.00    -0.249 N  
HETATM    7  O   UNL     1      -7.539  10.125  69.701  1.00  0.00    -0.123 OA 
ENDROOT
BRANCH   3   8
HETATM    8  C   UNL     1      -7.950   7.241  70.855  1.00  0.00    -0.098 C  
BRANCH   8   9
HETATM    9  C   UNL     1      -8.754   6.965  69.574  1.00  0.00    -0.133 C  
BRANCH   9  10
HETATM   10  S   UNL     1      -8.975   5.156  69.378  1.00  0.00    -0.101 S  
HETATM   11  O   UNL     1     -10.411   4.858  69.707  1.00  0.00    -0.260 OA 
BRANCH  10  12
HETATM   12  C   UNL     1      -8.862   5.066  67.574  1.00  0.00    -0.102 A  
HETATM   13  C   UNL     1      -8.430   6.111  65.428  1.00  0.00    -0.138 A  
HETATM   14  C   UNL     1      -9.287   3.856  65.516  1.00  0.00    -0.160 A  
HETATM   15  C   UNL     1      -8.861   4.957  64.774  1.00  0.00    -0.147 A  
HETATM   16  C   UNL     1      -9.287   3.908  66.912  1.00  0.00    -0.208 A  
HETATM   17  C   UNL     1      -8.434   6.167  66.823  1.00  0.00    -0.111 A  
ENDBRANCH  10  12
ENDBRANCH   9  10
ENDBRANCH   8   9
ENDBRANCH   3   8
BRANCH   6  18
HETATM   18  C   UNL     1     -10.464  10.470  69.168  1.00  0.00    -0.228 A  
HETATM   19  C   UNL     1     -11.745  12.465  68.516  1.00  0.00    -0.373 A  
HETATM   20  C   UNL     1     -11.541  12.182  67.175  1.00  0.00    -0.405 A  
HETATM   21  C   UNL     1     -10.333  10.173  67.807  1.00  0.00    -0.253 A  
HETATM   22  C   UNL     1     -11.204  11.625  69.495  1.00  0.00    -0.282 A  
HETATM   23  C   UNL     1     -10.843  11.032  66.821  1.00  0.00    -0.307 A  
ENDBRANCH   6  18
BRANCH   4  24
HETATM   24  C   UNL     1     -11.763   8.742  71.592  1.00  0.00    -0.332 A  
HETATM   25  C   UNL     1     -12.028   7.427  71.177  1.00  0.00    -0.351 A  
HETATM   26  C   UNL     1     -14.115   9.001  72.103  1.00  0.00    -0.461 A  
HETATM   27  C   UNL     1     -13.321   6.903  71.218  1.00  0.00    -0.205 A  
HETATM   28  C   UNL     1     -12.817   9.522  72.072  1.00  0.00    -0.499 A  
HETATM   29  C   UNL     1     -14.365   7.699  71.677  1.00  0.00    -0.613 A  
ENDBRANCH   4  24
TORSDOF 6
ENDMDL
MODEL      107
REMARK 921   NORMALIZED FREE ENERGY PREDICTED BY IDOCK:   -5.42 KCAL/MOL
REMARK 922        TOTAL FREE ENERGY PREDICTED BY IDOCK:   -8.55 KCAL/MOL
REMARK 923 INTER-LIGAND FREE ENERGY PREDICTED BY IDOCK:   -7.33 KCAL/MOL
REMARK 924 INTRA-LIGAND FREE ENERGY PREDICTED BY IDOCK:   -1.22 KCAL/MOL
REMARK 927      BINDING AFFINITY PREDICTED BY RF-SCORE:    0.00 PKD
ROOT
HETATM    1  O   UNL     1     -10.598   7.681  66.527  1.00  0.00    -0.174 OA 
HETATM    2  C   UNL     1     -10.520   8.650  67.271  1.00  0.00    -0.289 C  
HETATM    3  C   UNL     1     -10.187   8.544  68.733  1.00  0.00    -0.217 C  
HETATM    4  N   UNL     1     -10.556  10.026  66.944  1.00  0.00    -0.220 N  
HETATM    5  C   UNL     1     -10.437   9.927  69.242  1.00  0.00    -0.221 C  
HETATM    6  N   UNL     1     -10.369  10.795  68.139  1.00  0.00    -0.164 N  
HETATM    7  O   UNL     1     -10.625  10.154  70.430  1.00  0.00    -0.290 OA 
ENDROOT
BRANCH   3   8
HETATM    8  C   UNL     1      -8.695   8.216  68.902  1.00  0.00    -0.137 C  
BRANCH   8   9
HETATM    9  C   UNL     1      -8.404   7.129  69.948  1.00  0.00    -0.135 C  
BRANCH   9  10
HETATM   10  S   UNL     1      -9.152   5.548  69.402  1.00  0.00    -0.114 S  
HETATM   11  O   UNL     1      -8.029   4.558  69.276  1.00  0.00    -0.068 OA 
BRANCH  10  12
HETATM   12  C   UNL     1     -10.012   5.114  70.934  1.00  0.00    -0.210 A  
HETATM   13  C   UNL     1     -11.628   5.625  72.669  1.00  0.00    -0.307 A  
HETATM   14  C   UNL     1     -10.196   3.694  72.891  1.00  0.00    -0.236 A  
HETATM   15  C   UNL     1     -11.209   4.511  73.395  1.00  0.00    -0.404 A  
HETATM   16  C   UNL     1      -9.600   3.992  71.663  1.00  0.00    -0.230 A  
HETATM   17  C   UNL     1     -11.030   5.928  71.444  1.00  0.00    -0.327 A  
ENDBRANCH  10  12
ENDBRANCH   9  10
ENDBRANCH   8   9
ENDBRANCH   3   8
BRANCH   6  18
HETATM   18  C   UNL     1     -10.475  12.219  68.269  1.00  0.00    -0.226 A  
HETATM   19  C   UNL     1      -9.383  14.421  68.205  1.00  0.00    -0.206 A  
HETATM   20  C   UNL     1     -10.612  15.055  68.285  1.00  0.00    -0.247 A  
HETATM   21  C   UNL     1     -11.696  12.886  68.417  1.00  0.00    -0.382 A  
HETATM   22  C   UNL     1      -9.320  13.024  68.188  1.00  0.00    -0.217 A  
HETATM   23  C   UNL     1     -11.767  14.287  68.400  1.00  0.00    -0.373 A  
ENDBRANCH   6  18
BRANCH   4  24
HETATM   24  C   UNL     1     -10.124  10.357  65.630  1.00  0.00    -0.269 A  
HETATM   25  C   UNL     1     -10.872  11.297  64.902  1.00  0.00    -0.299 A  
HETATM   26  C   UNL     1      -8.748  10.010  63.669  1.00  0.00    -0.227 A  
HETATM   27  C   UNL     1     -10.567  11.590  63.572  1.00  0.00    -0.487 A  
HETATM   28  C   UNL     1      -9.047   9.725  65.006  1.00  0.00    -0.280 A  
HETATM   29  C   UNL     1      -9.506  10.935  62.956  1.00  0.00    -0.369 A  
ENDBRANCH   4  24
TORSDOF 6
ENDMDL
MODEL      108
REMARK 921   NORMALIZED FREE ENERGY PREDICTED BY IDOCK:   -5.38 KCAL/MOL
REMARK 922        TOTAL FREE ENERGY PREDICTED BY IDOCK:   -8.50 KCAL/MOL
REMARK 923 INTER-LIGAND FREE ENERGY PREDICTED BY IDOCK:   -6.80 KCAL/MOL
REMARK 924 INTRA-LIGAND FREE ENERGY PREDICTED BY IDOCK:   -1.70 KCAL/MOL
REMARK 927      BINDING AFFINITY PREDICTED BY RF-SCORE:    0.00 PKD
ROOT
HETATM    1  O   UNL     1      -7.356   8.238  66.689  1.00  0.00    -0.080 OA 
HETATM    2  C   UNL     1      -7.948   8.251  67.761  1.00  0.00    -0.122 C  
HETATM    3  C   UNL     1      -8.285   9.515  68.503  1.00  0.00    -0.113 C  
HETATM    4  N   UNL     1      -8.566   7.180  68.448  1.00  0.00    -0.124 N  
HETATM    5  C   UNL     1      -8.776   9.015  69.823  1.00  0.00    -0.147 C  
HETATM    6  N   UNL     1      -9.185   7.683  69.639  1.00  0.00    -0.147 N  
HETATM    7  O   UNL     1      -8.804   9.732  70.815  1.00  0.00    -0.155 OA 
ENDROOT
BRANCH   3   8
HETATM    8  C   UNL     1      -9.434  10.243  67.789  1.00  0.00    -0.163 C  
BRANCH   8   9
HETATM    9  C   UNL     1      -9.375  11.775  67.902  1.00  0.00    -0.184 C  
BRANCH   9  10
HETATM   10  S   UNL     1     -11.011  12.476  67.465  1.00  0.00    -0.263 S  
HETATM   11  O   UNL     1     -11.691  11.469  66.581  1.00  0.00    -0.486 OA 
BRANCH  10  12
HETATM   12  C   UNL     1     -11.810  12.321  69.081  1.00  0.00    -0.301 A  
HETATM   13  C   UNL     1     -12.681  13.318  71.114  1.00  0.00    -0.404 A  
HETATM   14  C   UNL     1     -12.563  10.916  70.908  1.00  0.00    -0.494 A  
HETATM   15  C   UNL     1     -12.889  12.049  71.653  1.00  0.00    -0.399 A  
HETATM   16  C   UNL     1     -12.027  11.049  69.625  1.00  0.00    -0.424 A  
HETATM   17  C   UNL     1     -12.140  13.454  69.833  1.00  0.00    -0.389 A  
ENDBRANCH  10  12
ENDBRANCH   9  10
ENDBRANCH   8   9
ENDBRANCH   3   8
BRANCH   6  18
HETATM   18  C   UNL     1      -9.797   6.911  70.681  1.00  0.00    -0.182 A  
HETATM   19  C   UNL     1     -11.817   6.334  71.958  1.00  0.00    -0.370 A  
HETATM   20  C   UNL     1     -11.155   5.280  72.566  1.00  0.00    -0.289 A  
HETATM   21  C   UNL     1      -9.135   5.884  71.361  1.00  0.00    -0.148 A  
HETATM   22  C   UNL     1     -11.147   7.129  71.022  1.00  0.00    -0.287 A  
HETATM   23  C   UNL     1      -9.812   5.061  72.274  1.00  0.00    -0.214 A  
ENDBRANCH   6  18
BRANCH   4  24
HETATM   24  C   UNL     1      -9.014   6.104  67.633  1.00  0.00    -0.111 A  
HETATM   25  C   UNL     1     -10.189   6.283  66.884  1.00  0.00    -0.268 A  
HETATM   26  C   UNL     1      -8.947   3.804  66.882  1.00  0.00    -0.154 A  
HETATM   27  C   UNL     1     -10.742   5.236  66.146  1.00  0.00    -0.211 A  
HETATM   28  C   UNL     1      -8.387   4.857  67.613  1.00  0.00    -0.105 A  
HETATM   29  C   UNL     1     -10.120   3.992  66.155  1.00  0.00    -0.065 A  
ENDBRANCH   4  24
TORSDOF 6
ENDMDL
MODEL      109
REMARK 921   NORMALIZED FREE ENERGY PREDICTED BY IDOCK:   -5.37 KCAL/MOL
REMARK 922        TOTAL FREE ENERGY PREDICTED BY IDOCK:   -8.48 KCAL/MOL
REMARK 923 INTER-LIGAND FREE ENERGY PREDICTED BY IDOCK:   -7.25 KCAL/MOL
REMARK 924 INTRA-LIGAND FREE ENERGY PREDICTED BY IDOCK:   -1.23 KCAL/MOL
REMARK 927      BINDING AFFINITY PREDICTED BY RF-SCORE:    0.00 PKD
ROOT
HETATM    1  O   UNL     1      -8.595  11.461  66.003  1.00  0.00    -0.169 OA 
HETATM    2  C   UNL     1      -9.437  11.644  66.873  1.00  0.00    -0.185 C  
HETATM    3  C   UNL     1     -10.250  10.536  67.482  1.00  0.00    -0.245 C  
HETATM    4  N   UNL     1      -9.727  12.826  67.593  1.00  0.00    -0.200 N  
HETATM    5  C   UNL     1     -11.269  11.266  68.295  1.00  0.00    -0.267 C  
HETATM    6  N   UNL     1     -10.755  12.549  68.553  1.00  0.00    -0.234 N  
HETATM    7  O   UNL     1     -12.316  10.737  68.646  1.00  0.00    -0.430 OA 
ENDROOT
BRANCH   3   8
HETATM    8  C   UNL     1      -9.366   9.704  68.425  1.00  0.00    -0.136 C  
BRANCH   8   9
HETATM    9  C   UNL     1      -9.257   8.220  68.040  1.00  0.00    -0.136 C  
BRANCH   9  10
HETATM   10  S   UNL     1     -10.904   7.432  68.196  1.00  0.00     0.034 S  
HETATM   11  O   UNL     1     -10.790   6.065  67.583  1.00  0.00    -0.281 OA 
BRANCH  10  12
HETATM   12  C   UNL     1     -10.904   7.162  69.986  1.00  0.00    -0.254 A  
HETATM   13  C   UNL     1     -10.550   5.725  71.907  1.00  0.00    -0.285 A  
HETATM   14  C   UNL     1     -11.510   7.919  72.208  1.00  0.00    -0.403 A  
HETATM   15  C   UNL     1     -11.075   6.708  72.746  1.00  0.00    -0.283 A  
HETATM   16  C   UNL     1     -11.423   8.148  70.833  1.00  0.00    -0.288 A  
HETATM   17  C   UNL     1     -10.468   5.950  70.532  1.00  0.00    -0.319 A  
ENDBRANCH  10  12
ENDBRANCH   9  10
ENDBRANCH   8   9
ENDBRANCH   3   8
BRANCH   6  18
HETATM   18  C   UNL     1     -11.431  13.499  69.386  1.00  0.00    -0.282 A  
HETATM   19  C   UNL     1     -12.183  15.811  69.753  1.00  0.00    -0.236 A  
HETATM   20  C   UNL     1     -12.933  15.414  70.848  1.00  0.00    -0.539 A  
HETATM   21  C   UNL     1     -12.142  13.140  70.536  1.00  0.00    -0.385 A  
HETATM   22  C   UNL     1     -11.452  14.863  69.029  1.00  0.00    -0.322 A  
HETATM   23  C   UNL     1     -12.905  14.080  71.245  1.00  0.00    -0.430 A  
ENDBRANCH   6  18
BRANCH   4  24
HETATM   24  C   UNL     1      -8.649  13.745  67.726  1.00  0.00    -0.184 A  
HETATM   25  C   UNL     1      -7.723  13.537  68.761  1.00  0.00    -0.044 A  
HETATM   26  C   UNL     1      -7.509  15.812  67.190  1.00  0.00    -0.259 A  
HETATM   27  C   UNL     1      -6.703  14.455  69.014  1.00  0.00    -0.107 A  
HETATM   28  C   UNL     1      -8.524  14.886  66.930  1.00  0.00    -0.255 A  
HETATM   29  C   UNL     1      -6.605  15.599  68.228  1.00  0.00    -0.126 A  
ENDBRANCH   4  24
TORSDOF 6
ENDMDL
MODEL      110
REMARK 921   NORMALIZED FREE ENERGY PREDICTED BY IDOCK:   -5.36 KCAL/MOL
REMARK 922        TOTAL FREE ENERGY PREDICTED BY IDOCK:   -8.47 KCAL/MOL
REMARK 923 INTER-LIGAND FREE ENERGY PREDICTED BY IDOCK:   -7.12 KCAL/MOL
REMARK 924 INTRA-LIGAND FREE ENERGY PREDICTED BY IDOCK:   -1.35 KCAL/MOL
REMARK 927      BINDING AFFINITY PREDICTED BY RF-SCORE:    0.00 PKD
ROOT
HETATM    1  O   UNL     1     -12.092  11.024  68.811  1.00  0.00    -0.518 OA 
HETATM    2  C   UNL     1     -11.291  10.507  68.042  1.00  0.00    -0.246 C  
HETATM    3  C   UNL     1     -10.824  11.163  66.772  1.00  0.00    -0.322 C  
HETATM    4  N   UNL     1     -10.530   9.327  68.213  1.00  0.00    -0.217 N  
HETATM    5  C   UNL     1     -10.063  10.075  66.086  1.00  0.00    -0.247 C  
HETATM    6  N   UNL     1      -9.685   9.146  67.070  1.00  0.00    -0.175 N  
HETATM    7  O   UNL     1      -9.840  10.103  64.883  1.00  0.00    -0.307 OA 
ENDROOT
BRANCH   3   8
HETATM    8  C   UNL     1      -9.857  12.310  67.107  1.00  0.00    -0.207 C  
BRANCH   8   9
HETATM    9  C   UNL     1      -9.837  13.441  66.067  1.00  0.00    -0.263 C  
BRANCH   9  10
HETATM   10  S   UNL     1     -11.267  14.551  66.354  1.00  0.00    -0.346 S  
HETATM   11  O   UNL     1     -11.982  14.030  67.569  1.00  0.00    -0.386 OA 
BRANCH  10  12
HETATM   12  C   UNL     1     -10.362  16.015  66.914  1.00  0.00    -0.289 A  
HETATM   13  C   UNL     1     -10.285  18.126  68.106  1.00  0.00    -0.400 A  
HETATM   14  C   UNL     1      -8.387  17.417  66.795  1.00  0.00    -0.276 A  
HETATM   15  C   UNL     1      -8.997  18.356  67.626  1.00  0.00    -0.282 A  
HETATM   16  C   UNL     1      -9.065  16.248  66.440  1.00  0.00    -0.336 A  
HETATM   17  C   UNL     1     -10.967  16.961  67.749  1.00  0.00    -0.212 A  
ENDBRANCH  10  12
ENDBRANCH   9  10
ENDBRANCH   8   9
ENDBRANCH   3   8
BRANCH   6  18
HETATM   18  C   UNL     1      -8.860   8.009  66.783  1.00  0.00    -0.140 A  
HETATM   19  C   UNL     1      -6.609   7.035  66.614  1.00  0.00    -0.052 A  
HETATM   20  C   UNL     1      -7.147   5.769  66.453  1.00  0.00    -0.072 A  
HETATM   21  C   UNL     1      -9.375   6.729  66.550  1.00  0.00    -0.197 A  
HETATM   22  C   UNL     1      -7.456   8.135  66.786  1.00  0.00    -0.090 A  
HETATM   23  C   UNL     1      -8.530   5.618  66.413  1.00  0.00    -0.121 A  
ENDBRANCH   6  18
BRANCH   4  24
HETATM   24  C   UNL     1     -10.247   8.968  69.560  1.00  0.00    -0.203 A  
HETATM   25  C   UNL     1      -9.065   9.453  70.142  1.00  0.00    -0.262 A  
HETATM   26  C   UNL     1     -10.649   7.682  71.571  1.00  0.00    -0.239 A  
HETATM   27  C   UNL     1      -8.673   9.057  71.421  1.00  0.00    -0.198 A  
HETATM   28  C   UNL     1     -11.047   8.089  70.293  1.00  0.00    -0.224 A  
HETATM   29  C   UNL     1      -9.467   8.162  72.131  1.00  0.00    -0.291 A  
ENDBRANCH   4  24
TORSDOF 6
ENDMDL
MODEL      111
REMARK 921   NORMALIZED FREE ENERGY PREDICTED BY IDOCK:   -5.36 KCAL/MOL
REMARK 922        TOTAL FREE ENERGY PREDICTED BY IDOCK:   -8.47 KCAL/MOL
REMARK 923 INTER-LIGAND FREE ENERGY PREDICTED BY IDOCK:   -6.92 KCAL/MOL
REMARK 924 INTRA-LIGAND FREE ENERGY PREDICTED BY IDOCK:   -1.55 KCAL/MOL
REMARK 927      BINDING AFFINITY PREDICTED BY RF-SCORE:    0.00 PKD
ROOT
HETATM    1  O   UNL     1      -9.731   8.037  73.220  1.00  0.00    -0.286 OA 
HETATM    2  C   UNL     1      -9.594   8.655  72.173  1.00  0.00    -0.307 C  
HETATM    3  C   UNL     1      -8.282   8.768  71.445  1.00  0.00    -0.203 C  
HETATM    4  N   UNL     1     -10.584   9.241  71.350  1.00  0.00    -0.339 N  
HETATM    5  C   UNL     1      -8.565   9.784  70.387  1.00  0.00    -0.052 C  
HETATM    6  N   UNL     1      -9.956   9.809  70.194  1.00  0.00    -0.255 N  
HETATM    7  O   UNL     1      -7.667  10.403  69.830  1.00  0.00    -0.155 OA 
ENDROOT
BRANCH   3   8
HETATM    8  C   UNL     1      -7.948   7.428  70.771  1.00  0.00    -0.104 C  
BRANCH   8   9
HETATM    9  C   UNL     1      -8.003   7.464  69.236  1.00  0.00    -0.118 C  
BRANCH   9  10
HETATM   10  S   UNL     1      -9.407   6.437  68.658  1.00  0.00    -0.122 S  
HETATM   11  O   UNL     1      -9.170   6.161  67.200  1.00  0.00    -0.116 OA 
BRANCH  10  12
HETATM   12  C   UNL     1      -8.987   4.900  69.517  1.00  0.00    -0.092 A  
HETATM   13  C   UNL     1      -7.644   2.891  69.720  1.00  0.00    -0.044 A  
HETATM   14  C   UNL     1      -9.541   3.221  71.176  1.00  0.00    -0.230 A  
HETATM   15  C   UNL     1      -8.464   2.442  70.755  1.00  0.00    -0.087 A  
HETATM   16  C   UNL     1      -9.802   4.448  70.561  1.00  0.00    -0.285 A  
HETATM   17  C   UNL     1      -7.906   4.114  69.100  1.00  0.00    -0.057 A  
ENDBRANCH  10  12
ENDBRANCH   9  10
ENDBRANCH   8   9
ENDBRANCH   3   8
BRANCH   6  18
HETATM   18  C   UNL     1     -10.582  10.611  69.184  1.00  0.00    -0.226 A  
HETATM   19  C   UNL     1     -11.722  12.701  68.567  1.00  0.00    -0.372 A  
HETATM   20  C   UNL     1     -11.643  12.371  67.224  1.00  0.00    -0.435 A  
HETATM   21  C   UNL     1     -10.579  10.273  67.827  1.00  0.00    -0.296 A  
HETATM   22  C   UNL     1     -11.190  11.836  69.529  1.00  0.00    -0.265 A  
HETATM   23  C   UNL     1     -11.079  11.153  66.855  1.00  0.00    -0.313 A  
ENDBRANCH   6  18
BRANCH   4  24
HETATM   24  C   UNL     1     -11.875   8.646  71.425  1.00  0.00    -0.297 A  
HETATM   25  C   UNL     1     -12.882   9.332  72.121  1.00  0.00    -0.485 A  
HETATM   26  C   UNL     1     -13.410   6.799  71.126  1.00  0.00     0.011 A  
HETATM   27  C   UNL     1     -14.139   8.761  72.324  1.00  0.00    -0.511 A  
HETATM   28  C   UNL     1     -12.154   7.377  70.914  1.00  0.00    -0.290 A  
HETATM   29  C   UNL     1     -14.396   7.486  71.829  1.00  0.00    -0.588 A  
ENDBRANCH   4  24
TORSDOF 6
ENDMDL
MODEL      112
REMARK 921   NORMALIZED FREE ENERGY PREDICTED BY IDOCK:   -5.32 KCAL/MOL
REMARK 922        TOTAL FREE ENERGY PREDICTED BY IDOCK:   -8.42 KCAL/MOL
REMARK 923 INTER-LIGAND FREE ENERGY PREDICTED BY IDOCK:   -6.57 KCAL/MOL
REMARK 924 INTRA-LIGAND FREE ENERGY PREDICTED BY IDOCK:   -1.86 KCAL/MOL
REMARK 927      BINDING AFFINITY PREDICTED BY RF-SCORE:    0.00 PKD
ROOT
HETATM    1  O   UNL     1      -6.808   9.411  71.261  1.00  0.00    -0.239 OA 
HETATM    2  C   UNL     1      -7.987   9.452  70.935  1.00  0.00    -0.052 C  
HETATM    3  C   UNL     1      -8.463  10.022  69.627  1.00  0.00    -0.193 C  
HETATM    4  N   UNL     1      -9.107   8.873  71.576  1.00  0.00    -0.247 N  
HETATM    5  C   UNL     1      -9.947  10.061  69.791  1.00  0.00    -0.241 C  
HETATM    6  N   UNL     1     -10.281   9.137  70.796  1.00  0.00    -0.237 N  
HETATM    7  O   UNL     1     -10.654  10.783  69.100  1.00  0.00    -0.200 OA 
ENDROOT
BRANCH   3   8
HETATM    8  C   UNL     1      -8.115   9.055  68.484  1.00  0.00    -0.107 C  
BRANCH   8   9
HETATM    9  C   UNL     1      -7.954   9.731  67.114  1.00  0.00    -0.102 C  
BRANCH   9  10
HETATM   10  S   UNL     1      -8.122   8.469  65.795  1.00  0.00    -0.123 S  
HETATM   11  O   UNL     1      -6.749   7.909  65.555  1.00  0.00    -0.045 OA 
BRANCH  10  12
HETATM   12  C   UNL     1      -9.004   7.205  66.743  1.00  0.00    -0.137 A  
HETATM   13  C   UNL     1     -11.028   6.377  67.792  1.00  0.00    -0.425 A  
HETATM   14  C   UNL     1      -8.942   5.206  68.115  1.00  0.00    -0.118 A  
HETATM   15  C   UNL     1     -10.310   5.324  68.358  1.00  0.00    -0.178 A  
HETATM   16  C   UNL     1      -8.289   6.142  67.308  1.00  0.00    -0.105 A  
HETATM   17  C   UNL     1     -10.377   7.316  66.990  1.00  0.00    -0.376 A  
ENDBRANCH  10  12
ENDBRANCH   9  10
ENDBRANCH   8   9
ENDBRANCH   3   8
BRANCH   6  18
HETATM   18  C   UNL     1     -11.636   8.845  71.159  1.00  0.00    -0.300 A  
HETATM   19  C   UNL     1     -13.428   7.183  71.425  1.00  0.00    -0.374 A  
HETATM   20  C   UNL     1     -14.229   8.119  72.059  1.00  0.00    -0.486 A  
HETATM   21  C   UNL     1     -12.493   9.786  71.740  1.00  0.00    -0.485 A  
HETATM   22  C   UNL     1     -12.148   7.542  70.992  1.00  0.00    -0.305 A  
HETATM   23  C   UNL     1     -13.764   9.422  72.208  1.00  0.00    -0.495 A  
ENDBRANCH   6  18
BRANCH   4  24
HETATM   24  C   UNL     1      -8.836   7.718  72.361  1.00  0.00    -0.142 A  
HETATM   25  C   UNL     1      -8.679   6.488  71.701  1.00  0.00    -0.132 A  
HETATM   26  C   UNL     1      -8.655   6.550  74.474  1.00  0.00    -0.165 A  
HETATM   27  C   UNL     1      -8.517   5.301  72.416  1.00  0.00    -0.122 A  
HETATM   28  C   UNL     1      -8.807   7.742  73.757  1.00  0.00    -0.326 A  
HETATM   29  C   UNL     1      -8.513   5.336  73.806  1.00  0.00    -0.111 A  
ENDBRANCH   4  24
TORSDOF 6
ENDMDL
MODEL      113
REMARK 921   NORMALIZED FREE ENERGY PREDICTED BY IDOCK:   -5.30 KCAL/MOL
REMARK 922        TOTAL FREE ENERGY PREDICTED BY IDOCK:   -8.39 KCAL/MOL
REMARK 923 INTER-LIGAND FREE ENERGY PREDICTED BY IDOCK:   -6.73 KCAL/MOL
REMARK 924 INTRA-LIGAND FREE ENERGY PREDICTED BY IDOCK:   -1.66 KCAL/MOL
REMARK 927      BINDING AFFINITY PREDICTED BY RF-SCORE:    0.00 PKD
ROOT
HETATM    1  O   UNL     1     -11.111   9.115  68.000  1.00  0.00    -0.044 OA 
HETATM    2  C   UNL     1     -10.201   8.936  68.799  1.00  0.00    -0.206 C  
HETATM    3  C   UNL     1      -8.830   9.532  68.637  1.00  0.00    -0.132 C  
HETATM    4  N   UNL     1     -10.242   8.309  70.067  1.00  0.00    -0.198 N  
HETATM    5  C   UNL     1      -8.034   8.853  69.704  1.00  0.00    -0.092 C  
HETATM    6  N   UNL     1      -8.942   8.384  70.668  1.00  0.00    -0.145 N  
HETATM    7  O   UNL     1      -6.811   8.800  69.663  1.00  0.00    -0.045 OA 
ENDROOT
BRANCH   3   8
HETATM    8  C   UNL     1      -8.881  11.038  68.937  1.00  0.00    -0.120 C  
BRANCH   8   9
HETATM    9  C   UNL     1      -8.198  11.915  67.877  1.00  0.00    -0.150 C  
BRANCH   9  10
HETATM   10  S   UNL     1      -9.474  12.860  66.961  1.00  0.00    -0.241 S  
HETATM   11  O   UNL     1     -10.484  11.861  66.473  1.00  0.00    -0.212 OA 
BRANCH  10  12
HETATM   12  C   UNL     1     -10.254  13.691  68.367  1.00  0.00    -0.245 A  
HETATM   13  C   UNL     1     -12.086  13.914  69.940  1.00  0.00    -0.406 A  
HETATM   14  C   UNL     1     -10.332  15.572  69.895  1.00  0.00    -0.322 A  
HETATM   15  C   UNL     1     -11.528  15.094  70.431  1.00  0.00    -0.322 A  
HETATM   16  C   UNL     1      -9.694  14.872  68.868  1.00  0.00    -0.223 A  
HETATM   17  C   UNL     1     -11.453  13.216  68.910  1.00  0.00    -0.343 A  
ENDBRANCH  10  12
ENDBRANCH   9  10
ENDBRANCH   8   9
ENDBRANCH   3   8
BRANCH   6  18
HETATM   18  C   UNL     1      -8.522   7.755  71.885  1.00  0.00    -0.114 A  
HETATM   19  C   UNL     1      -7.400   5.873  72.999  1.00  0.00    -0.094 A  
HETATM   20  C   UNL     1      -7.455   6.534  74.215  1.00  0.00    -0.098 A  
HETATM   21  C   UNL     1      -8.625   8.369  73.139  1.00  0.00    -0.208 A  
HETATM   22  C   UNL     1      -7.918   6.482  71.852  1.00  0.00    -0.103 A  
HETATM   23  C   UNL     1      -8.075   7.778  74.286  1.00  0.00    -0.274 A  
ENDBRANCH   6  18
BRANCH   4  24
HETATM   24  C   UNL     1     -11.501   8.343  70.728  1.00  0.00    -0.255 A  
HETATM   25  C   UNL     1     -12.244   7.154  70.802  1.00  0.00    -0.308 A  
HETATM   26  C   UNL     1     -13.357   9.507  71.757  1.00  0.00    -0.501 A  
HETATM   27  C   UNL     1     -13.530   7.138  71.343  1.00  0.00    -0.374 A  
HETATM   28  C   UNL     1     -12.063   9.521  71.226  1.00  0.00    -0.443 A  
HETATM   29  C   UNL     1     -14.087   8.322  71.813  1.00  0.00    -0.510 A  
ENDBRANCH   4  24
TORSDOF 6
ENDMDL
MODEL      114
REMARK 921   NORMALIZED FREE ENERGY PREDICTED BY IDOCK:   -5.29 KCAL/MOL
REMARK 922        TOTAL FREE ENERGY PREDICTED BY IDOCK:   -8.38 KCAL/MOL
REMARK 923 INTER-LIGAND FREE ENERGY PREDICTED BY IDOCK:   -7.19 KCAL/MOL
REMARK 924 INTRA-LIGAND FREE ENERGY PREDICTED BY IDOCK:   -1.18 KCAL/MOL
REMARK 927      BINDING AFFINITY PREDICTED BY RF-SCORE:    0.00 PKD
ROOT
HETATM    1  O   UNL     1     -12.348  11.174  68.273  1.00  0.00    -0.532 OA 
HETATM    2  C   UNL     1     -11.130  11.299  68.277  1.00  0.00    -0.240 C  
HETATM    3  C   UNL     1     -10.434  12.609  68.030  1.00  0.00    -0.232 C  
HETATM    4  N   UNL     1     -10.141  10.359  68.647  1.00  0.00    -0.168 N  
HETATM    5  C   UNL     1      -8.998  12.215  67.905  1.00  0.00    -0.184 C  
HETATM    6  N   UNL     1      -8.849  10.973  68.545  1.00  0.00    -0.154 N  
HETATM    7  O   UNL     1      -8.176  12.935  67.352  1.00  0.00    -0.169 OA 
ENDROOT
BRANCH   3   8
HETATM    8  C   UNL     1     -10.594  13.520  69.257  1.00  0.00     0.033 C  
BRANCH   8   9
HETATM    9  C   UNL     1      -9.836  14.853  69.156  1.00  0.00    -0.199 C  
BRANCH   9  10
HETATM   10  S   UNL     1     -11.022  16.238  69.338  1.00  0.00    -0.334 S  
HETATM   11  O   UNL     1     -12.017  16.106  68.220  1.00  0.00    -0.107 OA 
BRANCH  10  12
HETATM   12  C   UNL     1     -11.882  15.661  70.823  1.00  0.00    -0.384 A  
HETATM   13  C   UNL     1     -11.882  15.101  73.183  1.00  0.00    -0.438 A  
HETATM   14  C   UNL     1     -13.832  14.637  71.838  1.00  0.00    -0.544 A  
HETATM   15  C   UNL     1     -13.179  14.604  73.070  1.00  0.00    -0.587 A  
HETATM   16  C   UNL     1     -13.187  15.166  70.717  1.00  0.00    -0.433 A  
HETATM   17  C   UNL     1     -11.233  15.626  72.063  1.00  0.00    -0.261 A  
ENDBRANCH  10  12
ENDBRANCH   9  10
ENDBRANCH   8   9
ENDBRANCH   3   8
BRANCH   6  18
HETATM   18  C   UNL     1      -7.578  10.329  68.697  1.00  0.00    -0.089 A  
HETATM   19  C   UNL     1      -5.887   9.342  70.185  1.00  0.00    -0.033 A  
HETATM   20  C   UNL     1      -5.183   8.856  69.095  1.00  0.00    -0.036 A  
HETATM   21  C   UNL     1      -6.810   9.885  67.615  1.00  0.00    -0.084 A  
HETATM   22  C   UNL     1      -7.072  10.059  69.985  1.00  0.00    -0.146 A  
HETATM   23  C   UNL     1      -5.641   9.135  67.810  1.00  0.00    -0.034 A  
ENDBRANCH   6  18
BRANCH   4  24
HETATM   24  C   UNL     1     -10.553   9.370  69.582  1.00  0.00    -0.225 A  
HETATM   25  C   UNL     1     -11.033   9.796  70.831  1.00  0.00    -0.411 A  
HETATM   26  C   UNL     1     -10.731   7.081  70.353  1.00  0.00    -0.259 A  
HETATM   27  C   UNL     1     -11.355   8.880  71.833  1.00  0.00    -0.446 A  
HETATM   28  C   UNL     1     -10.419   8.000  69.344  1.00  0.00    -0.223 A  
HETATM   29  C   UNL     1     -11.194   7.519  71.591  1.00  0.00    -0.275 A  
ENDBRANCH   4  24
TORSDOF 6
ENDMDL
MODEL      115
REMARK 921   NORMALIZED FREE ENERGY PREDICTED BY IDOCK:   -5.25 KCAL/MOL
REMARK 922        TOTAL FREE ENERGY PREDICTED BY IDOCK:   -8.32 KCAL/MOL
REMARK 923 INTER-LIGAND FREE ENERGY PREDICTED BY IDOCK:   -6.58 KCAL/MOL
REMARK 924 INTRA-LIGAND FREE ENERGY PREDICTED BY IDOCK:   -1.74 KCAL/MOL
REMARK 927      BINDING AFFINITY PREDICTED BY RF-SCORE:    0.00 PKD
ROOT
HETATM    1  O   UNL     1      -9.678   8.008  73.453  1.00  0.00    -0.280 OA 
HETATM    2  C   UNL     1      -9.469   8.547  72.374  1.00  0.00    -0.280 C  
HETATM    3  C   UNL     1      -8.133   8.524  71.684  1.00  0.00    -0.195 C  
HETATM    4  N   UNL     1     -10.393   9.144  71.485  1.00  0.00    -0.343 N  
HETATM    5  C   UNL     1      -8.315   9.487  70.556  1.00  0.00    -0.163 C  
HETATM    6  N   UNL     1      -9.695   9.594  70.317  1.00  0.00    -0.255 N  
HETATM    7  O   UNL     1      -7.361  10.008  69.991  1.00  0.00    -0.137 OA 
ENDROOT
BRANCH   3   8
HETATM    8  C   UNL     1      -7.873   7.125  71.105  1.00  0.00    -0.098 C  
BRANCH   8   9
HETATM    9  C   UNL     1      -6.501   6.537  71.470  1.00  0.00    -0.046 C  
BRANCH   9  10
HETATM   10  S   UNL     1      -6.737   5.075  72.549  1.00  0.00    -0.063 S  
HETATM   11  O   UNL     1      -7.657   5.501  73.658  1.00  0.00    -0.097 OA 
BRANCH  10  12
HETATM   12  C   UNL     1      -7.753   4.077  71.432  1.00  0.00    -0.064 A  
HETATM   13  C   UNL     1      -8.085   2.967  69.302  1.00  0.00    -0.066 A  
HETATM   14  C   UNL     1      -9.899   3.088  70.890  1.00  0.00    -0.049 A  
HETATM   15  C   UNL     1      -9.405   2.681  69.651  1.00  0.00    -0.184 A  
HETATM   16  C   UNL     1      -9.076   3.782  71.780  1.00  0.00    -0.164 A  
HETATM   17  C   UNL     1      -7.263   3.665  70.187  1.00  0.00    -0.041 A  
ENDBRANCH  10  12
ENDBRANCH   9  10
ENDBRANCH   8   9
ENDBRANCH   3   8
BRANCH   6  18
HETATM   18  C   UNL     1     -10.236  10.370  69.239  1.00  0.00    -0.230 A  
HETATM   19  C   UNL     1     -10.857  10.523  66.865  1.00  0.00    -0.252 A  
HETATM   20  C   UNL     1     -11.489  11.735  67.089  1.00  0.00    -0.366 A  
HETATM   21  C   UNL     1     -10.822  11.627  69.420  1.00  0.00    -0.151 A  
HETATM   22  C   UNL     1     -10.249   9.848  67.929  1.00  0.00    -0.234 A  
HETATM   23  C   UNL     1     -11.463  12.291  68.364  1.00  0.00    -0.356 A  
ENDBRANCH   6  18
BRANCH   4  24
HETATM   24  C   UNL     1     -11.723   8.644  71.555  1.00  0.00    -0.305 A  
HETATM   25  C   UNL     1     -12.749   9.534  71.912  1.00  0.00    -0.496 A  
HETATM   26  C   UNL     1     -13.345   6.847  71.572  1.00  0.00    -0.303 A  
HETATM   27  C   UNL     1     -14.058   9.089  72.102  1.00  0.00    -0.461 A  
HETATM   28  C   UNL     1     -12.035   7.295  71.371  1.00  0.00    -0.354 A  
HETATM   29  C   UNL     1     -14.350   7.739  71.938  1.00  0.00    -0.545 A  
ENDBRANCH   4  24
TORSDOF 6
ENDMDL
MODEL      116
REMARK 921   NORMALIZED FREE ENERGY PREDICTED BY IDOCK:   -5.23 KCAL/MOL
REMARK 922        TOTAL FREE ENERGY PREDICTED BY IDOCK:   -8.29 KCAL/MOL
REMARK 923 INTER-LIGAND FREE ENERGY PREDICTED BY IDOCK:   -6.97 KCAL/MOL
REMARK 924 INTRA-LIGAND FREE ENERGY PREDICTED BY IDOCK:   -1.32 KCAL/MOL
REMARK 927      BINDING AFFINITY PREDICTED BY RF-SCORE:    0.00 PKD
ROOT
HETATM    1  O   UNL     1     -12.179  10.966  70.630  1.00  0.00    -0.314 OA 
HETATM    2  C   UNL     1     -11.637  10.399  69.689  1.00  0.00    -0.239 C  
HETATM    3  C   UNL     1     -11.233  11.103  68.423  1.00  0.00    -0.325 C  
HETATM    4  N   UNL     1     -11.139   9.078  69.615  1.00  0.00    -0.135 N  
HETATM    5  C   UNL     1     -10.843   9.980  67.518  1.00  0.00    -0.265 C  
HETATM    6  N   UNL     1     -10.536   8.876  68.330  1.00  0.00    -0.207 N  
HETATM    7  O   UNL     1     -10.803  10.115  66.301  1.00  0.00    -0.044 OA 
ENDROOT
BRANCH   3   8
HETATM    8  C   UNL     1      -9.997  11.978  68.689  1.00  0.00    -0.151 C  
BRANCH   8   9
HETATM    9  C   UNL     1     -10.222  13.478  68.440  1.00  0.00    -0.245 C  
BRANCH   9  10
HETATM   10  S   UNL     1      -9.450  13.948  66.846  1.00  0.00    -0.265 S  
HETATM   11  O   UNL     1     -10.571  14.284  65.904  1.00  0.00    -0.286 OA 
BRANCH  10  12
HETATM   12  C   UNL     1      -8.745  15.538  67.348  1.00  0.00    -0.178 A  
HETATM   13  C   UNL     1      -6.827  16.967  67.752  1.00  0.00    -0.157 A  
HETATM   14  C   UNL     1      -9.038  17.723  68.358  1.00  0.00    -0.278 A  
HETATM   15  C   UNL     1      -7.663  17.944  68.292  1.00  0.00    -0.279 A  
HETATM   16  C   UNL     1      -9.580  16.524  67.886  1.00  0.00    -0.233 A  
HETATM   17  C   UNL     1      -7.365  15.766  67.284  1.00  0.00    -0.257 A  
ENDBRANCH  10  12
ENDBRANCH   9  10
ENDBRANCH   8   9
ENDBRANCH   3   8
BRANCH   6  18
HETATM   18  C   UNL     1     -10.036   7.641  67.801  1.00  0.00    -0.186 A  
HETATM   19  C   UNL     1      -8.113   6.188  67.317  1.00  0.00    -0.106 A  
HETATM   20  C   UNL     1      -8.960   5.145  66.983  1.00  0.00    -0.112 A  
HETATM   21  C   UNL     1     -10.866   6.592  67.392  1.00  0.00    -0.449 A  
HETATM   22  C   UNL     1      -8.646   7.414  67.729  1.00  0.00    -0.120 A  
HETATM   23  C   UNL     1     -10.336   5.350  67.012  1.00  0.00    -0.299 A  
ENDBRANCH   6  18
BRANCH   4  24
HETATM   24  C   UNL     1     -10.743   8.500  70.854  1.00  0.00    -0.224 A  
HETATM   25  C   UNL     1     -11.716   7.841  71.621  1.00  0.00    -0.316 A  
HETATM   26  C   UNL     1      -9.161   8.150  72.653  1.00  0.00    -0.332 A  
HETATM   27  C   UNL     1     -11.422   7.345  72.891  1.00  0.00    -0.269 A  
HETATM   28  C   UNL     1      -9.454   8.638  71.374  1.00  0.00    -0.306 A  
HETATM   29  C   UNL     1     -10.141   7.509  73.407  1.00  0.00    -0.393 A  
ENDBRANCH   4  24
TORSDOF 6
ENDMDL
MODEL      117
REMARK 921   NORMALIZED FREE ENERGY PREDICTED BY IDOCK:   -5.22 KCAL/MOL
REMARK 922        TOTAL FREE ENERGY PREDICTED BY IDOCK:   -8.28 KCAL/MOL
REMARK 923 INTER-LIGAND FREE ENERGY PREDICTED BY IDOCK:   -7.48 KCAL/MOL
REMARK 924 INTRA-LIGAND FREE ENERGY PREDICTED BY IDOCK:   -0.80 KCAL/MOL
REMARK 927      BINDING AFFINITY PREDICTED BY RF-SCORE:    0.00 PKD
ROOT
HETATM    1  O   UNL     1      -9.988   9.318  65.645  1.00  0.00    -0.277 OA 
HETATM    2  C   UNL     1     -10.296   9.364  66.830  1.00  0.00    -0.233 C  
HETATM    3  C   UNL     1      -9.905   8.306  67.825  1.00  0.00    -0.214 C  
HETATM    4  N   UNL     1     -10.906  10.416  67.550  1.00  0.00    -0.291 N  
HETATM    5  C   UNL     1     -10.689   8.676  69.042  1.00  0.00    -0.101 C  
HETATM    6  N   UNL     1     -11.019  10.037  68.928  1.00  0.00    -0.224 N  
HETATM    7  O   UNL     1     -10.919   7.868  69.933  1.00  0.00    -0.243 OA 
ENDROOT
BRANCH   3   8
HETATM    8  C   UNL     1      -8.407   8.424  68.145  1.00  0.00    -0.128 C  
BRANCH   8   9
HETATM    9  C   UNL     1      -8.089   9.319  69.352  1.00  0.00    -0.108 C  
BRANCH   9  10
HETATM   10  S   UNL     1      -6.859   8.478  70.421  1.00  0.00    -0.040 S  
HETATM   11  O   UNL     1      -6.185   9.550  71.230  1.00  0.00    -0.110 OA 
BRANCH  10  12
HETATM   12  C   UNL     1      -8.006   7.661  71.558  1.00  0.00    -0.094 A  
HETATM   13  C   UNL     1      -9.085   5.657  72.395  1.00  0.00    -0.144 A  
HETATM   14  C   UNL     1      -9.785   7.823  73.198  1.00  0.00    -0.347 A  
HETATM   15  C   UNL     1      -9.911   6.434  73.205  1.00  0.00    -0.195 A  
HETATM   16  C   UNL     1      -8.834   8.436  72.379  1.00  0.00    -0.294 A  
HETATM   17  C   UNL     1      -8.138   6.268  71.571  1.00  0.00    -0.110 A  
ENDBRANCH  10  12
ENDBRANCH   9  10
ENDBRANCH   8   9
ENDBRANCH   3   8
BRANCH   6  18
HETATM   18  C   UNL     1     -11.699  10.758  69.964  1.00  0.00    -0.336 A  
HETATM   19  C   UNL     1     -12.462  12.912  70.872  1.00  0.00    -0.383 A  
HETATM   20  C   UNL     1     -13.209  12.261  71.840  1.00  0.00    -0.481 A  
HETATM   21  C   UNL     1     -12.407  10.131  70.994  1.00  0.00    -0.474 A  
HETATM   22  C   UNL     1     -11.727  12.168  69.943  1.00  0.00    -0.361 A  
HETATM   23  C   UNL     1     -13.174  10.871  71.906  1.00  0.00    -0.508 A  
ENDBRANCH   6  18
BRANCH   4  24
HETATM   24  C   UNL     1     -10.689  11.723  67.031  1.00  0.00    -0.246 A  
HETATM   25  C   UNL     1      -9.428  12.311  67.220  1.00  0.00    -0.186 A  
HETATM   26  C   UNL     1     -11.451  13.796  66.040  1.00  0.00    -0.336 A  
HETATM   27  C   UNL     1      -9.178  13.628  66.830  1.00  0.00    -0.251 A  
HETATM   28  C   UNL     1     -11.697  12.473  66.421  1.00  0.00    -0.458 A  
HETATM   29  C   UNL     1     -10.199  14.371  66.246  1.00  0.00    -0.307 A  
ENDBRANCH   4  24
TORSDOF 6
ENDMDL
MODEL      118
REMARK 921   NORMALIZED FREE ENERGY PREDICTED BY IDOCK:   -5.22 KCAL/MOL
REMARK 922        TOTAL FREE ENERGY PREDICTED BY IDOCK:   -8.28 KCAL/MOL
REMARK 923 INTER-LIGAND FREE ENERGY PREDICTED BY IDOCK:   -6.69 KCAL/MOL
REMARK 924 INTRA-LIGAND FREE ENERGY PREDICTED BY IDOCK:   -1.59 KCAL/MOL
REMARK 927      BINDING AFFINITY PREDICTED BY RF-SCORE:    0.00 PKD
ROOT
HETATM    1  O   UNL     1      -7.710  13.107  66.490  1.00  0.00     0.508 OA 
HETATM    2  C   UNL     1      -8.276  13.673  67.416  1.00  0.00    -0.179 C  
HETATM    3  C   UNL     1      -7.618  14.725  68.266  1.00  0.00    -0.115 C  
HETATM    4  N   UNL     1      -9.637  13.613  67.796  1.00  0.00    -0.217 N  
HETATM    5  C   UNL     1      -8.601  14.933  69.372  1.00  0.00    -0.054 C  
HETATM    6  N   UNL     1      -9.852  14.491  68.909  1.00  0.00    -0.217 N  
HETATM    7  O   UNL     1      -8.275  15.437  70.440  1.00  0.00     0.525 OA 
ENDROOT
BRANCH   3   8
HETATM    8  C   UNL     1      -7.488  16.030  67.466  1.00  0.00    -0.186 C  
BRANCH   8   9
HETATM    9  C   UNL     1      -6.305  16.915  67.892  1.00  0.00    -0.138 C  
BRANCH   9  10
HETATM   10  S   UNL     1      -6.928  18.310  68.903  1.00  0.00    -0.263 S  
HETATM   11  O   UNL     1      -5.967  19.449  68.708  1.00  0.00    -0.219 OA 
BRANCH  10  12
HETATM   12  C   UNL     1      -8.384  18.730  67.914  1.00  0.00    -0.276 A  
HETATM   13  C   UNL     1     -10.751  18.503  67.433  1.00  0.00    -0.424 A  
HETATM   14  C   UNL     1      -9.332  19.747  65.927  1.00  0.00    -0.244 A  
HETATM   15  C   UNL     1     -10.591  19.254  66.268  1.00  0.00    -0.545 A  
HETATM   16  C   UNL     1      -8.231  19.488  66.747  1.00  0.00    -0.318 A  
HETATM   17  C   UNL     1      -9.651  18.239  68.251  1.00  0.00    -0.332 A  
ENDBRANCH  10  12
ENDBRANCH   9  10
ENDBRANCH   8   9
ENDBRANCH   3   8
BRANCH   6  18
HETATM   18  C   UNL     1     -11.053  14.622  69.679  1.00  0.00    -0.253 A  
HETATM   19  C   UNL     1     -12.957  13.545  70.803  1.00  0.00    -0.168 A  
HETATM   20  C   UNL     1     -13.318  14.749  71.386  1.00  0.00    -0.464 A  
HETATM   21  C   UNL     1     -11.483  15.835  70.227  1.00  0.00    -0.369 A  
HETATM   22  C   UNL     1     -11.834  13.485  69.970  1.00  0.00    -0.371 A  
HETATM   23  C   UNL     1     -12.587  15.895  71.090  1.00  0.00    -0.387 A  
ENDBRANCH   6  18
BRANCH   4  24
HETATM   24  C   UNL     1     -10.553  13.305  66.752  1.00  0.00    -0.276 A  
HETATM   25  C   UNL     1     -11.301  14.353  66.194  1.00  0.00    -0.350 A  
HETATM   26  C   UNL     1     -11.800  11.751  65.376  1.00  0.00    -0.029 A  
HETATM   27  C   UNL     1     -12.291  14.108  65.241  1.00  0.00    -0.469 A  
HETATM   28  C   UNL     1     -10.799  11.999  66.323  1.00  0.00    -0.316 A  
HETATM   29  C   UNL     1     -12.542  12.800  64.840  1.00  0.00    -0.541 A  
ENDBRANCH   4  24
TORSDOF 6
ENDMDL
MODEL      119
REMARK 921   NORMALIZED FREE ENERGY PREDICTED BY IDOCK:   -5.22 KCAL/MOL
REMARK 922        TOTAL FREE ENERGY PREDICTED BY IDOCK:   -8.28 KCAL/MOL
REMARK 923 INTER-LIGAND FREE ENERGY PREDICTED BY IDOCK:   -6.84 KCAL/MOL
REMARK 924 INTRA-LIGAND FREE ENERGY PREDICTED BY IDOCK:   -1.44 KCAL/MOL
REMARK 927      BINDING AFFINITY PREDICTED BY RF-SCORE:    0.00 PKD
ROOT
HETATM    1  O   UNL     1      -7.772   9.671  69.188  1.00  0.00    -0.079 OA 
HETATM    2  C   UNL     1      -8.642   9.216  69.921  1.00  0.00    -0.150 C  
HETATM    3  C   UNL     1     -10.033   9.782  70.001  1.00  0.00    -0.299 C  
HETATM    4  N   UNL     1      -8.620   8.036  70.700  1.00  0.00    -0.127 N  
HETATM    5  C   UNL     1     -10.627   9.062  71.168  1.00  0.00    -0.290 C  
HETATM    6  N   UNL     1      -9.888   7.881  71.351  1.00  0.00    -0.166 N  
HETATM    7  O   UNL     1     -11.604   9.496  71.766  1.00  0.00    -0.385 OA 
ENDROOT
BRANCH   3   8
HETATM    8  C   UNL     1     -10.817   9.407  68.734  1.00  0.00    -0.147 C  
BRANCH   8   9
HETATM    9  C   UNL     1     -10.527  10.308  67.524  1.00  0.00    -0.244 C  
BRANCH   9  10
HETATM   10  S   UNL     1     -10.605  12.064  68.046  1.00  0.00    -0.217 S  
HETATM   11  O   UNL     1      -9.185  12.529  68.211  1.00  0.00    -0.201 OA 
BRANCH  10  12
HETATM   12  C   UNL     1     -11.173  12.783  66.485  1.00  0.00    -0.307 A  
HETATM   13  C   UNL     1     -12.726  14.165  65.236  1.00  0.00    -0.425 A  
HETATM   14  C   UNL     1     -11.072  12.855  64.064  1.00  0.00    -0.455 A  
HETATM   15  C   UNL     1     -12.143  13.749  64.040  1.00  0.00    -0.448 A  
HETATM   16  C   UNL     1     -10.586  12.374  65.282  1.00  0.00    -0.322 A  
HETATM   17  C   UNL     1     -12.246  13.682  66.455  1.00  0.00    -0.472 A  
ENDBRANCH  10  12
ENDBRANCH   9  10
ENDBRANCH   8   9
ENDBRANCH   3   8
BRANCH   6  18
HETATM   18  C   UNL     1     -10.234   6.896  72.333  1.00  0.00    -0.187 A  
HETATM   19  C   UNL     1     -11.259   4.724  72.859  1.00  0.00    -0.286 A  
HETATM   20  C   UNL     1     -10.770   4.786  74.154  1.00  0.00    -0.329 A  
HETATM   21  C   UNL     1      -9.812   6.962  73.665  1.00  0.00    -0.291 A  
HETATM   22  C   UNL     1     -10.985   5.762  71.962  1.00  0.00    -0.317 A  
HETATM   23  C   UNL     1     -10.054   5.908  74.559  1.00  0.00    -0.312 A  
ENDBRANCH   6  18
BRANCH   4  24
HETATM   24  C   UNL     1      -7.763   7.004  70.227  1.00  0.00    -0.099 A  
HETATM   25  C   UNL     1      -8.224   6.183  69.185  1.00  0.00    -0.113 A  
HETATM   26  C   UNL     1      -5.785   5.616  70.377  1.00  0.00    -0.023 A  
HETATM   27  C   UNL     1      -7.480   5.088  68.744  1.00  0.00    -0.069 A  
HETATM   28  C   UNL     1      -6.526   6.720  70.811  1.00  0.00    -0.051 A  
HETATM   29  C   UNL     1      -6.261   4.803  69.350  1.00  0.00    -0.027 A  
ENDBRANCH   4  24
TORSDOF 6
ENDMDL
MODEL      120
REMARK 921   NORMALIZED FREE ENERGY PREDICTED BY IDOCK:   -5.21 KCAL/MOL
REMARK 922        TOTAL FREE ENERGY PREDICTED BY IDOCK:   -8.27 KCAL/MOL
REMARK 923 INTER-LIGAND FREE ENERGY PREDICTED BY IDOCK:   -7.33 KCAL/MOL
REMARK 924 INTRA-LIGAND FREE ENERGY PREDICTED BY IDOCK:   -0.94 KCAL/MOL
REMARK 927      BINDING AFFINITY PREDICTED BY RF-SCORE:    0.00 PKD
ROOT
HETATM    1  O   UNL     1     -12.527  12.891  66.692  1.00  0.00    -0.367 OA 
HETATM    2  C   UNL     1     -11.411  12.448  66.931  1.00  0.00    -0.360 C  
HETATM    3  C   UNL     1     -10.234  12.635  66.015  1.00  0.00    -0.287 C  
HETATM    4  N   UNL     1     -10.934  11.835  68.113  1.00  0.00    -0.213 N  
HETATM    5  C   UNL     1      -9.194  11.739  66.607  1.00  0.00    -0.198 C  
HETATM    6  N   UNL     1      -9.542  11.529  67.952  1.00  0.00    -0.172 N  
HETATM    7  O   UNL     1      -8.236  11.344  65.957  1.00  0.00    -0.107 OA 
ENDROOT
BRANCH   3   8
HETATM    8  C   UNL     1      -9.741  14.088  66.095  1.00  0.00    -0.300 C  
BRANCH   8   9
HETATM    9  C   UNL     1      -8.727  14.349  67.220  1.00  0.00    -0.215 C  
BRANCH   9  10
HETATM   10  S   UNL     1      -9.254  15.819  68.179  1.00  0.00    -0.191 S  
HETATM   11  O   UNL     1      -8.971  15.518  69.623  1.00  0.00    -0.266 OA 
BRANCH  10  12
HETATM   12  C   UNL     1      -7.949  16.961  67.657  1.00  0.00    -0.174 A  
HETATM   13  C   UNL     1      -6.285  18.648  68.173  1.00  0.00    -0.206 A  
HETATM   14  C   UNL     1      -6.768  18.100  65.872  1.00  0.00    -0.327 A  
HETATM   15  C   UNL     1      -6.056  18.846  66.812  1.00  0.00    -0.182 A  
HETATM   16  C   UNL     1      -7.711  17.159  66.292  1.00  0.00    -0.350 A  
HETATM   17  C   UNL     1      -7.231  17.711  68.595  1.00  0.00    -0.255 A  
ENDBRANCH  10  12
ENDBRANCH   9  10
ENDBRANCH   8   9
ENDBRANCH   3   8
BRANCH   6  18
HETATM   18  C   UNL     1      -8.717  10.784  68.857  1.00  0.00    -0.152 A  
HETATM   19  C   UNL     1      -6.659  10.647  70.196  1.00  0.00    -0.151 A  
HETATM   20  C   UNL     1      -7.115   9.496  70.815  1.00  0.00    -0.106 A  
HETATM   21  C   UNL     1      -9.121   9.583  69.450  1.00  0.00    -0.172 A  
HETATM   22  C   UNL     1      -7.455  11.285  69.238  1.00  0.00    -0.040 A  
HETATM   23  C   UNL     1      -8.342   8.959  70.436  1.00  0.00    -0.160 A  
ENDBRANCH   6  18
BRANCH   4  24
HETATM   24  C   UNL     1     -11.600  12.210  69.313  1.00  0.00    -0.318 A  
HETATM   25  C   UNL     1     -12.166  11.198  70.103  1.00  0.00    -0.417 A  
HETATM   26  C   UNL     1     -12.558  13.849  70.816  1.00  0.00    -0.424 A  
HETATM   27  C   UNL     1     -12.923  11.502  71.235  1.00  0.00    -0.397 A  
HETATM   28  C   UNL     1     -11.789  13.543  69.688  1.00  0.00    -0.398 A  
HETATM   29  C   UNL     1     -13.123  12.834  71.584  1.00  0.00    -0.428 A  
ENDBRANCH   4  24
TORSDOF 6
ENDMDL
MODEL      121
REMARK 921   NORMALIZED FREE ENERGY PREDICTED BY IDOCK:   -5.21 KCAL/MOL
REMARK 922        TOTAL FREE ENERGY PREDICTED BY IDOCK:   -8.27 KCAL/MOL
REMARK 923 INTER-LIGAND FREE ENERGY PREDICTED BY IDOCK:   -6.73 KCAL/MOL
REMARK 924 INTRA-LIGAND FREE ENERGY PREDICTED BY IDOCK:   -1.54 KCAL/MOL
REMARK 927      BINDING AFFINITY PREDICTED BY RF-SCORE:    0.00 PKD
ROOT
HETATM    1  O   UNL     1     -11.141   6.336  68.624  1.00  0.00    -0.334 OA 
HETATM    2  C   UNL     1     -10.691   7.301  68.020  1.00  0.00    -0.146 C  
HETATM    3  C   UNL     1     -10.762   8.709  68.543  1.00  0.00    -0.091 C  
HETATM    4  N   UNL     1      -9.905   7.327  66.845  1.00  0.00    -0.198 N  
HETATM    5  C   UNL     1     -10.309   9.529  67.380  1.00  0.00    -0.258 C  
HETATM    6  N   UNL     1      -9.564   8.685  66.539  1.00  0.00    -0.216 N  
HETATM    7  O   UNL     1     -10.569  10.722  67.290  1.00  0.00    -0.225 OA 
ENDROOT
BRANCH   3   8
HETATM    8  C   UNL     1      -9.760   8.884  69.695  1.00  0.00    -0.175 C  
BRANCH   8   9
HETATM    9  C   UNL     1     -10.356   9.530  70.956  1.00  0.00    -0.283 C  
BRANCH   9  10
HETATM   10  S   UNL     1     -12.184   9.429  70.880  1.00  0.00    -0.178 S  
HETATM   11  O   UNL     1     -12.637   8.800  72.167  1.00  0.00    -0.353 OA 
BRANCH  10  12
HETATM   12  C   UNL     1     -12.558  11.193  71.044  1.00  0.00    -0.403 A  
HETATM   13  C   UNL     1     -12.215  13.498  70.374  1.00  0.00    -0.426 A  
HETATM   14  C   UNL     1     -13.595  12.996  72.289  1.00  0.00    -0.643 A  
HETATM   15  C   UNL     1     -13.018  13.930  71.429  1.00  0.00    -0.430 A  
HETATM   16  C   UNL     1     -13.369  11.631  72.098  1.00  0.00    -0.310 A  
HETATM   17  C   UNL     1     -11.983  12.134  70.183  1.00  0.00    -0.394 A  
ENDBRANCH  10  12
ENDBRANCH   9  10
ENDBRANCH   8   9
ENDBRANCH   3   8
BRANCH   6  18
HETATM   18  C   UNL     1      -8.897   9.159  65.362  1.00  0.00    -0.196 A  
HETATM   19  C   UNL     1      -8.997  10.416  63.252  1.00  0.00    -0.241 A  
HETATM   20  C   UNL     1      -7.621  10.329  63.112  1.00  0.00    -0.132 A  
HETATM   21  C   UNL     1      -7.519   9.028  65.159  1.00  0.00    -0.097 A  
HETATM   22  C   UNL     1      -9.621   9.846  64.367  1.00  0.00    -0.257 A  
HETATM   23  C   UNL     1      -6.884   9.628  64.061  1.00  0.00    -0.113 A  
ENDBRANCH   6  18
BRANCH   4  24
HETATM   24  C   UNL     1      -9.117   6.166  66.608  1.00  0.00    -0.139 A  
HETATM   25  C   UNL     1      -7.894   6.044  67.287  1.00  0.00    -0.102 A  
HETATM   26  C   UNL     1      -8.588   4.138  65.396  1.00  0.00    -0.118 A  
HETATM   27  C   UNL     1      -7.024   4.985  67.024  1.00  0.00    -0.064 A  
HETATM   28  C   UNL     1      -9.466   5.193  65.669  1.00  0.00    -0.129 A  
HETATM   29  C   UNL     1      -7.373   4.036  66.069  1.00  0.00    -0.076 A  
ENDBRANCH   4  24
TORSDOF 6
ENDMDL
MODEL      122
REMARK 921   NORMALIZED FREE ENERGY PREDICTED BY IDOCK:   -5.19 KCAL/MOL
REMARK 922        TOTAL FREE ENERGY PREDICTED BY IDOCK:   -8.24 KCAL/MOL
REMARK 923 INTER-LIGAND FREE ENERGY PREDICTED BY IDOCK:   -6.63 KCAL/MOL
REMARK 924 INTRA-LIGAND FREE ENERGY PREDICTED BY IDOCK:   -1.62 KCAL/MOL
REMARK 927      BINDING AFFINITY PREDICTED BY RF-SCORE:    0.00 PKD
ROOT
HETATM    1  O   UNL     1     -11.744   6.429  69.792  1.00  0.00    -0.414 OA 
HETATM    2  C   UNL     1     -11.014   7.189  69.167  1.00  0.00    -0.113 C  
HETATM    3  C   UNL     1     -10.936   8.666  69.437  1.00  0.00    -0.034 C  
HETATM    4  N   UNL     1     -10.013   6.879  68.217  1.00  0.00    -0.148 N  
HETATM    5  C   UNL     1     -10.114   9.178  68.298  1.00  0.00    -0.191 C  
HETATM    6  N   UNL     1      -9.378   8.093  67.794  1.00  0.00    -0.134 N  
HETATM    7  O   UNL     1     -10.132  10.357  67.969  1.00  0.00    -0.155 OA 
ENDROOT
BRANCH   3   8
HETATM    8  C   UNL     1     -10.175   8.913  70.749  1.00  0.00    -0.282 C  
BRANCH   8   9
HETATM    9  C   UNL     1     -11.068   9.339  71.925  1.00  0.00    -0.238 C  
BRANCH   9  10
HETATM   10  S   UNL     1     -12.768   9.647  71.311  1.00  0.00    -0.354 S  
HETATM   11  O   UNL     1     -13.701   9.324  72.444  1.00  0.00    -0.465 OA 
BRANCH  10  12
HETATM   12  C   UNL     1     -12.703  11.454  71.237  1.00  0.00    -0.393 A  
HETATM   13  C   UNL     1     -13.413  13.630  72.039  1.00  0.00    -0.573 A  
HETATM   14  C   UNL     1     -12.022  13.469  70.073  1.00  0.00    -0.410 A  
HETATM   15  C   UNL     1     -12.725  14.246  70.994  1.00  0.00    -0.430 A  
HETATM   16  C   UNL     1     -12.008  12.077  70.193  1.00  0.00    -0.401 A  
HETATM   17  C   UNL     1     -13.405  12.239  72.159  1.00  0.00    -0.473 A  
ENDBRANCH  10  12
ENDBRANCH   9  10
ENDBRANCH   8   9
ENDBRANCH   3   8
BRANCH   6  18
HETATM   18  C   UNL     1      -8.411   8.235  66.746  1.00  0.00    -0.107 A  
HETATM   19  C   UNL     1      -7.926   8.723  64.385  1.00  0.00    -0.144 A  
HETATM   20  C   UNL     1      -6.567   8.756  64.651  1.00  0.00    -0.066 A  
HETATM   21  C   UNL     1      -7.030   8.207  66.970  1.00  0.00    -0.074 A  
HETATM   22  C   UNL     1      -8.832   8.475  65.422  1.00  0.00    -0.173 A  
HETATM   23  C   UNL     1      -6.119   8.490  65.942  1.00  0.00    -0.048 A  
ENDBRANCH   6  18
BRANCH   4  24
HETATM   24  C   UNL     1      -9.415   5.595  68.351  1.00  0.00    -0.121 A  
HETATM   25  C   UNL     1      -9.823   4.578  67.474  1.00  0.00    -0.191 A  
HETATM   26  C   UNL     1      -8.051   3.971  69.519  1.00  0.00    -0.061 A  
HETATM   27  C   UNL     1      -9.356   3.270  67.616  1.00  0.00    -0.245 A  
HETATM   28  C   UNL     1      -8.510   5.284  69.369  1.00  0.00    -0.094 A  
HETATM   29  C   UNL     1      -8.474   2.970  68.648  1.00  0.00    -0.094 A  
ENDBRANCH   4  24
TORSDOF 6
ENDMDL
MODEL      123
REMARK 921   NORMALIZED FREE ENERGY PREDICTED BY IDOCK:   -5.18 KCAL/MOL
REMARK 922        TOTAL FREE ENERGY PREDICTED BY IDOCK:   -8.23 KCAL/MOL
REMARK 923 INTER-LIGAND FREE ENERGY PREDICTED BY IDOCK:   -7.79 KCAL/MOL
REMARK 924 INTRA-LIGAND FREE ENERGY PREDICTED BY IDOCK:   -0.44 KCAL/MOL
REMARK 927      BINDING AFFINITY PREDICTED BY RF-SCORE:    0.00 PKD
ROOT
HETATM    1  O   UNL     1      -8.749   8.740  71.259  1.00  0.00    -0.181 OA 
HETATM    2  C   UNL     1      -8.963   9.390  70.244  1.00  0.00    -0.240 C  
HETATM    3  C   UNL     1      -8.108   9.300  69.010  1.00  0.00    -0.106 C  
HETATM    4  N   UNL     1     -10.074  10.207  69.929  1.00  0.00    -0.242 N  
HETATM    5  C   UNL     1      -8.615  10.420  68.161  1.00  0.00    -0.125 C  
HETATM    6  N   UNL     1      -9.914  10.723  68.601  1.00  0.00    -0.174 N  
HETATM    7  O   UNL     1      -7.947  10.894  67.251  1.00  0.00    -0.117 OA 
ENDROOT
BRANCH   3   8
HETATM    8  C   UNL     1      -8.377   7.970  68.289  1.00  0.00    -0.123 C  
BRANCH   8   9
HETATM    9  C   UNL     1      -9.218   6.973  69.101  1.00  0.00    -0.138 C  
BRANCH   9  10
HETATM   10  S   UNL     1     -10.670   6.458  68.108  1.00  0.00    -0.313 S  
HETATM   11  O   UNL     1     -10.824   7.472  67.010  1.00  0.00    -0.348 OA 
BRANCH  10  12
HETATM   12  C   UNL     1      -9.951   4.995  67.320  1.00  0.00    -0.186 A  
HETATM   13  C   UNL     1      -9.448   3.695  65.336  1.00  0.00    -0.160 A  
HETATM   14  C   UNL     1      -9.006   2.771  67.522  1.00  0.00    -0.190 A  
HETATM   15  C   UNL     1      -8.989   2.647  66.132  1.00  0.00    -0.139 A  
HETATM   16  C   UNL     1      -9.483   3.942  68.115  1.00  0.00    -0.219 A  
HETATM   17  C   UNL     1      -9.930   4.864  65.927  1.00  0.00    -0.222 A  
ENDBRANCH  10  12
ENDBRANCH   9  10
ENDBRANCH   8   9
ENDBRANCH   3   8
BRANCH   6  18
HETATM   18  C   UNL     1     -10.744  11.695  67.952  1.00  0.00    -0.202 A  
HETATM   19  C   UNL     1     -11.734  13.946  67.948  1.00  0.00    -0.396 A  
HETATM   20  C   UNL     1     -12.184  13.767  66.651  1.00  0.00    -0.454 A  
HETATM   21  C   UNL     1     -11.270  11.518  66.668  1.00  0.00    -0.336 A  
HETATM   22  C   UNL     1     -11.016  12.926  68.583  1.00  0.00    -0.295 A  
HETATM   23  C   UNL     1     -11.959  12.550  66.014  1.00  0.00    -0.456 A  
ENDBRANCH   6  18
BRANCH   4  24
HETATM   24  C   UNL     1     -11.292   9.865  70.580  1.00  0.00    -0.327 A  
HETATM   25  C   UNL     1     -12.106  10.905  71.056  1.00  0.00    -0.425 A  
HETATM   26  C   UNL     1     -12.816   8.278  71.590  1.00  0.00    -0.350 A  
HETATM   27  C   UNL     1     -13.259  10.640  71.795  1.00  0.00    -0.526 A  
HETATM   28  C   UNL     1     -11.666   8.544  70.840  1.00  0.00    -0.274 A  
HETATM   29  C   UNL     1     -13.607   9.321  72.067  1.00  0.00    -0.519 A  
ENDBRANCH   4  24
TORSDOF 6
ENDMDL
MODEL      124
REMARK 921   NORMALIZED FREE ENERGY PREDICTED BY IDOCK:   -5.18 KCAL/MOL
REMARK 922        TOTAL FREE ENERGY PREDICTED BY IDOCK:   -8.23 KCAL/MOL
REMARK 923 INTER-LIGAND FREE ENERGY PREDICTED BY IDOCK:   -6.69 KCAL/MOL
REMARK 924 INTRA-LIGAND FREE ENERGY PREDICTED BY IDOCK:   -1.53 KCAL/MOL
REMARK 927      BINDING AFFINITY PREDICTED BY RF-SCORE:    0.00 PKD
ROOT
HETATM    1  O   UNL     1      -6.134   7.615  67.609  1.00  0.00    -0.045 OA 
HETATM    2  C   UNL     1      -7.283   8.037  67.578  1.00  0.00    -0.088 C  
HETATM    3  C   UNL     1      -8.491   7.154  67.731  1.00  0.00    -0.120 C  
HETATM    4  N   UNL     1      -7.738   9.376  67.558  1.00  0.00    -0.091 N  
HETATM    5  C   UNL     1      -9.626   8.067  67.396  1.00  0.00    -0.153 C  
HETATM    6  N   UNL     1      -9.172   9.383  67.583  1.00  0.00    -0.128 N  
HETATM    7  O   UNL     1     -10.722   7.638  67.059  1.00  0.00    -0.348 OA 
ENDROOT
BRANCH   3   8
HETATM    8  C   UNL     1      -8.627   6.711  69.196  1.00  0.00    -0.130 C  
BRANCH   8   9
HETATM    9  C   UNL     1      -9.677   7.497  69.998  1.00  0.00    -0.172 C  
BRANCH   9  10
HETATM   10  S   UNL     1     -11.011   6.357  70.526  1.00  0.00    -0.332 S  
HETATM   11  O   UNL     1     -10.488   5.601  71.715  1.00  0.00    -0.214 OA 
BRANCH  10  12
HETATM   12  C   UNL     1     -12.161   7.583  71.197  1.00  0.00    -0.301 A  
HETATM   13  C   UNL     1     -14.384   8.217  71.931  1.00  0.00    -0.566 A  
HETATM   14  C   UNL     1     -12.646   9.886  71.782  1.00  0.00    -0.506 A  
HETATM   15  C   UNL     1     -13.966   9.539  72.073  1.00  0.00    -0.275 A  
HETATM   16  C   UNL     1     -11.745   8.911  71.347  1.00  0.00    -0.385 A  
HETATM   17  C   UNL     1     -13.486   7.242  71.492  1.00  0.00    -0.439 A  
ENDBRANCH  10  12
ENDBRANCH   9  10
ENDBRANCH   8   9
ENDBRANCH   3   8
BRANCH   6  18
HETATM   18  C   UNL     1     -10.026  10.525  67.437  1.00  0.00    -0.179 A  
HETATM   19  C   UNL     1     -11.196  12.099  65.954  1.00  0.00    -0.384 A  
HETATM   20  C   UNL     1     -11.882  12.634  67.031  1.00  0.00    -0.415 A  
HETATM   21  C   UNL     1     -10.683  11.131  68.513  1.00  0.00    -0.235 A  
HETATM   22  C   UNL     1     -10.289  11.053  66.157  1.00  0.00    -0.306 A  
HETATM   23  C   UNL     1     -11.619  12.156  68.311  1.00  0.00    -0.382 A  
ENDBRANCH   6  18
BRANCH   4  24
HETATM   24  C   UNL     1      -6.861  10.331  68.142  1.00  0.00    -0.066 A  
HETATM   25  C   UNL     1      -6.840  10.445  69.541  1.00  0.00    -0.093 A  
HETATM   26  C   UNL     1      -5.340  12.210  68.017  1.00  0.00    -0.056 A  
HETATM   27  C   UNL     1      -6.082  11.431  70.175  1.00  0.00    -0.154 A  
HETATM   28  C   UNL     1      -6.090  11.214  67.382  1.00  0.00    -0.061 A  
HETATM   29  C   UNL     1      -5.338  12.319  69.405  1.00  0.00    -0.067 A  
ENDBRANCH   4  24
TORSDOF 6
ENDMDL
MODEL      125
REMARK 921   NORMALIZED FREE ENERGY PREDICTED BY IDOCK:   -5.15 KCAL/MOL
REMARK 922        TOTAL FREE ENERGY PREDICTED BY IDOCK:   -8.19 KCAL/MOL
REMARK 923 INTER-LIGAND FREE ENERGY PREDICTED BY IDOCK:   -7.04 KCAL/MOL
REMARK 924 INTRA-LIGAND FREE ENERGY PREDICTED BY IDOCK:   -1.16 KCAL/MOL
REMARK 927      BINDING AFFINITY PREDICTED BY RF-SCORE:    0.00 PKD
ROOT
HETATM    1  O   UNL     1     -11.286   6.891  66.985  1.00  0.00    -0.369 OA 
HETATM    2  C   UNL     1     -10.250   7.465  67.297  1.00  0.00    -0.260 C  
HETATM    3  C   UNL     1      -9.396   8.219  66.316  1.00  0.00    -0.267 C  
HETATM    4  N   UNL     1      -9.713   7.692  68.586  1.00  0.00    -0.153 N  
HETATM    5  C   UNL     1      -8.163   8.528  67.102  1.00  0.00    -0.108 C  
HETATM    6  N   UNL     1      -8.508   8.459  68.462  1.00  0.00    -0.131 N  
HETATM    7  O   UNL     1      -7.103   8.808  66.557  1.00  0.00    -0.078 OA 
ENDROOT
BRANCH   3   8
HETATM    8  C   UNL     1     -10.086   9.538  65.936  1.00  0.00    -0.284 C  
BRANCH   8   9
HETATM    9  C   UNL     1      -9.122  10.719  65.739  1.00  0.00    -0.188 C  
BRANCH   9  10
HETATM   10  S   UNL     1      -9.435  11.976  67.037  1.00  0.00    -0.203 S  
HETATM   11  O   UNL     1      -8.175  12.785  67.168  1.00  0.00    -0.179 OA 
BRANCH  10  12
HETATM   12  C   UNL     1     -10.592  13.024  66.122  1.00  0.00    -0.277 A  
HETATM   13  C   UNL     1     -12.763  13.389  65.104  1.00  0.00    -0.459 A  
HETATM   14  C   UNL     1     -11.003  15.011  64.795  1.00  0.00    -0.389 A  
HETATM   15  C   UNL     1     -12.311  14.589  64.557  1.00  0.00    -0.434 A  
HETATM   16  C   UNL     1     -10.145  14.233  65.577  1.00  0.00    -0.370 A  
HETATM   17  C   UNL     1     -11.906  12.607  65.881  1.00  0.00    -0.499 A  
ENDBRANCH  10  12
ENDBRANCH   9  10
ENDBRANCH   8   9
ENDBRANCH   3   8
BRANCH   6  18
HETATM   18  C   UNL     1      -7.587   8.785  69.511  1.00  0.00    -0.080 A  
HETATM   19  C   UNL     1      -5.986   8.023  71.215  1.00  0.00    -0.034 A  
HETATM   20  C   UNL     1      -5.583   9.328  71.448  1.00  0.00    -0.063 A  
HETATM   21  C   UNL     1      -7.209  10.097  69.816  1.00  0.00    -0.141 A  
HETATM   22  C   UNL     1      -6.967   7.759  70.253  1.00  0.00    -0.050 A  
HETATM   23  C   UNL     1      -6.201  10.365  70.755  1.00  0.00    -0.033 A  
ENDBRANCH   6  18
BRANCH   4  24
HETATM   24  C   UNL     1     -10.660   7.740  69.646  1.00  0.00    -0.242 A  
HETATM   25  C   UNL     1     -11.085   8.998  70.101  1.00  0.00    -0.228 A  
HETATM   26  C   UNL     1     -11.953   6.719  71.420  1.00  0.00    -0.403 A  
HETATM   27  C   UNL     1     -11.930   9.121  71.205  1.00  0.00    -0.374 A  
HETATM   28  C   UNL     1     -11.115   6.596  70.307  1.00  0.00    -0.379 A  
HETATM   29  C   UNL     1     -12.356   7.975  71.867  1.00  0.00    -0.360 A  
ENDBRANCH   4  24
TORSDOF 6
ENDMDL
MODEL      126
REMARK 921   NORMALIZED FREE ENERGY PREDICTED BY IDOCK:   -5.15 KCAL/MOL
REMARK 922        TOTAL FREE ENERGY PREDICTED BY IDOCK:   -8.18 KCAL/MOL
REMARK 923 INTER-LIGAND FREE ENERGY PREDICTED BY IDOCK:   -6.39 KCAL/MOL
REMARK 924 INTRA-LIGAND FREE ENERGY PREDICTED BY IDOCK:   -1.79 KCAL/MOL
REMARK 927      BINDING AFFINITY PREDICTED BY RF-SCORE:    0.00 PKD
ROOT
HETATM    1  O   UNL     1      -7.491  14.391  70.433  1.00  0.00     0.411 OA 
HETATM    2  C   UNL     1      -7.596  15.219  69.537  1.00  0.00    -0.219 C  
HETATM    3  C   UNL     1      -6.539  15.442  68.490  1.00  0.00    -0.109 C  
HETATM    4  N   UNL     1      -8.716  16.004  69.179  1.00  0.00    -0.247 N  
HETATM    5  C   UNL     1      -7.008  16.674  67.788  1.00  0.00    -0.136 C  
HETATM    6  N   UNL     1      -8.388  16.790  68.026  1.00  0.00    -0.196 N  
HETATM    7  O   UNL     1      -6.248  17.369  67.125  1.00  0.00    -0.134 OA 
ENDROOT
BRANCH   3   8
HETATM    8  C   UNL     1      -6.540  14.271  67.495  1.00  0.00    -0.098 C  
BRANCH   8   9
HETATM    9  C   UNL     1      -6.381  12.889  68.147  1.00  0.00    -0.096 C  
BRANCH   9  10
HETATM   10  S   UNL     1      -6.552  11.592  66.864  1.00  0.00    -0.097 S  
HETATM   11  O   UNL     1      -5.857  10.368  67.391  1.00  0.00    -0.048 OA 
BRANCH  10  12
HETATM   12  C   UNL     1      -8.322  11.263  67.048  1.00  0.00    -0.153 A  
HETATM   13  C   UNL     1     -10.601  11.443  66.240  1.00  0.00    -0.312 A  
HETATM   14  C   UNL     1     -10.173  10.532  68.433  1.00  0.00    -0.192 A  
HETATM   15  C   UNL     1     -11.073  10.899  67.433  1.00  0.00    -0.373 A  
HETATM   16  C   UNL     1      -8.801  10.711  68.242  1.00  0.00    -0.139 A  
HETATM   17  C   UNL     1      -9.231  11.628  66.048  1.00  0.00    -0.218 A  
ENDBRANCH  10  12
ENDBRANCH   9  10
ENDBRANCH   8   9
ENDBRANCH   3   8
BRANCH   6  18
HETATM   18  C   UNL     1      -9.192  17.815  67.428  1.00  0.00    -0.248 A  
HETATM   19  C   UNL     1      -9.771  20.199  67.254  1.00  0.00    -0.574 A  
HETATM   20  C   UNL     1     -10.573  19.944  66.154  1.00  0.00    -0.526 A  
HETATM   21  C   UNL     1     -10.063  17.579  66.359  1.00  0.00    -0.346 A  
HETATM   22  C   UNL     1      -9.084  19.149  67.873  1.00  0.00    -0.349 A  
HETATM   23  C   UNL     1     -10.726  18.633  65.713  1.00  0.00    -0.224 A  
ENDBRANCH   6  18
BRANCH   4  24
HETATM   24  C   UNL     1      -9.984  15.453  69.514  1.00  0.00    -0.264 A  
HETATM   25  C   UNL     1     -10.675  15.995  70.610  1.00  0.00    -0.058 A  
HETATM   26  C   UNL     1     -11.721  13.779  69.312  1.00  0.00    -0.376 A  
HETATM   27  C   UNL     1     -11.872  15.435  71.058  1.00  0.00    -0.406 A  
HETATM   28  C   UNL     1     -10.526  14.347  68.856  1.00  0.00    -0.246 A  
HETATM   29  C   UNL     1     -12.389  14.319  70.408  1.00  0.00    -0.419 A  
ENDBRANCH   4  24
TORSDOF 6
ENDMDL
MODEL      127
REMARK 921   NORMALIZED FREE ENERGY PREDICTED BY IDOCK:   -5.13 KCAL/MOL
REMARK 922        TOTAL FREE ENERGY PREDICTED BY IDOCK:   -8.15 KCAL/MOL
REMARK 923 INTER-LIGAND FREE ENERGY PREDICTED BY IDOCK:   -6.68 KCAL/MOL
REMARK 924 INTRA-LIGAND FREE ENERGY PREDICTED BY IDOCK:   -1.47 KCAL/MOL
REMARK 927      BINDING AFFINITY PREDICTED BY RF-SCORE:    0.00 PKD
ROOT
HETATM    1  O   UNL     1     -10.087   7.882  66.799  1.00  0.00    -0.254 OA 
HETATM    2  C   UNL     1     -10.268   8.964  67.344  1.00  0.00    -0.249 C  
HETATM    3  C   UNL     1     -10.299   9.142  68.836  1.00  0.00    -0.232 C  
HETATM    4  N   UNL     1     -10.326  10.252  66.763  1.00  0.00    -0.230 N  
HETATM    5  C   UNL     1     -10.771  10.550  69.002  1.00  0.00    -0.225 C  
HETATM    6  N   UNL     1     -10.499  11.226  67.801  1.00  0.00    -0.180 N  
HETATM    7  O   UNL     1     -11.264  10.947  70.051  1.00  0.00    -0.281 OA 
ENDROOT
BRANCH   3   8
HETATM    8  C   UNL     1      -8.875   9.026  69.402  1.00  0.00    -0.144 C  
BRANCH   8   9
HETATM    9  C   UNL     1      -8.566   7.669  70.055  1.00  0.00    -0.138 C  
BRANCH   9  10
HETATM   10  S   UNL     1      -8.347   7.904  71.860  1.00  0.00    -0.132 S  
HETATM   11  O   UNL     1      -9.002   9.211  72.208  1.00  0.00    -0.273 OA 
BRANCH  10  12
HETATM   12  C   UNL     1      -9.487   6.622  72.438  1.00  0.00    -0.148 A  
HETATM   13  C   UNL     1     -11.490   5.287  72.146  1.00  0.00    -0.007 A  
HETATM   14  C   UNL     1     -10.252   5.159  74.214  1.00  0.00    -0.291 A  
HETATM   15  C   UNL     1     -11.333   4.761  73.427  1.00  0.00    -0.397 A  
HETATM   16  C   UNL     1      -9.329   6.086  73.721  1.00  0.00    -0.130 A  
HETATM   17  C   UNL     1     -10.573   6.217  71.653  1.00  0.00    -0.276 A  
ENDBRANCH  10  12
ENDBRANCH   9  10
ENDBRANCH   8   9
ENDBRANCH   3   8
BRANCH   6  18
HETATM   18  C   UNL     1     -10.740  12.628  67.631  1.00  0.00    -0.218 A  
HETATM   19  C   UNL     1     -12.149  14.422  66.712  1.00  0.00    -0.393 A  
HETATM   20  C   UNL     1     -11.432  15.374  67.420  1.00  0.00    -0.197 A  
HETATM   21  C   UNL     1      -9.992  13.618  68.279  1.00  0.00    -0.236 A  
HETATM   22  C   UNL     1     -11.810  13.070  66.826  1.00  0.00    -0.451 A  
HETATM   23  C   UNL     1     -10.349  14.972  68.195  1.00  0.00    -0.239 A  
ENDBRANCH   6  18
BRANCH   4  24
HETATM   24  C   UNL     1      -9.609  10.410  65.545  1.00  0.00    -0.234 A  
HETATM   25  C   UNL     1     -10.340  10.650  64.370  1.00  0.00    -0.347 A  
HETATM   26  C   UNL     1      -7.594  10.298  64.207  1.00  0.00    -0.089 A  
HETATM   27  C   UNL     1      -9.710  10.710  63.126  1.00  0.00    -0.375 A  
HETATM   28  C   UNL     1      -8.224  10.249  65.455  1.00  0.00    -0.156 A  
HETATM   29  C   UNL     1      -8.334  10.525  63.049  1.00  0.00    -0.159 A  
ENDBRANCH   4  24
TORSDOF 6
ENDMDL
MODEL      128
REMARK 921   NORMALIZED FREE ENERGY PREDICTED BY IDOCK:   -5.10 KCAL/MOL
REMARK 922        TOTAL FREE ENERGY PREDICTED BY IDOCK:   -8.12 KCAL/MOL
REMARK 923 INTER-LIGAND FREE ENERGY PREDICTED BY IDOCK:   -7.18 KCAL/MOL
REMARK 924 INTRA-LIGAND FREE ENERGY PREDICTED BY IDOCK:   -0.94 KCAL/MOL
REMARK 927      BINDING AFFINITY PREDICTED BY RF-SCORE:    0.00 PKD
ROOT
HETATM    1  O   UNL     1     -12.133  12.166  70.426  1.00  0.00    -0.354 OA 
HETATM    2  C   UNL     1     -11.926  12.497  69.266  1.00  0.00    -0.250 C  
HETATM    3  C   UNL     1     -12.021  13.918  68.783  1.00  0.00    -0.393 C  
HETATM    4  N   UNL     1     -11.422  11.721  68.196  1.00  0.00    -0.291 N  
HETATM    5  C   UNL     1     -11.918  13.782  67.299  1.00  0.00    -0.401 C  
HETATM    6  N   UNL     1     -11.295  12.551  67.035  1.00  0.00    -0.308 N  
HETATM    7  O   UNL     1     -12.310  14.660  66.541  1.00  0.00    -0.265 OA 
ENDROOT
BRANCH   3   8
HETATM    8  C   UNL     1     -10.814  14.721  69.294  1.00  0.00    -0.275 C  
BRANCH   8   9
HETATM    9  C   UNL     1      -9.577  14.645  68.385  1.00  0.00    -0.217 C  
BRANCH   9  10
HETATM   10  S   UNL     1      -8.176  15.499  69.200  1.00  0.00    -0.260 S  
HETATM   11  O   UNL     1      -7.037  14.519  69.242  1.00  0.00    -0.130 OA 
BRANCH  10  12
HETATM   12  C   UNL     1      -7.765  16.663  67.876  1.00  0.00    -0.161 A  
HETATM   13  C   UNL     1      -6.131  17.923  66.600  1.00  0.00    -0.203 A  
HETATM   14  C   UNL     1      -8.488  18.302  66.242  1.00  0.00    -0.216 A  
HETATM   15  C   UNL     1      -7.159  18.596  65.940  1.00  0.00    -0.290 A  
HETATM   16  C   UNL     1      -8.792  17.337  67.206  1.00  0.00    -0.230 A  
HETATM   17  C   UNL     1      -6.433  16.962  67.567  1.00  0.00    -0.170 A  
ENDBRANCH  10  12
ENDBRANCH   9  10
ENDBRANCH   8   9
ENDBRANCH   3   8
BRANCH   6  18
HETATM   18  C   UNL     1     -10.952  12.126  65.710  1.00  0.00    -0.297 A  
HETATM   19  C   UNL     1      -9.335  11.052  64.199  1.00  0.00    -0.235 A  
HETATM   20  C   UNL     1     -10.266  11.051  63.173  1.00  0.00    -0.300 A  
HETATM   21  C   UNL     1     -11.846  12.173  64.635  1.00  0.00    -0.400 A  
HETATM   22  C   UNL     1      -9.680  11.574  65.451  1.00  0.00    -0.262 A  
HETATM   23  C   UNL     1     -11.518  11.619  63.389  1.00  0.00    -0.360 A  
ENDBRANCH   6  18
BRANCH   4  24
HETATM   24  C   UNL     1     -10.592  10.627  68.569  1.00  0.00    -0.200 A  
HETATM   25  C   UNL     1      -9.266  10.896  68.942  1.00  0.00    -0.168 A  
HETATM   26  C   UNL     1     -10.112   8.262  68.760  1.00  0.00    -0.212 A  
HETATM   27  C   UNL     1      -8.368   9.864  69.218  1.00  0.00    -0.151 A  
HETATM   28  C   UNL     1     -11.014   9.297  68.495  1.00  0.00    -0.036 A  
HETATM   29  C   UNL     1      -8.795   8.544  69.118  1.00  0.00    -0.142 A  
ENDBRANCH   4  24
TORSDOF 6
ENDMDL
MODEL      129
REMARK 921   NORMALIZED FREE ENERGY PREDICTED BY IDOCK:   -5.09 KCAL/MOL
REMARK 922        TOTAL FREE ENERGY PREDICTED BY IDOCK:   -8.11 KCAL/MOL
REMARK 923 INTER-LIGAND FREE ENERGY PREDICTED BY IDOCK:   -7.20 KCAL/MOL
REMARK 924 INTRA-LIGAND FREE ENERGY PREDICTED BY IDOCK:   -0.90 KCAL/MOL
REMARK 927      BINDING AFFINITY PREDICTED BY RF-SCORE:    0.00 PKD
ROOT
HETATM    1  O   UNL     1      -8.401   9.001  72.509  1.00  0.00    -0.332 OA 
HETATM    2  C   UNL     1      -9.059   8.167  71.900  1.00  0.00    -0.171 C  
HETATM    3  C   UNL     1     -10.352   7.598  72.416  1.00  0.00    -0.292 C  
HETATM    4  N   UNL     1      -8.879   7.681  70.584  1.00  0.00    -0.144 N  
HETATM    5  C   UNL     1     -10.640   6.485  71.461  1.00  0.00    -0.229 C  
HETATM    6  N   UNL     1      -9.930   6.755  70.279  1.00  0.00    -0.178 N  
HETATM    7  O   UNL     1     -11.400   5.569  71.748  1.00  0.00    -0.172 OA 
ENDROOT
BRANCH   3   8
HETATM    8  C   UNL     1     -11.464   8.652  72.300  1.00  0.00    -0.423 C  
BRANCH   8   9
HETATM    9  C   UNL     1     -11.188   9.748  71.258  1.00  0.00    -0.347 C  
BRANCH   9  10
HETATM   10  S   UNL     1     -12.760  10.590  70.837  1.00  0.00    -0.413 S  
HETATM   11  O   UNL     1     -13.437  10.918  72.137  1.00  0.00    -0.372 OA 
BRANCH  10  12
HETATM   12  C   UNL     1     -12.074  12.155  70.239  1.00  0.00    -0.302 A  
HETATM   13  C   UNL     1     -11.934  14.575  70.331  1.00  0.00    -0.386 A  
HETATM   14  C   UNL     1     -10.802  13.371  68.571  1.00  0.00    -0.285 A  
HETATM   15  C   UNL     1     -11.136  14.577  69.188  1.00  0.00    -0.284 A  
HETATM   16  C   UNL     1     -11.267  12.163  69.095  1.00  0.00    -0.303 A  
HETATM   17  C   UNL     1     -12.405  13.368  70.853  1.00  0.00    -0.436 A  
ENDBRANCH  10  12
ENDBRANCH   9  10
ENDBRANCH   8   9
ENDBRANCH   3   8
BRANCH   6  18
HETATM   18  C   UNL     1     -10.040   5.938  69.107  1.00  0.00    -0.190 A  
HETATM   19  C   UNL     1     -10.761   5.705  66.768  1.00  0.00    -0.358 A  
HETATM   20  C   UNL     1     -10.112   4.486  66.668  1.00  0.00    -0.238 A  
HETATM   21  C   UNL     1      -9.453   4.673  68.997  1.00  0.00    -0.221 A  
HETATM   22  C   UNL     1     -10.715   6.422  67.968  1.00  0.00    -0.362 A  
HETATM   23  C   UNL     1      -9.466   3.966  67.786  1.00  0.00    -0.230 A  
ENDBRANCH   6  18
BRANCH   4  24
HETATM   24  C   UNL     1      -8.226   8.570  69.685  1.00  0.00    -0.115 A  
HETATM   25  C   UNL     1      -6.851   8.395  69.461  1.00  0.00    -0.041 A  
HETATM   26  C   UNL     1      -8.145  10.561  68.310  1.00  0.00    -0.115 A  
HETATM   27  C   UNL     1      -6.127   9.293  68.675  1.00  0.00    -0.044 A  
HETATM   28  C   UNL     1      -8.873   9.654  69.089  1.00  0.00    -0.157 A  
HETATM   29  C   UNL     1      -6.779  10.382  68.107  1.00  0.00    -0.061 A  
ENDBRANCH   4  24
TORSDOF 6
ENDMDL
MODEL      130
REMARK 921   NORMALIZED FREE ENERGY PREDICTED BY IDOCK:   -5.07 KCAL/MOL
REMARK 922        TOTAL FREE ENERGY PREDICTED BY IDOCK:   -8.07 KCAL/MOL
REMARK 923 INTER-LIGAND FREE ENERGY PREDICTED BY IDOCK:   -6.19 KCAL/MOL
REMARK 924 INTRA-LIGAND FREE ENERGY PREDICTED BY IDOCK:   -1.88 KCAL/MOL
REMARK 927      BINDING AFFINITY PREDICTED BY RF-SCORE:    0.00 PKD
ROOT
HETATM    1  O   UNL     1     -12.623  11.081  69.958  1.00  0.00    -0.270 OA 
HETATM    2  C   UNL     1     -11.436  10.869  69.743  1.00  0.00    -0.313 C  
HETATM    3  C   UNL     1     -10.682   9.714  70.342  1.00  0.00    -0.356 C  
HETATM    4  N   UNL     1     -10.572  11.503  68.820  1.00  0.00    -0.206 N  
HETATM    5  C   UNL     1      -9.262  10.010  69.984  1.00  0.00    -0.101 C  
HETATM    6  N   UNL     1      -9.283  10.880  68.881  1.00  0.00    -0.181 N  
HETATM    7  O   UNL     1      -8.325   9.506  70.590  1.00  0.00    -0.192 OA 
ENDROOT
BRANCH   3   8
HETATM    8  C   UNL     1     -11.106   8.406  69.655  1.00  0.00    -0.011 C  
BRANCH   8   9
HETATM    9  C   UNL     1     -11.330   7.231  70.619  1.00  0.00    -0.284 C  
BRANCH   9  10
HETATM   10  S   UNL     1      -9.812   6.206  70.686  1.00  0.00    -0.182 S  
HETATM   11  O   UNL     1     -10.242   4.822  71.083  1.00  0.00    -0.202 OA 
BRANCH  10  12
HETATM   12  C   UNL     1      -9.470   6.117  68.911  1.00  0.00    -0.123 A  
HETATM   13  C   UNL     1     -10.005   5.293  66.693  1.00  0.00    -0.227 A  
HETATM   14  C   UNL     1      -7.971   6.543  67.053  1.00  0.00    -0.112 A  
HETATM   15  C   UNL     1      -8.827   5.849  66.197  1.00  0.00    -0.149 A  
HETATM   16  C   UNL     1      -8.292   6.679  68.406  1.00  0.00    -0.122 A  
HETATM   17  C   UNL     1     -10.325   5.423  68.046  1.00  0.00    -0.215 A  
ENDBRANCH  10  12
ENDBRANCH   9  10
ENDBRANCH   8   9
ENDBRANCH   3   8
BRANCH   6  18
HETATM   18  C   UNL     1      -8.090  11.308  68.211  1.00  0.00    -0.137 A  
HETATM   19  C   UNL     1      -6.366  13.030  67.884  1.00  0.00    -0.134 A  
HETATM   20  C   UNL     1      -5.616  12.160  67.109  1.00  0.00    -0.115 A  
HETATM   21  C   UNL     1      -7.344  10.475  67.370  1.00  0.00    -0.093 A  
HETATM   22  C   UNL     1      -7.580  12.603  68.433  1.00  0.00    -0.132 A  
HETATM   23  C   UNL     1      -6.110  10.886  66.845  1.00  0.00    -0.079 A  
ENDBRANCH   6  18
BRANCH   4  24
HETATM   24  C   UNL     1     -11.203  12.069  67.677  1.00  0.00    -0.282 A  
HETATM   25  C   UNL     1     -11.155  11.353  66.470  1.00  0.00    -0.312 A  
HETATM   26  C   UNL     1     -12.284  13.886  66.498  1.00  0.00    -0.482 A  
HETATM   27  C   UNL     1     -11.660  11.895  65.288  1.00  0.00    -0.278 A  
HETATM   28  C   UNL     1     -11.787  13.337  67.685  1.00  0.00    -0.400 A  
HETATM   29  C   UNL     1     -12.218  13.169  65.305  1.00  0.00    -0.502 A  
ENDBRANCH   4  24
TORSDOF 6
ENDMDL
MODEL      131
REMARK 921   NORMALIZED FREE ENERGY PREDICTED BY IDOCK:   -5.05 KCAL/MOL
REMARK 922        TOTAL FREE ENERGY PREDICTED BY IDOCK:   -8.05 KCAL/MOL
REMARK 923 INTER-LIGAND FREE ENERGY PREDICTED BY IDOCK:   -6.24 KCAL/MOL
REMARK 924 INTRA-LIGAND FREE ENERGY PREDICTED BY IDOCK:   -1.81 KCAL/MOL
REMARK 927      BINDING AFFINITY PREDICTED BY RF-SCORE:    0.00 PKD
ROOT
HETATM    1  O   UNL     1      -9.003   7.549  65.915  1.00  0.00    -0.159 OA 
HETATM    2  C   UNL     1      -9.464   7.265  67.013  1.00  0.00    -0.156 C  
HETATM    3  C   UNL     1      -9.149   5.985  67.735  1.00  0.00    -0.109 C  
HETATM    4  N   UNL     1     -10.222   8.071  67.894  1.00  0.00    -0.201 N  
HETATM    5  C   UNL     1     -10.104   5.996  68.884  1.00  0.00    -0.176 C  
HETATM    6  N   UNL     1     -10.491   7.330  69.091  1.00  0.00    -0.212 N  
HETATM    7  O   UNL     1     -10.402   4.972  69.486  1.00  0.00    -0.238 OA 
ENDROOT
BRANCH   3   8
HETATM    8  C   UNL     1      -7.713   6.039  68.282  1.00  0.00    -0.102 C  
BRANCH   8   9
HETATM    9  C   UNL     1      -7.594   6.680  69.674  1.00  0.00    -0.098 C  
BRANCH   9  10
HETATM   10  S   UNL     1      -7.343   5.364  70.925  1.00  0.00    -0.080 S  
HETATM   11  O   UNL     1      -5.975   5.579  71.510  1.00  0.00    -0.026 OA 
BRANCH  10  12
HETATM   12  C   UNL     1      -8.505   5.960  72.178  1.00  0.00    -0.125 A  
HETATM   13  C   UNL     1     -10.430   5.611  73.612  1.00  0.00    -0.289 A  
HETATM   14  C   UNL     1      -9.422   7.800  73.464  1.00  0.00    -0.346 A  
HETATM   15  C   UNL     1     -10.400   6.954  73.987  1.00  0.00    -0.355 A  
HETATM   16  C   UNL     1      -8.476   7.305  72.563  1.00  0.00    -0.126 A  
HETATM   17  C   UNL     1      -9.488   5.116  72.708  1.00  0.00    -0.159 A  
ENDBRANCH  10  12
ENDBRANCH   9  10
ENDBRANCH   8   9
ENDBRANCH   3   8
BRANCH   6  18
HETATM   18  C   UNL     1     -11.340   7.730  70.175  1.00  0.00    -0.110 A  
HETATM   19  C   UNL     1     -12.169   9.517  71.646  1.00  0.00    -0.477 A  
HETATM   20  C   UNL     1     -13.139   8.672  72.159  1.00  0.00    -0.423 A  
HETATM   21  C   UNL     1     -12.285   6.880  70.761  1.00  0.00    -0.364 A  
HETATM   22  C   UNL     1     -11.291   9.052  70.662  1.00  0.00    -0.311 A  
HETATM   23  C   UNL     1     -13.191   7.351  71.723  1.00  0.00    -0.371 A  
ENDBRANCH   6  18
BRANCH   4  24
HETATM   24  C   UNL     1     -10.012   9.474  67.777  1.00  0.00    -0.174 A  
HETATM   25  C   UNL     1      -8.813  10.009  68.275  1.00  0.00    -0.116 A  
HETATM   26  C   UNL     1     -10.758  11.725  67.294  1.00  0.00    -0.279 A  
HETATM   27  C   UNL     1      -8.587  11.386  68.288  1.00  0.00    -0.156 A  
HETATM   28  C   UNL     1     -10.979  10.344  67.271  1.00  0.00    -0.306 A  
HETATM   29  C   UNL     1      -9.569  12.243  67.802  1.00  0.00    -0.200 A  
ENDBRANCH   4  24
TORSDOF 6
ENDMDL
MODEL      132
REMARK 921   NORMALIZED FREE ENERGY PREDICTED BY IDOCK:   -5.04 KCAL/MOL
REMARK 922        TOTAL FREE ENERGY PREDICTED BY IDOCK:   -8.04 KCAL/MOL
REMARK 923 INTER-LIGAND FREE ENERGY PREDICTED BY IDOCK:   -6.22 KCAL/MOL
REMARK 924 INTRA-LIGAND FREE ENERGY PREDICTED BY IDOCK:   -1.82 KCAL/MOL
REMARK 927      BINDING AFFINITY PREDICTED BY RF-SCORE:    0.00 PKD
ROOT
HETATM    1  O   UNL     1      -8.742  11.092  67.845  1.00  0.00    -0.128 OA 
HETATM    2  C   UNL     1      -8.951   9.885  67.836  1.00  0.00    -0.128 C  
HETATM    3  C   UNL     1      -9.473   9.128  69.026  1.00  0.00    -0.152 C  
HETATM    4  N   UNL     1      -8.919   8.986  66.745  1.00  0.00    -0.132 N  
HETATM    5  C   UNL     1      -9.340   7.700  68.608  1.00  0.00    -0.147 C  
HETATM    6  N   UNL     1      -9.289   7.680  67.204  1.00  0.00    -0.140 N  
HETATM    7  O   UNL     1      -9.320   6.787  69.423  1.00  0.00    -0.148 OA 
ENDROOT
BRANCH   3   8
HETATM    8  C   UNL     1     -10.962   9.449  69.232  1.00  0.00    -0.137 C  
BRANCH   8   9
HETATM    9  C   UNL     1     -11.239  10.454  70.361  1.00  0.00    -0.321 C  
BRANCH   9  10
HETATM   10  S   UNL     1     -12.526   9.772  71.473  1.00  0.00    -0.431 S  
HETATM   11  O   UNL     1     -13.644   9.286  70.595  1.00  0.00     0.102 OA 
BRANCH  10  12
HETATM   12  C   UNL     1     -11.651   8.283  72.015  1.00  0.00    -0.340 A  
HETATM   13  C   UNL     1      -9.672   7.200  72.903  1.00  0.00    -0.200 A  
HETATM   14  C   UNL     1     -11.531   5.864  72.137  1.00  0.00    -0.333 A  
HETATM   15  C   UNL     1     -10.251   5.950  72.685  1.00  0.00    -0.209 A  
HETATM   16  C   UNL     1     -12.231   7.027  71.804  1.00  0.00    -0.387 A  
HETATM   17  C   UNL     1     -10.367   8.362  72.566  1.00  0.00    -0.371 A  
ENDBRANCH  10  12
ENDBRANCH   9  10
ENDBRANCH   8   9
ENDBRANCH   3   8
BRANCH   6  18
HETATM   18  C   UNL     1      -9.251   6.462  66.449  1.00  0.00    -0.155 A  
HETATM   19  C   UNL     1      -7.933   4.806  65.198  1.00  0.00    -0.097 A  
HETATM   20  C   UNL     1      -9.025   3.956  65.133  1.00  0.00    -0.132 A  
HETATM   21  C   UNL     1     -10.354   5.613  66.308  1.00  0.00    -0.174 A  
HETATM   22  C   UNL     1      -8.045   6.035  65.855  1.00  0.00    -0.119 A  
HETATM   23  C   UNL     1     -10.237   4.364  65.680  1.00  0.00    -0.259 A  
ENDBRANCH   6  18
BRANCH   4  24
HETATM   24  C   UNL     1      -9.183   9.558  65.469  1.00  0.00    -0.234 A  
HETATM   25  C   UNL     1      -8.246   9.354  64.443  1.00  0.00    -0.147 A  
HETATM   26  C   UNL     1     -10.420  11.012  63.980  1.00  0.00    -0.433 A  
HETATM   27  C   UNL     1      -8.389   9.972  63.200  1.00  0.00    -0.169 A  
HETATM   28  C   UNL     1     -10.283  10.382  65.222  1.00  0.00    -0.332 A  
HETATM   29  C   UNL     1      -9.477  10.809  62.976  1.00  0.00    -0.372 A  
ENDBRANCH   4  24
TORSDOF 6
ENDMDL
MODEL      133
REMARK 921   NORMALIZED FREE ENERGY PREDICTED BY IDOCK:   -5.02 KCAL/MOL
REMARK 922        TOTAL FREE ENERGY PREDICTED BY IDOCK:   -8.01 KCAL/MOL
REMARK 923 INTER-LIGAND FREE ENERGY PREDICTED BY IDOCK:   -6.54 KCAL/MOL
REMARK 924 INTRA-LIGAND FREE ENERGY PREDICTED BY IDOCK:   -1.47 KCAL/MOL
REMARK 927      BINDING AFFINITY PREDICTED BY RF-SCORE:    0.00 PKD
ROOT
HETATM    1  O   UNL     1      -7.345  11.442  67.211  1.00  0.00    -0.114 OA 
HETATM    2  C   UNL     1      -7.885  10.401  67.565  1.00  0.00    -0.106 C  
HETATM    3  C   UNL     1      -8.510  10.214  68.920  1.00  0.00    -0.139 C  
HETATM    4  N   UNL     1      -8.185   9.250  66.799  1.00  0.00    -0.115 N  
HETATM    5  C   UNL     1      -8.813   8.752  68.957  1.00  0.00    -0.137 C  
HETATM    6  N   UNL     1      -8.873   8.303  67.627  1.00  0.00    -0.136 N  
HETATM    7  O   UNL     1      -8.991   8.156  70.012  1.00  0.00    -0.141 OA 
ENDROOT
BRANCH   3   8
HETATM    8  C   UNL     1      -9.830  10.997  68.993  1.00  0.00    -0.165 C  
BRANCH   8   9
HETATM    9  C   UNL     1      -9.820  12.324  68.218  1.00  0.00    -0.217 C  
BRANCH   9  10
HETATM   10  S   UNL     1     -11.461  13.126  68.370  1.00  0.00    -0.340 S  
HETATM   11  O   UNL     1     -11.230  14.466  69.009  1.00  0.00    -0.240 OA 
BRANCH  10  12
HETATM   12  C   UNL     1     -11.755  13.468  66.617  1.00  0.00    -0.387 A  
HETATM   13  C   UNL     1     -12.474  12.751  64.415  1.00  0.00    -0.476 A  
HETATM   14  C   UNL     1     -11.472  14.928  64.702  1.00  0.00    -0.380 A  
HETATM   15  C   UNL     1     -12.042  13.962  63.874  1.00  0.00    -0.387 A  
HETATM   16  C   UNL     1     -11.330  14.685  66.071  1.00  0.00    -0.344 A  
HETATM   17  C   UNL     1     -12.328  12.503  65.781  1.00  0.00    -0.227 A  
ENDBRANCH  10  12
ENDBRANCH   9  10
ENDBRANCH   8   9
ENDBRANCH   3   8
BRANCH   6  18
HETATM   18  C   UNL     1      -9.232   6.960  67.279  1.00  0.00    -0.127 A  
HETATM   19  C   UNL     1     -10.909   5.397  66.390  1.00  0.00    -0.202 A  
HETATM   20  C   UNL     1      -9.969   4.380  66.352  1.00  0.00    -0.252 A  
HETATM   21  C   UNL     1      -8.323   5.897  67.293  1.00  0.00    -0.105 A  
HETATM   22  C   UNL     1     -10.539   6.669  66.838  1.00  0.00    -0.376 A  
HETATM   23  C   UNL     1      -8.679   4.628  66.812  1.00  0.00    -0.111 A  
ENDBRANCH   6  18
BRANCH   4  24
HETATM   24  C   UNL     1      -8.369   9.471  65.406  1.00  0.00    -0.139 A  
HETATM   25  C   UNL     1      -9.472  10.237  64.995  1.00  0.00    -0.314 A  
HETATM   26  C   UNL     1      -7.860   9.047  63.077  1.00  0.00    -0.131 A  
HETATM   27  C   UNL     1      -9.772  10.405  63.642  1.00  0.00    -0.338 A  
HETATM   28  C   UNL     1      -7.554   8.888  64.433  1.00  0.00    -0.114 A  
HETATM   29  C   UNL     1      -8.965   9.799  62.685  1.00  0.00    -0.284 A  
ENDBRANCH   4  24
TORSDOF 6
ENDMDL
MODEL      134
REMARK 921   NORMALIZED FREE ENERGY PREDICTED BY IDOCK:   -5.01 KCAL/MOL
REMARK 922        TOTAL FREE ENERGY PREDICTED BY IDOCK:   -8.00 KCAL/MOL
REMARK 923 INTER-LIGAND FREE ENERGY PREDICTED BY IDOCK:   -7.29 KCAL/MOL
REMARK 924 INTRA-LIGAND FREE ENERGY PREDICTED BY IDOCK:   -0.72 KCAL/MOL
REMARK 927      BINDING AFFINITY PREDICTED BY RF-SCORE:    0.00 PKD
ROOT
HETATM    1  O   UNL     1     -11.445   6.703  69.723  1.00  0.00    -0.351 OA 
HETATM    2  C   UNL     1     -11.864   7.687  70.320  1.00  0.00     0.094 C  
HETATM    3  C   UNL     1     -12.588   7.608  71.636  1.00  0.00    -0.365 C  
HETATM    4  N   UNL     1     -11.652   9.056  70.036  1.00  0.00     0.000 N  
HETATM    5  C   UNL     1     -13.090   9.001  71.834  1.00  0.00    -0.400 C  
HETATM    6  N   UNL     1     -12.293   9.848  71.045  1.00  0.00    -0.336 N  
HETATM    7  O   UNL     1     -14.015   9.252  72.595  1.00  0.00    -0.438 OA 
ENDROOT
BRANCH   3   8
HETATM    8  C   UNL     1     -11.590   7.275  72.756  1.00  0.00    -0.213 C  
BRANCH   8   9
HETATM    9  C   UNL     1     -10.246   8.012  72.642  1.00  0.00    -0.316 C  
BRANCH   9  10
HETATM   10  S   UNL     1      -8.896   6.895  73.179  1.00  0.00    -0.125 S  
HETATM   11  O   UNL     1      -9.484   5.969  74.206  1.00  0.00    -0.138 OA 
BRANCH  10  12
HETATM   12  C   UNL     1      -8.746   5.910  71.668  1.00  0.00    -0.136 A  
HETATM   13  C   UNL     1      -8.054   5.680  69.355  1.00  0.00    -0.100 A  
HETATM   14  C   UNL     1      -9.330   3.922  70.408  1.00  0.00    -0.231 A  
HETATM   15  C   UNL     1      -8.677   4.435  69.287  1.00  0.00    -0.120 A  
HETATM   16  C   UNL     1      -9.364   4.656  71.596  1.00  0.00    -0.195 A  
HETATM   17  C   UNL     1      -8.091   6.417  70.540  1.00  0.00    -0.117 A  
ENDBRANCH  10  12
ENDBRANCH   9  10
ENDBRANCH   8   9
ENDBRANCH   3   8
BRANCH   6  18
HETATM   18  C   UNL     1     -12.434  11.274  71.056  1.00  0.00    -0.400 A  
HETATM   19  C   UNL     1     -12.128  13.425  69.904  1.00  0.00    -0.389 A  
HETATM   20  C   UNL     1     -12.866  14.074  70.880  1.00  0.00    -0.389 A  
HETATM   21  C   UNL     1     -13.116  11.968  72.061  1.00  0.00    -0.456 A  
HETATM   22  C   UNL     1     -11.926  12.043  69.989  1.00  0.00    -0.400 A  
HETATM   23  C   UNL     1     -13.352  13.347  71.962  1.00  0.00    -0.569 A  
ENDBRANCH   6  18
BRANCH   4  24
HETATM   24  C   UNL     1     -10.451   9.359  69.337  1.00  0.00    -0.220 A  
HETATM   25  C   UNL     1      -9.323   9.735  70.084  1.00  0.00    -0.261 A  
HETATM   26  C   UNL     1      -9.196   9.806  67.315  1.00  0.00    -0.153 A  
HETATM   27  C   UNL     1      -8.146  10.147  69.459  1.00  0.00    -0.176 A  
HETATM   28  C   UNL     1     -10.373   9.383  67.942  1.00  0.00    -0.276 A  
HETATM   29  C   UNL     1      -8.090  10.188  68.070  1.00  0.00    -0.112 A  
ENDBRANCH   4  24
TORSDOF 6
ENDMDL
MODEL      135
REMARK 921   NORMALIZED FREE ENERGY PREDICTED BY IDOCK:   -5.01 KCAL/MOL
REMARK 922        TOTAL FREE ENERGY PREDICTED BY IDOCK:   -8.00 KCAL/MOL
REMARK 923 INTER-LIGAND FREE ENERGY PREDICTED BY IDOCK:   -6.61 KCAL/MOL
REMARK 924 INTRA-LIGAND FREE ENERGY PREDICTED BY IDOCK:   -1.39 KCAL/MOL
REMARK 927      BINDING AFFINITY PREDICTED BY RF-SCORE:    0.00 PKD
ROOT
HETATM    1  O   UNL     1      -7.562   8.338  67.221  1.00  0.00    -0.094 OA 
HETATM    2  C   UNL     1      -8.086   8.126  68.307  1.00  0.00    -0.128 C  
HETATM    3  C   UNL     1      -8.474   9.219  69.264  1.00  0.00    -0.137 C  
HETATM    4  N   UNL     1      -8.576   6.909  68.834  1.00  0.00    -0.131 N  
HETATM    5  C   UNL     1      -8.843   8.472  70.504  1.00  0.00    -0.154 C  
HETATM    6  N   UNL     1      -9.158   7.157  70.121  1.00  0.00    -0.152 N  
HETATM    7  O   UNL     1      -8.865   9.013  71.602  1.00  0.00    -0.329 OA 
ENDROOT
BRANCH   3   8
HETATM    8  C   UNL     1      -9.717   9.952  68.737  1.00  0.00    -0.164 C  
BRANCH   8   9
HETATM    9  C   UNL     1      -9.504  11.453  68.484  1.00  0.00    -0.183 C  
BRANCH   9  10
HETATM   10  S   UNL     1     -10.993  12.146  67.670  1.00  0.00    -0.258 S  
HETATM   11  O   UNL     1     -12.137  11.233  68.011  1.00  0.00    -0.638 OA 
BRANCH  10  12
HETATM   12  C   UNL     1     -11.212  13.610  68.711  1.00  0.00    -0.279 A  
HETATM   13  C   UNL     1     -10.427  15.747  69.545  1.00  0.00    -0.270 A  
HETATM   14  C   UNL     1     -12.405  14.740  70.494  1.00  0.00    -0.398 A  
HETATM   15  C   UNL     1     -11.482  15.785  70.456  1.00  0.00    -0.401 A  
HETATM   16  C   UNL     1     -12.273  13.656  69.623  1.00  0.00    -0.326 A  
HETATM   17  C   UNL     1     -10.290  14.662  68.678  1.00  0.00    -0.246 A  
ENDBRANCH  10  12
ENDBRANCH   9  10
ENDBRANCH   8   9
ENDBRANCH   3   8
BRANCH   6  18
HETATM   18  C   UNL     1      -9.643   6.177  71.047  1.00  0.00    -0.175 A  
HETATM   19  C   UNL     1      -9.185   4.236  72.485  1.00  0.00    -0.143 A  
HETATM   20  C   UNL     1     -10.446   4.332  73.050  1.00  0.00    -0.250 A  
HETATM   21  C   UNL     1     -10.934   6.206  71.586  1.00  0.00    -0.320 A  
HETATM   22  C   UNL     1      -8.789   5.153  71.506  1.00  0.00    -0.145 A  
HETATM   23  C   UNL     1     -11.323   5.311  72.593  1.00  0.00    -0.296 A  
ENDBRANCH   6  18
BRANCH   4  24
HETATM   24  C   UNL     1      -8.989   5.945  67.873  1.00  0.00    -0.111 A  
HETATM   25  C   UNL     1     -10.213   6.145  67.215  1.00  0.00    -0.236 A  
HETATM   26  C   UNL     1      -8.795   3.807  66.754  1.00  0.00    -0.132 A  
HETATM   27  C   UNL     1     -10.728   5.189  66.339  1.00  0.00    -0.275 A  
HETATM   28  C   UNL     1      -8.274   4.771  67.623  1.00  0.00    -0.104 A  
HETATM   29  C   UNL     1     -10.017   4.014  66.117  1.00  0.00    -0.133 A  
ENDBRANCH   4  24
TORSDOF 6
ENDMDL
MODEL      136
REMARK 921   NORMALIZED FREE ENERGY PREDICTED BY IDOCK:   -5.01 KCAL/MOL
REMARK 922        TOTAL FREE ENERGY PREDICTED BY IDOCK:   -7.99 KCAL/MOL
REMARK 923 INTER-LIGAND FREE ENERGY PREDICTED BY IDOCK:   -6.94 KCAL/MOL
REMARK 924 INTRA-LIGAND FREE ENERGY PREDICTED BY IDOCK:   -1.06 KCAL/MOL
REMARK 927      BINDING AFFINITY PREDICTED BY RF-SCORE:    0.00 PKD
ROOT
HETATM    1  O   UNL     1     -11.908  10.754  67.795  1.00  0.00    -0.538 OA 
HETATM    2  C   UNL     1     -10.744  10.608  68.148  1.00  0.00    -0.225 C  
HETATM    3  C   UNL     1      -9.642  11.561  67.773  1.00  0.00    -0.177 C  
HETATM    4  N   UNL     1     -10.202   9.675  69.062  1.00  0.00    -0.190 N  
HETATM    5  C   UNL     1      -8.408  10.851  68.226  1.00  0.00    -0.129 C  
HETATM    6  N   UNL     1      -8.797   9.920  69.204  1.00  0.00    -0.153 N  
HETATM    7  O   UNL     1      -7.302  11.131  67.781  1.00  0.00    -0.088 OA 
ENDROOT
BRANCH   3   8
HETATM    8  C   UNL     1      -9.789  12.863  68.576  1.00  0.00    -0.147 C  
BRANCH   8   9
HETATM    9  C   UNL     1     -10.897  13.798  68.065  1.00  0.00    -0.249 C  
BRANCH   9  10
HETATM   10  S   UNL     1     -10.375  14.537  66.470  1.00  0.00    -0.290 S  
HETATM   11  O   UNL     1      -8.893  14.316  66.356  1.00  0.00    -0.139 OA 
BRANCH  10  12
HETATM   12  C   UNL     1     -11.133  13.330  65.354  1.00  0.00    -0.282 A  
HETATM   13  C   UNL     1     -10.945  11.633  63.632  1.00  0.00    -0.507 A  
HETATM   14  C   UNL     1     -13.124  12.416  64.314  1.00  0.00    -0.102 A  
HETATM   15  C   UNL     1     -12.333  11.593  63.512  1.00  0.00    -0.349 A  
HETATM   16  C   UNL     1     -12.527  13.281  65.235  1.00  0.00    -0.543 A  
HETATM   17  C   UNL     1     -10.346  12.501  64.547  1.00  0.00    -0.362 A  
ENDBRANCH  10  12
ENDBRANCH   9  10
ENDBRANCH   8   9
ENDBRANCH   3   8
BRANCH   6  18
HETATM   18  C   UNL     1      -7.855   9.118  69.926  1.00  0.00    -0.091 A  
HETATM   19  C   UNL     1      -5.977   7.530  69.882  1.00  0.00    -0.024 A  
HETATM   20  C   UNL     1      -5.806   7.665  71.250  1.00  0.00    -0.035 A  
HETATM   21  C   UNL     1      -7.701   9.181  71.315  1.00  0.00    -0.065 A  
HETATM   22  C   UNL     1      -6.982   8.255  69.232  1.00  0.00    -0.058 A  
HETATM   23  C   UNL     1      -6.674   8.483  71.967  1.00  0.00    -0.087 A  
ENDBRANCH   6  18
BRANCH   4  24
HETATM   24  C   UNL     1     -11.100   9.200  70.059  1.00  0.00    -0.190 A  
HETATM   25  C   UNL     1     -11.798  10.145  70.828  1.00  0.00    -0.443 A  
HETATM   26  C   UNL     1     -12.054   7.451  71.433  1.00  0.00    -0.357 A  
HETATM   27  C   UNL     1     -12.613   9.752  71.890  1.00  0.00    -0.479 A  
HETATM   28  C   UNL     1     -11.247   7.845  70.361  1.00  0.00    -0.240 A  
HETATM   29  C   UNL     1     -12.732   8.400  72.195  1.00  0.00    -0.399 A  
ENDBRANCH   4  24
TORSDOF 6
ENDMDL
MODEL      137
REMARK 921   NORMALIZED FREE ENERGY PREDICTED BY IDOCK:   -4.93 KCAL/MOL
REMARK 922        TOTAL FREE ENERGY PREDICTED BY IDOCK:   -7.89 KCAL/MOL
REMARK 923 INTER-LIGAND FREE ENERGY PREDICTED BY IDOCK:   -7.02 KCAL/MOL
REMARK 924 INTRA-LIGAND FREE ENERGY PREDICTED BY IDOCK:   -0.87 KCAL/MOL
REMARK 927      BINDING AFFINITY PREDICTED BY RF-SCORE:    0.00 PKD
ROOT
HETATM    1  O   UNL     1     -12.079  11.400  67.636  1.00  0.00    -0.630 OA 
HETATM    2  C   UNL     1     -10.980  10.929  67.897  1.00  0.00    -0.271 C  
HETATM    3  C   UNL     1      -9.712  11.366  67.217  1.00  0.00    -0.201 C  
HETATM    4  N   UNL     1     -10.617  10.041  68.937  1.00  0.00    -0.209 N  
HETATM    5  C   UNL     1      -8.707  10.367  67.693  1.00  0.00    -0.118 C  
HETATM    6  N   UNL     1      -9.203   9.812  68.884  1.00  0.00    -0.149 N  
HETATM    7  O   UNL     1      -7.659  10.170  67.092  1.00  0.00    -0.091 OA 
ENDROOT
BRANCH   3   8
HETATM    8  C   UNL     1      -9.306  12.759  67.725  1.00  0.00    -0.199 C  
BRANCH   8   9
HETATM    9  C   UNL     1      -7.863  13.160  67.378  1.00  0.00    -0.165 C  
BRANCH   9  10
HETATM   10  S   UNL     1      -7.308  14.474  68.529  1.00  0.00    -0.129 S  
HETATM   11  O   UNL     1      -6.032  15.032  67.966  1.00  0.00    -0.125 OA 
BRANCH  10  12
HETATM   12  C   UNL     1      -8.581  15.708  68.163  1.00  0.00    -0.159 A  
HETATM   13  C   UNL     1     -10.621  16.880  68.751  1.00  0.00    -0.355 A  
HETATM   14  C   UNL     1      -9.621  17.223  66.581  1.00  0.00    -0.286 A  
HETATM   15  C   UNL     1     -10.634  17.495  67.500  1.00  0.00    -0.333 A  
HETATM   16  C   UNL     1      -8.596  16.333  66.910  1.00  0.00    -0.247 A  
HETATM   17  C   UNL     1      -9.600  15.987  69.081  1.00  0.00    -0.257 A  
ENDBRANCH  10  12
ENDBRANCH   9  10
ENDBRANCH   8   9
ENDBRANCH   3   8
BRANCH   6  18
HETATM   18  C   UNL     1      -8.456   8.875  69.670  1.00  0.00    -0.129 A  
HETATM   19  C   UNL     1      -7.059   8.430  71.645  1.00  0.00    -0.093 A  
HETATM   20  C   UNL     1      -7.135   7.066  71.415  1.00  0.00    -0.070 A  
HETATM   21  C   UNL     1      -8.457   7.497  69.425  1.00  0.00    -0.133 A  
HETATM   22  C   UNL     1      -7.719   9.317  70.788  1.00  0.00    -0.164 A  
HETATM   23  C   UNL     1      -7.826   6.601  70.300  1.00  0.00    -0.107 A  
ENDBRANCH   6  18
BRANCH   4  24
HETATM   24  C   UNL     1     -11.440  10.084  70.096  1.00  0.00    -0.277 A  
HETATM   25  C   UNL     1     -11.719   8.878  70.758  1.00  0.00    -0.269 A  
HETATM   26  C   UNL     1     -12.944  11.210  71.624  1.00  0.00    -0.548 A  
HETATM   27  C   UNL     1     -12.603   8.832  71.837  1.00  0.00    -0.428 A  
HETATM   28  C   UNL     1     -12.049  11.257  70.549  1.00  0.00    -0.481 A  
HETATM   29  C   UNL     1     -13.221  10.004  72.262  1.00  0.00    -0.401 A  
ENDBRANCH   4  24
TORSDOF 6
ENDMDL
MODEL      138
REMARK 921   NORMALIZED FREE ENERGY PREDICTED BY IDOCK:   -4.93 KCAL/MOL
REMARK 922        TOTAL FREE ENERGY PREDICTED BY IDOCK:   -7.89 KCAL/MOL
REMARK 923 INTER-LIGAND FREE ENERGY PREDICTED BY IDOCK:   -6.30 KCAL/MOL
REMARK 924 INTRA-LIGAND FREE ENERGY PREDICTED BY IDOCK:   -1.58 KCAL/MOL
REMARK 927      BINDING AFFINITY PREDICTED BY RF-SCORE:    0.00 PKD
ROOT
HETATM    1  O   UNL     1     -11.706   6.283  70.757  1.00  0.00    -0.340 OA 
HETATM    2  C   UNL     1     -11.353   7.344  70.259  1.00  0.00    -0.221 C  
HETATM    3  C   UNL     1     -11.493   8.670  70.956  1.00  0.00    -0.324 C  
HETATM    4  N   UNL     1     -10.627   7.569  69.066  1.00  0.00    -0.205 N  
HETATM    5  C   UNL     1     -11.153   9.656  69.886  1.00  0.00    -0.235 C  
HETATM    6  N   UNL     1     -10.394   8.976  68.918  1.00  0.00    -0.212 N  
HETATM    7  O   UNL     1     -11.497  10.828  69.955  1.00  0.00    -0.281 OA 
ENDROOT
BRANCH   3   8
HETATM    8  C   UNL     1     -10.451   8.777  72.080  1.00  0.00    -0.414 C  
BRANCH   8   9
HETATM    9  C   UNL     1      -8.995   8.679  71.600  1.00  0.00    -0.235 C  
BRANCH   9  10
HETATM   10  S   UNL     1      -7.988   7.850  72.888  1.00  0.00    -0.148 S  
HETATM   11  O   UNL     1      -8.279   8.555  74.183  1.00  0.00    -0.334 OA 
BRANCH  10  12
HETATM   12  C   UNL     1      -8.895   6.286  72.972  1.00  0.00    -0.123 A  
HETATM   13  C   UNL     1      -9.463   4.119  72.043  1.00  0.00    -0.195 A  
HETATM   14  C   UNL     1     -10.637   4.939  73.986  1.00  0.00    -0.350 A  
HETATM   15  C   UNL     1     -10.436   3.947  73.027  1.00  0.00    -0.253 A  
HETATM   16  C   UNL     1      -9.869   6.105  73.962  1.00  0.00    -0.231 A  
HETATM   17  C   UNL     1      -8.697   5.286  72.013  1.00  0.00    -0.133 A  
ENDBRANCH  10  12
ENDBRANCH   9  10
ENDBRANCH   8   9
ENDBRANCH   3   8
BRANCH   6  18
HETATM   18  C   UNL     1      -9.818   9.636  67.784  1.00  0.00    -0.159 A  
HETATM   19  C   UNL     1      -9.879  10.107  65.371  1.00  0.00    -0.375 A  
HETATM   20  C   UNL     1      -8.892  11.068  65.514  1.00  0.00    -0.179 A  
HETATM   21  C   UNL     1      -8.775  10.563  67.886  1.00  0.00    -0.126 A  
HETATM   22  C   UNL     1     -10.340   9.410  66.494  1.00  0.00    -0.268 A  
HETATM   23  C   UNL     1      -8.334  11.289  66.770  1.00  0.00    -0.156 A  
ENDBRANCH   6  18
BRANCH   4  24
HETATM   24  C   UNL     1      -9.775   6.507  68.656  1.00  0.00    -0.127 A  
HETATM   25  C   UNL     1     -10.366   5.306  68.234  1.00  0.00    -0.181 A  
HETATM   26  C   UNL     1      -7.605   5.456  68.435  1.00  0.00    -0.080 A  
HETATM   27  C   UNL     1      -9.591   4.189  67.919  1.00  0.00    -0.203 A  
HETATM   28  C   UNL     1      -8.382   6.579  68.739  1.00  0.00    -0.122 A  
HETATM   29  C   UNL     1      -8.206   4.267  68.029  1.00  0.00    -0.093 A  
ENDBRANCH   4  24
TORSDOF 6
ENDMDL
MODEL      139
REMARK 921   NORMALIZED FREE ENERGY PREDICTED BY IDOCK:   -4.93 KCAL/MOL
REMARK 922        TOTAL FREE ENERGY PREDICTED BY IDOCK:   -7.89 KCAL/MOL
REMARK 923 INTER-LIGAND FREE ENERGY PREDICTED BY IDOCK:   -6.43 KCAL/MOL
REMARK 924 INTRA-LIGAND FREE ENERGY PREDICTED BY IDOCK:   -1.46 KCAL/MOL
REMARK 927      BINDING AFFINITY PREDICTED BY RF-SCORE:    0.00 PKD
ROOT
HETATM    1  O   UNL     1     -10.700   5.303  68.350  1.00  0.00    -0.081 OA 
HETATM    2  C   UNL     1      -9.809   6.008  68.805  1.00  0.00    -0.139 C  
HETATM    3  C   UNL     1      -9.343   7.278  68.147  1.00  0.00    -0.131 C  
HETATM    4  N   UNL     1      -9.149   5.913  70.052  1.00  0.00    -0.143 N  
HETATM    5  C   UNL     1      -8.121   7.638  68.927  1.00  0.00    -0.127 C  
HETATM    6  N   UNL     1      -8.215   6.994  70.172  1.00  0.00    -0.130 N  
HETATM    7  O   UNL     1      -7.268   8.394  68.478  1.00  0.00    -0.078 OA 
ENDROOT
BRANCH   3   8
HETATM    8  C   UNL     1     -10.398   8.378  68.340  1.00  0.00    -0.239 C  
BRANCH   8   9
HETATM    9  C   UNL     1     -10.648   9.237  67.090  1.00  0.00    -0.216 C  
BRANCH   9  10
HETATM   10  S   UNL     1     -10.384  11.002  67.508  1.00  0.00    -0.209 S  
HETATM   11  O   UNL     1      -8.904  11.248  67.434  1.00  0.00    -0.142 OA 
BRANCH  10  12
HETATM   12  C   UNL     1     -11.074  11.740  66.006  1.00  0.00    -0.312 A  
HETATM   13  C   UNL     1     -11.113  11.977  63.593  1.00  0.00    -0.525 A  
HETATM   14  C   UNL     1     -12.479  13.419  64.964  1.00  0.00    -0.479 A  
HETATM   15  C   UNL     1     -12.033  13.018  63.705  1.00  0.00    -0.608 A  
HETATM   16  C   UNL     1     -12.004  12.781  66.113  1.00  0.00    -0.476 A  
HETATM   17  C   UNL     1     -10.632  11.342  64.739  1.00  0.00    -0.377 A  
ENDBRANCH  10  12
ENDBRANCH   9  10
ENDBRANCH   8   9
ENDBRANCH   3   8
BRANCH   6  18
HETATM   18  C   UNL     1      -7.253   7.185  71.216  1.00  0.00    -0.074 A  
HETATM   19  C   UNL     1      -6.649   8.253  73.347  1.00  0.00    -0.130 A  
HETATM   20  C   UNL     1      -5.514   7.464  73.444  1.00  0.00    -0.045 A  
HETATM   21  C   UNL     1      -6.065   6.451  71.307  1.00  0.00    -0.039 A  
HETATM   22  C   UNL     1      -7.508   8.106  72.253  1.00  0.00    -0.139 A  
HETATM   23  C   UNL     1      -5.218   6.570  72.419  1.00  0.00    -0.032 A  
ENDBRANCH   6  18
BRANCH   4  24
HETATM   24  C   UNL     1      -9.895   5.299  71.096  1.00  0.00    -0.189 A  
HETATM   25  C   UNL     1     -10.896   6.053  71.729  1.00  0.00    -0.312 A  
HETATM   26  C   UNL     1     -10.308   3.516  72.682  1.00  0.00    -0.222 A  
HETATM   27  C   UNL     1     -11.593   5.551  72.829  1.00  0.00    -0.298 A  
HETATM   28  C   UNL     1      -9.617   4.016  71.573  1.00  0.00    -0.237 A  
HETATM   29  C   UNL     1     -11.289   4.281  73.307  1.00  0.00    -0.301 A  
ENDBRANCH   4  24
TORSDOF 6
ENDMDL
MODEL      140
REMARK 921   NORMALIZED FREE ENERGY PREDICTED BY IDOCK:   -4.91 KCAL/MOL
REMARK 922        TOTAL FREE ENERGY PREDICTED BY IDOCK:   -7.87 KCAL/MOL
REMARK 923 INTER-LIGAND FREE ENERGY PREDICTED BY IDOCK:   -6.11 KCAL/MOL
REMARK 924 INTRA-LIGAND FREE ENERGY PREDICTED BY IDOCK:   -1.76 KCAL/MOL
REMARK 927      BINDING AFFINITY PREDICTED BY RF-SCORE:    0.00 PKD
ROOT
HETATM    1  O   UNL     1     -11.470   9.544  69.998  1.00  0.00    -0.209 OA 
HETATM    2  C   UNL     1     -10.855   9.754  68.960  1.00  0.00    -0.199 C  
HETATM    3  C   UNL     1     -11.164  10.897  68.033  1.00  0.00    -0.378 C  
HETATM    4  N   UNL     1      -9.682   9.126  68.479  1.00  0.00    -0.152 N  
HETATM    5  C   UNL     1     -10.329  10.598  66.831  1.00  0.00    -0.236 C  
HETATM    6  N   UNL     1      -9.294   9.742  67.244  1.00  0.00    -0.137 N  
HETATM    7  O   UNL     1     -10.573  11.090  65.737  1.00  0.00    -0.247 OA 
ENDROOT
BRANCH   3   8
HETATM    8  C   UNL     1     -10.681  12.215  68.659  1.00  0.00    -0.261 C  
BRANCH   8   9
HETATM    9  C   UNL     1     -11.732  12.923  69.527  1.00  0.00    -0.323 C  
BRANCH   9  10
HETATM   10  S   UNL     1     -11.860  14.677  69.011  1.00  0.00    -0.297 S  
HETATM   11  O   UNL     1     -10.658  15.382  69.573  1.00  0.00    -0.235 OA 
BRANCH  10  12
HETATM   12  C   UNL     1     -11.517  14.464  67.247  1.00  0.00    -0.359 A  
HETATM   13  C   UNL     1     -10.057  14.736  65.329  1.00  0.00    -0.388 A  
HETATM   14  C   UNL     1     -12.307  13.917  65.021  1.00  0.00    -0.452 A  
HETATM   15  C   UNL     1     -11.071  14.284  64.486  1.00  0.00    -0.321 A  
HETATM   16  C   UNL     1     -12.530  14.004  66.397  1.00  0.00    -0.395 A  
HETATM   17  C   UNL     1     -10.279  14.829  66.705  1.00  0.00    -0.271 A  
ENDBRANCH  10  12
ENDBRANCH   9  10
ENDBRANCH   8   9
ENDBRANCH   3   8
BRANCH   6  18
HETATM   18  C   UNL     1      -8.245   9.317  66.365  1.00  0.00    -0.111 A  
HETATM   19  C   UNL     1      -5.863   9.369  65.756  1.00  0.00    -0.054 A  
HETATM   20  C   UNL     1      -6.060   8.364  64.823  1.00  0.00    -0.063 A  
HETATM   21  C   UNL     1      -8.426   8.352  65.368  1.00  0.00    -0.193 A  
HETATM   22  C   UNL     1      -6.941   9.829  66.521  1.00  0.00    -0.085 A  
HETATM   23  C   UNL     1      -7.343   7.863  64.623  1.00  0.00    -0.084 A  
ENDBRANCH   6  18
BRANCH   4  24
HETATM   24  C   UNL     1      -8.827   8.578  69.475  1.00  0.00    -0.141 A  
HETATM   25  C   UNL     1      -7.882   9.423  70.078  1.00  0.00    -0.135 A  
HETATM   26  C   UNL     1      -7.882   6.724  70.712  1.00  0.00    -0.101 A  
HETATM   27  C   UNL     1      -6.944   8.929  70.984  1.00  0.00    -0.085 A  
HETATM   28  C   UNL     1      -8.830   7.222  69.812  1.00  0.00    -0.142 A  
HETATM   29  C   UNL     1      -6.943   7.573  71.293  1.00  0.00    -0.050 A  
ENDBRANCH   4  24
TORSDOF 6
ENDMDL
MODEL      141
REMARK 921   NORMALIZED FREE ENERGY PREDICTED BY IDOCK:   -4.91 KCAL/MOL
REMARK 922        TOTAL FREE ENERGY PREDICTED BY IDOCK:   -7.86 KCAL/MOL
REMARK 923 INTER-LIGAND FREE ENERGY PREDICTED BY IDOCK:   -6.68 KCAL/MOL
REMARK 924 INTRA-LIGAND FREE ENERGY PREDICTED BY IDOCK:   -1.17 KCAL/MOL
REMARK 927      BINDING AFFINITY PREDICTED BY RF-SCORE:    0.00 PKD
ROOT
HETATM    1  O   UNL     1      -9.563   8.572  72.184  1.00  0.00    -0.262 OA 
HETATM    2  C   UNL     1      -9.750   7.692  71.354  1.00  0.00    -0.163 C  
HETATM    3  C   UNL     1     -10.518   7.909  70.080  1.00  0.00    -0.231 C  
HETATM    4  N   UNL     1      -9.200   6.390  71.299  1.00  0.00    -0.156 N  
HETATM    5  C   UNL     1     -10.671   6.527  69.533  1.00  0.00    -0.270 C  
HETATM    6  N   UNL     1      -9.664   5.736  70.111  1.00  0.00    -0.164 N  
HETATM    7  O   UNL     1     -11.535   6.249  68.711  1.00  0.00    -0.294 OA 
ENDROOT
BRANCH   3   8
HETATM    8  C   UNL     1      -9.673   8.739  69.101  1.00  0.00    -0.175 C  
BRANCH   8   9
HETATM    9  C   UNL     1      -9.434  10.189  69.549  1.00  0.00    -0.214 C  
BRANCH   9  10
HETATM   10  S   UNL     1     -10.505  11.309  68.570  1.00  0.00    -0.205 S  
HETATM   11  O   UNL     1     -11.289  10.441  67.627  1.00  0.00    -0.371 OA 
BRANCH  10  12
HETATM   12  C   UNL     1     -11.667  11.779  69.876  1.00  0.00    -0.323 A  
HETATM   13  C   UNL     1     -12.865  13.473  71.131  1.00  0.00    -0.387 A  
HETATM   14  C   UNL     1     -12.971  11.164  71.826  1.00  0.00    -0.526 A  
HETATM   15  C   UNL     1     -13.331  12.499  72.012  1.00  0.00    -0.528 A  
HETATM   16  C   UNL     1     -12.143  10.803  70.760  1.00  0.00    -0.473 A  
HETATM   17  C   UNL     1     -12.033  13.116  70.068  1.00  0.00    -0.391 A  
ENDBRANCH  10  12
ENDBRANCH   9  10
ENDBRANCH   8   9
ENDBRANCH   3   8
BRANCH   6  18
HETATM   18  C   UNL     1      -9.452   4.365  69.747  1.00  0.00    -0.184 A  
HETATM   19  C   UNL     1      -9.546   1.988  70.368  1.00  0.00    -0.108 A  
HETATM   20  C   UNL     1      -9.280   1.616  69.060  1.00  0.00    -0.189 A  
HETATM   21  C   UNL     1      -9.117   3.960  68.451  1.00  0.00    -0.189 A  
HETATM   22  C   UNL     1      -9.640   3.344  70.700  1.00  0.00    -0.238 A  
HETATM   23  C   UNL     1      -9.057   2.602  68.104  1.00  0.00    -0.229 A  
ENDBRANCH   6  18
BRANCH   4  24
HETATM   24  C   UNL     1      -7.936   6.230  71.933  1.00  0.00    -0.102 A  
HETATM   25  C   UNL     1      -7.896   5.586  73.180  1.00  0.00    -0.101 A  
HETATM   26  C   UNL     1      -5.566   6.673  72.143  1.00  0.00    -0.037 A  
HETATM   27  C   UNL     1      -6.708   5.489  73.906  1.00  0.00    -0.079 A  
HETATM   28  C   UNL     1      -6.755   6.761  71.411  1.00  0.00    -0.061 A  
HETATM   29  C   UNL     1      -5.544   6.043  73.385  1.00  0.00    -0.037 A  
ENDBRANCH   4  24
TORSDOF 6
ENDMDL
MODEL      142
REMARK 921   NORMALIZED FREE ENERGY PREDICTED BY IDOCK:   -4.88 KCAL/MOL
REMARK 922        TOTAL FREE ENERGY PREDICTED BY IDOCK:   -7.82 KCAL/MOL
REMARK 923 INTER-LIGAND FREE ENERGY PREDICTED BY IDOCK:   -6.15 KCAL/MOL
REMARK 924 INTRA-LIGAND FREE ENERGY PREDICTED BY IDOCK:   -1.67 KCAL/MOL
REMARK 927      BINDING AFFINITY PREDICTED BY RF-SCORE:    0.00 PKD
ROOT
HETATM    1  O   UNL     1     -10.992   5.479  70.946  1.00  0.00    -0.226 OA 
HETATM    2  C   UNL     1     -10.620   5.833  69.834  1.00  0.00    -0.318 C  
HETATM    3  C   UNL     1     -10.702   7.254  69.350  1.00  0.00    -0.236 C  
HETATM    4  N   UNL     1      -9.921   5.092  68.853  1.00  0.00    -0.173 N  
HETATM    5  C   UNL     1     -10.361   7.141  67.900  1.00  0.00    -0.198 C  
HETATM    6  N   UNL     1      -9.650   5.941  67.731  1.00  0.00    -0.113 N  
HETATM    7  O   UNL     1     -10.668   8.011  67.094  1.00  0.00    -0.322 OA 
ENDROOT
BRANCH   3   8
HETATM    8  C   UNL     1      -9.627   8.102  70.048  1.00  0.00    -0.171 C  
BRANCH   8   9
HETATM    9  C   UNL     1     -10.159   8.967  71.202  1.00  0.00    -0.295 C  
BRANCH   9  10
HETATM   10  S   UNL     1     -11.979   9.120  71.054  1.00  0.00    -0.259 S  
HETATM   11  O   UNL     1     -12.509   9.337  72.443  1.00  0.00    -0.328 OA 
BRANCH  10  12
HETATM   12  C   UNL     1     -12.048  10.740  70.250  1.00  0.00    -0.348 A  
HETATM   13  C   UNL     1     -11.641  12.167  68.331  1.00  0.00    -0.381 A  
HETATM   14  C   UNL     1     -12.390  13.135  70.412  1.00  0.00    -0.351 A  
HETATM   15  C   UNL     1     -12.001  13.286  69.081  1.00  0.00    -0.343 A  
HETATM   16  C   UNL     1     -12.416  11.866  70.996  1.00  0.00    -0.390 A  
HETATM   17  C   UNL     1     -11.661  10.898  68.914  1.00  0.00    -0.378 A  
ENDBRANCH  10  12
ENDBRANCH   9  10
ENDBRANCH   8   9
ENDBRANCH   3   8
BRANCH   6  18
HETATM   18  C   UNL     1      -9.084   5.548  66.474  1.00  0.00    -0.138 A  
HETATM   19  C   UNL     1      -9.311   4.305  64.365  1.00  0.00    -0.157 A  
HETATM   20  C   UNL     1      -8.155   4.889  63.873  1.00  0.00    -0.112 A  
HETATM   21  C   UNL     1      -7.884   6.069  65.978  1.00  0.00    -0.105 A  
HETATM   22  C   UNL     1      -9.771   4.640  65.642  1.00  0.00    -0.202 A  
HETATM   23  C   UNL     1      -7.437   5.764  64.684  1.00  0.00    -0.077 A  
ENDBRANCH   6  18
BRANCH   4  24
HETATM   24  C   UNL     1      -9.112   4.031  69.346  1.00  0.00    -0.127 A  
HETATM   25  C   UNL     1      -9.517   2.712  69.087  1.00  0.00    -0.148 A  
HETATM   26  C   UNL     1      -7.304   3.156  70.699  1.00  0.00    -0.037 A  
HETATM   27  C   UNL     1      -8.829   1.625  69.629  1.00  0.00    -0.119 A  
HETATM   28  C   UNL     1      -7.987   4.245  70.146  1.00  0.00    -0.058 A  
HETATM   29  C   UNL     1      -7.725   1.854  70.443  1.00  0.00    -0.039 A  
ENDBRANCH   4  24
TORSDOF 6
ENDMDL
MODEL      143
REMARK 921   NORMALIZED FREE ENERGY PREDICTED BY IDOCK:   -4.86 KCAL/MOL
REMARK 922        TOTAL FREE ENERGY PREDICTED BY IDOCK:   -7.80 KCAL/MOL
REMARK 923 INTER-LIGAND FREE ENERGY PREDICTED BY IDOCK:   -7.01 KCAL/MOL
REMARK 924 INTRA-LIGAND FREE ENERGY PREDICTED BY IDOCK:   -0.79 KCAL/MOL
REMARK 927      BINDING AFFINITY PREDICTED BY RF-SCORE:    0.00 PKD
ROOT
HETATM    1  O   UNL     1     -11.646  11.580  67.982  1.00  0.00    -0.361 OA 
HETATM    2  C   UNL     1     -10.897  12.548  68.013  1.00  0.00    -0.225 C  
HETATM    3  C   UNL     1      -9.691  12.630  68.907  1.00  0.00     0.183 C  
HETATM    4  N   UNL     1     -10.874  13.682  67.168  1.00  0.00    -0.283 N  
HETATM    5  C   UNL     1      -9.253  14.051  68.761  1.00  0.00    -0.050 C  
HETATM    6  N   UNL     1      -9.782  14.528  67.550  1.00  0.00    -0.209 N  
HETATM    7  O   UNL     1      -8.537  14.595  69.592  1.00  0.00     0.104 OA 
ENDROOT
BRANCH   3   8
HETATM    8  C   UNL     1      -8.583  11.711  68.368  1.00  0.00    -0.156 C  
BRANCH   8   9
HETATM    9  C   UNL     1      -8.367  10.433  69.194  1.00  0.00    -0.158 C  
BRANCH   9  10
HETATM   10  S   UNL     1      -9.375   9.077  68.483  1.00  0.00    -0.140 S  
HETATM   11  O   UNL     1      -8.424   7.963  68.145  1.00  0.00    -0.123 OA 
BRANCH  10  12
HETATM   12  C   UNL     1     -10.221   8.551  69.994  1.00  0.00    -0.198 A  
HETATM   13  C   UNL     1     -11.786   8.976  71.797  1.00  0.00    -0.442 A  
HETATM   14  C   UNL     1     -10.417   6.988  71.837  1.00  0.00    -0.223 A  
HETATM   15  C   UNL     1     -11.392   7.794  72.424  1.00  0.00    -0.400 A  
HETATM   16  C   UNL     1      -9.834   7.363  70.624  1.00  0.00    -0.179 A  
HETATM   17  C   UNL     1     -11.201   9.355  70.588  1.00  0.00    -0.345 A  
ENDBRANCH  10  12
ENDBRANCH   9  10
ENDBRANCH   8   9
ENDBRANCH   3   8
BRANCH   6  18
HETATM   18  C   UNL     1      -9.490  15.835  67.040  1.00  0.00    -0.223 A  
HETATM   19  C   UNL     1     -10.093  18.214  66.887  1.00  0.00    -0.362 A  
HETATM   20  C   UNL     1      -8.887  18.500  66.269  1.00  0.00    -0.221 A  
HETATM   21  C   UNL     1      -8.311  16.143  66.353  1.00  0.00    -0.357 A  
HETATM   22  C   UNL     1     -10.382  16.901  67.274  1.00  0.00    -0.309 A  
HETATM   23  C   UNL     1      -8.000  17.464  65.994  1.00  0.00    -0.200 A  
ENDBRANCH   6  18
BRANCH   4  24
HETATM   24  C   UNL     1     -11.394  13.483  65.859  1.00  0.00    -0.308 A  
HETATM   25  C   UNL     1     -11.343  12.190  65.314  1.00  0.00    -0.386 A  
HETATM   26  C   UNL     1     -12.254  14.286  63.743  1.00  0.00    -0.106 A  
HETATM   27  C   UNL     1     -11.737  11.944  63.998  1.00  0.00    -0.469 A  
HETATM   28  C   UNL     1     -11.869  14.530  65.066  1.00  0.00    -0.399 A  
HETATM   29  C   UNL     1     -12.186  13.000  63.212  1.00  0.00    -0.464 A  
ENDBRANCH   4  24
TORSDOF 6
ENDMDL
MODEL      144
REMARK 921   NORMALIZED FREE ENERGY PREDICTED BY IDOCK:   -4.84 KCAL/MOL
REMARK 922        TOTAL FREE ENERGY PREDICTED BY IDOCK:   -7.77 KCAL/MOL
REMARK 923 INTER-LIGAND FREE ENERGY PREDICTED BY IDOCK:   -6.93 KCAL/MOL
REMARK 924 INTRA-LIGAND FREE ENERGY PREDICTED BY IDOCK:   -0.84 KCAL/MOL
REMARK 927      BINDING AFFINITY PREDICTED BY RF-SCORE:    0.00 PKD
ROOT
HETATM    1  O   UNL     1      -7.617  11.039  65.190  1.00  0.00     0.146 OA 
HETATM    2  C   UNL     1      -7.980  11.020  66.359  1.00  0.00    -0.161 C  
HETATM    3  C   UNL     1      -7.055  11.284  67.515  1.00  0.00    -0.099 C  
HETATM    4  N   UNL     1      -9.290  10.916  66.881  1.00  0.00    -0.167 N  
HETATM    5  C   UNL     1      -7.884  10.924  68.705  1.00  0.00    -0.126 C  
HETATM    6  N   UNL     1      -9.231  10.995  68.311  1.00  0.00    -0.158 N  
HETATM    7  O   UNL     1      -7.379  10.661  69.789  1.00  0.00    -0.153 OA 
ENDROOT
BRANCH   3   8
HETATM    8  C   UNL     1      -6.720  12.782  67.578  1.00  0.00    -0.154 C  
BRANCH   8   9
HETATM    9  C   UNL     1      -7.935  13.707  67.406  1.00  0.00    -0.166 C  
BRANCH   9  10
HETATM   10  S   UNL     1      -7.775  15.134  68.545  1.00  0.00    -0.130 S  
HETATM   11  O   UNL     1      -7.408  16.322  67.702  1.00  0.00    -0.124 OA 
BRANCH  10  12
HETATM   12  C   UNL     1      -9.525  15.350  68.953  1.00  0.00    -0.219 A  
HETATM   13  C   UNL     1     -11.292  15.674  70.582  1.00  0.00    -0.392 A  
HETATM   14  C   UNL     1     -11.850  15.270  68.269  1.00  0.00    -0.251 A  
HETATM   15  C   UNL     1     -12.251  15.509  69.583  1.00  0.00    -0.297 A  
HETATM   16  C   UNL     1     -10.491  15.192  67.952  1.00  0.00    -0.245 A  
HETATM   17  C   UNL     1      -9.934  15.592  70.269  1.00  0.00     0.044 A  
ENDBRANCH  10  12
ENDBRANCH   9  10
ENDBRANCH   8   9
ENDBRANCH   3   8
BRANCH   6  18
HETATM   18  C   UNL     1     -10.316  10.796  69.227  1.00  0.00    -0.205 A  
HETATM   19  C   UNL     1     -12.204  11.743  70.485  1.00  0.00    -0.438 A  
HETATM   20  C   UNL     1     -12.619  10.475  70.857  1.00  0.00    -0.493 A  
HETATM   21  C   UNL     1     -10.719   9.533  69.674  1.00  0.00    -0.257 A  
HETATM   22  C   UNL     1     -11.075  11.897  69.674  1.00  0.00    -0.106 A  
HETATM   23  C   UNL     1     -11.871   9.371  70.458  1.00  0.00    -0.207 A  
ENDBRANCH   6  18
BRANCH   4  24
HETATM   24  C   UNL     1     -10.329  11.394  66.034  1.00  0.00    -0.249 A  
HETATM   25  C   UNL     1     -10.257  11.096  64.664  1.00  0.00    -0.376 A  
HETATM   26  C   UNL     1     -12.284  12.749  65.585  1.00  0.00    -0.503 A  
HETATM   27  C   UNL     1     -11.183  11.620  63.761  1.00  0.00    -0.498 A  
HETATM   28  C   UNL     1     -11.362  12.215  66.492  1.00  0.00    -0.405 A  
HETATM   29  C   UNL     1     -12.193  12.455  64.227  1.00  0.00    -0.538 A  
ENDBRANCH   4  24
TORSDOF 6
ENDMDL
MODEL      145
REMARK 921   NORMALIZED FREE ENERGY PREDICTED BY IDOCK:   -4.84 KCAL/MOL
REMARK 922        TOTAL FREE ENERGY PREDICTED BY IDOCK:   -7.77 KCAL/MOL
REMARK 923 INTER-LIGAND FREE ENERGY PREDICTED BY IDOCK:   -6.29 KCAL/MOL
REMARK 924 INTRA-LIGAND FREE ENERGY PREDICTED BY IDOCK:   -1.48 KCAL/MOL
REMARK 927      BINDING AFFINITY PREDICTED BY RF-SCORE:    0.00 PKD
ROOT
HETATM    1  O   UNL     1     -11.906   9.617  71.747  1.00  0.00    -0.386 OA 
HETATM    2  C   UNL     1     -11.370   8.957  70.865  1.00  0.00    -0.283 C  
HETATM    3  C   UNL     1     -11.309   9.395  69.428  1.00  0.00     0.078 C  
HETATM    4  N   UNL     1     -10.587   7.786  70.983  1.00  0.00    -0.212 N  
HETATM    5  C   UNL     1     -10.784   8.186  68.724  1.00  0.00    -0.040 C  
HETATM    6  N   UNL     1     -10.122   7.400  69.683  1.00  0.00    -0.183 N  
HETATM    7  O   UNL     1     -10.932   8.025  67.520  1.00  0.00    -0.126 OA 
ENDROOT
BRANCH   3   8
HETATM    8  C   UNL     1     -10.293  10.538  69.278  1.00  0.00    -0.248 C  
BRANCH   8   9
HETATM    9  C   UNL     1     -10.759  11.679  68.360  1.00  0.00    -0.217 C  
BRANCH   9  10
HETATM   10  S   UNL     1      -9.497  11.964  67.061  1.00  0.00    -0.192 S  
HETATM   11  O   UNL     1      -8.911  10.622  66.726  1.00  0.00    -0.137 OA 
BRANCH  10  12
HETATM   12  C   UNL     1     -10.608  12.365  65.690  1.00  0.00    -0.265 A  
HETATM   13  C   UNL     1     -10.973  12.911  63.355  1.00  0.00    -0.090 A  
HETATM   14  C   UNL     1     -12.815  13.001  64.913  1.00  0.00    -0.368 A  
HETATM   15  C   UNL     1     -12.321  13.155  63.618  1.00  0.00    -0.482 A  
HETATM   16  C   UNL     1     -11.963  12.606  65.947  1.00  0.00    -0.497 A  
HETATM   17  C   UNL     1     -10.119  12.520  64.388  1.00  0.00    -0.284 A  
ENDBRANCH  10  12
ENDBRANCH   9  10
ENDBRANCH   8   9
ENDBRANCH   3   8
BRANCH   6  18
HETATM   18  C   UNL     1      -9.416   6.200  69.345  1.00  0.00    -0.138 A  
HETATM   19  C   UNL     1      -9.431   3.755  69.085  1.00  0.00    -0.242 A  
HETATM   20  C   UNL     1      -8.181   3.791  68.488  1.00  0.00    -0.083 A  
HETATM   21  C   UNL     1      -8.126   6.198  68.801  1.00  0.00    -0.105 A  
HETATM   22  C   UNL     1     -10.040   4.945  69.497  1.00  0.00    -0.286 A  
HETATM   23  C   UNL     1      -7.526   5.011  68.355  1.00  0.00    -0.074 A  
ENDBRANCH   6  18
BRANCH   4  24
HETATM   24  C   UNL     1      -9.910   7.621  72.224  1.00  0.00    -0.177 A  
HETATM   25  C   UNL     1      -8.569   8.030  72.308  1.00  0.00    -0.212 A  
HETATM   26  C   UNL     1      -9.735   6.757  74.478  1.00  0.00    -0.270 A  
HETATM   27  C   UNL     1      -7.815   7.802  73.460  1.00  0.00    -0.189 A  
HETATM   28  C   UNL     1     -10.494   6.996  73.327  1.00  0.00    -0.365 A  
HETATM   29  C   UNL     1      -8.402   7.157  74.543  1.00  0.00    -0.215 A  
ENDBRANCH   4  24
TORSDOF 6
ENDMDL
MODEL      146
REMARK 921   NORMALIZED FREE ENERGY PREDICTED BY IDOCK:   -4.84 KCAL/MOL
REMARK 922        TOTAL FREE ENERGY PREDICTED BY IDOCK:   -7.77 KCAL/MOL
REMARK 923 INTER-LIGAND FREE ENERGY PREDICTED BY IDOCK:   -6.52 KCAL/MOL
REMARK 924 INTRA-LIGAND FREE ENERGY PREDICTED BY IDOCK:   -1.25 KCAL/MOL
REMARK 927      BINDING AFFINITY PREDICTED BY RF-SCORE:    0.00 PKD
ROOT
HETATM    1  O   UNL     1      -7.091   9.889  70.511  1.00  0.00    -0.167 OA 
HETATM    2  C   UNL     1      -8.286   9.687  70.332  1.00  0.00    -0.160 C  
HETATM    3  C   UNL     1      -8.974   9.921  69.015  1.00  0.00    -0.160 C  
HETATM    4  N   UNL     1      -9.223   9.074  71.195  1.00  0.00    -0.251 N  
HETATM    5  C   UNL     1     -10.421   9.764  69.353  1.00  0.00    -0.223 C  
HETATM    6  N   UNL     1     -10.493   9.005  70.534  1.00  0.00    -0.209 N  
HETATM    7  O   UNL     1     -11.304  10.226  68.643  1.00  0.00    -0.234 OA 
ENDROOT
BRANCH   3   8
HETATM    8  C   UNL     1      -8.574   8.821  68.019  1.00  0.00    -0.134 C  
BRANCH   8   9
HETATM    9  C   UNL     1      -8.780   7.391  68.544  1.00  0.00    -0.127 C  
BRANCH   9  10
HETATM   10  S   UNL     1      -9.877   6.479  67.394  1.00  0.00    -0.143 S  
HETATM   11  O   UNL     1      -9.147   6.380  66.085  1.00  0.00    -0.156 OA 
BRANCH  10  12
HETATM   12  C   UNL     1      -9.749   4.837  68.147  1.00  0.00    -0.143 A  
HETATM   13  C   UNL     1      -9.696   3.407  70.105  1.00  0.00    -0.125 A  
HETATM   14  C   UNL     1      -9.243   2.476  67.925  1.00  0.00    -0.250 A  
HETATM   15  C   UNL     1      -9.374   2.313  69.304  1.00  0.00    -0.174 A  
HETATM   16  C   UNL     1      -9.431   3.734  67.346  1.00  0.00    -0.239 A  
HETATM   17  C   UNL     1      -9.880   4.666  69.529  1.00  0.00    -0.286 A  
ENDBRANCH  10  12
ENDBRANCH   9  10
ENDBRANCH   8   9
ENDBRANCH   3   8
BRANCH   6  18
HETATM   18  C   UNL     1     -11.737   8.582  71.106  1.00  0.00    -0.281 A  
HETATM   19  C   UNL     1     -13.793   9.160  72.326  1.00  0.00    -0.527 A  
HETATM   20  C   UNL     1     -14.316   7.901  72.080  1.00  0.00    -0.490 A  
HETATM   21  C   UNL     1     -12.263   7.297  70.933  1.00  0.00    -0.308 A  
HETATM   22  C   UNL     1     -12.526   9.495  71.836  1.00  0.00    -0.465 A  
HETATM   23  C   UNL     1     -13.547   6.967  71.391  1.00  0.00    -0.312 A  
ENDBRANCH   6  18
BRANCH   4  24
HETATM   24  C   UNL     1      -8.684   8.142  72.125  1.00  0.00    -0.175 A  
HETATM   25  C   UNL     1      -8.049   6.995  71.624  1.00  0.00    -0.103 A  
HETATM   26  C   UNL     1      -8.388   7.266  74.363  1.00  0.00    -0.225 A  
HETATM   27  C   UNL     1      -7.592   5.990  72.477  1.00  0.00    -0.099 A  
HETATM   28  C   UNL     1      -8.836   8.278  73.507  1.00  0.00    -0.255 A  
HETATM   29  C   UNL     1      -7.771   6.127  73.850  1.00  0.00    -0.093 A  
ENDBRANCH   4  24
TORSDOF 6
ENDMDL
MODEL      147
REMARK 921   NORMALIZED FREE ENERGY PREDICTED BY IDOCK:   -4.79 KCAL/MOL
REMARK 922        TOTAL FREE ENERGY PREDICTED BY IDOCK:   -7.70 KCAL/MOL
REMARK 923 INTER-LIGAND FREE ENERGY PREDICTED BY IDOCK:   -6.15 KCAL/MOL
REMARK 924 INTRA-LIGAND FREE ENERGY PREDICTED BY IDOCK:   -1.55 KCAL/MOL
REMARK 927      BINDING AFFINITY PREDICTED BY RF-SCORE:    0.00 PKD
ROOT
HETATM    1  O   UNL     1      -9.620   7.630  66.037  1.00  0.00    -0.070 OA 
HETATM    2  C   UNL     1      -9.971   8.776  66.288  1.00  0.00    -0.245 C  
HETATM    3  C   UNL     1     -10.558   9.189  67.610  1.00  0.00    -0.307 C  
HETATM    4  N   UNL     1      -9.781   9.952  65.525  1.00  0.00    -0.284 N  
HETATM    5  C   UNL     1     -11.030  10.583  67.354  1.00  0.00    -0.288 C  
HETATM    6  N   UNL     1     -10.312  11.070  66.248  1.00  0.00    -0.245 N  
HETATM    7  O   UNL     1     -11.872  11.120  68.061  1.00  0.00    -0.582 OA 
ENDROOT
BRANCH   3   8
HETATM    8  C   UNL     1      -9.454   9.226  68.678  1.00  0.00    -0.148 C  
BRANCH   8   9
HETATM    9  C   UNL     1      -9.425   7.995  69.598  1.00  0.00    -0.163 C  
BRANCH   9  10
HETATM   10  S   UNL     1      -7.746   7.260  69.571  1.00  0.00    -0.115 S  
HETATM   11  O   UNL     1      -7.585   6.505  70.860  1.00  0.00    -0.086 OA 
BRANCH  10  12
HETATM   12  C   UNL     1      -8.025   6.001  68.302  1.00  0.00    -0.106 A  
HETATM   13  C   UNL     1      -7.513   5.028  66.139  1.00  0.00    -0.086 A  
HETATM   14  C   UNL     1      -9.379   4.192  67.422  1.00  0.00    -0.204 A  
HETATM   15  C   UNL     1      -8.588   4.150  66.274  1.00  0.00    -0.113 A  
HETATM   16  C   UNL     1      -9.099   5.112  68.435  1.00  0.00    -0.131 A  
HETATM   17  C   UNL     1      -7.234   5.953  67.148  1.00  0.00    -0.075 A  
ENDBRANCH  10  12
ENDBRANCH   9  10
ENDBRANCH   8   9
ENDBRANCH   3   8
BRANCH   6  18
HETATM   18  C   UNL     1     -10.444  12.415  65.772  1.00  0.00    -0.259 A  
HETATM   19  C   UNL     1     -11.540  14.010  64.255  1.00  0.00    -0.348 A  
HETATM   20  C   UNL     1     -10.942  15.074  64.910  1.00  0.00    -0.427 A  
HETATM   21  C   UNL     1      -9.802  13.505  66.370  1.00  0.00    -0.299 A  
HETATM   22  C   UNL     1     -11.300  12.702  64.689  1.00  0.00    -0.360 A  
HETATM   23  C   UNL     1     -10.067  14.821  65.961  1.00  0.00    -0.327 A  
ENDBRANCH   6  18
BRANCH   4  24
HETATM   24  C   UNL     1      -8.656   9.944  64.655  1.00  0.00    -0.182 A  
HETATM   25  C   UNL     1      -8.880  10.100  63.278  1.00  0.00    -0.238 A  
HETATM   26  C   UNL     1      -6.309   9.587  64.180  1.00  0.00    -0.098 A  
HETATM   27  C   UNL     1      -7.835   9.997  62.359  1.00  0.00    -0.140 A  
HETATM   28  C   UNL     1      -7.355   9.701  65.102  1.00  0.00    -0.115 A  
HETATM   29  C   UNL     1      -6.548   9.732  62.816  1.00  0.00    -0.108 A  
ENDBRANCH   4  24
TORSDOF 6
ENDMDL
MODEL      148
REMARK 921   NORMALIZED FREE ENERGY PREDICTED BY IDOCK:   -4.78 KCAL/MOL
REMARK 922        TOTAL FREE ENERGY PREDICTED BY IDOCK:   -7.69 KCAL/MOL
REMARK 923 INTER-LIGAND FREE ENERGY PREDICTED BY IDOCK:   -6.76 KCAL/MOL
REMARK 924 INTRA-LIGAND FREE ENERGY PREDICTED BY IDOCK:   -0.93 KCAL/MOL
REMARK 927      BINDING AFFINITY PREDICTED BY RF-SCORE:    0.00 PKD
ROOT
HETATM    1  O   UNL     1      -8.087   9.708  67.152  1.00  0.00    -0.109 OA 
HETATM    2  C   UNL     1      -8.946   9.494  67.997  1.00  0.00    -0.123 C  
HETATM    3  C   UNL     1      -9.991  10.504  68.387  1.00  0.00    -0.177 C  
HETATM    4  N   UNL     1      -9.262   8.284  68.657  1.00  0.00    -0.143 N  
HETATM    5  C   UNL     1     -10.637   9.882  69.582  1.00  0.00    -0.250 C  
HETATM    6  N   UNL     1     -10.384   8.502  69.523  1.00  0.00    -0.215 N  
HETATM    7  O   UNL     1     -11.276  10.546  70.389  1.00  0.00    -0.304 OA 
ENDROOT
BRANCH   3   8
HETATM    8  C   UNL     1     -11.034  10.628  67.266  1.00  0.00    -0.348 C  
BRANCH   8   9
HETATM    9  C   UNL     1     -11.452  12.073  66.951  1.00  0.00    -0.337 C  
BRANCH   9  10
HETATM   10  S   UNL     1     -10.083  12.920  66.074  1.00  0.00    -0.285 S  
HETATM   11  O   UNL     1     -10.521  13.085  64.646  1.00  0.00    -0.343 OA 
BRANCH  10  12
HETATM   12  C   UNL     1     -10.254  14.557  66.827  1.00  0.00    -0.266 A  
HETATM   13  C   UNL     1      -9.575  16.878  67.017  1.00  0.00    -0.252 A  
HETATM   14  C   UNL     1     -11.174  15.962  68.576  1.00  0.00    -0.362 A  
HETATM   15  C   UNL     1     -10.412  17.037  68.121  1.00  0.00    -0.357 A  
HETATM   16  C   UNL     1     -11.098  14.725  67.931  1.00  0.00    -0.301 A  
HETATM   17  C   UNL     1      -9.493  15.641  66.374  1.00  0.00    -0.321 A  
ENDBRANCH  10  12
ENDBRANCH   9  10
ENDBRANCH   8   9
ENDBRANCH   3   8
BRANCH   6  18
HETATM   18  C   UNL     1     -10.931   7.574  70.468  1.00  0.00    -0.252 A  
HETATM   19  C   UNL     1     -10.652   5.536  71.816  1.00  0.00    -0.296 A  
HETATM   20  C   UNL     1     -11.830   5.801  72.496  1.00  0.00    -0.222 A  
HETATM   21  C   UNL     1     -12.150   7.778  71.124  1.00  0.00    -0.306 A  
HETATM   22  C   UNL     1     -10.208   6.417  70.824  1.00  0.00    -0.228 A  
HETATM   23  C   UNL     1     -12.583   6.917  72.143  1.00  0.00    -0.160 A  
ENDBRANCH   6  18
BRANCH   4  24
HETATM   24  C   UNL     1      -8.940   7.095  67.946  1.00  0.00    -0.122 A  
HETATM   25  C   UNL     1      -9.906   6.557  67.080  1.00  0.00    -0.200 A  
HETATM   26  C   UNL     1      -7.542   5.170  67.499  1.00  0.00    -0.088 A  
HETATM   27  C   UNL     1      -9.698   5.339  66.432  1.00  0.00    -0.184 A  
HETATM   28  C   UNL     1      -7.746   6.397  68.139  1.00  0.00    -0.104 A  
HETATM   29  C   UNL     1      -8.514   4.643  66.652  1.00  0.00    -0.105 A  
ENDBRANCH   4  24
TORSDOF 6
ENDMDL
MODEL      149
REMARK 921   NORMALIZED FREE ENERGY PREDICTED BY IDOCK:   -4.78 KCAL/MOL
REMARK 922        TOTAL FREE ENERGY PREDICTED BY IDOCK:   -7.68 KCAL/MOL
REMARK 923 INTER-LIGAND FREE ENERGY PREDICTED BY IDOCK:   -6.99 KCAL/MOL
REMARK 924 INTRA-LIGAND FREE ENERGY PREDICTED BY IDOCK:   -0.69 KCAL/MOL
REMARK 927      BINDING AFFINITY PREDICTED BY RF-SCORE:    0.00 PKD
ROOT
HETATM    1  O   UNL     1     -11.650  10.674  67.866  1.00  0.00    -0.491 OA 
HETATM    2  C   UNL     1     -10.630  11.350  67.899  1.00  0.00    -0.189 C  
HETATM    3  C   UNL     1      -9.342  10.873  68.512  1.00  0.00    -0.181 C  
HETATM    4  N   UNL     1     -10.366  12.591  67.274  1.00  0.00    -0.219 N  
HETATM    5  C   UNL     1      -8.491  12.101  68.518  1.00  0.00    -0.083 C  
HETATM    6  N   UNL     1      -9.012  12.975  67.549  1.00  0.00    -0.183 N  
HETATM    7  O   UNL     1      -7.519  12.210  69.255  1.00  0.00     0.048 OA 
ENDROOT
BRANCH   3   8
HETATM    8  C   UNL     1      -8.691   9.823  67.598  1.00  0.00    -0.125 C  
BRANCH   8   9
HETATM    9  C   UNL     1      -8.129   8.601  68.342  1.00  0.00    -0.118 C  
BRANCH   9  10
HETATM   10  S   UNL     1      -9.516   7.521  68.862  1.00  0.00    -0.145 S  
HETATM   11  O   UNL     1      -9.101   6.109  68.558  1.00  0.00    -0.118 OA 
BRANCH  10  12
HETATM   12  C   UNL     1      -9.340   7.703  70.654  1.00  0.00    -0.163 A  
HETATM   13  C   UNL     1      -8.078   7.373  72.699  1.00  0.00    -0.122 A  
HETATM   14  C   UNL     1     -10.329   8.237  72.803  1.00  0.00    -0.330 A  
HETATM   15  C   UNL     1      -9.159   7.836  73.447  1.00  0.00    -0.336 A  
HETATM   16  C   UNL     1     -10.420   8.174  71.410  1.00  0.00    -0.261 A  
HETATM   17  C   UNL     1      -8.168   7.303  71.308  1.00  0.00    -0.106 A  
ENDBRANCH  10  12
ENDBRANCH   9  10
ENDBRANCH   8   9
ENDBRANCH   3   8
BRANCH   6  18
HETATM   18  C   UNL     1      -8.390  14.223  67.218  1.00  0.00    -0.204 A  
HETATM   19  C   UNL     1      -8.532  16.413  66.109  1.00  0.00    -0.329 A  
HETATM   20  C   UNL     1      -7.339  16.808  66.694  1.00  0.00    -0.297 A  
HETATM   21  C   UNL     1      -7.155  14.624  67.738  1.00  0.00    -0.193 A  
HETATM   22  C   UNL     1      -9.051  15.142  66.378  1.00  0.00    -0.331 A  
HETATM   23  C   UNL     1      -6.647  15.910  67.501  1.00  0.00    -0.212 A  
ENDBRANCH   6  18
BRANCH   4  24
HETATM   24  C   UNL     1     -11.114  12.856  66.094  1.00  0.00    -0.286 A  
HETATM   25  C   UNL     1     -10.698  12.256  64.895  1.00  0.00    -0.335 A  
HETATM   26  C   UNL     1     -12.803  14.060  64.845  1.00  0.00    -0.210 A  
HETATM   27  C   UNL     1     -11.322  12.554  63.683  1.00  0.00    -0.555 A  
HETATM   28  C   UNL     1     -12.186  13.752  66.062  1.00  0.00    -0.495 A  
HETATM   29  C   UNL     1     -12.372  13.466  63.662  1.00  0.00    -0.422 A  
ENDBRANCH   4  24
TORSDOF 6
ENDMDL
MODEL      150
REMARK 921   NORMALIZED FREE ENERGY PREDICTED BY IDOCK:   -4.76 KCAL/MOL
REMARK 922        TOTAL FREE ENERGY PREDICTED BY IDOCK:   -7.66 KCAL/MOL
REMARK 923 INTER-LIGAND FREE ENERGY PREDICTED BY IDOCK:   -6.16 KCAL/MOL
REMARK 924 INTRA-LIGAND FREE ENERGY PREDICTED BY IDOCK:   -1.50 KCAL/MOL
REMARK 927      BINDING AFFINITY PREDICTED BY RF-SCORE:    0.00 PKD
ROOT
HETATM    1  O   UNL     1      -7.175   7.240  67.598  1.00  0.00    -0.085 OA 
HETATM    2  C   UNL     1      -7.896   7.355  68.580  1.00  0.00    -0.122 C  
HETATM    3  C   UNL     1      -8.707   8.588  68.869  1.00  0.00    -0.131 C  
HETATM    4  N   UNL     1      -8.257   6.378  69.537  1.00  0.00    -0.117 N  
HETATM    5  C   UNL     1      -9.217   8.345  70.253  1.00  0.00    -0.152 C  
HETATM    6  N   UNL     1      -9.171   6.959  70.477  1.00  0.00    -0.156 N  
HETATM    7  O   UNL     1      -9.608   9.260  70.967  1.00  0.00    -0.271 OA 
ENDROOT
BRANCH   3   8
HETATM    8  C   UNL     1      -9.902   8.660  67.905  1.00  0.00    -0.211 C  
BRANCH   8   9
HETATM    9  C   UNL     1     -10.310  10.089  67.513  1.00  0.00    -0.232 C  
BRANCH   9  10
HETATM   10  S   UNL     1      -9.148  10.721  66.244  1.00  0.00    -0.181 S  
HETATM   11  O   UNL     1      -8.791   9.556  65.365  1.00  0.00    -0.154 OA 
BRANCH  10  12
HETATM   12  C   UNL     1     -10.317  11.714  65.282  1.00  0.00    -0.269 A  
HETATM   13  C   UNL     1     -11.614  13.740  64.971  1.00  0.00    -0.350 A  
HETATM   14  C   UNL     1     -11.928  11.870  63.477  1.00  0.00    -0.567 A  
HETATM   15  C   UNL     1     -12.256  13.166  63.874  1.00  0.00    -0.503 A  
HETATM   16  C   UNL     1     -10.959  11.145  64.177  1.00  0.00    -0.276 A  
HETATM   17  C   UNL     1     -10.649  13.016  65.675  1.00  0.00    -0.297 A  
ENDBRANCH  10  12
ENDBRANCH   9  10
ENDBRANCH   8   9
ENDBRANCH   3   8
BRANCH   6  18
HETATM   18  C   UNL     1      -9.670   6.353  71.676  1.00  0.00    -0.160 A  
HETATM   19  C   UNL     1     -11.560   5.373  72.906  1.00  0.00    -0.296 A  
HETATM   20  C   UNL     1     -10.710   4.948  73.913  1.00  0.00    -0.363 A  
HETATM   21  C   UNL     1      -8.846   5.972  72.741  1.00  0.00    -0.123 A  
HETATM   22  C   UNL     1     -11.043   6.056  71.800  1.00  0.00    -0.332 A  
HETATM   23  C   UNL     1      -9.355   5.256  73.835  1.00  0.00    -0.129 A  
ENDBRANCH   6  18
BRANCH   4  24
HETATM   24  C   UNL     1      -8.232   5.031  69.080  1.00  0.00    -0.087 A  
HETATM   25  C   UNL     1      -9.327   4.561  68.337  1.00  0.00    -0.194 A  
HETATM   26  C   UNL     1      -7.304   2.796  69.030  1.00  0.00    -0.048 A  
HETATM   27  C   UNL     1      -9.415   3.224  67.948  1.00  0.00    -0.219 A  
HETATM   28  C   UNL     1      -7.210   4.139  69.411  1.00  0.00    -0.050 A  
HETATM   29  C   UNL     1      -8.402   2.341  68.305  1.00  0.00    -0.078 A  
ENDBRANCH   4  24
TORSDOF 6
ENDMDL
MODEL      151
REMARK 921   NORMALIZED FREE ENERGY PREDICTED BY IDOCK:   -4.75 KCAL/MOL
REMARK 922        TOTAL FREE ENERGY PREDICTED BY IDOCK:   -7.65 KCAL/MOL
REMARK 923 INTER-LIGAND FREE ENERGY PREDICTED BY IDOCK:   -6.39 KCAL/MOL
REMARK 924 INTRA-LIGAND FREE ENERGY PREDICTED BY IDOCK:   -1.26 KCAL/MOL
REMARK 927      BINDING AFFINITY PREDICTED BY RF-SCORE:    0.00 PKD
ROOT
HETATM    1  O   UNL     1     -11.196   6.300  68.500  1.00  0.00    -0.352 OA 
HETATM    2  C   UNL     1     -10.698   7.287  67.973  1.00  0.00    -0.146 C  
HETATM    3  C   UNL     1     -10.736   8.659  68.588  1.00  0.00    -0.092 C  
HETATM    4  N   UNL     1      -9.878   7.362  66.823  1.00  0.00    -0.215 N  
HETATM    5  C   UNL     1     -10.222   9.538  67.494  1.00  0.00    -0.228 C  
HETATM    6  N   UNL     1      -9.483   8.725  66.618  1.00  0.00    -0.185 N  
HETATM    7  O   UNL     1     -10.440  10.742  67.478  1.00  0.00    -0.195 OA 
ENDROOT
BRANCH   3   8
HETATM    8  C   UNL     1      -9.761   8.722  69.775  1.00  0.00    -0.179 C  
BRANCH   8   9
HETATM    9  C   UNL     1      -9.486   7.363  70.437  1.00  0.00    -0.165 C  
BRANCH   9  10
HETATM   10  S   UNL     1      -9.892   7.466  72.221  1.00  0.00    -0.173 S  
HETATM   11  O   UNL     1      -9.234   8.713  72.742  1.00  0.00    -0.293 OA 
BRANCH  10  12
HETATM   12  C   UNL     1     -11.650   7.871  72.074  1.00  0.00    -0.308 A  
HETATM   13  C   UNL     1     -13.935   7.221  71.588  1.00  0.00    -0.488 A  
HETATM   14  C   UNL     1     -13.403   9.543  71.974  1.00  0.00    -0.535 A  
HETATM   15  C   UNL     1     -14.339   8.552  71.681  1.00  0.00    -0.497 A  
HETATM   16  C   UNL     1     -12.062   9.205  72.172  1.00  0.00    -0.389 A  
HETATM   17  C   UNL     1     -12.595   6.881  71.780  1.00  0.00    -0.386 A  
ENDBRANCH  10  12
ENDBRANCH   9  10
ENDBRANCH   8   9
ENDBRANCH   3   8
BRANCH   6  18
HETATM   18  C   UNL     1      -8.767   9.251  65.494  1.00  0.00    -0.175 A  
HETATM   19  C   UNL     1      -6.627   9.562  64.324  1.00  0.00    -0.100 A  
HETATM   20  C   UNL     1      -7.285  10.058  63.211  1.00  0.00    -0.134 A  
HETATM   21  C   UNL     1      -9.398   9.819  64.382  1.00  0.00    -0.278 A  
HETATM   22  C   UNL     1      -7.361   9.157  65.444  1.00  0.00    -0.089 A  
HETATM   23  C   UNL     1      -8.669  10.194  63.243  1.00  0.00    -0.214 A  
ENDBRANCH   6  18
BRANCH   4  24
HETATM   24  C   UNL     1      -9.122   6.193  66.530  1.00  0.00    -0.148 A  
HETATM   25  C   UNL     1      -7.902   6.005  67.198  1.00  0.00    -0.102 A  
HETATM   26  C   UNL     1      -8.653   4.209  65.223  1.00  0.00    -0.119 A  
HETATM   27  C   UNL     1      -7.062   4.937  66.883  1.00  0.00    -0.072 A  
HETATM   28  C   UNL     1      -9.500   5.275  65.548  1.00  0.00    -0.055 A  
HETATM   29  C   UNL     1      -7.440   4.043  65.886  1.00  0.00    -0.084 A  
ENDBRANCH   4  24
TORSDOF 6
ENDMDL
MODEL      152
REMARK 921   NORMALIZED FREE ENERGY PREDICTED BY IDOCK:   -4.74 KCAL/MOL
REMARK 922        TOTAL FREE ENERGY PREDICTED BY IDOCK:   -7.64 KCAL/MOL
REMARK 923 INTER-LIGAND FREE ENERGY PREDICTED BY IDOCK:   -6.83 KCAL/MOL
REMARK 924 INTRA-LIGAND FREE ENERGY PREDICTED BY IDOCK:   -0.81 KCAL/MOL
REMARK 927      BINDING AFFINITY PREDICTED BY RF-SCORE:    0.00 PKD
ROOT
HETATM    1  O   UNL     1      -9.419  12.803  68.864  1.00  0.00     0.059 OA 
HETATM    2  C   UNL     1      -9.261  13.895  68.332  1.00  0.00    -0.194 C  
HETATM    3  C   UNL     1      -8.740  14.062  66.931  1.00  0.00    -0.185 C  
HETATM    4  N   UNL     1      -9.648  15.174  68.794  1.00  0.00    -0.211 N  
HETATM    5  C   UNL     1      -8.508  15.535  66.827  1.00  0.00    -0.279 C  
HETATM    6  N   UNL     1      -9.304  16.153  67.805  1.00  0.00    -0.211 N  
HETATM    7  O   UNL     1      -7.760  16.012  65.983  1.00  0.00     0.187 OA 
ENDROOT
BRANCH   3   8
HETATM    8  C   UNL     1      -9.827  13.658  65.923  1.00  0.00    -0.263 C  
BRANCH   8   9
HETATM    9  C   UNL     1     -11.024  12.925  66.547  1.00  0.00    -0.275 C  
BRANCH   9  10
HETATM   10  S   UNL     1     -11.314  11.359  65.640  1.00  0.00     0.123 S  
HETATM   11  O   UNL     1     -10.818  11.574  64.238  1.00  0.00    -0.327 OA 
BRANCH  10  12
HETATM   12  C   UNL     1     -10.055  10.342  66.450  1.00  0.00    -0.228 A  
HETATM   13  C   UNL     1      -7.889   9.251  66.437  1.00  0.00    -0.103 A  
HETATM   14  C   UNL     1      -9.421   8.860  68.261  1.00  0.00    -0.150 A  
HETATM   15  C   UNL     1      -8.191   8.625  67.645  1.00  0.00    -0.110 A  
HETATM   16  C   UNL     1     -10.351   9.717  67.667  1.00  0.00    -0.281 A  
HETATM   17  C   UNL     1      -8.819  10.104  65.838  1.00  0.00    -0.167 A  
ENDBRANCH  10  12
ENDBRANCH   9  10
ENDBRANCH   8   9
ENDBRANCH   3   8
BRANCH   6  18
HETATM   18  C   UNL     1      -9.401  17.577  67.937  1.00  0.00    -0.265 A  
HETATM   19  C   UNL     1      -8.312  19.717  68.468  1.00  0.00    -0.329 A  
HETATM   20  C   UNL     1      -9.421  20.415  68.017  1.00  0.00    -0.275 A  
HETATM   21  C   UNL     1     -10.531  18.306  67.553  1.00  0.00    -0.431 A  
HETATM   22  C   UNL     1      -8.303  18.319  68.418  1.00  0.00    -0.323 A  
HETATM   23  C   UNL     1     -10.533  19.709  67.568  1.00  0.00    -0.589 A  
ENDBRANCH   6  18
BRANCH   4  24
HETATM   24  C   UNL     1     -10.764  15.196  69.677  1.00  0.00    -0.278 A  
HETATM   25  C   UNL     1     -10.688  16.003  70.823  1.00  0.00     0.041 A  
HETATM   26  C   UNL     1     -12.897  14.365  70.465  1.00  0.00    -0.353 A  
HETATM   27  C   UNL     1     -11.700  15.992  71.783  1.00  0.00    -0.593 A  
HETATM   28  C   UNL     1     -11.888  14.386  69.497  1.00  0.00    -0.376 A  
HETATM   29  C   UNL     1     -12.802  15.163  71.603  1.00  0.00    -0.439 A  
ENDBRANCH   4  24
TORSDOF 6
ENDMDL
MODEL      153
REMARK 921   NORMALIZED FREE ENERGY PREDICTED BY IDOCK:   -4.73 KCAL/MOL
REMARK 922        TOTAL FREE ENERGY PREDICTED BY IDOCK:   -7.62 KCAL/MOL
REMARK 923 INTER-LIGAND FREE ENERGY PREDICTED BY IDOCK:   -6.55 KCAL/MOL
REMARK 924 INTRA-LIGAND FREE ENERGY PREDICTED BY IDOCK:   -1.07 KCAL/MOL
REMARK 927      BINDING AFFINITY PREDICTED BY RF-SCORE:    0.00 PKD
ROOT
HETATM    1  O   UNL     1     -12.349  10.903  69.661  1.00  0.00    -0.328 OA 
HETATM    2  C   UNL     1     -11.144  10.748  69.505  1.00  0.00    -0.278 C  
HETATM    3  C   UNL     1     -10.341   9.716  70.248  1.00  0.00    -0.336 C  
HETATM    4  N   UNL     1     -10.290  11.336  68.543  1.00  0.00    -0.195 N  
HETATM    5  C   UNL     1      -8.931  10.066  69.900  1.00  0.00    -0.146 C  
HETATM    6  N   UNL     1      -8.967  10.810  68.708  1.00  0.00    -0.165 N  
HETATM    7  O   UNL     1      -7.986   9.693  70.583  1.00  0.00    -0.241 OA 
ENDROOT
BRANCH   3   8
HETATM    8  C   UNL     1     -10.657   8.318  69.695  1.00  0.00    -0.222 C  
BRANCH   8   9
HETATM    9  C   UNL     1     -10.970   7.270  70.775  1.00  0.00    -0.251 C  
BRANCH   9  10
HETATM   10  S   UNL     1      -9.423   6.820  71.648  1.00  0.00    -0.154 S  
HETATM   11  O   UNL     1      -9.319   7.729  72.840  1.00  0.00    -0.173 OA 
BRANCH  10  12
HETATM   12  C   UNL     1      -9.941   5.215  72.304  1.00  0.00    -0.180 A  
HETATM   13  C   UNL     1      -9.758   2.798  72.368  1.00  0.00    -0.213 A  
HETATM   14  C   UNL     1     -11.521   3.902  73.592  1.00  0.00    -0.171 A  
HETATM   15  C   UNL     1     -10.873   2.730  73.202  1.00  0.00    -0.241 A  
HETATM   16  C   UNL     1     -11.057   5.142  73.147  1.00  0.00    -0.391 A  
HETATM   17  C   UNL     1      -9.295   4.036  71.918  1.00  0.00    -0.192 A  
ENDBRANCH  10  12
ENDBRANCH   9  10
ENDBRANCH   8   9
ENDBRANCH   3   8
BRANCH   6  18
HETATM   18  C   UNL     1      -7.780  11.241  68.030  1.00  0.00    -0.108 A  
HETATM   19  C   UNL     1      -6.048  12.956  67.711  1.00  0.00    -0.143 A  
HETATM   20  C   UNL     1      -5.316  12.096  66.909  1.00  0.00     0.007 A  
HETATM   21  C   UNL     1      -7.054  10.420  67.161  1.00  0.00    -0.090 A  
HETATM   22  C   UNL     1      -7.257  12.528  68.269  1.00  0.00    -0.111 A  
HETATM   23  C   UNL     1      -5.824  10.831  66.627  1.00  0.00    -0.084 A  
ENDBRANCH   6  18
BRANCH   4  24
HETATM   24  C   UNL     1     -10.914  11.733  67.328  1.00  0.00    -0.267 A  
HETATM   25  C   UNL     1     -10.637  10.994  66.167  1.00  0.00    -0.288 A  
HETATM   26  C   UNL     1     -12.203  13.275  65.978  1.00  0.00    -0.483 A  
HETATM   27  C   UNL     1     -11.130  11.390  64.923  1.00  0.00    -0.235 A  
HETATM   28  C   UNL     1     -11.717  12.871  67.226  1.00  0.00    -0.431 A  
HETATM   29  C   UNL     1     -11.909  12.539  64.832  1.00  0.00    -0.438 A  
ENDBRANCH   4  24
TORSDOF 6
ENDMDL
MODEL      154
REMARK 921   NORMALIZED FREE ENERGY PREDICTED BY IDOCK:   -4.72 KCAL/MOL
REMARK 922        TOTAL FREE ENERGY PREDICTED BY IDOCK:   -7.61 KCAL/MOL
REMARK 923 INTER-LIGAND FREE ENERGY PREDICTED BY IDOCK:   -6.05 KCAL/MOL
REMARK 924 INTRA-LIGAND FREE ENERGY PREDICTED BY IDOCK:   -1.56 KCAL/MOL
REMARK 927      BINDING AFFINITY PREDICTED BY RF-SCORE:    0.00 PKD
ROOT
HETATM    1  O   UNL     1     -10.544   8.410  66.755  1.00  0.00    -0.295 OA 
HETATM    2  C   UNL     1     -10.637   9.610  66.977  1.00  0.00    -0.197 C  
HETATM    3  C   UNL     1     -10.863  10.181  68.349  1.00  0.00    -0.284 C  
HETATM    4  N   UNL     1     -10.411  10.697  66.100  1.00  0.00    -0.244 N  
HETATM    5  C   UNL     1     -11.134  11.625  68.079  1.00  0.00    -0.242 C  
HETATM    6  N   UNL     1     -10.586  11.924  66.820  1.00  0.00    -0.221 N  
HETATM    7  O   UNL     1     -11.711  12.338  68.890  1.00  0.00    -0.291 OA 
ENDROOT
BRANCH   3   8
HETATM    8  C   UNL     1      -9.574  10.064  69.177  1.00  0.00    -0.217 C  
BRANCH   8   9
HETATM    9  C   UNL     1      -9.439   8.743  69.950  1.00  0.00    -0.169 C  
BRANCH   9  10
HETATM   10  S   UNL     1      -7.868   7.925  69.479  1.00  0.00    -0.112 S  
HETATM   11  O   UNL     1      -7.336   8.666  68.285  1.00  0.00    -0.084 OA 
BRANCH  10  12
HETATM   12  C   UNL     1      -6.854   8.465  70.877  1.00  0.00    -0.047 A  
HETATM   13  C   UNL     1      -5.269  10.012  71.866  1.00  0.00    -0.043 A  
HETATM   14  C   UNL     1      -5.897   8.009  73.058  1.00  0.00    -0.054 A  
HETATM   15  C   UNL     1      -5.159   9.190  72.987  1.00  0.00    -0.076 A  
HETATM   16  C   UNL     1      -6.744   7.647  72.008  1.00  0.00    -0.055 A  
HETATM   17  C   UNL     1      -6.111   9.650  70.813  1.00  0.00    -0.086 A  
ENDBRANCH  10  12
ENDBRANCH   9  10
ENDBRANCH   8   9
ENDBRANCH   3   8
BRANCH   6  18
HETATM   18  C   UNL     1     -10.582  13.248  66.272  1.00  0.00    -0.289 A  
HETATM   19  C   UNL     1     -11.774  15.025  65.061  1.00  0.00    -0.291 A  
HETATM   20  C   UNL     1     -10.761  15.926  65.346  1.00  0.00    -0.415 A  
HETATM   21  C   UNL     1      -9.544  14.162  66.485  1.00  0.00    -0.310 A  
HETATM   22  C   UNL     1     -11.687  13.709  65.527  1.00  0.00    -0.352 A  
HETATM   23  C   UNL     1      -9.643  15.492  66.050  1.00  0.00    -0.380 A  
ENDBRANCH   6  18
BRANCH   4  24
HETATM   24  C   UNL     1      -9.504  10.446  65.032  1.00  0.00    -0.253 A  
HETATM   25  C   UNL     1      -8.161  10.188  65.348  1.00  0.00    -0.149 A  
HETATM   26  C   UNL     1      -8.910  10.391  62.686  1.00  0.00    -0.260 A  
HETATM   27  C   UNL     1      -7.199  10.038  64.349  1.00  0.00    -0.134 A  
HETATM   28  C   UNL     1      -9.876  10.530  63.688  1.00  0.00    -0.354 A  
HETATM   29  C   UNL     1      -7.578  10.148  63.015  1.00  0.00    -0.143 A  
ENDBRANCH   4  24
TORSDOF 6
ENDMDL
MODEL      155
REMARK 921   NORMALIZED FREE ENERGY PREDICTED BY IDOCK:   -4.67 KCAL/MOL
REMARK 922        TOTAL FREE ENERGY PREDICTED BY IDOCK:   -7.54 KCAL/MOL
REMARK 923 INTER-LIGAND FREE ENERGY PREDICTED BY IDOCK:   -5.83 KCAL/MOL
REMARK 924 INTRA-LIGAND FREE ENERGY PREDICTED BY IDOCK:   -1.71 KCAL/MOL
REMARK 927      BINDING AFFINITY PREDICTED BY RF-SCORE:    0.00 PKD
ROOT
HETATM    1  O   UNL     1      -7.110   7.293  69.418  1.00  0.00    -0.070 OA 
HETATM    2  C   UNL     1      -8.211   7.817  69.311  1.00  0.00    -0.129 C  
HETATM    3  C   UNL     1      -8.979   7.869  68.019  1.00  0.00    -0.127 C  
HETATM    4  N   UNL     1      -9.056   8.325  70.325  1.00  0.00    -0.149 N  
HETATM    5  C   UNL     1     -10.115   8.788  68.334  1.00  0.00    -0.190 C  
HETATM    6  N   UNL     1     -10.273   8.792  69.730  1.00  0.00    -0.196 N  
HETATM    7  O   UNL     1     -10.746   9.359  67.454  1.00  0.00    -0.280 OA 
ENDROOT
BRANCH   3   8
HETATM    8  C   UNL     1      -9.541   6.476  67.695  1.00  0.00    -0.131 C  
BRANCH   8   9
HETATM    9  C   UNL     1      -9.280   6.011  66.254  1.00  0.00    -0.154 C  
BRANCH   9  10
HETATM   10  S   UNL     1      -7.814   4.912  66.231  1.00  0.00    -0.096 S  
HETATM   11  O   UNL     1      -6.637   5.751  66.643  1.00  0.00    -0.052 OA 
BRANCH  10  12
HETATM   12  C   UNL     1      -8.216   3.897  67.675  1.00  0.00    -0.093 A  
HETATM   13  C   UNL     1      -9.563   2.192  68.751  1.00  0.00    -0.100 A  
HETATM   14  C   UNL     1      -7.950   3.441  70.041  1.00  0.00    -0.053 A  
HETATM   15  C   UNL     1      -8.939   2.460  69.969  1.00  0.00    -0.158 A  
HETATM   16  C   UNL     1      -7.588   4.158  68.898  1.00  0.00    -0.055 A  
HETATM   17  C   UNL     1      -9.206   2.910  67.608  1.00  0.00    -0.243 A  
ENDBRANCH  10  12
ENDBRANCH   9  10
ENDBRANCH   8   9
ENDBRANCH   3   8
BRANCH   6  18
HETATM   18  C   UNL     1     -11.333   9.501  70.386  1.00  0.00    -0.264 A  
HETATM   19  C   UNL     1     -13.148   9.502  72.044  1.00  0.00    -0.528 A  
HETATM   20  C   UNL     1     -13.306  10.871  71.899  1.00  0.00    -0.429 A  
HETATM   21  C   UNL     1     -11.561  10.870  70.210  1.00  0.00    -0.426 A  
HETATM   22  C   UNL     1     -12.168   8.832  71.304  1.00  0.00    -0.332 A  
HETATM   23  C   UNL     1     -12.518  11.552  70.976  1.00  0.00    -0.458 A  
ENDBRANCH   6  18
BRANCH   4  24
HETATM   24  C   UNL     1      -8.895   7.736  71.610  1.00  0.00    -0.118 A  
HETATM   25  C   UNL     1      -9.284   6.398  71.780  1.00  0.00    -0.143 A  
HETATM   26  C   UNL     1      -8.431   7.850  73.984  1.00  0.00    -0.321 A  
HETATM   27  C   UNL     1      -9.252   5.790  73.036  1.00  0.00    -0.140 A  
HETATM   28  C   UNL     1      -8.452   8.455  72.723  1.00  0.00    -0.224 A  
HETATM   29  C   UNL     1      -8.831   6.525  74.139  1.00  0.00    -0.169 A  
ENDBRANCH   4  24
TORSDOF 6
ENDMDL
MODEL      156
REMARK 921   NORMALIZED FREE ENERGY PREDICTED BY IDOCK:   -4.64 KCAL/MOL
REMARK 922        TOTAL FREE ENERGY PREDICTED BY IDOCK:   -7.50 KCAL/MOL
REMARK 923 INTER-LIGAND FREE ENERGY PREDICTED BY IDOCK:   -8.04 KCAL/MOL
REMARK 924 INTRA-LIGAND FREE ENERGY PREDICTED BY IDOCK:    0.54 KCAL/MOL
REMARK 927      BINDING AFFINITY PREDICTED BY RF-SCORE:    0.00 PKD
ROOT
HETATM    1  O   UNL     1     -11.297  16.256  69.760  1.00  0.00    -0.321 OA 
HETATM    2  C   UNL     1     -11.061  15.851  68.629  1.00  0.00    -0.337 C  
HETATM    3  C   UNL     1     -10.052  16.491  67.715  1.00  0.00    -0.264 C  
HETATM    4  N   UNL     1     -11.516  14.672  67.994  1.00  0.00    -0.310 N  
HETATM    5  C   UNL     1     -10.291  15.807  66.409  1.00  0.00    -0.299 C  
HETATM    6  N   UNL     1     -10.932  14.588  66.688  1.00  0.00    -0.315 N  
HETATM    7  O   UNL     1      -9.924  16.295  65.348  1.00  0.00    -0.514 OA 
ENDROOT
BRANCH   3   8
HETATM    8  C   UNL     1      -8.632  16.159  68.198  1.00  0.00    -0.177 C  
BRANCH   8   9
HETATM    9  C   UNL     1      -7.823  15.289  67.224  1.00  0.00    -0.209 C  
BRANCH   9  10
HETATM   10  S   UNL     1      -6.363  14.604  68.095  1.00  0.00    -0.154 S  
HETATM   11  O   UNL     1      -5.218  14.651  67.123  1.00  0.00    -0.099 OA 
BRANCH  10  12
HETATM   12  C   UNL     1      -6.075  15.967  69.250  1.00  0.00    -0.138 A  
HETATM   13  C   UNL     1      -5.758  18.330  69.695  1.00  0.00    -0.234 A  
HETATM   14  C   UNL     1      -5.470  16.723  71.473  1.00  0.00     0.407 A  
HETATM   15  C   UNL     1      -5.458  18.045  71.026  1.00  0.00    -0.090 A  
HETATM   16  C   UNL     1      -5.779  15.686  70.589  1.00  0.00    -0.030 A  
HETATM   17  C   UNL     1      -6.063  17.295  68.808  1.00  0.00    -0.168 A  
ENDBRANCH  10  12
ENDBRANCH   9  10
ENDBRANCH   8   9
ENDBRANCH   3   8
BRANCH   6  18
HETATM   18  C   UNL     1     -11.236  13.624  65.671  1.00  0.00    -0.297 A  
HETATM   19  C   UNL     1     -12.898  12.602  64.175  1.00  0.00    -0.279 A  
HETATM   20  C   UNL     1     -11.901  11.908  63.509  1.00  0.00    -0.560 A  
HETATM   21  C   UNL     1     -10.260  12.859  65.025  1.00  0.00    -0.289 A  
HETATM   22  C   UNL     1     -12.566  13.454  65.233  1.00  0.00    -0.518 A  
HETATM   23  C   UNL     1     -10.584  12.030  63.940  1.00  0.00    -0.447 A  
ENDBRANCH   6  18
BRANCH   4  24
HETATM   24  C   UNL     1     -11.843  13.594  68.863  1.00  0.00    -0.364 A  
HETATM   25  C   UNL     1     -12.341  13.898  70.140  1.00  0.00    -0.400 A  
HETATM   26  C   UNL     1     -11.840  11.252  69.477  1.00  0.00    -0.427 A  
HETATM   27  C   UNL     1     -12.583  12.894  71.079  1.00  0.00    -0.376 A  
HETATM   28  C   UNL     1     -11.608  12.257  68.532  1.00  0.00    -0.359 A  
HETATM   29  C   UNL     1     -12.322  11.570  70.744  1.00  0.00    -0.472 A  
ENDBRANCH   4  24
TORSDOF 6
ENDMDL
MODEL      157
REMARK 921   NORMALIZED FREE ENERGY PREDICTED BY IDOCK:   -4.63 KCAL/MOL
REMARK 922        TOTAL FREE ENERGY PREDICTED BY IDOCK:   -7.49 KCAL/MOL
REMARK 923 INTER-LIGAND FREE ENERGY PREDICTED BY IDOCK:   -6.20 KCAL/MOL
REMARK 924 INTRA-LIGAND FREE ENERGY PREDICTED BY IDOCK:   -1.28 KCAL/MOL
REMARK 927      BINDING AFFINITY PREDICTED BY RF-SCORE:    0.00 PKD
ROOT
HETATM    1  O   UNL     1      -6.221   8.072  67.640  1.00  0.00    -0.049 OA 
HETATM    2  C   UNL     1      -7.371   8.453  67.460  1.00  0.00    -0.093 C  
HETATM    3  C   UNL     1      -8.571   7.562  67.621  1.00  0.00    -0.119 C  
HETATM    4  N   UNL     1      -7.847   9.765  67.233  1.00  0.00    -0.099 N  
HETATM    5  C   UNL     1      -9.689   8.392  67.080  1.00  0.00    -0.206 C  
HETATM    6  N   UNL     1      -9.277   9.734  67.137  1.00  0.00    -0.137 N  
HETATM    7  O   UNL     1     -10.744   7.893  66.710  1.00  0.00    -0.304 OA 
ENDROOT
BRANCH   3   8
HETATM    8  C   UNL     1      -8.825   7.300  69.114  1.00  0.00    -0.136 C  
BRANCH   8   9
HETATM    9  C   UNL     1     -10.152   7.871  69.637  1.00  0.00    -0.197 C  
BRANCH   9  10
HETATM   10  S   UNL     1     -11.271   6.489  70.082  1.00  0.00    -0.404 S  
HETATM   11  O   UNL     1     -10.753   5.269  69.375  1.00  0.00    -0.233 OA 
BRANCH  10  12
HETATM   12  C   UNL     1     -10.779   6.292  71.813  1.00  0.00    -0.236 A  
HETATM   13  C   UNL     1     -10.116   7.242  73.944  1.00  0.00    -0.312 A  
HETATM   14  C   UNL     1     -10.054   4.850  73.622  1.00  0.00    -0.203 A  
HETATM   15  C   UNL     1      -9.851   5.964  74.436  1.00  0.00    -0.249 A  
HETATM   16  C   UNL     1     -10.518   5.011  72.315  1.00  0.00    -0.275 A  
HETATM   17  C   UNL     1     -10.575   7.406  72.635  1.00  0.00    -0.322 A  
ENDBRANCH  10  12
ENDBRANCH   9  10
ENDBRANCH   8   9
ENDBRANCH   3   8
BRANCH   6  18
HETATM   18  C   UNL     1     -10.137  10.823  66.778  1.00  0.00    -0.222 A  
HETATM   19  C   UNL     1     -11.676  12.607  67.483  1.00  0.00    -0.429 A  
HETATM   20  C   UNL     1     -11.689  13.129  66.200  1.00  0.00    -0.428 A  
HETATM   21  C   UNL     1     -10.225  11.333  65.478  1.00  0.00    -0.312 A  
HETATM   22  C   UNL     1     -10.902  11.476  67.766  1.00  0.00    -0.270 A  
HETATM   23  C   UNL     1     -10.971  12.487  65.196  1.00  0.00    -0.332 A  
ENDBRANCH   6  18
BRANCH   4  24
HETATM   24  C   UNL     1      -7.041  10.811  67.764  1.00  0.00    -0.086 A  
HETATM   25  C   UNL     1      -7.011  10.985  69.156  1.00  0.00    -0.104 A  
HETATM   26  C   UNL     1      -5.677  12.798  67.537  1.00  0.00    -0.116 A  
HETATM   27  C   UNL     1      -6.327  12.054  69.737  1.00  0.00    -0.110 A  
HETATM   28  C   UNL     1      -6.354  11.720  66.956  1.00  0.00    -0.150 A  
HETATM   29  C   UNL     1      -5.666  12.965  68.920  1.00  0.00    -0.073 A  
ENDBRANCH   4  24
TORSDOF 6
ENDMDL
MODEL      158
REMARK 921   NORMALIZED FREE ENERGY PREDICTED BY IDOCK:   -4.60 KCAL/MOL
REMARK 922        TOTAL FREE ENERGY PREDICTED BY IDOCK:   -7.44 KCAL/MOL
REMARK 923 INTER-LIGAND FREE ENERGY PREDICTED BY IDOCK:   -6.08 KCAL/MOL
REMARK 924 INTRA-LIGAND FREE ENERGY PREDICTED BY IDOCK:   -1.37 KCAL/MOL
REMARK 927      BINDING AFFINITY PREDICTED BY RF-SCORE:    0.00 PKD
ROOT
HETATM    1  O   UNL     1     -10.340  13.480  65.579  1.00  0.00    -0.285 OA 
HETATM    2  C   UNL     1     -10.766  13.426  66.726  1.00  0.00    -0.277 C  
HETATM    3  C   UNL     1     -10.875  12.146  67.507  1.00  0.00    -0.283 C  
HETATM    4  N   UNL     1     -11.085  14.487  67.606  1.00  0.00    -0.294 N  
HETATM    5  C   UNL     1     -11.644  12.552  68.722  1.00  0.00    -0.322 C  
HETATM    6  N   UNL     1     -11.492  13.941  68.868  1.00  0.00    -0.279 N  
HETATM    7  O   UNL     1     -12.239  11.735  69.413  1.00  0.00    -0.256 OA 
ENDROOT
BRANCH   3   8
HETATM    8  C   UNL     1      -9.475  11.681  67.938  1.00  0.00    -0.181 C  
BRANCH   8   9
HETATM    9  C   UNL     1      -9.206  10.187  67.696  1.00  0.00    -0.141 C  
BRANCH   9  10
HETATM   10  S   UNL     1      -7.461   9.813  68.114  1.00  0.00    -0.081 S  
HETATM   11  O   UNL     1      -7.463   8.499  68.843  1.00  0.00    -0.087 OA 
BRANCH  10  12
HETATM   12  C   UNL     1      -6.859   9.443  66.448  1.00  0.00    -0.083 A  
HETATM   13  C   UNL     1      -5.186   9.667  64.706  1.00  0.00    -0.051 A  
HETATM   14  C   UNL     1      -7.276   8.557  64.230  1.00  0.00    -0.095 A  
HETATM   15  C   UNL     1      -6.023   9.005  63.809  1.00  0.00    -0.076 A  
HETATM   16  C   UNL     1      -7.693   8.773  65.545  1.00  0.00    -0.092 A  
HETATM   17  C   UNL     1      -5.603   9.888  66.020  1.00  0.00    -0.057 A  
ENDBRANCH  10  12
ENDBRANCH   9  10
ENDBRANCH   8   9
ENDBRANCH   3   8
BRANCH   6  18
HETATM   18  C   UNL     1     -12.025  14.665  69.984  1.00  0.00    -0.320 A  
HETATM   19  C   UNL     1     -13.977  15.299  71.338  1.00  0.00    -0.601 A  
HETATM   20  C   UNL     1     -13.154  15.878  72.289  1.00  0.00    -0.462 A  
HETATM   21  C   UNL     1     -11.224  15.317  70.927  1.00  0.00    -0.367 A  
HETATM   22  C   UNL     1     -13.417  14.694  70.208  1.00  0.00     0.383 A  
HETATM   23  C   UNL     1     -11.778  15.895  72.079  1.00  0.00    -0.588 A  
ENDBRANCH   6  18
BRANCH   4  24
HETATM   24  C   UNL     1     -10.386  15.705  67.379  1.00  0.00    -0.275 A  
HETATM   25  C   UNL     1      -9.069  15.813  67.853  1.00  0.00    -0.186 A  
HETATM   26  C   UNL     1     -10.278  18.026  66.700  1.00  0.00    -0.375 A  
HETATM   27  C   UNL     1      -8.363  17.013  67.757  1.00  0.00    -0.199 A  
HETATM   28  C   UNL     1     -10.982  16.820  66.785  1.00  0.00     0.109 A  
HETATM   29  C   UNL     1      -8.977  18.122  67.186  1.00  0.00    -0.256 A  
ENDBRANCH   4  24
TORSDOF 6
ENDMDL
MODEL      159
REMARK 921   NORMALIZED FREE ENERGY PREDICTED BY IDOCK:   -4.58 KCAL/MOL
REMARK 922        TOTAL FREE ENERGY PREDICTED BY IDOCK:   -7.41 KCAL/MOL
REMARK 923 INTER-LIGAND FREE ENERGY PREDICTED BY IDOCK:   -5.96 KCAL/MOL
REMARK 924 INTRA-LIGAND FREE ENERGY PREDICTED BY IDOCK:   -1.45 KCAL/MOL
REMARK 927      BINDING AFFINITY PREDICTED BY RF-SCORE:    0.00 PKD
ROOT
HETATM    1  O   UNL     1      -6.410   6.308  72.909  1.00  0.00    -0.060 OA 
HETATM    2  C   UNL     1      -7.129   7.122  72.344  1.00  0.00    -0.068 C  
HETATM    3  C   UNL     1      -6.639   8.048  71.265  1.00  0.00    -0.042 C  
HETATM    4  N   UNL     1      -8.532   7.281  72.431  1.00  0.00    -0.111 N  
HETATM    5  C   UNL     1      -7.790   8.979  71.064  1.00  0.00    -0.142 C  
HETATM    6  N   UNL     1      -8.940   8.329  71.543  1.00  0.00    -0.156 N  
HETATM    7  O   UNL     1      -7.650  10.076  70.539  1.00  0.00    -0.276 OA 
ENDROOT
BRANCH   3   8
HETATM    8  C   UNL     1      -6.409   7.256  69.968  1.00  0.00    -0.028 C  
BRANCH   8   9
HETATM    9  C   UNL     1      -6.610   8.077  68.684  1.00  0.00    -0.057 C  
BRANCH   9  10
HETATM   10  S   UNL     1      -7.911   7.290  67.661  1.00  0.00    -0.114 S  
HETATM   11  O   UNL     1      -8.772   6.490  68.597  1.00  0.00    -0.123 OA 
BRANCH  10  12
HETATM   12  C   UNL     1      -8.872   8.771  67.264  1.00  0.00    -0.132 A  
HETATM   13  C   UNL     1      -9.045  11.178  67.022  1.00  0.00    -0.158 A  
HETATM   14  C   UNL     1     -11.021   9.806  66.828  1.00  0.00     0.041 A  
HETATM   15  C   UNL     1     -10.419  11.064  66.815  1.00  0.00    -0.300 A  
HETATM   16  C   UNL     1     -10.251   8.661  67.050  1.00  0.00    -0.360 A  
HETATM   17  C   UNL     1      -8.274  10.036  67.249  1.00  0.00    -0.117 A  
ENDBRANCH  10  12
ENDBRANCH   9  10
ENDBRANCH   8   9
ENDBRANCH   3   8
BRANCH   6  18
HETATM   18  C   UNL     1     -10.252   8.895  71.429  1.00  0.00    -0.305 A  
HETATM   19  C   UNL     1     -12.538   9.097  72.314  1.00  0.00    -0.425 A  
HETATM   20  C   UNL     1     -12.811  10.126  71.427  1.00  0.00    -0.530 A  
HETATM   21  C   UNL     1     -10.579   9.889  70.500  1.00  0.00    -0.359 A  
HETATM   22  C   UNL     1     -11.273   8.500  72.318  1.00  0.00    -0.432 A  
HETATM   23  C   UNL     1     -11.834  10.515  70.515  1.00  0.00    -0.442 A  
ENDBRANCH   6  18
BRANCH   4  24
HETATM   24  C   UNL     1      -9.262   6.109  72.775  1.00  0.00    -0.138 A  
HETATM   25  C   UNL     1      -9.553   5.185  71.758  1.00  0.00    -0.199 A  
HETATM   26  C   UNL     1     -10.585   4.771  74.298  1.00  0.00    -0.330 A  
HETATM   27  C   UNL     1     -10.353   4.069  72.003  1.00  0.00    -0.121 A  
HETATM   28  C   UNL     1      -9.773   5.884  74.055  1.00  0.00    -0.183 A  
HETATM   29  C   UNL     1     -10.875   3.870  73.277  1.00  0.00    -0.297 A  
ENDBRANCH   4  24
TORSDOF 6
ENDMDL
MODEL      160
REMARK 921   NORMALIZED FREE ENERGY PREDICTED BY IDOCK:   -4.57 KCAL/MOL
REMARK 922        TOTAL FREE ENERGY PREDICTED BY IDOCK:   -7.41 KCAL/MOL
REMARK 923 INTER-LIGAND FREE ENERGY PREDICTED BY IDOCK:   -5.54 KCAL/MOL
REMARK 924 INTRA-LIGAND FREE ENERGY PREDICTED BY IDOCK:   -1.87 KCAL/MOL
REMARK 927      BINDING AFFINITY PREDICTED BY RF-SCORE:    0.00 PKD
ROOT
HETATM    1  O   UNL     1      -8.576   9.644  70.682  1.00  0.00    -0.196 OA 
HETATM    2  C   UNL     1      -8.284   8.794  69.851  1.00  0.00    -0.118 C  
HETATM    3  C   UNL     1      -8.076   7.344  70.191  1.00  0.00    -0.131 C  
HETATM    4  N   UNL     1      -8.232   8.908  68.442  1.00  0.00    -0.116 N  
HETATM    5  C   UNL     1      -7.523   6.772  68.926  1.00  0.00    -0.096 C  
HETATM    6  N   UNL     1      -7.898   7.633  67.881  1.00  0.00    -0.115 N  
HETATM    7  O   UNL     1      -6.898   5.720  68.912  1.00  0.00    -0.061 OA 
ENDROOT
BRANCH   3   8
HETATM    8  C   UNL     1      -9.431   6.682  70.486  1.00  0.00    -0.171 C  
BRANCH   8   9
HETATM    9  C   UNL     1      -9.446   5.816  71.755  1.00  0.00    -0.148 C  
BRANCH   9  10
HETATM   10  S   UNL     1     -10.070   6.814  73.160  1.00  0.00    -0.228 S  
HETATM   11  O   UNL     1      -9.082   7.925  73.374  1.00  0.00    -0.237 OA 
BRANCH  10  12
HETATM   12  C   UNL     1     -11.489   7.579  72.336  1.00  0.00    -0.315 A  
HETATM   13  C   UNL     1     -12.696   9.549  71.597  1.00  0.00    -0.478 A  
HETATM   14  C   UNL     1     -13.710   7.368  71.385  1.00  0.00    -0.419 A  
HETATM   15  C   UNL     1     -13.773   8.751  71.213  1.00  0.00    -0.215 A  
HETATM   16  C   UNL     1     -12.571   6.782  71.943  1.00  0.00    -0.328 A  
HETATM   17  C   UNL     1     -11.559   8.965  72.160  1.00  0.00    -0.400 A  
ENDBRANCH  10  12
ENDBRANCH   9  10
ENDBRANCH   8   9
ENDBRANCH   3   8
BRANCH   6  18
HETATM   18  C   UNL     1      -7.613   7.348  66.505  1.00  0.00    -0.092 A  
HETATM   19  C   UNL     1      -8.191   6.133  64.447  1.00  0.00    -0.063 A  
HETATM   20  C   UNL     1      -7.274   6.880  63.726  1.00  0.00    -0.066 A  
HETATM   21  C   UNL     1      -6.647   8.038  65.765  1.00  0.00    -0.045 A  
HETATM   22  C   UNL     1      -8.362   6.373  65.814  1.00  0.00    -0.146 A  
HETATM   23  C   UNL     1      -6.496   7.826  64.386  1.00  0.00    -0.052 A  
ENDBRANCH   6  18
BRANCH   4  24
HETATM   24  C   UNL     1      -9.074   9.906  67.876  1.00  0.00    -0.131 A  
HETATM   25  C   UNL     1      -8.513  11.158  67.578  1.00  0.00    -0.126 A  
HETATM   26  C   UNL     1     -11.239  10.781  67.237  1.00  0.00    -0.272 A  
HETATM   27  C   UNL     1      -9.303  12.213  67.120  1.00  0.00    -0.193 A  
HETATM   28  C   UNL     1     -10.445   9.719  67.686  1.00  0.00    -0.305 A  
HETATM   29  C   UNL     1     -10.671  12.021  66.958  1.00  0.00    -0.280 A  
ENDBRANCH   4  24
TORSDOF 6
ENDMDL
MODEL      161
REMARK 921   NORMALIZED FREE ENERGY PREDICTED BY IDOCK:   -4.55 KCAL/MOL
REMARK 922        TOTAL FREE ENERGY PREDICTED BY IDOCK:   -7.38 KCAL/MOL
REMARK 923 INTER-LIGAND FREE ENERGY PREDICTED BY IDOCK:   -5.97 KCAL/MOL
REMARK 924 INTRA-LIGAND FREE ENERGY PREDICTED BY IDOCK:   -1.41 KCAL/MOL
REMARK 927      BINDING AFFINITY PREDICTED BY RF-SCORE:    0.00 PKD
ROOT
HETATM    1  O   UNL     1     -11.523   8.448  70.219  1.00  0.00    -0.198 OA 
HETATM    2  C   UNL     1     -10.966   7.464  69.751  1.00  0.00    -0.200 C  
HETATM    3  C   UNL     1     -10.803   7.231  68.275  1.00  0.00    -0.114 C  
HETATM    4  N   UNL     1     -10.242   6.450  70.421  1.00  0.00    -0.188 N  
HETATM    5  C   UNL     1     -10.290   5.829  68.204  1.00  0.00    -0.212 C  
HETATM    6  N   UNL     1      -9.720   5.530  69.453  1.00  0.00    -0.149 N  
HETATM    7  O   UNL     1     -10.375   5.161  67.182  1.00  0.00    -0.209 OA 
ENDROOT
BRANCH   3   8
HETATM    8  C   UNL     1      -9.731   8.180  67.716  1.00  0.00    -0.193 C  
BRANCH   8   9
HETATM    9  C   UNL     1     -10.288   9.498  67.154  1.00  0.00    -0.253 C  
BRANCH   9  10
HETATM   10  S   UNL     1      -9.407  10.906  67.928  1.00  0.00    -0.159 S  
HETATM   11  O   UNL     1      -8.024  10.926  67.341  1.00  0.00    -0.110 OA 
BRANCH  10  12
HETATM   12  C   UNL     1     -10.297  12.258  67.118  1.00  0.00    -0.218 A  
HETATM   13  C   UNL     1     -10.715  14.627  66.807  1.00  0.00    -0.301 A  
HETATM   14  C   UNL     1     -12.135  13.003  65.724  1.00  0.00    -0.510 A  
HETATM   15  C   UNL     1     -11.802  14.332  65.985  1.00  0.00    -0.399 A  
HETATM   16  C   UNL     1     -11.385  11.968  66.286  1.00  0.00    -0.415 A  
HETATM   17  C   UNL     1      -9.967  13.594  67.375  1.00  0.00    -0.234 A  
ENDBRANCH  10  12
ENDBRANCH   9  10
ENDBRANCH   8   9
ENDBRANCH   3   8
BRANCH   6  18
HETATM   18  C   UNL     1      -9.047   4.293  69.720  1.00  0.00    -0.117 A  
HETATM   19  C   UNL     1      -9.126   2.015  70.642  1.00  0.00    -0.161 A  
HETATM   20  C   UNL     1      -7.883   1.731  70.098  1.00  0.00    -0.047 A  
HETATM   21  C   UNL     1      -7.765   4.000  69.242  1.00  0.00    -0.053 A  
HETATM   22  C   UNL     1      -9.700   3.275  70.445  1.00  0.00    -0.125 A  
HETATM   23  C   UNL     1      -7.200   2.727  69.407  1.00  0.00    -0.044 A  
ENDBRANCH   6  18
BRANCH   4  24
HETATM   24  C   UNL     1      -9.646   6.833  71.655  1.00  0.00    -0.162 A  
HETATM   25  C   UNL     1     -10.313   6.503  72.845  1.00  0.00    -0.232 A  
HETATM   26  C   UNL     1      -8.010   8.042  72.967  1.00  0.00    -0.207 A  
HETATM   27  C   UNL     1      -9.841   6.939  74.084  1.00  0.00    -0.346 A  
HETATM   28  C   UNL     1      -8.478   7.595  71.726  1.00  0.00    -0.124 A  
HETATM   29  C   UNL     1      -8.689   7.717  74.138  1.00  0.00    -0.293 A  
ENDBRANCH   4  24
TORSDOF 6
ENDMDL
MODEL      162
REMARK 921   NORMALIZED FREE ENERGY PREDICTED BY IDOCK:   -4.54 KCAL/MOL
REMARK 922        TOTAL FREE ENERGY PREDICTED BY IDOCK:   -7.36 KCAL/MOL
REMARK 923 INTER-LIGAND FREE ENERGY PREDICTED BY IDOCK:   -6.24 KCAL/MOL
REMARK 924 INTRA-LIGAND FREE ENERGY PREDICTED BY IDOCK:   -1.12 KCAL/MOL
REMARK 927      BINDING AFFINITY PREDICTED BY RF-SCORE:    0.00 PKD
ROOT
HETATM    1  O   UNL     1     -11.410   6.662  67.176  1.00  0.00    -0.343 OA 
HETATM    2  C   UNL     1     -10.284   7.035  67.482  1.00  0.00    -0.199 C  
HETATM    3  C   UNL     1      -9.297   7.584  66.490  1.00  0.00    -0.231 C  
HETATM    4  N   UNL     1      -9.719   7.190  68.770  1.00  0.00    -0.144 N  
HETATM    5  C   UNL     1      -8.032   7.672  67.280  1.00  0.00    -0.118 C  
HETATM    6  N   UNL     1      -8.389   7.708  68.638  1.00  0.00    -0.128 N  
HETATM    7  O   UNL     1      -6.935   7.729  66.738  1.00  0.00    -0.069 OA 
ENDROOT
BRANCH   3   8
HETATM    8  C   UNL     1      -9.719   9.000  66.069  1.00  0.00    -0.339 C  
BRANCH   8   9
HETATM    9  C   UNL     1     -10.354   9.829  67.197  1.00  0.00    -0.248 C  
BRANCH   9  10
HETATM   10  S   UNL     1     -10.840  11.470  66.540  1.00  0.00    -0.285 S  
HETATM   11  O   UNL     1     -12.039  11.914  67.329  1.00  0.00    -0.582 OA 
BRANCH  10  12
HETATM   12  C   UNL     1      -9.452  12.438  67.181  1.00  0.00    -0.198 A  
HETATM   13  C   UNL     1      -7.451  12.622  68.539  1.00  0.00    -0.121 A  
HETATM   14  C   UNL     1      -8.383  14.591  67.499  1.00  0.00    -0.201 A  
HETATM   15  C   UNL     1      -7.409  13.995  68.301  1.00  0.00    -0.115 A  
HETATM   16  C   UNL     1      -9.401  13.816  66.939  1.00  0.00    -0.267 A  
HETATM   17  C   UNL     1      -8.471  11.846  67.984  1.00  0.00    -0.162 A  
ENDBRANCH  10  12
ENDBRANCH   9  10
ENDBRANCH   8   9
ENDBRANCH   3   8
BRANCH   6  18
HETATM   18  C   UNL     1      -7.428   7.880  69.687  1.00  0.00    -0.092 A  
HETATM   19  C   UNL     1      -5.998   9.390  70.999  1.00  0.00    -0.069 A  
HETATM   20  C   UNL     1      -5.692   8.366  71.880  1.00  0.00    -0.043 A  
HETATM   21  C   UNL     1      -7.047   6.850  70.553  1.00  0.00    -0.067 A  
HETATM   22  C   UNL     1      -6.861   9.149  69.925  1.00  0.00    -0.052 A  
HETATM   23  C   UNL     1      -6.210   7.094  71.652  1.00  0.00    -0.037 A  
ENDBRANCH   6  18
BRANCH   4  24
HETATM   24  C   UNL     1     -10.645   7.447  69.819  1.00  0.00    -0.236 A  
HETATM   25  C   UNL     1     -10.726   8.754  70.327  1.00  0.00    -0.249 A  
HETATM   26  C   UNL     1     -12.208   6.740  71.528  1.00  0.00    -0.413 A  
HETATM   27  C   UNL     1     -11.534   9.054  71.424  1.00  0.00    -0.400 A  
HETATM   28  C   UNL     1     -11.406   6.442  70.420  1.00  0.00    -0.453 A  
HETATM   29  C   UNL     1     -12.269   8.039  72.028  1.00  0.00    -0.374 A  
ENDBRANCH   4  24
TORSDOF 6
ENDMDL
MODEL      163
REMARK 921   NORMALIZED FREE ENERGY PREDICTED BY IDOCK:   -4.52 KCAL/MOL
REMARK 922        TOTAL FREE ENERGY PREDICTED BY IDOCK:   -7.34 KCAL/MOL
REMARK 923 INTER-LIGAND FREE ENERGY PREDICTED BY IDOCK:   -6.33 KCAL/MOL
REMARK 924 INTRA-LIGAND FREE ENERGY PREDICTED BY IDOCK:   -1.01 KCAL/MOL
REMARK 927      BINDING AFFINITY PREDICTED BY RF-SCORE:    0.00 PKD
ROOT
HETATM    1  O   UNL     1      -9.964   7.500  66.684  1.00  0.00    -0.225 OA 
HETATM    2  C   UNL     1     -10.345   8.635  66.940  1.00  0.00    -0.285 C  
HETATM    3  C   UNL     1     -10.867   9.047  68.289  1.00  0.00    -0.072 C  
HETATM    4  N   UNL     1     -10.248   9.804  66.150  1.00  0.00    -0.242 N  
HETATM    5  C   UNL     1     -11.409  10.417  68.042  1.00  0.00    -0.204 C  
HETATM    6  N   UNL     1     -10.779  10.913  66.887  1.00  0.00    -0.265 N  
HETATM    7  O   UNL     1     -12.228  10.933  68.791  1.00  0.00    -0.518 OA 
ENDROOT
BRANCH   3   8
HETATM    8  C   UNL     1      -9.703   9.145  69.287  1.00  0.00    -0.164 C  
BRANCH   8   9
HETATM    9  C   UNL     1     -10.141   9.274  70.755  1.00  0.00    -0.291 C  
BRANCH   9  10
HETATM   10  S   UNL     1     -10.476   7.604  71.433  1.00  0.00    -0.209 S  
HETATM   11  O   UNL     1     -10.807   6.721  70.264  1.00  0.00    -0.240 OA 
BRANCH  10  12
HETATM   12  C   UNL     1      -8.786   7.164  71.910  1.00  0.00    -0.123 A  
HETATM   13  C   UNL     1      -6.407   7.632  71.935  1.00  0.00    -0.039 A  
HETATM   14  C   UNL     1      -7.226   5.525  72.781  1.00  0.00    -0.090 A  
HETATM   15  C   UNL     1      -6.162   6.383  72.504  1.00  0.00    -0.050 A  
HETATM   16  C   UNL     1      -8.535   5.914  72.487  1.00  0.00    -0.116 A  
HETATM   17  C   UNL     1      -7.714   8.021  71.636  1.00  0.00    -0.100 A  
ENDBRANCH  10  12
ENDBRANCH   9  10
ENDBRANCH   8   9
ENDBRANCH   3   8
BRANCH   6  18
HETATM   18  C   UNL     1     -10.993  12.244  66.401  1.00  0.00    -0.287 A  
HETATM   19  C   UNL     1     -12.376  13.811  65.106  1.00  0.00    -0.476 A  
HETATM   20  C   UNL     1     -11.629  14.883  65.569  1.00  0.00    -0.263 A  
HETATM   21  C   UNL     1     -10.215  13.338  66.797  1.00  0.00    -0.254 A  
HETATM   22  C   UNL     1     -12.065  12.514  65.526  1.00  0.00    -0.481 A  
HETATM   23  C   UNL     1     -10.544  14.644  66.407  1.00  0.00    -0.301 A  
ENDBRANCH   6  18
BRANCH   4  24
HETATM   24  C   UNL     1      -9.178   9.825  65.213  1.00  0.00    -0.238 A  
HETATM   25  C   UNL     1      -7.866   9.919  65.706  1.00  0.00    -0.121 A  
HETATM   26  C   UNL     1      -8.291   9.988  62.967  1.00  0.00    -0.166 A  
HETATM   27  C   UNL     1      -6.777  10.050  64.843  1.00  0.00    -0.126 A  
HETATM   28  C   UNL     1      -9.381   9.845  63.832  1.00  0.00    -0.262 A  
HETATM   29  C   UNL     1      -6.996  10.092  63.470  1.00  0.00    -0.116 A  
ENDBRANCH   4  24
TORSDOF 6
ENDMDL
MODEL      164
REMARK 921   NORMALIZED FREE ENERGY PREDICTED BY IDOCK:   -4.50 KCAL/MOL
REMARK 922        TOTAL FREE ENERGY PREDICTED BY IDOCK:   -7.31 KCAL/MOL
REMARK 923 INTER-LIGAND FREE ENERGY PREDICTED BY IDOCK:   -7.13 KCAL/MOL
REMARK 924 INTRA-LIGAND FREE ENERGY PREDICTED BY IDOCK:   -0.18 KCAL/MOL
REMARK 927      BINDING AFFINITY PREDICTED BY RF-SCORE:    0.00 PKD
ROOT
HETATM    1  O   UNL     1     -10.885   7.942  69.196  1.00  0.00    -0.164 OA 
HETATM    2  C   UNL     1     -11.304   8.931  69.783  1.00  0.00     0.085 C  
HETATM    3  C   UNL     1     -11.819   8.898  71.195  1.00  0.00    -0.353 C  
HETATM    4  N   UNL     1     -11.265  10.286  69.379  1.00  0.00    -0.240 N  
HETATM    5  C   UNL     1     -12.416  10.256  71.374  1.00  0.00    -0.424 C  
HETATM    6  N   UNL     1     -11.825  11.100  70.418  1.00  0.00    -0.353 N  
HETATM    7  O   UNL     1     -13.241  10.489  72.248  1.00  0.00    -0.402 OA 
ENDROOT
BRANCH   3   8
HETATM    8  C   UNL     1     -10.642   8.740  72.171  1.00  0.00    -0.386 C  
BRANCH   8   9
HETATM    9  C   UNL     1      -9.258   8.836  71.510  1.00  0.00    -0.262 C  
BRANCH   9  10
HETATM   10  S   UNL     1      -8.019   8.012  72.580  1.00  0.00    -0.141 S  
HETATM   11  O   UNL     1      -8.236   8.533  73.973  1.00  0.00    -0.353 OA 
BRANCH  10  12
HETATM   12  C   UNL     1      -8.723   6.345  72.570  1.00  0.00    -0.123 A  
HETATM   13  C   UNL     1      -9.506   4.387  71.371  1.00  0.00    -0.220 A  
HETATM   14  C   UNL     1      -9.811   4.534  73.761  1.00  0.00    -0.172 A  
HETATM   15  C   UNL     1      -9.972   3.836  72.564  1.00  0.00    -0.228 A  
HETATM   16  C   UNL     1      -9.186   5.784  73.766  1.00  0.00    -0.126 A  
HETATM   17  C   UNL     1      -8.886   5.639  71.373  1.00  0.00    -0.141 A  
ENDBRANCH  10  12
ENDBRANCH   9  10
ENDBRANCH   8   9
ENDBRANCH   3   8
BRANCH   6  18
HETATM   18  C   UNL     1     -12.097  12.506  70.355  1.00  0.00    -0.297 A  
HETATM   19  C   UNL     1     -11.986  14.613  69.092  1.00  0.00    -0.329 A  
HETATM   20  C   UNL     1     -12.784  15.242  70.034  1.00  0.00    -0.206 A  
HETATM   21  C   UNL     1     -12.844  13.186  71.323  1.00  0.00    -0.384 A  
HETATM   22  C   UNL     1     -11.658  13.262  69.249  1.00  0.00    -0.370 A  
HETATM   23  C   UNL     1     -13.205  14.530  71.153  1.00  0.00    -0.423 A  
ENDBRANCH   6  18
BRANCH   4  24
HETATM   24  C   UNL     1     -10.212  10.631  68.487  1.00  0.00    -0.175 A  
HETATM   25  C   UNL     1     -10.497  10.685  67.113  1.00  0.00    -0.295 A  
HETATM   26  C   UNL     1      -7.885  11.050  67.969  1.00  0.00    -0.112 A  
HETATM   27  C   UNL     1      -9.490  10.913  66.175  1.00  0.00    -0.230 A  
HETATM   28  C   UNL     1      -8.897  10.832  68.911  1.00  0.00    -0.154 A  
HETATM   29  C   UNL     1      -8.180  11.088  66.609  1.00  0.00    -0.154 A  
ENDBRANCH   4  24
TORSDOF 6
ENDMDL
MODEL      165
REMARK 921   NORMALIZED FREE ENERGY PREDICTED BY IDOCK:   -4.50 KCAL/MOL
REMARK 922        TOTAL FREE ENERGY PREDICTED BY IDOCK:   -7.30 KCAL/MOL
REMARK 923 INTER-LIGAND FREE ENERGY PREDICTED BY IDOCK:   -6.70 KCAL/MOL
REMARK 924 INTRA-LIGAND FREE ENERGY PREDICTED BY IDOCK:   -0.60 KCAL/MOL
REMARK 927      BINDING AFFINITY PREDICTED BY RF-SCORE:    0.00 PKD
ROOT
HETATM    1  O   UNL     1      -7.976  12.634  66.233  1.00  0.00     0.453 OA 
HETATM    2  C   UNL     1      -8.352  13.264  67.213  1.00  0.00    -0.177 C  
HETATM    3  C   UNL     1      -7.450  14.164  68.012  1.00  0.00    -0.141 C  
HETATM    4  N   UNL     1      -9.664  13.429  67.713  1.00  0.00    -0.210 N  
HETATM    5  C   UNL     1      -8.282  14.509  69.205  1.00  0.00    -0.017 C  
HETATM    6  N   UNL     1      -9.626  14.301  68.850  1.00  0.00    -0.140 N  
HETATM    7  O   UNL     1      -7.782  14.920  70.244  1.00  0.00     0.204 OA 
ENDROOT
BRANCH   3   8
HETATM    8  C   UNL     1      -7.164  15.448  67.218  1.00  0.00    -0.229 C  
BRANCH   8   9
HETATM    9  C   UNL     1      -8.128  16.606  67.523  1.00  0.00    -0.168 C  
BRANCH   9  10
HETATM   10  S   UNL     1      -8.495  17.512  65.973  1.00  0.00     0.033 S  
HETATM   11  O   UNL     1      -9.936  17.928  66.046  1.00  0.00    -0.490 OA 
BRANCH  10  12
HETATM   12  C   UNL     1      -7.538  19.012  66.307  1.00  0.00    -0.273 A  
HETATM   13  C   UNL     1      -5.854  20.633  65.661  1.00  0.00    -0.252 A  
HETATM   14  C   UNL     1      -6.835  20.732  67.864  1.00  0.00    -0.322 A  
HETATM   15  C   UNL     1      -5.945  21.235  66.914  1.00  0.00    -0.390 A  
HETATM   16  C   UNL     1      -7.631  19.625  67.562  1.00  0.00    -0.299 A  
HETATM   17  C   UNL     1      -6.645  19.523  65.358  1.00  0.00    -0.311 A  
ENDBRANCH  10  12
ENDBRANCH   9  10
ENDBRANCH   8   9
ENDBRANCH   3   8
BRANCH   6  18
HETATM   18  C   UNL     1     -10.714  14.616  69.728  1.00  0.00    -0.104 A  
HETATM   19  C   UNL     1     -11.796  16.225  71.240  1.00  0.00    -0.349 A  
HETATM   20  C   UNL     1     -12.928  15.429  71.309  1.00  0.00    -0.541 A  
HETATM   21  C   UNL     1     -11.842  13.801  69.872  1.00  0.00    -0.394 A  
HETATM   22  C   UNL     1     -10.712  15.826  70.452  1.00  0.00    -0.305 A  
HETATM   23  C   UNL     1     -12.947  14.213  70.632  1.00  0.00    -0.290 A  
ENDBRANCH   6  18
BRANCH   4  24
HETATM   24  C   UNL     1     -10.707  13.312  66.753  1.00  0.00    -0.276 A  
HETATM   25  C   UNL     1     -11.046  12.029  66.294  1.00  0.00    -0.363 A  
HETATM   26  C   UNL     1     -12.276  14.240  65.159  1.00  0.00    -0.422 A  
HETATM   27  C   UNL     1     -11.985  11.849  65.277  1.00  0.00    -0.084 A  
HETATM   28  C   UNL     1     -11.343  14.419  66.187  1.00  0.00    -0.350 A  
HETATM   29  C   UNL     1     -12.593  12.962  64.706  1.00  0.00    -0.493 A  
ENDBRANCH   4  24
TORSDOF 6
ENDMDL
MODEL      166
REMARK 921   NORMALIZED FREE ENERGY PREDICTED BY IDOCK:   -4.47 KCAL/MOL
REMARK 922        TOTAL FREE ENERGY PREDICTED BY IDOCK:   -7.27 KCAL/MOL
REMARK 923 INTER-LIGAND FREE ENERGY PREDICTED BY IDOCK:   -5.70 KCAL/MOL
REMARK 924 INTRA-LIGAND FREE ENERGY PREDICTED BY IDOCK:   -1.57 KCAL/MOL
REMARK 927      BINDING AFFINITY PREDICTED BY RF-SCORE:    0.00 PKD
ROOT
HETATM    1  O   UNL     1      -8.171   8.632  69.137  1.00  0.00    -0.114 OA 
HETATM    2  C   UNL     1      -8.647   7.572  68.751  1.00  0.00    -0.129 C  
HETATM    3  C   UNL     1      -9.508   6.691  69.614  1.00  0.00    -0.144 C  
HETATM    4  N   UNL     1      -8.650   7.020  67.449  1.00  0.00    -0.121 N  
HETATM    5  C   UNL     1      -9.641   5.443  68.802  1.00  0.00    -0.137 C  
HETATM    6  N   UNL     1      -9.376   5.785  67.465  1.00  0.00    -0.111 N  
HETATM    7  O   UNL     1      -9.959   4.374  69.308  1.00  0.00    -0.183 OA 
ENDROOT
BRANCH   3   8
HETATM    8  C   UNL     1     -10.898   7.327  69.778  1.00  0.00    -0.251 C  
BRANCH   8   9
HETATM    9  C   UNL     1     -10.936   8.512  70.755  1.00  0.00    -0.247 C  
BRANCH   9  10
HETATM   10  S   UNL     1     -12.141   8.157  72.089  1.00  0.00    -0.366 S  
HETATM   11  O   UNL     1     -13.309   7.465  71.444  1.00  0.00    -0.370 OA 
BRANCH  10  12
HETATM   12  C   UNL     1     -11.218   6.856  72.945  1.00  0.00    -0.217 A  
HETATM   13  C   UNL     1      -9.355   6.145  74.325  1.00  0.00    -0.167 A  
HETATM   14  C   UNL     1     -10.812   4.497  73.331  1.00  0.00    -0.350 A  
HETATM   15  C   UNL     1      -9.705   4.811  74.119  1.00  0.00    -0.153 A  
HETATM   16  C   UNL     1     -11.569   5.516  72.746  1.00  0.00    -0.298 A  
HETATM   17  C   UNL     1     -10.107   7.165  73.738  1.00  0.00    -0.391 A  
ENDBRANCH  10  12
ENDBRANCH   9  10
ENDBRANCH   8   9
ENDBRANCH   3   8
BRANCH   6  18
HETATM   18  C   UNL     1      -9.499   4.846  66.389  1.00  0.00    -0.155 A  
HETATM   19  C   UNL     1      -8.583   2.920  65.166  1.00  0.00    -0.104 A  
HETATM   20  C   UNL     1      -9.751   2.807  64.430  1.00  0.00    -0.124 A  
HETATM   21  C   UNL     1     -10.639   4.750  65.583  1.00  0.00    -0.220 A  
HETATM   22  C   UNL     1      -8.467   3.920  66.137  1.00  0.00    -0.110 A  
HETATM   23  C   UNL     1     -10.775   3.728  64.632  1.00  0.00    -0.078 A  
ENDBRANCH   6  18
BRANCH   4  24
HETATM   24  C   UNL     1      -8.571   7.960  66.384  1.00  0.00    -0.147 A  
HETATM   25  C   UNL     1      -9.653   8.833  66.188  1.00  0.00    -0.323 A  
HETATM   26  C   UNL     1      -7.549   8.859  64.381  1.00  0.00    -0.114 A  
HETATM   27  C   UNL     1      -9.689   9.707  65.101  1.00  0.00    -0.287 A  
HETATM   28  C   UNL     1      -7.509   7.990  65.478  1.00  0.00    -0.081 A  
HETATM   29  C   UNL     1      -8.635   9.710  64.193  1.00  0.00    -0.209 A  
ENDBRANCH   4  24
TORSDOF 6
ENDMDL
MODEL      167
REMARK 921   NORMALIZED FREE ENERGY PREDICTED BY IDOCK:   -4.38 KCAL/MOL
REMARK 922        TOTAL FREE ENERGY PREDICTED BY IDOCK:   -7.15 KCAL/MOL
REMARK 923 INTER-LIGAND FREE ENERGY PREDICTED BY IDOCK:   -5.73 KCAL/MOL
REMARK 924 INTRA-LIGAND FREE ENERGY PREDICTED BY IDOCK:   -1.42 KCAL/MOL
REMARK 927      BINDING AFFINITY PREDICTED BY RF-SCORE:    0.00 PKD
ROOT
HETATM    1  O   UNL     1      -8.093  10.483  69.498  1.00  0.00    -0.154 OA 
HETATM    2  C   UNL     1      -7.832   9.292  69.384  1.00  0.00    -0.083 C  
HETATM    3  C   UNL     1      -8.007   8.298  70.499  1.00  0.00    -0.099 C  
HETATM    4  N   UNL     1      -7.485   8.565  68.221  1.00  0.00    -0.094 N  
HETATM    5  C   UNL     1      -7.354   7.065  69.964  1.00  0.00    -0.081 C  
HETATM    6  N   UNL     1      -7.327   7.182  68.564  1.00  0.00    -0.097 N  
HETATM    7  O   UNL     1      -6.976   6.163  70.700  1.00  0.00    -0.060 OA 
ENDROOT
BRANCH   3   8
HETATM    8  C   UNL     1      -9.503   8.015  70.711  1.00  0.00    -0.173 C  
BRANCH   8   9
HETATM    9  C   UNL     1     -10.240   9.097  71.515  1.00  0.00    -0.333 C  
BRANCH   9  10
HETATM   10  S   UNL     1     -12.034   9.005  71.149  1.00  0.00    -0.289 S  
HETATM   11  O   UNL     1     -12.707   8.522  72.402  1.00  0.00    -0.369 OA 
BRANCH  10  12
HETATM   12  C   UNL     1     -12.382  10.779  71.063  1.00  0.00    -0.404 A  
HETATM   13  C   UNL     1     -11.970  12.971  70.109  1.00  0.00    -0.374 A  
HETATM   14  C   UNL     1     -13.436  12.745  72.014  1.00  0.00    -0.540 A  
HETATM   15  C   UNL     1     -12.807  13.549  71.063  1.00  0.00    -0.343 A  
HETATM   16  C   UNL     1     -13.227  11.364  72.014  1.00  0.00    -0.432 A  
HETATM   17  C   UNL     1     -11.755  11.591  70.111  1.00  0.00    -0.395 A  
ENDBRANCH  10  12
ENDBRANCH   9  10
ENDBRANCH   8   9
ENDBRANCH   3   8
BRANCH   6  18
HETATM   18  C   UNL     1      -6.847   6.135  67.710  1.00  0.00    -0.063 A  
HETATM   19  C   UNL     1      -7.328   4.134  66.365  1.00  0.00    -0.080 A  
HETATM   20  C   UNL     1      -6.046   4.155  65.840  1.00  0.00    -0.031 A  
HETATM   21  C   UNL     1      -5.539   6.090  67.216  1.00  0.00    -0.012 A  
HETATM   22  C   UNL     1      -7.722   5.117  67.279  1.00  0.00    -0.092 A  
HETATM   23  C   UNL     1      -5.150   5.128  66.272  1.00  0.00    -0.008 A  
ENDBRANCH   6  18
BRANCH   4  24
HETATM   24  C   UNL     1      -7.969   9.099  66.995  1.00  0.00    -0.102 A  
HETATM   25  C   UNL     1      -9.354   9.082  66.764  1.00  0.00    -0.213 A  
HETATM   26  C   UNL     1      -7.658   9.958  64.753  1.00  0.00    -0.139 A  
HETATM   27  C   UNL     1      -9.889   9.492  65.543  1.00  0.00    -0.304 A  
HETATM   28  C   UNL     1      -7.123   9.557  65.982  1.00  0.00    -0.092 A  
HETATM   29  C   UNL     1      -9.033   9.923  64.534  1.00  0.00    -0.272 A  
ENDBRANCH   4  24
TORSDOF 6
ENDMDL
MODEL      168
REMARK 921   NORMALIZED FREE ENERGY PREDICTED BY IDOCK:   -4.37 KCAL/MOL
REMARK 922        TOTAL FREE ENERGY PREDICTED BY IDOCK:   -7.14 KCAL/MOL
REMARK 923 INTER-LIGAND FREE ENERGY PREDICTED BY IDOCK:   -8.39 KCAL/MOL
REMARK 924 INTRA-LIGAND FREE ENERGY PREDICTED BY IDOCK:    1.25 KCAL/MOL
REMARK 927      BINDING AFFINITY PREDICTED BY RF-SCORE:    0.00 PKD
ROOT
HETATM    1  O   UNL     1     -12.030  15.502  68.205  1.00  0.00    -0.262 OA 
HETATM    2  C   UNL     1     -11.803  14.330  68.477  1.00  0.00    -0.347 C  
HETATM    3  C   UNL     1     -10.802  13.489  67.733  1.00  0.00    -0.267 C  
HETATM    4  N   UNL     1     -12.262  13.567  69.576  1.00  0.00    -0.280 N  
HETATM    5  C   UNL     1     -11.050  12.115  68.263  1.00  0.00    -0.243 C  
HETATM    6  N   UNL     1     -11.687  12.256  69.507  1.00  0.00    -0.321 N  
HETATM    7  O   UNL     1     -10.693  11.114  67.655  1.00  0.00    -0.201 OA 
ENDROOT
BRANCH   3   8
HETATM    8  C   UNL     1      -9.377  13.920  68.117  1.00  0.00    -0.203 C  
BRANCH   8   9
HETATM    9  C   UNL     1      -9.164  15.442  68.142  1.00  0.00    -0.186 C  
BRANCH   9  10
HETATM   10  S   UNL     1      -8.602  16.000  66.489  1.00  0.00    -0.331 S  
HETATM   11  O   UNL     1      -7.449  15.117  66.103  1.00  0.00     0.963 OA 
BRANCH  10  12
HETATM   12  C   UNL     1     -10.010  15.414  65.514  1.00  0.00    -0.344 A  
HETATM   13  C   UNL     1     -12.183  15.787  64.503  1.00  0.00     0.120 A  
HETATM   14  C   UNL     1     -11.208  13.579  64.477  1.00  0.00    -0.392 A  
HETATM   15  C   UNL     1     -12.257  14.440  64.153  1.00  0.00    -0.393 A  
HETATM   16  C   UNL     1     -10.086  14.064  65.155  1.00  0.00    -0.343 A  
HETATM   17  C   UNL     1     -11.065  16.273  65.184  1.00  0.00    -0.219 A  
ENDBRANCH  10  12
ENDBRANCH   9  10
ENDBRANCH   8   9
ENDBRANCH   3   8
BRANCH   6  18
HETATM   18  C   UNL     1     -11.999  11.137  70.348  1.00  0.00    -0.378 A  
HETATM   19  C   UNL     1     -11.461   8.858  71.098  1.00  0.00    -0.364 A  
HETATM   20  C   UNL     1     -12.392   8.954  72.120  1.00  0.00    -0.449 A  
HETATM   21  C   UNL     1     -12.979  11.179  71.345  1.00  0.00    -0.506 A  
HETATM   22  C   UNL     1     -11.264   9.940  70.233  1.00  0.00    -0.364 A  
HETATM   23  C   UNL     1     -13.157  10.111  72.237  1.00  0.00    -0.350 A  
ENDBRANCH   6  18
BRANCH   4  24
HETATM   24  C   UNL     1     -12.581  14.308  70.747  1.00  0.00    -0.356 A  
HETATM   25  C   UNL     1     -11.526  14.866  71.488  1.00  0.00    -0.307 A  
HETATM   26  C   UNL     1     -14.117  15.069  72.457  1.00  0.00    -0.503 A  
HETATM   27  C   UNL     1     -11.759  15.514  72.702  1.00  0.00    -0.564 A  
HETATM   28  C   UNL     1     -13.884  14.430  71.235  1.00  0.00    -0.333 A  
HETATM   29  C   UNL     1     -13.059  15.607  73.187  1.00  0.00    -0.666 A  
ENDBRANCH   4  24
TORSDOF 6
ENDMDL
MODEL      169
REMARK 921   NORMALIZED FREE ENERGY PREDICTED BY IDOCK:   -4.36 KCAL/MOL
REMARK 922        TOTAL FREE ENERGY PREDICTED BY IDOCK:   -7.12 KCAL/MOL
REMARK 923 INTER-LIGAND FREE ENERGY PREDICTED BY IDOCK:   -6.37 KCAL/MOL
REMARK 924 INTRA-LIGAND FREE ENERGY PREDICTED BY IDOCK:   -0.75 KCAL/MOL
REMARK 927      BINDING AFFINITY PREDICTED BY RF-SCORE:    0.00 PKD
ROOT
HETATM    1  O   UNL     1     -10.848   8.309  69.280  1.00  0.00    -0.171 OA 
HETATM    2  C   UNL     1     -10.339   9.053  68.450  1.00  0.00    -0.205 C  
HETATM    3  C   UNL     1      -9.735  10.385  68.796  1.00  0.00    -0.184 C  
HETATM    4  N   UNL     1     -10.060   8.804  67.086  1.00  0.00    -0.227 N  
HETATM    5  C   UNL     1      -9.469  10.998  67.460  1.00  0.00    -0.163 C  
HETATM    6  N   UNL     1      -9.406   9.950  66.526  1.00  0.00    -0.158 N  
HETATM    7  O   UNL     1      -9.319  12.205  67.321  1.00  0.00    -0.175 OA 
ENDROOT
BRANCH   3   8
HETATM    8  C   UNL     1      -8.396  10.174  69.520  1.00  0.00    -0.178 C  
BRANCH   8   9
HETATM    9  C   UNL     1      -7.838   8.746  69.408  1.00  0.00    -0.095 C  
BRANCH   9  10
HETATM   10  S   UNL     1      -7.369   8.148  71.076  1.00  0.00    -0.063 S  
HETATM   11  O   UNL     1      -7.212   9.365  71.944  1.00  0.00    -0.300 OA 
BRANCH  10  12
HETATM   12  C   UNL     1      -8.954   7.414  71.553  1.00  0.00    -0.125 A  
HETATM   13  C   UNL     1     -11.014   7.478  72.831  1.00  0.00    -0.434 A  
HETATM   14  C   UNL     1     -10.448   5.504  71.562  1.00  0.00    -0.298 A  
HETATM   15  C   UNL     1     -11.320   6.184  72.413  1.00  0.00    -0.340 A  
HETATM   16  C   UNL     1      -9.268   6.117  71.131  1.00  0.00    -0.161 A  
HETATM   17  C   UNL     1      -9.834   8.091  72.406  1.00  0.00    -0.313 A  
ENDBRANCH  10  12
ENDBRANCH   9  10
ENDBRANCH   8   9
ENDBRANCH   3   8
BRANCH   6  18
HETATM   18  C   UNL     1      -9.078  10.162  65.147  1.00  0.00    -0.201 A  
HETATM   19  C   UNL     1      -9.751  10.979  62.928  1.00  0.00    -0.353 A  
HETATM   20  C   UNL     1      -8.457  10.827  62.457  1.00  0.00    -0.276 A  
HETATM   21  C   UNL     1      -7.797   9.954  64.624  1.00  0.00    -0.142 A  
HETATM   22  C   UNL     1     -10.051  10.660  64.256  1.00  0.00    -0.411 A  
HETATM   23  C   UNL     1      -7.482  10.306  63.303  1.00  0.00    -0.113 A  
ENDBRANCH   6  18
BRANCH   4  24
HETATM   24  C   UNL     1      -9.854   7.439  66.740  1.00  0.00    -0.220 A  
HETATM   25  C   UNL     1     -10.942   6.557  66.843  1.00  0.00    -0.408 A  
HETATM   26  C   UNL     1      -8.443   5.554  66.178  1.00  0.00    -0.122 A  
HETATM   27  C   UNL     1     -10.786   5.188  66.621  1.00  0.00    -0.225 A  
HETATM   28  C   UNL     1      -8.603   6.928  66.390  1.00  0.00    -0.135 A  
HETATM   29  C   UNL     1      -9.529   4.689  66.296  1.00  0.00    -0.167 A  
ENDBRANCH   4  24
TORSDOF 6
ENDMDL
MODEL      170
REMARK 921   NORMALIZED FREE ENERGY PREDICTED BY IDOCK:   -4.35 KCAL/MOL
REMARK 922        TOTAL FREE ENERGY PREDICTED BY IDOCK:   -7.11 KCAL/MOL
REMARK 923 INTER-LIGAND FREE ENERGY PREDICTED BY IDOCK:   -5.63 KCAL/MOL
REMARK 924 INTRA-LIGAND FREE ENERGY PREDICTED BY IDOCK:   -1.48 KCAL/MOL
REMARK 927      BINDING AFFINITY PREDICTED BY RF-SCORE:    0.00 PKD
ROOT
HETATM    1  O   UNL     1      -6.184   6.242  73.322  1.00  0.00    -0.060 OA 
HETATM    2  C   UNL     1      -6.792   7.070  72.656  1.00  0.00    -0.068 C  
HETATM    3  C   UNL     1      -6.117   8.039  71.725  1.00  0.00    -0.037 C  
HETATM    4  N   UNL     1      -8.188   7.214  72.475  1.00  0.00    -0.107 N  
HETATM    5  C   UNL     1      -7.222   8.967  71.338  1.00  0.00    -0.041 C  
HETATM    6  N   UNL     1      -8.433   8.291  71.562  1.00  0.00    -0.127 N  
HETATM    7  O   UNL     1      -6.999  10.084  70.887  1.00  0.00    -0.337 OA 
ENDROOT
BRANCH   3   8
HETATM    8  C   UNL     1      -5.629   7.297  70.471  1.00  0.00    -0.024 C  
BRANCH   8   9
HETATM    9  C   UNL     1      -6.520   7.496  69.235  1.00  0.00    -0.039 C  
BRANCH   9  10
HETATM   10  S   UNL     1      -6.488   5.972  68.216  1.00  0.00    -0.048 S  
HETATM   11  O   UNL     1      -6.287   4.823  69.162  1.00  0.00    -0.029 OA 
BRANCH  10  12
HETATM   12  C   UNL     1      -8.237   5.921  67.754  1.00  0.00    -0.105 A  
HETATM   13  C   UNL     1     -10.115   4.801  66.704  1.00  0.00    -0.276 A  
HETATM   14  C   UNL     1     -10.365   7.060  67.518  1.00  0.00    -0.288 A  
HETATM   15  C   UNL     1     -10.904   5.934  66.895  1.00  0.00    -0.376 A  
HETATM   16  C   UNL     1      -9.036   7.054  67.949  1.00  0.00    -0.122 A  
HETATM   17  C   UNL     1      -8.785   4.795  67.129  1.00  0.00    -0.103 A  
ENDBRANCH  10  12
ENDBRANCH   9  10
ENDBRANCH   8   9
ENDBRANCH   3   8
BRANCH   6  18
HETATM   18  C   UNL     1      -9.706   8.851  71.216  1.00  0.00    -0.289 A  
HETATM   19  C   UNL     1     -12.056   9.256  71.816  1.00  0.00    -0.457 A  
HETATM   20  C   UNL     1     -12.206  10.107  70.733  1.00  0.00    -0.434 A  
HETATM   21  C   UNL     1      -9.907   9.660  70.093  1.00  0.00    -0.310 A  
HETATM   22  C   UNL     1     -10.820   8.646  72.056  1.00  0.00    -0.430 A  
HETATM   23  C   UNL     1     -11.134  10.302  69.867  1.00  0.00    -0.362 A  
ENDBRANCH   6  18
BRANCH   4  24
HETATM   24  C   UNL     1      -8.953   6.025  72.631  1.00  0.00    -0.127 A  
HETATM   25  C   UNL     1      -9.105   5.182  71.518  1.00  0.00    -0.169 A  
HETATM   26  C   UNL     1     -10.461   4.586  73.862  1.00  0.00    -0.306 A  
HETATM   27  C   UNL     1      -9.927   4.056  71.571  1.00  0.00    -0.220 A  
HETATM   28  C   UNL     1      -9.627   5.708  73.813  1.00  0.00    -0.143 A  
HETATM   29  C   UNL     1     -10.611   3.766  72.747  1.00  0.00    -0.198 A  
ENDBRANCH   4  24
TORSDOF 6
ENDMDL
MODEL      171
REMARK 921   NORMALIZED FREE ENERGY PREDICTED BY IDOCK:   -4.34 KCAL/MOL
REMARK 922        TOTAL FREE ENERGY PREDICTED BY IDOCK:   -7.09 KCAL/MOL
REMARK 923 INTER-LIGAND FREE ENERGY PREDICTED BY IDOCK:   -5.44 KCAL/MOL
REMARK 924 INTRA-LIGAND FREE ENERGY PREDICTED BY IDOCK:   -1.65 KCAL/MOL
REMARK 927      BINDING AFFINITY PREDICTED BY RF-SCORE:    0.00 PKD
ROOT
HETATM    1  O   UNL     1      -7.827  13.645  69.821  1.00  0.00     0.673 OA 
HETATM    2  C   UNL     1      -7.955  14.550  69.007  1.00  0.00    -0.090 C  
HETATM    3  C   UNL     1      -7.173  14.625  67.725  1.00  0.00    -0.191 C  
HETATM    4  N   UNL     1      -8.911  15.592  68.980  1.00  0.00    -0.220 N  
HETATM    5  C   UNL     1      -7.498  15.988  67.205  1.00  0.00    -0.201 C  
HETATM    6  N   UNL     1      -8.707  16.384  67.802  1.00  0.00    -0.179 N  
HETATM    7  O   UNL     1      -6.787  16.553  66.384  1.00  0.00    -0.186 OA 
ENDROOT
BRANCH   3   8
HETATM    8  C   UNL     1      -7.701  13.576  66.734  1.00  0.00     0.560 C  
BRANCH   8   9
HETATM    9  C   UNL     1      -7.020  12.203  66.849  1.00  0.00     0.009 C  
BRANCH   9  10
HETATM   10  S   UNL     1      -8.305  10.902  66.980  1.00  0.00    -0.137 S  
HETATM   11  O   UNL     1      -9.491  11.532  67.652  1.00  0.00    -0.163 OA 
BRANCH  10  12
HETATM   12  C   UNL     1      -8.746  10.782  65.229  1.00  0.00    -0.173 A  
HETATM   13  C   UNL     1      -8.182  10.209  62.940  1.00  0.00    -0.161 A  
HETATM   14  C   UNL     1     -10.267  11.327  63.420  1.00  0.00    -0.454 A  
HETATM   15  C   UNL     1      -9.381  10.766  62.500  1.00  0.00    -0.310 A  
HETATM   16  C   UNL     1      -9.952  11.334  64.782  1.00  0.00    -0.327 A  
HETATM   17  C   UNL     1      -7.863  10.220  64.300  1.00  0.00    -0.117 A  
ENDBRANCH  10  12
ENDBRANCH   9  10
ENDBRANCH   8   9
ENDBRANCH   3   8
BRANCH   6  18
HETATM   18  C   UNL     1      -9.369  17.610  67.467  1.00  0.00    -0.248 A  
HETATM   19  C   UNL     1     -10.624  18.938  65.821  1.00  0.00    -0.358 A  
HETATM   20  C   UNL     1     -10.893  19.904  66.777  1.00  0.00    -0.350 A  
HETATM   21  C   UNL     1      -9.599  18.634  68.391  1.00  0.00    -0.396 A  
HETATM   22  C   UNL     1      -9.881  17.804  66.167  1.00  0.00    -0.254 A  
HETATM   23  C   UNL     1     -10.374  19.756  68.059  1.00  0.00    -0.567 A  
ENDBRANCH   6  18
BRANCH   4  24
HETATM   24  C   UNL     1     -10.148  15.308  69.623  1.00  0.00    -0.237 A  
HETATM   25  C   UNL     1     -11.017  14.389  69.014  1.00  0.00    -0.274 A  
HETATM   26  C   UNL     1     -11.846  15.728  71.297  1.00  0.00    -0.491 A  
HETATM   27  C   UNL     1     -12.289  14.143  69.534  1.00  0.00    -0.275 A  
HETATM   28  C   UNL     1     -10.567  15.966  70.781  1.00  0.00     0.093 A  
HETATM   29  C   UNL     1     -12.702  14.823  70.675  1.00  0.00    -0.415 A  
ENDBRANCH   4  24
TORSDOF 6
ENDMDL
MODEL      172
REMARK 921   NORMALIZED FREE ENERGY PREDICTED BY IDOCK:   -4.33 KCAL/MOL
REMARK 922        TOTAL FREE ENERGY PREDICTED BY IDOCK:   -7.08 KCAL/MOL
REMARK 923 INTER-LIGAND FREE ENERGY PREDICTED BY IDOCK:   -5.51 KCAL/MOL
REMARK 924 INTRA-LIGAND FREE ENERGY PREDICTED BY IDOCK:   -1.57 KCAL/MOL
REMARK 927      BINDING AFFINITY PREDICTED BY RF-SCORE:    0.00 PKD
ROOT
HETATM    1  O   UNL     1     -10.018   9.527  65.266  1.00  0.00    -0.247 OA 
HETATM    2  C   UNL     1      -9.954   8.870  66.298  1.00  0.00    -0.266 C  
HETATM    3  C   UNL     1      -9.143   7.610  66.425  1.00  0.00    -0.214 C  
HETATM    4  N   UNL     1     -10.450   9.185  67.584  1.00  0.00    -0.255 N  
HETATM    5  C   UNL     1      -9.561   7.068  67.753  1.00  0.00    -0.123 C  
HETATM    6  N   UNL     1     -10.087   8.139  68.495  1.00  0.00    -0.195 N  
HETATM    7  O   UNL     1      -9.401   5.891  68.049  1.00  0.00    -0.112 OA 
ENDROOT
BRANCH   3   8
HETATM    8  C   UNL     1      -7.648   7.960  66.480  1.00  0.00    -0.092 C  
BRANCH   8   9
HETATM    9  C   UNL     1      -6.811   7.329  65.356  1.00  0.00    -0.052 C  
BRANCH   9  10
HETATM   10  S   UNL     1      -7.909   6.351  64.262  1.00  0.00    -0.103 S  
HETATM   11  O   UNL     1      -7.485   6.643  62.851  1.00  0.00    -0.066 OA 
BRANCH  10  12
HETATM   12  C   UNL     1      -7.259   4.703  64.633  1.00  0.00    -0.063 A  
HETATM   13  C   UNL     1      -6.603   2.999  66.230  1.00  0.00    -0.036 A  
HETATM   14  C   UNL     1      -6.165   2.675  63.879  1.00  0.00    -0.014 A  
HETATM   15  C   UNL     1      -6.090   2.219  65.195  1.00  0.00    -0.019 A  
HETATM   16  C   UNL     1      -6.749   3.913  63.597  1.00  0.00    -0.043 A  
HETATM   17  C   UNL     1      -7.183   4.239  65.952  1.00  0.00    -0.072 A  
ENDBRANCH  10  12
ENDBRANCH   9  10
ENDBRANCH   8   9
ENDBRANCH   3   8
BRANCH   6  18
HETATM   18  C   UNL     1     -10.509   8.003  69.858  1.00  0.00    -0.233 A  
HETATM   19  C   UNL     1     -10.312   8.723  72.200  1.00  0.00    -0.378 A  
HETATM   20  C   UNL     1     -11.423   7.971  72.545  1.00  0.00    -0.471 A  
HETATM   21  C   UNL     1     -11.585   7.199  70.249  1.00  0.00    -0.260 A  
HETATM   22  C   UNL     1      -9.871   8.744  70.873  1.00  0.00    -0.278 A  
HETATM   23  C   UNL     1     -12.053   7.202  71.572  1.00  0.00    -0.377 A  
ENDBRANCH   6  18
BRANCH   4  24
HETATM   24  C   UNL     1     -10.576  10.573  67.871  1.00  0.00    -0.232 A  
HETATM   25  C   UNL     1      -9.414  11.361  67.860  1.00  0.00    -0.174 A  
HETATM   26  C   UNL     1     -11.818  12.506  68.634  1.00  0.00    -0.340 A  
HETATM   27  C   UNL     1      -9.448  12.705  68.234  1.00  0.00    -0.203 A  
HETATM   28  C   UNL     1     -11.785  11.161  68.248  1.00  0.00    -0.323 A  
HETATM   29  C   UNL     1     -10.655  13.272  68.629  1.00  0.00    -0.264 A  
ENDBRANCH   4  24
TORSDOF 6
ENDMDL
MODEL      173
REMARK 921   NORMALIZED FREE ENERGY PREDICTED BY IDOCK:   -4.32 KCAL/MOL
REMARK 922        TOTAL FREE ENERGY PREDICTED BY IDOCK:   -7.06 KCAL/MOL
REMARK 923 INTER-LIGAND FREE ENERGY PREDICTED BY IDOCK:   -5.53 KCAL/MOL
REMARK 924 INTRA-LIGAND FREE ENERGY PREDICTED BY IDOCK:   -1.53 KCAL/MOL
REMARK 927      BINDING AFFINITY PREDICTED BY RF-SCORE:    0.00 PKD
ROOT
HETATM    1  O   UNL     1      -8.599   9.306  64.219  1.00  0.00    -0.185 OA 
HETATM    2  C   UNL     1      -8.525   9.508  65.424  1.00  0.00    -0.148 C  
HETATM    3  C   UNL     1      -9.124  10.712  66.097  1.00  0.00    -0.190 C  
HETATM    4  N   UNL     1      -8.042   8.653  66.441  1.00  0.00    -0.098 N  
HETATM    5  C   UNL     1      -8.583  10.631  67.487  1.00  0.00    -0.122 C  
HETATM    6  N   UNL     1      -8.207   9.296  67.712  1.00  0.00    -0.115 N  
HETATM    7  O   UNL     1      -8.548  11.608  68.225  1.00  0.00    -0.151 OA 
ENDROOT
BRANCH   3   8
HETATM    8  C   UNL     1     -10.653  10.568  66.151  1.00  0.00    -0.182 C  
BRANCH   8   9
HETATM    9  C   UNL     1     -11.404  11.894  66.355  1.00  0.00    -0.339 C  
BRANCH   9  10
HETATM   10  S   UNL     1     -11.536  12.767  64.749  1.00  0.00    -0.335 S  
HETATM   11  O   UNL     1     -13.000  12.993  64.498  1.00  0.00    -0.707 OA 
BRANCH  10  12
HETATM   12  C   UNL     1     -10.877  14.373  65.262  1.00  0.00    -0.361 A  
HETATM   13  C   UNL     1     -10.840  16.792  65.098  1.00  0.00    -0.150 A  
HETATM   14  C   UNL     1      -9.192  15.653  66.445  1.00  0.00    -0.346 A  
HETATM   15  C   UNL     1      -9.728  16.837  65.938  1.00  0.00    -0.247 A  
HETATM   16  C   UNL     1      -9.765  14.424  66.110  1.00  0.00    -0.335 A  
HETATM   17  C   UNL     1     -11.411  15.564  64.758  1.00  0.00    -0.362 A  
ENDBRANCH  10  12
ENDBRANCH   9  10
ENDBRANCH   8   9
ENDBRANCH   3   8
BRANCH   6  18
HETATM   18  C   UNL     1      -7.724   8.831  68.978  1.00  0.00    -0.091 A  
HETATM   19  C   UNL     1      -8.218   8.035  71.252  1.00  0.00    -0.119 A  
HETATM   20  C   UNL     1      -6.889   7.695  71.442  1.00  0.00    -0.049 A  
HETATM   21  C   UNL     1      -6.378   8.540  69.225  1.00  0.00    -0.042 A  
HETATM   22  C   UNL     1      -8.628   8.586  70.033  1.00  0.00    -0.134 A  
HETATM   23  C   UNL     1      -5.968   7.955  70.432  1.00  0.00    -0.029 A  
ENDBRANCH   6  18
BRANCH   4  24
HETATM   24  C   UNL     1      -8.126   7.260  66.163  1.00  0.00    -0.121 A  
HETATM   25  C   UNL     1      -7.017   6.633  65.573  1.00  0.00    -0.060 A  
HETATM   26  C   UNL     1      -9.345   5.178  65.965  1.00  0.00    -0.165 A  
HETATM   27  C   UNL     1      -7.068   5.295  65.178  1.00  0.00    -0.065 A  
HETATM   28  C   UNL     1      -9.289   6.515  66.372  1.00  0.00    -0.175 A  
HETATM   29  C   UNL     1      -8.241   4.572  65.370  1.00  0.00    -0.111 A  
ENDBRANCH   4  24
TORSDOF 6
ENDMDL
MODEL      174
REMARK 921   NORMALIZED FREE ENERGY PREDICTED BY IDOCK:   -4.31 KCAL/MOL
REMARK 922        TOTAL FREE ENERGY PREDICTED BY IDOCK:   -7.05 KCAL/MOL
REMARK 923 INTER-LIGAND FREE ENERGY PREDICTED BY IDOCK:   -5.43 KCAL/MOL
REMARK 924 INTRA-LIGAND FREE ENERGY PREDICTED BY IDOCK:   -1.62 KCAL/MOL
REMARK 927      BINDING AFFINITY PREDICTED BY RF-SCORE:    0.00 PKD
ROOT
HETATM    1  O   UNL     1      -7.526  14.301  70.450  1.00  0.00     0.504 OA 
HETATM    2  C   UNL     1      -7.651  15.101  69.532  1.00  0.00    -0.207 C  
HETATM    3  C   UNL     1      -6.630  15.271  68.440  1.00  0.00    -0.110 C  
HETATM    4  N   UNL     1      -8.771  15.894  69.190  1.00  0.00    -0.246 N  
HETATM    5  C   UNL     1      -7.105  16.488  67.715  1.00  0.00    -0.137 C  
HETATM    6  N   UNL     1      -8.473  16.636  68.000  1.00  0.00    -0.188 N  
HETATM    7  O   UNL     1      -6.359  17.147  67.002  1.00  0.00    -0.148 OA 
ENDROOT
BRANCH   3   8
HETATM    8  C   UNL     1      -6.689  14.069  67.485  1.00  0.00    -0.128 C  
BRANCH   8   9
HETATM    9  C   UNL     1      -5.737  12.921  67.856  1.00  0.00    -0.121 C  
BRANCH   9  10
HETATM   10  S   UNL     1      -6.719  11.488  68.440  1.00  0.00    -0.071 S  
HETATM   11  O   UNL     1      -8.165  11.845  68.245  1.00  0.00    -0.145 OA 
BRANCH  10  12
HETATM   12  C   UNL     1      -6.321  10.329  67.107  1.00  0.00    -0.067 A  
HETATM   13  C   UNL     1      -5.694   9.889  64.806  1.00  0.00    -0.093 A  
HETATM   14  C   UNL     1      -6.280   8.057  66.263  1.00  0.00    -0.046 A  
HETATM   15  C   UNL     1      -5.879   8.523  65.012  1.00  0.00    -0.048 A  
HETATM   16  C   UNL     1      -6.500   8.956  67.310  1.00  0.00    -0.061 A  
HETATM   17  C   UNL     1      -5.917  10.790  65.849  1.00  0.00    -0.135 A  
ENDBRANCH  10  12
ENDBRANCH   9  10
ENDBRANCH   8   9
ENDBRANCH   3   8
BRANCH   6  18
HETATM   18  C   UNL     1      -9.282  17.656  67.399  1.00  0.00    -0.247 A  
HETATM   19  C   UNL     1      -9.982  20.012  67.325  1.00  0.00    -0.574 A  
HETATM   20  C   UNL     1     -10.671  19.790  66.144  1.00  0.00    -0.492 A  
HETATM   21  C   UNL     1     -10.043  17.447  66.244  1.00  0.00    -0.328 A  
HETATM   22  C   UNL     1      -9.291  18.960  67.935  1.00  0.00    -0.338 A  
HETATM   23  C   UNL     1     -10.708  18.506  65.609  1.00  0.00    -0.089 A  
ENDBRANCH   6  18
BRANCH   4  24
HETATM   24  C   UNL     1     -10.034  15.378  69.590  1.00  0.00    -0.264 A  
HETATM   25  C   UNL     1     -10.561  14.288  68.878  1.00  0.00    -0.252 A  
HETATM   26  C   UNL     1     -12.092  15.478  70.860  1.00  0.00    -0.433 A  
HETATM   27  C   UNL     1     -11.840  13.799  69.148  1.00  0.00    -0.398 A  
HETATM   28  C   UNL     1     -10.806  15.961  70.597  1.00  0.00    -0.234 A  
HETATM   29  C   UNL     1     -12.607  14.404  70.138  1.00  0.00    -0.340 A  
ENDBRANCH   4  24
TORSDOF 6
ENDMDL
MODEL      175
REMARK 921   NORMALIZED FREE ENERGY PREDICTED BY IDOCK:   -4.26 KCAL/MOL
REMARK 922        TOTAL FREE ENERGY PREDICTED BY IDOCK:   -6.98 KCAL/MOL
REMARK 923 INTER-LIGAND FREE ENERGY PREDICTED BY IDOCK:   -6.19 KCAL/MOL
REMARK 924 INTRA-LIGAND FREE ENERGY PREDICTED BY IDOCK:   -0.79 KCAL/MOL
REMARK 927      BINDING AFFINITY PREDICTED BY RF-SCORE:    0.00 PKD
ROOT
HETATM    1  O   UNL     1      -8.898  10.075  70.199  1.00  0.00    -0.165 OA 
HETATM    2  C   UNL     1      -9.215   9.918  69.027  1.00  0.00    -0.168 C  
HETATM    3  C   UNL     1      -9.439   8.567  68.406  1.00  0.00    -0.141 C  
HETATM    4  N   UNL     1      -9.585  10.890  68.068  1.00  0.00    -0.159 N  
HETATM    5  C   UNL     1      -9.568   8.877  66.950  1.00  0.00    -0.190 C  
HETATM    6  N   UNL     1      -9.928  10.231  66.842  1.00  0.00    -0.200 N  
HETATM    7  O   UNL     1      -9.399   8.022  66.090  1.00  0.00    -0.192 OA 
ENDROOT
BRANCH   3   8
HETATM    8  C   UNL     1     -10.767   7.980  68.909  1.00  0.00    -0.091 C  
BRANCH   8   9
HETATM    9  C   UNL     1     -10.734   7.506  70.370  1.00  0.00    -0.239 C  
BRANCH   9  10
HETATM   10  S   UNL     1     -10.755   5.673  70.410  1.00  0.00    -0.251 S  
HETATM   11  O   UNL     1     -10.329   5.206  69.047  1.00  0.00    -0.199 OA 
BRANCH  10  12
HETATM   12  C   UNL     1      -9.321   5.412  71.483  1.00  0.00    -0.147 A  
HETATM   13  C   UNL     1      -7.231   6.181  72.444  1.00  0.00    -0.085 A  
HETATM   14  C   UNL     1      -7.961   3.911  72.817  1.00  0.00    -0.082 A  
HETATM   15  C   UNL     1      -7.022   4.924  73.009  1.00  0.00    -0.074 A  
HETATM   16  C   UNL     1      -9.109   4.153  72.058  1.00  0.00    -0.160 A  
HETATM   17  C   UNL     1      -8.374   6.424  71.680  1.00  0.00    -0.125 A  
ENDBRANCH  10  12
ENDBRANCH   9  10
ENDBRANCH   8   9
ENDBRANCH   3   8
BRANCH   6  18
HETATM   18  C   UNL     1     -10.225  10.855  65.586  1.00  0.00    -0.263 A  
HETATM   19  C   UNL     1      -9.890  10.941  63.152  1.00  0.00    -0.392 A  
HETATM   20  C   UNL     1     -10.909  11.871  63.025  1.00  0.00    -0.120 A  
HETATM   21  C   UNL     1     -11.202  11.845  65.435  1.00  0.00    -0.351 A  
HETATM   22  C   UNL     1      -9.562  10.436  64.415  1.00  0.00    -0.375 A  
HETATM   23  C   UNL     1     -11.559  12.329  64.168  1.00  0.00    -0.463 A  
ENDBRANCH   6  18
BRANCH   4  24
HETATM   24  C   UNL     1     -10.150  12.086  68.592  1.00  0.00    -0.160 A  
HETATM   25  C   UNL     1     -11.388  12.002  69.250  1.00  0.00    -0.330 A  
HETATM   26  C   UNL     1     -10.240  14.492  68.840  1.00  0.00    -0.229 A  
HETATM   27  C   UNL     1     -12.050  13.147  69.695  1.00  0.00    -0.317 A  
HETATM   28  C   UNL     1      -9.572  13.343  68.404  1.00  0.00    -0.188 A  
HETATM   29  C   UNL     1     -11.473  14.394  69.480  1.00  0.00    -0.333 A  
ENDBRANCH   4  24
TORSDOF 6
ENDMDL
MODEL      176
REMARK 921   NORMALIZED FREE ENERGY PREDICTED BY IDOCK:   -4.14 KCAL/MOL
REMARK 922        TOTAL FREE ENERGY PREDICTED BY IDOCK:   -6.83 KCAL/MOL
REMARK 923 INTER-LIGAND FREE ENERGY PREDICTED BY IDOCK:   -5.55 KCAL/MOL
REMARK 924 INTRA-LIGAND FREE ENERGY PREDICTED BY IDOCK:   -1.28 KCAL/MOL
REMARK 927      BINDING AFFINITY PREDICTED BY RF-SCORE:    0.00 PKD
ROOT
HETATM    1  O   UNL     1     -11.099   6.886  67.752  1.00  0.00    -0.217 OA 
HETATM    2  C   UNL     1     -10.460   7.737  67.147  1.00  0.00    -0.343 C  
HETATM    3  C   UNL     1     -10.594   9.212  67.408  1.00  0.00    -0.315 C  
HETATM    4  N   UNL     1      -9.394   7.566  66.233  1.00  0.00    -0.154 N  
HETATM    5  C   UNL     1      -9.812   9.829  66.294  1.00  0.00    -0.250 C  
HETATM    6  N   UNL     1      -8.918   8.854  65.822  1.00  0.00    -0.191 N  
HETATM    7  O   UNL     1      -9.980  10.994  65.956  1.00  0.00    -0.220 OA 
ENDROOT
BRANCH   3   8
HETATM    8  C   UNL     1      -9.919   9.564  68.743  1.00  0.00    -0.185 C  
BRANCH   8   9
HETATM    9  C   UNL     1      -9.631   8.352  69.643  1.00  0.00    -0.163 C  
BRANCH   9  10
HETATM   10  S   UNL     1     -10.544   8.541  71.221  1.00  0.00    -0.253 S  
HETATM   11  O   UNL     1     -11.962   8.884  70.862  1.00  0.00    -0.282 OA 
BRANCH  10  12
HETATM   12  C   UNL     1     -10.578   6.801  71.721  1.00  0.00    -0.213 A  
HETATM   13  C   UNL     1     -10.968   5.090  73.394  1.00  0.00    -0.393 A  
HETATM   14  C   UNL     1     -10.012   4.489  71.261  1.00  0.00    -0.258 A  
HETATM   15  C   UNL     1     -10.458   4.121  72.530  1.00  0.00    -0.205 A  
HETATM   16  C   UNL     1     -10.073   5.824  70.855  1.00  0.00    -0.256 A  
HETATM   17  C   UNL     1     -11.025   6.426  72.993  1.00  0.00    -0.269 A  
ENDBRANCH  10  12
ENDBRANCH   9  10
ENDBRANCH   8   9
ENDBRANCH   3   8
BRANCH   6  18
HETATM   18  C   UNL     1      -7.944   9.125  64.806  1.00  0.00    -0.126 A  
HETATM   19  C   UNL     1      -7.373   9.230  62.417  1.00  0.00    -0.104 A  
HETATM   20  C   UNL     1      -6.167   9.844  62.712  1.00  0.00    -0.116 A  
HETATM   21  C   UNL     1      -6.690   9.683  65.077  1.00  0.00    -0.096 A  
HETATM   22  C   UNL     1      -8.250   8.886  63.451  1.00  0.00    -0.181 A  
HETATM   23  C   UNL     1      -5.822  10.062  64.042  1.00  0.00    -0.129 A  
ENDBRANCH   6  18
BRANCH   4  24
HETATM   24  C   UNL     1      -8.631   6.376  66.396  1.00  0.00    -0.134 A  
HETATM   25  C   UNL     1      -8.745   5.375  65.418  1.00  0.00    -0.154 A  
HETATM   26  C   UNL     1      -7.216   4.890  67.680  1.00  0.00    -0.070 A  
HETATM   27  C   UNL     1      -8.107   4.143  65.568  1.00  0.00    -0.101 A  
HETATM   28  C   UNL     1      -7.846   6.130  67.524  1.00  0.00    -0.102 A  
HETATM   29  C   UNL     1      -7.348   3.902  66.708  1.00  0.00    -0.072 A  
ENDBRANCH   4  24
TORSDOF 6
ENDMDL
MODEL      177
REMARK 921   NORMALIZED FREE ENERGY PREDICTED BY IDOCK:   -4.14 KCAL/MOL
REMARK 922        TOTAL FREE ENERGY PREDICTED BY IDOCK:   -6.82 KCAL/MOL
REMARK 923 INTER-LIGAND FREE ENERGY PREDICTED BY IDOCK:   -5.39 KCAL/MOL
REMARK 924 INTRA-LIGAND FREE ENERGY PREDICTED BY IDOCK:   -1.43 KCAL/MOL
REMARK 927      BINDING AFFINITY PREDICTED BY RF-SCORE:    0.00 PKD
ROOT
HETATM    1  O   UNL     1      -8.147   7.316  64.388  1.00  0.00    -0.132 OA 
HETATM    2  C   UNL     1      -8.234   7.030  65.575  1.00  0.00    -0.135 C  
HETATM    3  C   UNL     1      -8.513   8.044  66.651  1.00  0.00    -0.133 C  
HETATM    4  N   UNL     1      -8.257   5.753  66.183  1.00  0.00    -0.108 N  
HETATM    5  C   UNL     1      -8.294   7.273  67.912  1.00  0.00    -0.119 C  
HETATM    6  N   UNL     1      -8.430   5.910  67.597  1.00  0.00    -0.105 N  
HETATM    7  O   UNL     1      -8.074   7.830  68.980  1.00  0.00    -0.121 OA 
ENDROOT
BRANCH   3   8
HETATM    8  C   UNL     1      -9.986   8.477  66.583  1.00  0.00    -0.363 C  
BRANCH   8   9
HETATM    9  C   UNL     1     -10.194   9.933  66.138  1.00  0.00    -0.207 C  
BRANCH   9  10
HETATM   10  S   UNL     1     -10.690  10.943  67.585  1.00  0.00    -0.263 S  
HETATM   11  O   UNL     1      -9.458  11.129  68.425  1.00  0.00    -0.175 OA 
BRANCH  10  12
HETATM   12  C   UNL     1     -10.942  12.522  66.737  1.00  0.00    -0.265 A  
HETATM   13  C   UNL     1     -10.494  14.022  64.885  1.00  0.00    -0.453 A  
HETATM   14  C   UNL     1     -11.789  14.794  66.770  1.00  0.00    -0.272 A  
HETATM   15  C   UNL     1     -11.205  15.035  65.526  1.00  0.00    -0.344 A  
HETATM   16  C   UNL     1     -11.660  13.541  67.374  1.00  0.00    -0.392 A  
HETATM   17  C   UNL     1     -10.359  12.771  65.489  1.00  0.00    -0.301 A  
ENDBRANCH  10  12
ENDBRANCH   9  10
ENDBRANCH   8   9
ENDBRANCH   3   8
BRANCH   6  18
HETATM   18  C   UNL     1      -8.370   4.877  68.589  1.00  0.00    -0.083 A  
HETATM   19  C   UNL     1      -9.537   3.485  70.246  1.00  0.00    -0.232 A  
HETATM   20  C   UNL     1      -8.407   2.699  70.409  1.00  0.00    -0.077 A  
HETATM   21  C   UNL     1      -7.225   4.109  68.826  1.00  0.00    -0.055 A  
HETATM   22  C   UNL     1      -9.517   4.551  69.341  1.00  0.00    -0.244 A  
HETATM   23  C   UNL     1      -7.249   3.017  69.706  1.00  0.00    -0.041 A  
ENDBRANCH   6  18
BRANCH   4  24
HETATM   24  C   UNL     1      -8.744   4.694  65.367  1.00  0.00    -0.134 A  
HETATM   25  C   UNL     1      -7.810   3.847  64.750  1.00  0.00    -0.085 A  
HETATM   26  C   UNL     1     -10.506   3.531  64.182  1.00  0.00    -0.222 A  
HETATM   27  C   UNL     1      -8.214   2.856  63.855  1.00  0.00    -0.082 A  
HETATM   28  C   UNL     1     -10.101   4.518  65.087  1.00  0.00    -0.147 A  
HETATM   29  C   UNL     1      -9.567   2.706  63.567  1.00  0.00    -0.104 A  
ENDBRANCH   4  24
TORSDOF 6
ENDMDL
MODEL      178
REMARK 921   NORMALIZED FREE ENERGY PREDICTED BY IDOCK:   -4.12 KCAL/MOL
REMARK 922        TOTAL FREE ENERGY PREDICTED BY IDOCK:   -6.80 KCAL/MOL
REMARK 923 INTER-LIGAND FREE ENERGY PREDICTED BY IDOCK:   -5.73 KCAL/MOL
REMARK 924 INTRA-LIGAND FREE ENERGY PREDICTED BY IDOCK:   -1.06 KCAL/MOL
REMARK 927      BINDING AFFINITY PREDICTED BY RF-SCORE:    0.00 PKD
ROOT
HETATM    1  O   UNL     1     -12.568  11.032  70.060  1.00  0.00    -0.270 OA 
HETATM    2  C   UNL     1     -11.366  10.876  69.888  1.00  0.00    -0.305 C  
HETATM    3  C   UNL     1     -10.598   9.706  70.439  1.00  0.00    -0.354 C  
HETATM    4  N   UNL     1     -10.485  11.606  69.057  1.00  0.00    -0.173 N  
HETATM    5  C   UNL     1      -9.175  10.076  70.172  1.00  0.00    -0.026 C  
HETATM    6  N   UNL     1      -9.177  11.024  69.135  1.00  0.00    -0.075 N  
HETATM    7  O   UNL     1      -8.249   9.560  70.784  1.00  0.00    -0.251 OA 
ENDROOT
BRANCH   3   8
HETATM    8  C   UNL     1     -10.941   8.440  69.638  1.00  0.00    -0.094 C  
BRANCH   8   9
HETATM    9  C   UNL     1      -9.756   7.480  69.440  1.00  0.00    -0.164 C  
BRANCH   9  10
HETATM   10  S   UNL     1     -10.095   5.912  70.325  1.00  0.00    -0.217 S  
HETATM   11  O   UNL     1      -9.291   4.845  69.637  1.00  0.00    -0.110 OA 
BRANCH  10  12
HETATM   12  C   UNL     1      -9.208   6.273  71.861  1.00  0.00    -0.146 A  
HETATM   13  C   UNL     1      -8.912   7.601  73.869  1.00  0.00    -0.321 A  
HETATM   14  C   UNL     1      -7.275   5.926  73.283  1.00  0.00    -0.086 A  
HETATM   15  C   UNL     1      -7.722   6.929  74.144  1.00  0.00    -0.119 A  
HETATM   16  C   UNL     1      -8.016   5.597  72.145  1.00  0.00    -0.107 A  
HETATM   17  C   UNL     1      -9.652   7.277  72.730  1.00  0.00    -0.198 A  
ENDBRANCH  10  12
ENDBRANCH   9  10
ENDBRANCH   8   9
ENDBRANCH   3   8
BRANCH   6  18
HETATM   18  C   UNL     1      -7.972  11.540  68.556  1.00  0.00    -0.143 A  
HETATM   19  C   UNL     1      -6.106  11.251  66.981  1.00  0.00    -0.108 A  
HETATM   20  C   UNL     1      -5.703  12.560  67.189  1.00  0.00    -0.012 A  
HETATM   21  C   UNL     1      -7.500  12.834  68.798  1.00  0.00    -0.048 A  
HETATM   22  C   UNL     1      -7.231  10.755  67.649  1.00  0.00    -0.092 A  
HETATM   23  C   UNL     1      -6.394  13.348  68.104  1.00  0.00    -0.114 A  
ENDBRANCH   6  18
BRANCH   4  24
HETATM   24  C   UNL     1     -11.083  12.233  67.929  1.00  0.00    -0.243 A  
HETATM   25  C   UNL     1     -10.888  11.653  66.665  1.00  0.00    -0.327 A  
HETATM   26  C   UNL     1     -12.238  14.067  66.851  1.00  0.00    -0.415 A  
HETATM   27  C   UNL     1     -11.357  12.271  65.505  1.00  0.00    -0.394 A  
HETATM   28  C   UNL     1     -11.778  13.442  68.014  1.00  0.00    -0.391 A  
HETATM   29  C   UNL     1     -12.027  13.486  65.603  1.00  0.00    -0.429 A  
ENDBRANCH   4  24
TORSDOF 6
ENDMDL
MODEL      179
REMARK 921   NORMALIZED FREE ENERGY PREDICTED BY IDOCK:   -4.09 KCAL/MOL
REMARK 922        TOTAL FREE ENERGY PREDICTED BY IDOCK:   -6.75 KCAL/MOL
REMARK 923 INTER-LIGAND FREE ENERGY PREDICTED BY IDOCK:   -5.87 KCAL/MOL
REMARK 924 INTRA-LIGAND FREE ENERGY PREDICTED BY IDOCK:   -0.88 KCAL/MOL
REMARK 927      BINDING AFFINITY PREDICTED BY RF-SCORE:    0.00 PKD
ROOT
HETATM    1  O   UNL     1     -12.293  10.150  70.835  1.00  0.00    -0.314 OA 
HETATM    2  C   UNL     1     -11.109   9.953  70.592  1.00  0.00    -0.340 C  
HETATM    3  C   UNL     1     -10.375   8.710  71.014  1.00  0.00    -0.275 C  
HETATM    4  N   UNL     1     -10.232  10.704  69.774  1.00  0.00    -0.133 N  
HETATM    5  C   UNL     1      -8.949   9.034  70.705  1.00  0.00    -0.220 C  
HETATM    6  N   UNL     1      -8.953  10.059  69.743  1.00  0.00    -0.206 N  
HETATM    7  O   UNL     1      -8.022   8.432  71.230  1.00  0.00    -0.098 OA 
ENDROOT
BRANCH   3   8
HETATM    8  C   UNL     1     -10.816   7.526  70.139  1.00  0.00    -0.259 C  
BRANCH   8   9
HETATM    9  C   UNL     1     -11.895   6.638  70.778  1.00  0.00    -0.383 C  
BRANCH   9  10
HETATM   10  S   UNL     1     -11.336   6.112  72.443  1.00  0.00    -0.296 S  
HETATM   11  O   UNL     1     -12.348   5.121  72.945  1.00  0.00    -0.045 OA 
BRANCH  10  12
HETATM   12  C   UNL     1      -9.900   5.129  71.945  1.00  0.00    -0.177 A  
HETATM   13  C   UNL     1      -7.589   4.458  72.250  1.00  0.00    -0.078 A  
HETATM   14  C   UNL     1      -8.815   3.701  70.313  1.00  0.00    -0.148 A  
HETATM   15  C   UNL     1      -7.637   3.734  71.059  1.00  0.00    -0.047 A  
HETATM   16  C   UNL     1      -9.945   4.395  70.754  1.00  0.00    -0.247 A  
HETATM   17  C   UNL     1      -8.715   5.156  72.690  1.00  0.00    -0.123 A  
ENDBRANCH  10  12
ENDBRANCH   9  10
ENDBRANCH   8   9
ENDBRANCH   3   8
BRANCH   6  18
HETATM   18  C   UNL     1      -7.752  10.562  69.145  1.00  0.00    -0.131 A  
HETATM   19  C   UNL     1      -6.656  11.672  67.244  1.00  0.00    -0.122 A  
HETATM   20  C   UNL     1      -5.479  11.788  67.965  1.00  0.00    -0.047 A  
HETATM   21  C   UNL     1      -6.530  10.632  69.823  1.00  0.00    -0.110 A  
HETATM   22  C   UNL     1      -7.777  11.077  67.833  1.00  0.00    -0.104 A  
HETATM   23  C   UNL     1      -5.414  11.259  69.250  1.00  0.00    -0.040 A  
ENDBRANCH   6  18
BRANCH   4  24
HETATM   24  C   UNL     1     -10.851  11.443  68.727  1.00  0.00    -0.208 A  
HETATM   25  C   UNL     1     -11.018  10.817  67.482  1.00  0.00    -0.372 A  
HETATM   26  C   UNL     1     -11.710  13.488  67.757  1.00  0.00    -0.394 A  
HETATM   27  C   UNL     1     -11.520  11.515  66.383  1.00  0.00    -0.150 A  
HETATM   28  C   UNL     1     -11.217  12.784  68.862  1.00  0.00    -0.332 A  
HETATM   29  C   UNL     1     -11.858  12.857  66.525  1.00  0.00    -0.473 A  
ENDBRANCH   4  24
TORSDOF 6
ENDMDL
MODEL      180
REMARK 921   NORMALIZED FREE ENERGY PREDICTED BY IDOCK:   -4.02 KCAL/MOL
REMARK 922        TOTAL FREE ENERGY PREDICTED BY IDOCK:   -6.66 KCAL/MOL
REMARK 923 INTER-LIGAND FREE ENERGY PREDICTED BY IDOCK:   -5.06 KCAL/MOL
REMARK 924 INTRA-LIGAND FREE ENERGY PREDICTED BY IDOCK:   -1.61 KCAL/MOL
REMARK 927      BINDING AFFINITY PREDICTED BY RF-SCORE:    0.00 PKD
ROOT
HETATM    1  O   UNL     1      -9.075   3.442  69.177  1.00  0.00    -0.114 OA 
HETATM    2  C   UNL     1      -8.358   4.339  69.602  1.00  0.00    -0.061 C  
HETATM    3  C   UNL     1      -7.566   5.256  68.711  1.00  0.00    -0.082 C  
HETATM    4  N   UNL     1      -8.225   4.819  70.926  1.00  0.00    -0.086 N  
HETATM    5  C   UNL     1      -6.697   6.000  69.671  1.00  0.00    -0.052 C  
HETATM    6  N   UNL     1      -7.309   5.922  70.934  1.00  0.00    -0.083 N  
HETATM    7  O   UNL     1      -5.674   6.567  69.311  1.00  0.00    -0.016 OA 
ENDROOT
BRANCH   3   8
HETATM    8  C   UNL     1      -8.512   6.252  68.021  1.00  0.00    -0.117 C  
BRANCH   8   9
HETATM    9  C   UNL     1      -8.513   7.655  68.647  1.00  0.00    -0.129 C  
BRANCH   9  10
HETATM   10  S   UNL     1      -9.350   8.823  67.510  1.00  0.00    -0.138 S  
HETATM   11  O   UNL     1     -10.150   7.992  66.547  1.00  0.00    -0.260 OA 
BRANCH  10  12
HETATM   12  C   UNL     1     -10.554   9.514  68.671  1.00  0.00    -0.210 A  
HETATM   13  C   UNL     1     -12.077  11.281  69.337  1.00  0.00    -0.384 A  
HETATM   14  C   UNL     1     -11.630   9.448  70.843  1.00  0.00    -0.380 A  
HETATM   15  C   UNL     1     -12.283  10.648  70.562  1.00  0.00    -0.449 A  
HETATM   16  C   UNL     1     -10.769   8.880  69.901  1.00  0.00    -0.236 A  
HETATM   17  C   UNL     1     -11.213  10.718  68.395  1.00  0.00    -0.345 A  
ENDBRANCH  10  12
ENDBRANCH   9  10
ENDBRANCH   8   9
ENDBRANCH   3   8
BRANCH   6  18
HETATM   18  C   UNL     1      -6.795   6.602  72.086  1.00  0.00    -0.067 A  
HETATM   19  C   UNL     1      -6.883   8.541  73.595  1.00  0.00    -0.089 A  
HETATM   20  C   UNL     1      -6.004   7.925  74.470  1.00  0.00    -0.087 A  
HETATM   21  C   UNL     1      -5.856   6.035  72.954  1.00  0.00    -0.037 A  
HETATM   22  C   UNL     1      -7.278   7.882  72.426  1.00  0.00    -0.100 A  
HETATM   23  C   UNL     1      -5.483   6.676  74.145  1.00  0.00    -0.050 A  
ENDBRANCH   6  18
BRANCH   4  24
HETATM   24  C   UNL     1      -9.360   4.636  71.763  1.00  0.00    -0.142 A  
HETATM   25  C   UNL     1     -10.336   5.645  71.788  1.00  0.00    -0.268 A  
HETATM   26  C   UNL     1     -10.582   3.481  73.505  1.00  0.00    -0.286 A  
HETATM   27  C   UNL     1     -11.421   5.579  72.663  1.00  0.00    -0.331 A  
HETATM   28  C   UNL     1      -9.500   3.541  72.620  1.00  0.00    -0.171 A  
HETATM   29  C   UNL     1     -11.536   4.495  73.528  1.00  0.00    -0.287 A  
ENDBRANCH   4  24
TORSDOF 6
ENDMDL
MODEL      181
REMARK 921   NORMALIZED FREE ENERGY PREDICTED BY IDOCK:   -4.01 KCAL/MOL
REMARK 922        TOTAL FREE ENERGY PREDICTED BY IDOCK:   -6.65 KCAL/MOL
REMARK 923 INTER-LIGAND FREE ENERGY PREDICTED BY IDOCK:   -5.22 KCAL/MOL
REMARK 924 INTRA-LIGAND FREE ENERGY PREDICTED BY IDOCK:   -1.43 KCAL/MOL
REMARK 927      BINDING AFFINITY PREDICTED BY RF-SCORE:    0.00 PKD
ROOT
HETATM    1  O   UNL     1      -8.534   7.760  70.062  1.00  0.00    -0.131 OA 
HETATM    2  C   UNL     1      -8.852   6.828  69.334  1.00  0.00    -0.135 C  
HETATM    3  C   UNL     1      -9.430   5.538  69.847  1.00  0.00    -0.203 C  
HETATM    4  N   UNL     1      -8.909   6.784  67.921  1.00  0.00    -0.119 N  
HETATM    5  C   UNL     1      -9.429   4.659  68.639  1.00  0.00    -0.152 C  
HETATM    6  N   UNL     1      -9.392   5.498  67.512  1.00  0.00    -0.110 N  
HETATM    7  O   UNL     1      -9.485   3.439  68.728  1.00  0.00    -0.166 OA 
ENDROOT
BRANCH   3   8
HETATM    8  C   UNL     1     -10.882   5.764  70.296  1.00  0.00    -0.373 C  
BRANCH   8   9
HETATM    9  C   UNL     1     -11.101   7.061  71.092  1.00  0.00    -0.258 C  
BRANCH   9  10
HETATM   10  S   UNL     1     -11.328   6.651  72.864  1.00  0.00    -0.062 S  
HETATM   11  O   UNL     1     -11.659   5.187  72.930  1.00  0.00    -0.297 OA 
BRANCH  10  12
HETATM   12  C   UNL     1      -9.601   6.782  73.392  1.00  0.00    -0.171 A  
HETATM   13  C   UNL     1      -7.590   8.093  73.737  1.00  0.00    -0.221 A  
HETATM   14  C   UNL     1      -7.531   5.699  74.039  1.00  0.00    -0.089 A  
HETATM   15  C   UNL     1      -6.882   6.933  74.050  1.00  0.00    -0.078 A  
HETATM   16  C   UNL     1      -8.888   5.622  73.714  1.00  0.00    -0.124 A  
HETATM   17  C   UNL     1      -8.944   8.018  73.406  1.00  0.00    -0.341 A  
ENDBRANCH  10  12
ENDBRANCH   9  10
ENDBRANCH   8   9
ENDBRANCH   3   8
BRANCH   6  18
HETATM   18  C   UNL     1      -9.469   4.997  66.172  1.00  0.00    -0.160 A  
HETATM   19  C   UNL     1      -8.314   4.355  64.098  1.00  0.00    -0.110 A  
HETATM   20  C   UNL     1      -9.483   3.810  63.593  1.00  0.00    -0.141 A  
HETATM   21  C   UNL     1     -10.649   4.500  65.607  1.00  0.00    -0.231 A  
HETATM   22  C   UNL     1      -8.309   4.931  65.373  1.00  0.00    -0.125 A  
HETATM   23  C   UNL     1     -10.651   3.890  64.344  1.00  0.00    -0.224 A  
ENDBRANCH   6  18
BRANCH   4  24
HETATM   24  C   UNL     1      -9.130   8.033  67.276  1.00  0.00    -0.135 A  
HETATM   25  C   UNL     1      -8.038   8.665  66.661  1.00  0.00    -0.100 A  
HETATM   26  C   UNL     1     -10.481   9.974  66.756  1.00  0.00    -0.267 A  
HETATM   27  C   UNL     1      -8.160   9.938  66.103  1.00  0.00    -0.119 A  
HETATM   28  C   UNL     1     -10.361   8.693  67.306  1.00  0.00    -0.366 A  
HETATM   29  C   UNL     1      -9.385  10.593  66.160  1.00  0.00    -0.207 A  
ENDBRANCH   4  24
TORSDOF 6
ENDMDL
MODEL      182
REMARK 921   NORMALIZED FREE ENERGY PREDICTED BY IDOCK:   -3.90 KCAL/MOL
REMARK 922        TOTAL FREE ENERGY PREDICTED BY IDOCK:   -6.50 KCAL/MOL
REMARK 923 INTER-LIGAND FREE ENERGY PREDICTED BY IDOCK:   -4.40 KCAL/MOL
REMARK 924 INTRA-LIGAND FREE ENERGY PREDICTED BY IDOCK:   -2.11 KCAL/MOL
REMARK 927      BINDING AFFINITY PREDICTED BY RF-SCORE:    0.00 PKD
ROOT
HETATM    1  O   UNL     1      -7.488   8.765  67.032  1.00  0.00    -0.089 OA 
HETATM    2  C   UNL     1      -8.347   8.039  67.516  1.00  0.00    -0.123 C  
HETATM    3  C   UNL     1      -9.193   7.103  66.698  1.00  0.00    -0.193 C  
HETATM    4  N   UNL     1      -8.635   7.788  68.878  1.00  0.00    -0.132 N  
HETATM    5  C   UNL     1     -10.219   6.628  67.676  1.00  0.00    -0.177 C  
HETATM    6  N   UNL     1      -9.690   6.822  68.963  1.00  0.00    -0.145 N  
HETATM    7  O   UNL     1     -11.283   6.144  67.311  1.00  0.00    -0.288 OA 
ENDROOT
BRANCH   3   8
HETATM    8  C   UNL     1      -8.347   5.903  66.244  1.00  0.00    -0.117 C  
BRANCH   8   9
HETATM    9  C   UNL     1      -9.094   4.914  65.336  1.00  0.00    -0.155 C  
BRANCH   9  10
HETATM   10  S   UNL     1      -8.205   3.311  65.330  1.00  0.00    -0.095 S  
HETATM   11  O   UNL     1      -6.787   3.604  64.930  1.00  0.00    -0.046 OA 
BRANCH  10  12
HETATM   12  C   UNL     1      -8.156   3.024  67.116  1.00  0.00    -0.079 A  
HETATM   13  C   UNL     1      -6.911   2.741  69.178  1.00  0.00    -0.037 A  
HETATM   14  C   UNL     1      -9.298   2.387  69.158  1.00  0.00    -0.191 A  
HETATM   15  C   UNL     1      -8.087   2.408  69.849  1.00  0.00    -0.057 A  
HETATM   16  C   UNL     1      -9.335   2.696  67.796  1.00  0.00    -0.229 A  
HETATM   17  C   UNL     1      -6.944   3.045  67.816  1.00  0.00    -0.049 A  
ENDBRANCH  10  12
ENDBRANCH   9  10
ENDBRANCH   8   9
ENDBRANCH   3   8
BRANCH   6  18
HETATM   18  C   UNL     1     -10.370   6.396  70.150  1.00  0.00    -0.198 A  
HETATM   19  C   UNL     1     -10.404   4.976  72.158  1.00  0.00    -0.276 A  
HETATM   20  C   UNL     1     -11.522   5.641  72.633  1.00  0.00    -0.339 A  
HETATM   21  C   UNL     1     -11.539   7.002  70.623  1.00  0.00    -0.379 A  
HETATM   22  C   UNL     1      -9.833   5.357  70.938  1.00  0.00    -0.249 A  
HETATM   23  C   UNL     1     -12.094   6.648  71.862  1.00  0.00    -0.385 A  
ENDBRANCH   6  18
BRANCH   4  24
HETATM   24  C   UNL     1      -7.545   7.955  69.777  1.00  0.00    -0.090 A  
HETATM   25  C   UNL     1      -6.671   6.873  69.969  1.00  0.00    -0.052 A  
HETATM   26  C   UNL     1      -6.339   9.168  71.490  1.00  0.00    -0.060 A  
HETATM   27  C   UNL     1      -5.645   6.932  70.913  1.00  0.00    -0.027 A  
HETATM   28  C   UNL     1      -7.361   9.113  70.536  1.00  0.00    -0.104 A  
HETATM   29  C   UNL     1      -5.487   8.082  71.679  1.00  0.00    -0.034 A  
ENDBRANCH   4  24
TORSDOF 6
ENDMDL
MODEL      183
REMARK 921   NORMALIZED FREE ENERGY PREDICTED BY IDOCK:   -3.89 KCAL/MOL
REMARK 922        TOTAL FREE ENERGY PREDICTED BY IDOCK:   -6.49 KCAL/MOL
REMARK 923 INTER-LIGAND FREE ENERGY PREDICTED BY IDOCK:   -4.76 KCAL/MOL
REMARK 924 INTRA-LIGAND FREE ENERGY PREDICTED BY IDOCK:   -1.74 KCAL/MOL
REMARK 927      BINDING AFFINITY PREDICTED BY RF-SCORE:    0.00 PKD
ROOT
HETATM    1  O   UNL     1     -11.658   8.437  70.486  1.00  0.00    -0.238 OA 
HETATM    2  C   UNL     1     -11.070   7.452  70.058  1.00  0.00    -0.220 C  
HETATM    3  C   UNL     1     -10.786   7.229  68.598  1.00  0.00    -0.172 C  
HETATM    4  N   UNL     1     -10.411   6.428  70.778  1.00  0.00    -0.215 N  
HETATM    5  C   UNL     1     -10.278   5.824  68.560  1.00  0.00    -0.192 C  
HETATM    6  N   UNL     1      -9.816   5.512  69.850  1.00  0.00    -0.178 N  
HETATM    7  O   UNL     1     -10.281   5.164  67.529  1.00  0.00    -0.181 OA 
ENDROOT
BRANCH   3   8
HETATM    8  C   UNL     1      -9.665   8.175  68.139  1.00  0.00    -0.180 C  
BRANCH   8   9
HETATM    9  C   UNL     1     -10.004   8.989  66.881  1.00  0.00    -0.246 C  
BRANCH   9  10
HETATM   10  S   UNL     1      -9.920  10.776  67.277  1.00  0.00    -0.193 S  
HETATM   11  O   UNL     1     -10.297  10.917  68.725  1.00  0.00    -0.181 OA 
BRANCH  10  12
HETATM   12  C   UNL     1      -8.122  10.979  67.222  1.00  0.00    -0.126 A  
HETATM   13  C   UNL     1      -5.999  10.713  66.081  1.00  0.00    -0.121 A  
HETATM   14  C   UNL     1      -6.046  11.492  68.364  1.00  0.00    -0.045 A  
HETATM   15  C   UNL     1      -5.325  11.140  67.224  1.00  0.00    -0.049 A  
HETATM   16  C   UNL     1      -7.441  11.414  68.365  1.00  0.00    -0.111 A  
HETATM   17  C   UNL     1      -7.392  10.629  66.080  1.00  0.00    -0.132 A  
ENDBRANCH  10  12
ENDBRANCH   9  10
ENDBRANCH   8   9
ENDBRANCH   3   8
BRANCH   6  18
HETATM   18  C   UNL     1      -9.176   4.268  70.162  1.00  0.00    -0.135 A  
HETATM   19  C   UNL     1      -9.342   1.989  71.070  1.00  0.00    -0.200 A  
HETATM   20  C   UNL     1      -8.066   1.695  70.618  1.00  0.00    -0.052 A  
HETATM   21  C   UNL     1      -7.865   3.964  69.779  1.00  0.00    -0.051 A  
HETATM   22  C   UNL     1      -9.889   3.254  70.834  1.00  0.00    -0.085 A  
HETATM   23  C   UNL     1      -7.325   2.685  69.981  1.00  0.00    -0.043 A  
ENDBRANCH   6  18
BRANCH   4  24
HETATM   24  C   UNL     1      -9.918   6.798  72.060  1.00  0.00    -0.171 A  
HETATM   25  C   UNL     1      -8.821   7.672  72.122  1.00  0.00    -0.161 A  
HETATM   26  C   UNL     1      -9.813   6.576  74.468  1.00  0.00    -0.355 A  
HETATM   27  C   UNL     1      -8.221   7.993  73.341  1.00  0.00    -0.259 A  
HETATM   28  C   UNL     1     -10.421   6.263  73.248  1.00  0.00    -0.267 A  
HETATM   29  C   UNL     1      -8.717   7.434  74.514  1.00  0.00    -0.198 A  
ENDBRANCH   4  24
TORSDOF 6
ENDMDL
MODEL      184
REMARK 921   NORMALIZED FREE ENERGY PREDICTED BY IDOCK:   -3.83 KCAL/MOL
REMARK 922        TOTAL FREE ENERGY PREDICTED BY IDOCK:   -6.40 KCAL/MOL
REMARK 923 INTER-LIGAND FREE ENERGY PREDICTED BY IDOCK:   -5.16 KCAL/MOL
REMARK 924 INTRA-LIGAND FREE ENERGY PREDICTED BY IDOCK:   -1.25 KCAL/MOL
REMARK 927      BINDING AFFINITY PREDICTED BY RF-SCORE:    0.00 PKD
ROOT
HETATM    1  O   UNL     1      -5.905   7.051  69.536  1.00  0.00    -0.021 OA 
HETATM    2  C   UNL     1      -6.822   6.342  69.141  1.00  0.00    -0.062 C  
HETATM    3  C   UNL     1      -8.003   5.969  69.994  1.00  0.00    -0.109 C  
HETATM    4  N   UNL     1      -7.076   5.863  67.835  1.00  0.00    -0.069 N  
HETATM    5  C   UNL     1      -8.704   4.935  69.173  1.00  0.00    -0.087 C  
HETATM    6  N   UNL     1      -8.300   5.117  67.840  1.00  0.00    -0.098 N  
HETATM    7  O   UNL     1      -9.492   4.141  69.671  1.00  0.00    -0.155 OA 
ENDROOT
BRANCH   3   8
HETATM    8  C   UNL     1      -8.929   7.185  70.157  1.00  0.00    -0.145 C  
BRANCH   8   9
HETATM    9  C   UNL     1      -9.831   7.128  71.400  1.00  0.00    -0.176 C  
BRANCH   9  10
HETATM   10  S   UNL     1     -11.584   7.062  70.871  1.00  0.00    -0.344 S  
HETATM   11  O   UNL     1     -12.348   6.407  71.987  1.00  0.00    -0.337 OA 
BRANCH  10  12
HETATM   12  C   UNL     1     -11.968   8.827  70.992  1.00  0.00    -0.251 A  
HETATM   13  C   UNL     1     -13.256  10.650  71.938  1.00  0.00    -0.528 A  
HETATM   14  C   UNL     1     -11.726  11.077  70.121  1.00  0.00    -0.442 A  
HETATM   15  C   UNL     1     -12.667  11.539  71.040  1.00  0.00    -0.426 A  
HETATM   16  C   UNL     1     -11.374   9.725  70.097  1.00  0.00    -0.305 A  
HETATM   17  C   UNL     1     -12.911   9.298  71.913  1.00  0.00    -0.485 A  
ENDBRANCH  10  12
ENDBRANCH   9  10
ENDBRANCH   8   9
ENDBRANCH   3   8
BRANCH   6  18
HETATM   18  C   UNL     1      -8.844   4.353  66.756  1.00  0.00    -0.114 A  
HETATM   19  C   UNL     1     -10.467   4.172  64.918  1.00  0.00    -0.193 A  
HETATM   20  C   UNL     1      -9.847   3.023  64.457  1.00  0.00    -0.097 A  
HETATM   21  C   UNL     1      -8.281   3.153  66.307  1.00  0.00    -0.090 A  
HETATM   22  C   UNL     1      -9.964   4.830  66.046  1.00  0.00    -0.255 A  
HETATM   23  C   UNL     1      -8.759   2.509  65.157  1.00  0.00    -0.114 A  
ENDBRANCH   6  18
BRANCH   4  24
HETATM   24  C   UNL     1      -6.556   6.659  66.777  1.00  0.00    -0.048 A  
HETATM   25  C   UNL     1      -5.810   6.023  65.772  1.00  0.00    -0.024 A  
HETATM   26  C   UNL     1      -6.044   8.785  65.739  1.00  0.00    -0.052 A  
HETATM   27  C   UNL     1      -5.183   6.755  64.763  1.00  0.00    -0.027 A  
HETATM   28  C   UNL     1      -6.682   8.049  66.743  1.00  0.00    -0.064 A  
HETATM   29  C   UNL     1      -5.297   8.141  64.755  1.00  0.00    -0.036 A  
ENDBRANCH   4  24
TORSDOF 6
ENDMDL
MODEL      185
REMARK 921   NORMALIZED FREE ENERGY PREDICTED BY IDOCK:   -3.82 KCAL/MOL
REMARK 922        TOTAL FREE ENERGY PREDICTED BY IDOCK:   -6.39 KCAL/MOL
REMARK 923 INTER-LIGAND FREE ENERGY PREDICTED BY IDOCK:   -4.96 KCAL/MOL
REMARK 924 INTRA-LIGAND FREE ENERGY PREDICTED BY IDOCK:   -1.43 KCAL/MOL
REMARK 927      BINDING AFFINITY PREDICTED BY RF-SCORE:    0.00 PKD
ROOT
HETATM    1  O   UNL     1     -10.482   6.489  68.134  1.00  0.00    -0.174 OA 
HETATM    2  C   UNL     1      -9.536   6.560  68.908  1.00  0.00    -0.127 C  
HETATM    3  C   UNL     1      -8.158   6.060  68.576  1.00  0.00    -0.107 C  
HETATM    4  N   UNL     1      -9.455   7.226  70.153  1.00  0.00    -0.165 N  
HETATM    5  C   UNL     1      -7.437   6.151  69.882  1.00  0.00    -0.080 C  
HETATM    6  N   UNL     1      -8.127   7.083  70.675  1.00  0.00    -0.116 N  
HETATM    7  O   UNL     1      -6.419   5.508  70.104  1.00  0.00    -0.032 OA 
ENDROOT
BRANCH   3   8
HETATM    8  C   UNL     1      -7.489   7.013  67.572  1.00  0.00    -0.097 C  
BRANCH   8   9
HETATM    9  C   UNL     1      -8.006   8.459  67.636  1.00  0.00    -0.110 C  
BRANCH   9  10
HETATM   10  S   UNL     1      -8.117   9.137  65.937  1.00  0.00    -0.114 S  
HETATM   11  O   UNL     1      -9.085   8.267  65.187  1.00  0.00     0.015 OA 
BRANCH  10  12
HETATM   12  C   UNL     1      -9.021  10.658  66.314  1.00  0.00    -0.165 A  
HETATM   13  C   UNL     1     -10.958  12.091  66.033  1.00  0.00    -0.346 A  
HETATM   14  C   UNL     1      -9.051  12.881  67.283  1.00  0.00    -0.208 A  
HETATM   15  C   UNL     1     -10.330  13.094  66.770  1.00  0.00    -0.252 A  
HETATM   16  C   UNL     1      -8.398  11.666  67.059  1.00  0.00    -0.169 A  
HETATM   17  C   UNL     1     -10.305  10.878  65.802  1.00  0.00    -0.303 A  
ENDBRANCH  10  12
ENDBRANCH   9  10
ENDBRANCH   8   9
ENDBRANCH   3   8
BRANCH   6  18
HETATM   18  C   UNL     1      -7.665   7.489  71.970  1.00  0.00    -0.089 A  
HETATM   19  C   UNL     1      -7.720   7.190  74.410  1.00  0.00    -0.145 A  
HETATM   20  C   UNL     1      -6.655   8.063  74.560  1.00  0.00    -0.132 A  
HETATM   21  C   UNL     1      -6.637   8.418  72.158  1.00  0.00    -0.082 A  
HETATM   22  C   UNL     1      -8.208   6.902  73.131  1.00  0.00    -0.118 A  
HETATM   23  C   UNL     1      -6.120   8.684  73.435  1.00  0.00    -0.106 A  
ENDBRANCH   6  18
BRANCH   4  24
HETATM   24  C   UNL     1     -10.329   8.337  70.314  1.00  0.00    -0.209 A  
HETATM   25  C   UNL     1     -11.581   8.117  70.909  1.00  0.00    -0.283 A  
HETATM   26  C   UNL     1     -10.982  10.633  69.910  1.00  0.00    -0.337 A  
HETATM   27  C   UNL     1     -12.527   9.138  71.002  1.00  0.00    -0.238 A  
HETATM   28  C   UNL     1     -10.029   9.612  69.827  1.00  0.00    -0.252 A  
HETATM   29  C   UNL     1     -12.225  10.397  70.492  1.00  0.00    -0.412 A  
ENDBRANCH   4  24
TORSDOF 6
ENDMDL
MODEL      186
REMARK 921   NORMALIZED FREE ENERGY PREDICTED BY IDOCK:   -3.79 KCAL/MOL
REMARK 922        TOTAL FREE ENERGY PREDICTED BY IDOCK:   -6.35 KCAL/MOL
REMARK 923 INTER-LIGAND FREE ENERGY PREDICTED BY IDOCK:   -5.23 KCAL/MOL
REMARK 924 INTRA-LIGAND FREE ENERGY PREDICTED BY IDOCK:   -1.12 KCAL/MOL
REMARK 927      BINDING AFFINITY PREDICTED BY RF-SCORE:    0.00 PKD
ROOT
HETATM    1  O   UNL     1     -10.930   8.415  68.860  1.00  0.00    -0.034 OA 
HETATM    2  C   UNL     1     -10.224   7.429  68.687  1.00  0.00    -0.191 C  
HETATM    3  C   UNL     1      -9.445   7.182  67.425  1.00  0.00    -0.156 C  
HETATM    4  N   UNL     1      -9.854   6.428  69.615  1.00  0.00    -0.158 N  
HETATM    5  C   UNL     1      -8.949   5.784  67.598  1.00  0.00    -0.107 C  
HETATM    6  N   UNL     1      -8.966   5.502  68.974  1.00  0.00    -0.107 N  
HETATM    7  O   UNL     1      -8.587   5.104  66.646  1.00  0.00    -0.111 OA 
ENDROOT
BRANCH   3   8
HETATM    8  C   UNL     1      -8.240   8.134  67.366  1.00  0.00    -0.122 C  
BRANCH   8   9
HETATM    9  C   UNL     1      -8.496   9.514  67.991  1.00  0.00    -0.119 C  
BRANCH   9  10
HETATM   10  S   UNL     1      -7.668  10.798  66.978  1.00  0.00    -0.127 S  
HETATM   11  O   UNL     1      -6.621  10.096  66.161  1.00  0.00    -0.085 OA 
BRANCH  10  12
HETATM   12  C   UNL     1      -9.023  11.151  65.831  1.00  0.00    -0.199 A  
HETATM   13  C   UNL     1     -10.073  10.901  63.659  1.00  0.00    -0.414 A  
HETATM   14  C   UNL     1     -10.999  12.440  65.272  1.00  0.00    -0.335 A  
HETATM   15  C   UNL     1     -11.037  11.845  64.011  1.00  0.00    -0.459 A  
HETATM   16  C   UNL     1      -9.997  12.093  66.181  1.00  0.00    -0.253 A  
HETATM   17  C   UNL     1      -9.067  10.557  64.565  1.00  0.00    -0.251 A  
ENDBRANCH  10  12
ENDBRANCH   9  10
ENDBRANCH   8   9
ENDBRANCH   3   8
BRANCH   6  18
HETATM   18  C   UNL     1      -8.470   4.273  69.519  1.00  0.00    -0.071 A  
HETATM   19  C   UNL     1      -6.726   3.087  70.784  1.00  0.00    -0.032 A  
HETATM   20  C   UNL     1      -7.506   1.943  70.823  1.00  0.00    -0.033 A  
HETATM   21  C   UNL     1      -9.204   3.082  69.516  1.00  0.00    -0.217 A  
HETATM   22  C   UNL     1      -7.209   4.236  70.148  1.00  0.00    -0.045 A  
HETATM   23  C   UNL     1      -8.741   1.938  70.182  1.00  0.00    -0.108 A  
ENDBRANCH   6  18
BRANCH   4  24
HETATM   24  C   UNL     1      -9.844   6.828  70.980  1.00  0.00    -0.182 A  
HETATM   25  C   UNL     1      -8.737   7.554  71.450  1.00  0.00    -0.129 A  
HETATM   26  C   UNL     1     -10.710   6.782  73.240  1.00  0.00    -0.330 A  
HETATM   27  C   UNL     1      -8.613   7.887  72.800  1.00  0.00    -0.225 A  
HETATM   28  C   UNL     1     -10.840   6.457  71.885  1.00  0.00    -0.279 A  
HETATM   29  C   UNL     1      -9.601   7.491  73.694  1.00  0.00    -0.347 A  
ENDBRANCH   4  24
TORSDOF 6
ENDMDL
MODEL      187
REMARK 921   NORMALIZED FREE ENERGY PREDICTED BY IDOCK:   -3.73 KCAL/MOL
REMARK 922        TOTAL FREE ENERGY PREDICTED BY IDOCK:   -6.27 KCAL/MOL
REMARK 923 INTER-LIGAND FREE ENERGY PREDICTED BY IDOCK:   -4.29 KCAL/MOL
REMARK 924 INTRA-LIGAND FREE ENERGY PREDICTED BY IDOCK:   -1.99 KCAL/MOL
REMARK 927      BINDING AFFINITY PREDICTED BY RF-SCORE:    0.00 PKD
ROOT
HETATM    1  O   UNL     1      -7.300   9.045  71.489  1.00  0.00    -0.245 OA 
HETATM    2  C   UNL     1      -7.176   8.148  70.666  1.00  0.00    -0.052 C  
HETATM    3  C   UNL     1      -6.741   6.753  71.023  1.00  0.00    -0.054 C  
HETATM    4  N   UNL     1      -7.539   8.139  69.299  1.00  0.00    -0.093 N  
HETATM    5  C   UNL     1      -6.519   6.113  69.692  1.00  0.00    -0.039 C  
HETATM    6  N   UNL     1      -7.258   6.846  68.748  1.00  0.00    -0.089 N  
HETATM    7  O   UNL     1      -5.825   5.112  69.564  1.00  0.00    -0.018 OA 
ENDROOT
BRANCH   3   8
HETATM    8  C   UNL     1      -7.885   6.022  71.742  1.00  0.00    -0.102 C  
BRANCH   8   9
HETATM    9  C   UNL     1      -7.507   5.465  73.123  1.00  0.00    -0.092 C  
BRANCH   9  10
HETATM   10  S   UNL     1      -8.355   6.442  74.422  1.00  0.00    -0.134 S  
HETATM   11  O   UNL     1      -7.686   7.787  74.456  1.00  0.00    -0.158 OA 
BRANCH  10  12
HETATM   12  C   UNL     1      -9.931   6.706  73.573  1.00  0.00    -0.229 A  
HETATM   13  C   UNL     1     -11.965   5.842  72.573  1.00  0.00    -0.173 A  
HETATM   14  C   UNL     1     -11.431   8.188  72.375  1.00  0.00    -0.462 A  
HETATM   15  C   UNL     1     -12.283   7.117  72.106  1.00  0.00    -0.256 A  
HETATM   16  C   UNL     1     -10.259   7.985  73.108  1.00  0.00    -0.287 A  
HETATM   17  C   UNL     1     -10.791   5.636  73.301  1.00  0.00    -0.321 A  
ENDBRANCH  10  12
ENDBRANCH   9  10
ENDBRANCH   8   9
ENDBRANCH   3   8
BRANCH   6  18
HETATM   18  C   UNL     1      -7.350   6.461  67.370  1.00  0.00    -0.087 A  
HETATM   19  C   UNL     1      -6.594   6.760  65.050  1.00  0.00    -0.043 A  
HETATM   20  C   UNL     1      -7.293   5.630  64.656  1.00  0.00    -0.068 A  
HETATM   21  C   UNL     1      -8.101   5.366  66.930  1.00  0.00    -0.105 A  
HETATM   22  C   UNL     1      -6.617   7.160  66.390  1.00  0.00    -0.052 A  
HETATM   23  C   UNL     1      -8.053   4.939  65.594  1.00  0.00    -0.112 A  
ENDBRANCH   6  18
BRANCH   4  24
HETATM   24  C   UNL     1      -8.600   9.017  68.939  1.00  0.00    -0.131 A  
HETATM   25  C   UNL     1      -8.274  10.232  68.317  1.00  0.00    -0.115 A  
HETATM   26  C   UNL     1     -10.916   9.719  68.984  1.00  0.00    -0.193 A  
HETATM   27  C   UNL     1      -9.254  11.184  68.033  1.00  0.00    -0.159 A  
HETATM   28  C   UNL     1      -9.936   8.760  69.258  1.00  0.00    -0.194 A  
HETATM   29  C   UNL     1     -10.577  10.925  68.377  1.00  0.00    -0.225 A  
ENDBRANCH   4  24
TORSDOF 6
ENDMDL
MODEL      188
REMARK 921   NORMALIZED FREE ENERGY PREDICTED BY IDOCK:   -3.73 KCAL/MOL
REMARK 922        TOTAL FREE ENERGY PREDICTED BY IDOCK:   -6.27 KCAL/MOL
REMARK 923 INTER-LIGAND FREE ENERGY PREDICTED BY IDOCK:   -5.42 KCAL/MOL
REMARK 924 INTRA-LIGAND FREE ENERGY PREDICTED BY IDOCK:   -0.85 KCAL/MOL
REMARK 927      BINDING AFFINITY PREDICTED BY RF-SCORE:    0.00 PKD
ROOT
HETATM    1  O   UNL     1      -6.314   8.384  69.143  1.00  0.00    -0.041 OA 
HETATM    2  C   UNL     1      -7.494   8.684  69.016  1.00  0.00    -0.089 C  
HETATM    3  C   UNL     1      -8.190   8.751  67.685  1.00  0.00    -0.110 C  
HETATM    4  N   UNL     1      -8.476   8.869  70.017  1.00  0.00    -0.129 N  
HETATM    5  C   UNL     1      -9.509   9.369  68.020  1.00  0.00    -0.133 C  
HETATM    6  N   UNL     1      -9.734   9.155  69.391  1.00  0.00    -0.166 N  
HETATM    7  O   UNL     1     -10.202   9.913  67.170  1.00  0.00    -0.202 OA 
ENDROOT
BRANCH   3   8
HETATM    8  C   UNL     1      -8.429   7.330  67.153  1.00  0.00    -0.118 C  
BRANCH   8   9
HETATM    9  C   UNL     1      -8.910   6.331  68.217  1.00  0.00    -0.114 C  
BRANCH   9  10
HETATM   10  S   UNL     1     -10.578   5.722  67.764  1.00  0.00    -0.214 S  
HETATM   11  O   UNL     1     -11.260   6.837  67.023  1.00  0.00    -0.393 OA 
BRANCH  10  12
HETATM   12  C   UNL     1     -10.091   4.524  66.497  1.00  0.00    -0.228 A  
HETATM   13  C   UNL     1      -8.610   2.779  65.695  1.00  0.00    -0.107 A  
HETATM   14  C   UNL     1     -10.310   3.677  64.236  1.00  0.00    -0.231 A  
HETATM   15  C   UNL     1      -9.249   2.800  64.456  1.00  0.00    -0.133 A  
HETATM   16  C   UNL     1     -10.733   4.536  65.253  1.00  0.00    -0.145 A  
HETATM   17  C   UNL     1      -9.028   3.641  66.712  1.00  0.00    -0.153 A  
ENDBRANCH  10  12
ENDBRANCH   9  10
ENDBRANCH   8   9
ENDBRANCH   3   8
BRANCH   6  18
HETATM   18  C   UNL     1     -10.950   9.539  70.044  1.00  0.00    -0.251 A  
HETATM   19  C   UNL     1     -12.912   8.895  71.379  1.00  0.00    -0.323 A  
HETATM   20  C   UNL     1     -13.254  10.226  71.554  1.00  0.00    -0.484 A  
HETATM   21  C   UNL     1     -11.359  10.870  70.180  1.00  0.00    -0.367 A  
HETATM   22  C   UNL     1     -11.771   8.561  70.642  1.00  0.00    -0.161 A  
HETATM   23  C   UNL     1     -12.482  11.213  70.947  1.00  0.00    -0.509 A  
ENDBRANCH   6  18
BRANCH   4  24
HETATM   24  C   UNL     1      -8.259   8.158  71.229  1.00  0.00    -0.116 A  
HETATM   25  C   UNL     1      -8.552   6.785  71.256  1.00  0.00    -0.125 A  
HETATM   26  C   UNL     1      -7.774   8.047  73.599  1.00  0.00    -0.223 A  
HETATM   27  C   UNL     1      -8.463   6.049  72.438  1.00  0.00    -0.116 A  
HETATM   28  C   UNL     1      -7.853   8.782  72.411  1.00  0.00     0.068 A  
HETATM   29  C   UNL     1      -8.080   6.689  73.612  1.00  0.00    -0.110 A  
ENDBRANCH   4  24
TORSDOF 6
ENDMDL
MODEL      189
REMARK 921   NORMALIZED FREE ENERGY PREDICTED BY IDOCK:   -3.70 KCAL/MOL
REMARK 922        TOTAL FREE ENERGY PREDICTED BY IDOCK:   -6.23 KCAL/MOL
REMARK 923 INTER-LIGAND FREE ENERGY PREDICTED BY IDOCK:   -4.89 KCAL/MOL
REMARK 924 INTRA-LIGAND FREE ENERGY PREDICTED BY IDOCK:   -1.35 KCAL/MOL
REMARK 927      BINDING AFFINITY PREDICTED BY RF-SCORE:    0.00 PKD
ROOT
HETATM    1  O   UNL     1      -9.203   8.203  65.357  1.00  0.00     0.009 OA 
HETATM    2  C   UNL     1      -9.451   7.742  66.463  1.00  0.00    -0.201 C  
HETATM    3  C   UNL     1      -8.950   6.403  66.931  1.00  0.00    -0.126 C  
HETATM    4  N   UNL     1     -10.084   8.364  67.564  1.00  0.00    -0.199 N  
HETATM    5  C   UNL     1      -9.691   6.190  68.211  1.00  0.00    -0.121 C  
HETATM    6  N   UNL     1     -10.104   7.452  68.670  1.00  0.00    -0.174 N  
HETATM    7  O   UNL     1      -9.828   5.076  68.700  1.00  0.00    -0.151 OA 
ENDROOT
BRANCH   3   8
HETATM    8  C   UNL     1      -7.447   6.491  67.236  1.00  0.00    -0.088 C  
BRANCH   8   9
HETATM    9  C   UNL     1      -6.549   5.845  66.170  1.00  0.00    -0.047 C  
BRANCH   9  10
HETATM   10  S   UNL     1      -7.201   4.182  65.758  1.00  0.00    -0.073 S  
HETATM   11  O   UNL     1      -6.261   3.587  64.748  1.00  0.00    -0.022 OA 
BRANCH  10  12
HETATM   12  C   UNL     1      -6.824   3.351  67.321  1.00  0.00    -0.046 A  
HETATM   13  C   UNL     1      -7.537   2.129  69.291  1.00  0.00    -0.043 A  
HETATM   14  C   UNL     1      -5.249   2.874  69.102  1.00  0.00    -0.012 A  
HETATM   15  C   UNL     1      -6.250   2.222  69.821  1.00  0.00    -0.025 A  
HETATM   16  C   UNL     1      -5.533   3.436  67.854  1.00  0.00    -0.017 A  
HETATM   17  C   UNL     1      -7.824   2.694  68.047  1.00  0.00    -0.059 A  
ENDBRANCH  10  12
ENDBRANCH   9  10
ENDBRANCH   8   9
ENDBRANCH   3   8
BRANCH   6  18
HETATM   18  C   UNL     1     -10.770   7.639  69.925  1.00  0.00    -0.249 A  
HETATM   19  C   UNL     1     -11.160   9.037  71.910  1.00  0.00    -0.433 A  
HETATM   20  C   UNL     1     -12.198   8.212  72.311  1.00  0.00    -0.397 A  
HETATM   21  C   UNL     1     -11.777   6.787  70.391  1.00  0.00    -0.418 A  
HETATM   22  C   UNL     1     -10.465   8.756  70.729  1.00  0.00    -0.270 A  
HETATM   23  C   UNL     1     -12.501   7.083  71.556  1.00  0.00    -0.426 A  
ENDBRANCH   6  18
BRANCH   4  24
HETATM   24  C   UNL     1      -9.969   9.781  67.618  1.00  0.00    -0.174 A  
HETATM   25  C   UNL     1      -8.751  10.333  68.044  1.00  0.00    -0.122 A  
HETATM   26  C   UNL     1     -10.895  12.017  67.537  1.00  0.00    -0.284 A  
HETATM   27  C   UNL     1      -8.603  11.709  68.221  1.00  0.00    -0.162 A  
HETATM   28  C   UNL     1     -11.039  10.638  67.350  1.00  0.00    -0.341 A  
HETATM   29  C   UNL     1      -9.683  12.549  67.973  1.00  0.00    -0.215 A  
ENDBRANCH   4  24
TORSDOF 6
ENDMDL
MODEL      190
REMARK 921   NORMALIZED FREE ENERGY PREDICTED BY IDOCK:   -3.63 KCAL/MOL
REMARK 922        TOTAL FREE ENERGY PREDICTED BY IDOCK:   -6.13 KCAL/MOL
REMARK 923 INTER-LIGAND FREE ENERGY PREDICTED BY IDOCK:   -5.24 KCAL/MOL
REMARK 924 INTRA-LIGAND FREE ENERGY PREDICTED BY IDOCK:   -0.90 KCAL/MOL
REMARK 927      BINDING AFFINITY PREDICTED BY RF-SCORE:    0.00 PKD
ROOT
HETATM    1  O   UNL     1      -8.012  10.515  69.913  1.00  0.00    -0.092 OA 
HETATM    2  C   UNL     1      -7.982  10.066  68.774  1.00  0.00    -0.096 C  
HETATM    3  C   UNL     1      -7.626   8.640  68.458  1.00  0.00    -0.095 C  
HETATM    4  N   UNL     1      -8.400  10.674  67.568  1.00  0.00    -0.115 N  
HETATM    5  C   UNL     1      -7.503   8.640  66.969  1.00  0.00    -0.084 C  
HETATM    6  N   UNL     1      -8.228   9.744  66.491  1.00  0.00    -0.119 N  
HETATM    7  O   UNL     1      -6.882   7.769  66.373  1.00  0.00    -0.060 OA 
ENDROOT
BRANCH   3   8
HETATM    8  C   UNL     1      -8.787   7.715  68.860  1.00  0.00    -0.135 C  
BRANCH   8   9
HETATM    9  C   UNL     1      -9.336   6.858  67.709  1.00  0.00    -0.120 C  
BRANCH   9  10
HETATM   10  S   UNL     1      -8.696   5.148  67.871  1.00  0.00    -0.102 S  
HETATM   11  O   UNL     1      -9.672   4.401  68.735  1.00  0.00    -0.163 OA 
BRANCH  10  12
HETATM   12  C   UNL     1      -9.012   4.582  66.181  1.00  0.00    -0.120 A  
HETATM   13  C   UNL     1      -8.210   3.886  64.000  1.00  0.00    -0.091 A  
HETATM   14  C   UNL     1     -10.574   4.213  64.364  1.00  0.00    -0.157 A  
HETATM   15  C   UNL     1      -9.518   3.875  63.517  1.00  0.00    -0.144 A  
HETATM   16  C   UNL     1     -10.324   4.564  65.693  1.00  0.00    -0.274 A  
HETATM   17  C   UNL     1      -7.957   4.241  65.326  1.00  0.00    -0.100 A  
ENDBRANCH  10  12
ENDBRANCH   9  10
ENDBRANCH   8   9
ENDBRANCH   3   8
BRANCH   6  18
HETATM   18  C   UNL     1      -8.402  10.007  65.093  1.00  0.00    -0.153 A  
HETATM   19  C   UNL     1      -9.868  10.737  63.258  1.00  0.00    -0.394 A  
HETATM   20  C   UNL     1      -8.793  10.768  62.385  1.00  0.00    -0.341 A  
HETATM   21  C   UNL     1      -7.349   9.982  64.172  1.00  0.00    -0.132 A  
HETATM   22  C   UNL     1      -9.670  10.371  64.594  1.00  0.00    -0.392 A  
HETATM   23  C   UNL     1      -7.536  10.382  62.840  1.00  0.00    -0.111 A  
ENDBRANCH   6  18
BRANCH   4  24
HETATM   24  C   UNL     1      -9.414  11.664  67.698  1.00  0.00    -0.177 A  
HETATM   25  C   UNL     1     -10.723  11.241  67.980  1.00  0.00    -0.245 A  
HETATM   26  C   UNL     1     -10.244  13.929  67.498  1.00  0.00    -0.245 A  
HETATM   27  C   UNL     1     -11.783  12.147  68.017  1.00  0.00    -0.409 A  
HETATM   28  C   UNL     1      -9.179  13.022  67.472  1.00  0.00    -0.195 A  
HETATM   29  C   UNL     1     -11.539  13.493  67.767  1.00  0.00    -0.374 A  
ENDBRANCH   4  24
TORSDOF 6
ENDMDL
MODEL      191
REMARK 921   NORMALIZED FREE ENERGY PREDICTED BY IDOCK:   -3.57 KCAL/MOL
REMARK 922        TOTAL FREE ENERGY PREDICTED BY IDOCK:   -6.06 KCAL/MOL
REMARK 923 INTER-LIGAND FREE ENERGY PREDICTED BY IDOCK:   -5.59 KCAL/MOL
REMARK 924 INTRA-LIGAND FREE ENERGY PREDICTED BY IDOCK:   -0.47 KCAL/MOL
REMARK 927      BINDING AFFINITY PREDICTED BY RF-SCORE:    0.00 PKD
ROOT
HETATM    1  O   UNL     1      -8.102   5.501  66.508  1.00  0.00    -0.104 OA 
HETATM    2  C   UNL     1      -8.601   6.619  66.506  1.00  0.00    -0.124 C  
HETATM    3  C   UNL     1      -9.089   7.307  67.751  1.00  0.00    -0.124 C  
HETATM    4  N   UNL     1      -8.691   7.551  65.446  1.00  0.00    -0.051 N  
HETATM    5  C   UNL     1      -9.804   8.507  67.220  1.00  0.00    -0.199 C  
HETATM    6  N   UNL     1      -9.307   8.751  65.929  1.00  0.00    -0.228 N  
HETATM    7  O   UNL     1     -10.634   9.111  67.887  1.00  0.00    -0.240 OA 
ENDROOT
BRANCH   3   8
HETATM    8  C   UNL     1      -7.889   7.775  68.589  1.00  0.00    -0.120 C  
BRANCH   8   9
HETATM    9  C   UNL     1      -8.244   8.794  69.683  1.00  0.00    -0.113 C  
BRANCH   9  10
HETATM   10  S   UNL     1      -7.878   8.068  71.326  1.00  0.00    -0.098 S  
HETATM   11  O   UNL     1      -7.700   9.218  72.277  1.00  0.00    -0.127 OA 
BRANCH  10  12
HETATM   12  C   UNL     1      -9.515   7.387  71.689  1.00  0.00    -0.150 A  
HETATM   13  C   UNL     1     -11.052   5.513  71.780  1.00  0.00    -0.214 A  
HETATM   14  C   UNL     1     -11.856   7.749  72.205  1.00  0.00    -0.370 A  
HETATM   15  C   UNL     1     -12.099   6.380  72.090  1.00  0.00    -0.316 A  
HETATM   16  C   UNL     1     -10.568   8.252  72.007  1.00  0.00    -0.365 A  
HETATM   17  C   UNL     1      -9.765   6.014  71.577  1.00  0.00    -0.186 A  
ENDBRANCH  10  12
ENDBRANCH   9  10
ENDBRANCH   8   9
ENDBRANCH   3   8
BRANCH   6  18
HETATM   18  C   UNL     1      -9.706   9.885  65.149  1.00  0.00    -0.306 A  
HETATM   19  C   UNL     1     -10.772  12.099  65.051  1.00  0.00    -0.338 A  
HETATM   20  C   UNL     1     -10.343  12.269  63.745  1.00  0.00    -0.464 A  
HETATM   21  C   UNL     1      -9.345  10.057  63.808  1.00  0.00    -0.307 A  
HETATM   22  C   UNL     1     -10.448  10.927  65.742  1.00  0.00    -0.275 A  
HETATM   23  C   UNL     1      -9.637  11.245  63.121  1.00  0.00    -0.391 A  
ENDBRANCH   6  18
BRANCH   4  24
HETATM   24  C   UNL     1      -7.687   7.440  64.444  1.00  0.00    -0.120 A  
HETATM   25  C   UNL     1      -7.968   6.671  63.304  1.00  0.00    -0.076 A  
HETATM   26  C   UNL     1      -5.430   7.741  63.621  1.00  0.00    -0.048 A  
HETATM   27  C   UNL     1      -6.995   6.433  62.333  1.00  0.00    -0.039 A  
HETATM   28  C   UNL     1      -6.410   7.988  64.588  1.00  0.00    -0.052 A  
HETATM   29  C   UNL     1      -5.721   6.966  62.501  1.00  0.00    -0.040 A  
ENDBRANCH   4  24
TORSDOF 6
ENDMDL
MODEL      192
REMARK 921   NORMALIZED FREE ENERGY PREDICTED BY IDOCK:   -3.55 KCAL/MOL
REMARK 922        TOTAL FREE ENERGY PREDICTED BY IDOCK:   -6.02 KCAL/MOL
REMARK 923 INTER-LIGAND FREE ENERGY PREDICTED BY IDOCK:   -5.62 KCAL/MOL
REMARK 924 INTRA-LIGAND FREE ENERGY PREDICTED BY IDOCK:   -0.40 KCAL/MOL
REMARK 927      BINDING AFFINITY PREDICTED BY RF-SCORE:    0.00 PKD
ROOT
HETATM    1  O   UNL     1      -8.130  11.557  65.141  1.00  0.00     0.470 OA 
HETATM    2  C   UNL     1      -8.478  11.799  66.290  1.00  0.00    -0.022 C  
HETATM    3  C   UNL     1      -7.556  12.379  67.327  1.00  0.00    -0.141 C  
HETATM    4  N   UNL     1      -9.774  11.755  66.855  1.00  0.00    -0.195 N  
HETATM    5  C   UNL     1      -8.349  12.271  68.588  1.00  0.00    -0.002 C  
HETATM    6  N   UNL     1      -9.702  12.176  68.223  1.00  0.00    -0.214 N  
HETATM    7  O   UNL     1      -7.817  12.302  69.691  1.00  0.00     0.702 OA 
ENDROOT
BRANCH   3   8
HETATM    8  C   UNL     1      -7.305  13.865  67.024  1.00  0.00     0.376 C  
BRANCH   8   9
HETATM    9  C   UNL     1      -8.491  14.784  67.355  1.00  0.00    -0.201 C  
BRANCH   9  10
HETATM   10  S   UNL     1      -8.722  15.987  65.992  1.00  0.00    -0.067 S  
HETATM   11  O   UNL     1      -9.869  15.484  65.162  1.00  0.00    -0.297 OA 
BRANCH  10  12
HETATM   12  C   UNL     1      -9.390  17.364  66.959  1.00  0.00    -0.260 A  
HETATM   13  C   UNL     1     -10.519  19.507  67.086  1.00  0.00    -0.592 A  
HETATM   14  C   UNL     1      -9.576  18.525  69.079  1.00  0.00    -0.231 A  
HETATM   15  C   UNL     1     -10.263  19.566  68.455  1.00  0.00    -0.536 A  
HETATM   16  C   UNL     1      -9.142  17.425  68.335  1.00  0.00    -0.274 A  
HETATM   17  C   UNL     1     -10.081  18.411  66.339  1.00  0.00    -0.420 A  
ENDBRANCH  10  12
ENDBRANCH   9  10
ENDBRANCH   8   9
ENDBRANCH   3   8
BRANCH   6  18
HETATM   18  C   UNL     1     -10.763  12.146  69.187  1.00  0.00    -0.061 A  
HETATM   19  C   UNL     1     -12.501  13.354  70.437  1.00  0.00    -0.322 A  
HETATM   20  C   UNL     1     -13.018  12.160  70.912  1.00  0.00    -0.074 A  
HETATM   21  C   UNL     1     -11.264  10.961  69.737  1.00  0.00    -0.351 A  
HETATM   22  C   UNL     1     -11.396  13.343  69.580  1.00  0.00    -0.248 A  
HETATM   23  C   UNL     1     -12.394  10.964  70.569  1.00  0.00    -0.463 A  
ENDBRANCH   6  18
BRANCH   4  24
HETATM   24  C   UNL     1     -10.847  11.962  65.945  1.00  0.00    -0.297 A  
HETATM   25  C   UNL     1     -10.774  11.353  64.682  1.00  0.00    -0.378 A  
HETATM   26  C   UNL     1     -12.883  13.065  65.237  1.00  0.00    -0.284 A  
HETATM   27  C   UNL     1     -11.739  11.597  63.704  1.00  0.00    -0.406 A  
HETATM   28  C   UNL     1     -11.922  12.811  66.221  1.00  0.00    -0.460 A  
HETATM   29  C   UNL     1     -12.791  12.463  63.985  1.00  0.00    -0.371 A  
ENDBRANCH   4  24
TORSDOF 6
ENDMDL
MODEL      193
REMARK 921   NORMALIZED FREE ENERGY PREDICTED BY IDOCK:   -3.50 KCAL/MOL
REMARK 922        TOTAL FREE ENERGY PREDICTED BY IDOCK:   -5.96 KCAL/MOL
REMARK 923 INTER-LIGAND FREE ENERGY PREDICTED BY IDOCK:   -4.88 KCAL/MOL
REMARK 924 INTRA-LIGAND FREE ENERGY PREDICTED BY IDOCK:   -1.08 KCAL/MOL
REMARK 927      BINDING AFFINITY PREDICTED BY RF-SCORE:    0.00 PKD
ROOT
HETATM    1  O   UNL     1     -11.016   7.963  69.566  1.00  0.00    -0.191 OA 
HETATM    2  C   UNL     1     -10.240   7.489  68.746  1.00  0.00    -0.197 C  
HETATM    3  C   UNL     1      -9.716   8.259  67.565  1.00  0.00    -0.212 C  
HETATM    4  N   UNL     1      -9.558   6.251  68.780  1.00  0.00    -0.121 N  
HETATM    5  C   UNL     1      -9.018   7.213  66.759  1.00  0.00    -0.137 C  
HETATM    6  N   UNL     1      -8.711   6.152  67.628  1.00  0.00    -0.106 N  
HETATM    7  O   UNL     1      -8.778   7.368  65.568  1.00  0.00    -0.122 OA 
ENDROOT
BRANCH   3   8
HETATM    8  C   UNL     1      -8.683   9.293  68.038  1.00  0.00    -0.125 C  
BRANCH   8   9
HETATM    9  C   UNL     1      -8.318  10.348  66.981  1.00  0.00    -0.127 C  
BRANCH   9  10
HETATM   10  S   UNL     1      -8.220  11.995  67.780  1.00  0.00    -0.163 S  
HETATM   11  O   UNL     1      -7.103  12.737  67.102  1.00  0.00    -0.116 OA 
BRANCH  10  12
HETATM   12  C   UNL     1      -9.747  12.706  67.118  1.00  0.00    -0.211 A  
HETATM   13  C   UNL     1     -11.027  13.623  65.273  1.00  0.00    -0.314 A  
HETATM   14  C   UNL     1     -11.935  13.674  67.509  1.00  0.00    -0.393 A  
HETATM   15  C   UNL     1     -12.055  13.964  66.150  1.00  0.00    -0.478 A  
HETATM   16  C   UNL     1     -10.786  13.045  67.993  1.00  0.00    -0.248 A  
HETATM   17  C   UNL     1      -9.875  12.998  65.756  1.00  0.00    -0.217 A  
ENDBRANCH  10  12
ENDBRANCH   9  10
ENDBRANCH   8   9
ENDBRANCH   3   8
BRANCH   6  18
HETATM   18  C   UNL     1      -7.957   5.006  67.213  1.00  0.00    -0.099 A  
HETATM   19  C   UNL     1      -7.553   3.249  65.541  1.00  0.00    -0.077 A  
HETATM   20  C   UNL     1      -6.390   2.869  66.192  1.00  0.00    -0.028 A  
HETATM   21  C   UNL     1      -6.816   4.556  67.886  1.00  0.00    -0.055 A  
HETATM   22  C   UNL     1      -8.317   4.308  66.042  1.00  0.00    -0.109 A  
HETATM   23  C   UNL     1      -6.027   3.517  67.368  1.00  0.00    -0.024 A  
ENDBRANCH   6  18
BRANCH   4  24
HETATM   24  C   UNL     1      -9.315   5.719  70.077  1.00  0.00    -0.146 A  
HETATM   25  C   UNL     1     -10.191   4.736  70.566  1.00  0.00    -0.252 A  
HETATM   26  C   UNL     1      -8.190   5.711  72.220  1.00  0.00    -0.108 A  
HETATM   27  C   UNL     1     -10.074   4.248  71.868  1.00  0.00    -0.237 A  
HETATM   28  C   UNL     1      -8.300   6.193  70.911  1.00  0.00    -0.127 A  
HETATM   29  C   UNL     1      -9.073   4.746  72.696  1.00  0.00    -0.139 A  
ENDBRANCH   4  24
TORSDOF 6
ENDMDL
MODEL      194
REMARK 921   NORMALIZED FREE ENERGY PREDICTED BY IDOCK:   -3.47 KCAL/MOL
REMARK 922        TOTAL FREE ENERGY PREDICTED BY IDOCK:   -5.92 KCAL/MOL
REMARK 923 INTER-LIGAND FREE ENERGY PREDICTED BY IDOCK:   -5.20 KCAL/MOL
REMARK 924 INTRA-LIGAND FREE ENERGY PREDICTED BY IDOCK:   -0.71 KCAL/MOL
REMARK 927      BINDING AFFINITY PREDICTED BY RF-SCORE:    0.00 PKD
ROOT
HETATM    1  O   UNL     1      -8.889  14.489  65.731  1.00  0.00     0.320 OA 
HETATM    2  C   UNL     1      -8.884  13.513  66.470  1.00  0.00     0.027 C  
HETATM    3  C   UNL     1      -8.313  13.534  67.861  1.00  0.00    -0.175 C  
HETATM    4  N   UNL     1      -9.508  12.257  66.289  1.00  0.00    -0.237 N  
HETATM    5  C   UNL     1      -8.325  12.093  68.257  1.00  0.00    -0.172 C  
HETATM    6  N   UNL     1      -9.273  11.446  67.447  1.00  0.00    -0.162 N  
HETATM    7  O   UNL     1      -7.618  11.666  69.160  1.00  0.00    -0.068 OA 
ENDROOT
BRANCH   3   8
HETATM    8  C   UNL     1      -9.252  14.314  68.794  1.00  0.00    -0.112 C  
BRANCH   8   9
HETATM    9  C   UNL     1      -8.955  15.819  68.873  1.00  0.00    -0.226 C  
BRANCH   9  10
HETATM   10  S   UNL     1      -7.240  16.066  69.471  1.00  0.00    -0.084 S  
HETATM   11  O   UNL     1      -6.368  15.128  68.685  1.00  0.00    -0.085 OA 
BRANCH  10  12
HETATM   12  C   UNL     1      -6.944  17.708  68.768  1.00  0.00    -0.245 A  
HETATM   13  C   UNL     1      -5.785  19.838  68.788  1.00  0.00    -0.252 A  
HETATM   14  C   UNL     1      -7.615  19.479  67.255  1.00  0.00    -0.275 A  
HETATM   15  C   UNL     1      -6.621  20.308  67.776  1.00  0.00    -0.298 A  
HETATM   16  C   UNL     1      -7.776  18.182  67.748  1.00  0.00    -0.227 A  
HETATM   17  C   UNL     1      -5.948  18.544  69.285  1.00  0.00    -0.245 A  
ENDBRANCH  10  12
ENDBRANCH   9  10
ENDBRANCH   8   9
ENDBRANCH   3   8
BRANCH   6  18
HETATM   18  C   UNL     1      -9.615  10.064  67.611  1.00  0.00    -0.148 A  
HETATM   19  C   UNL     1     -10.843   8.336  68.859  1.00  0.00     0.002 A  
HETATM   20  C   UNL     1     -10.532   7.392  67.895  1.00  0.00    -0.265 A  
HETATM   21  C   UNL     1      -9.261   9.072  66.690  1.00  0.00    -0.211 A  
HETATM   22  C   UNL     1     -10.397   9.654  68.711  1.00  0.00    -0.233 A  
HETATM   23  C   UNL     1      -9.734   7.758  66.815  1.00  0.00    -0.296 A  
ENDBRANCH   6  18
BRANCH   4  24
HETATM   24  C   UNL     1     -10.664  12.260  65.459  1.00  0.00    -0.279 A  
HETATM   25  C   UNL     1     -11.817  12.909  65.929  1.00  0.00    -0.476 A  
HETATM   26  C   UNL     1     -11.929  11.516  63.534  1.00  0.00    -0.191 A  
HETATM   27  C   UNL     1     -13.015  12.861  65.216  1.00  0.00    -0.007 A  
HETATM   28  C   UNL     1     -10.725  11.574  64.244  1.00  0.00    -0.416 A  
HETATM   29  C   UNL     1     -13.068  12.154  64.018  1.00  0.00    -0.167 A  
ENDBRANCH   4  24
TORSDOF 6
ENDMDL
MODEL      195
REMARK 921   NORMALIZED FREE ENERGY PREDICTED BY IDOCK:   -3.45 KCAL/MOL
REMARK 922        TOTAL FREE ENERGY PREDICTED BY IDOCK:   -5.89 KCAL/MOL
REMARK 923 INTER-LIGAND FREE ENERGY PREDICTED BY IDOCK:   -6.38 KCAL/MOL
REMARK 924 INTRA-LIGAND FREE ENERGY PREDICTED BY IDOCK:    0.49 KCAL/MOL
REMARK 927      BINDING AFFINITY PREDICTED BY RF-SCORE:    0.00 PKD
ROOT
HETATM    1  O   UNL     1      -9.299   9.976  70.172  1.00  0.00    -0.195 OA 
HETATM    2  C   UNL     1      -9.604  10.066  68.989  1.00  0.00    -0.196 C  
HETATM    3  C   UNL     1      -9.593   8.898  68.043  1.00  0.00    -0.167 C  
HETATM    4  N   UNL     1     -10.159  11.167  68.296  1.00  0.00    -0.178 N  
HETATM    5  C   UNL     1      -9.803   9.537  66.709  1.00  0.00    -0.216 C  
HETATM    6  N   UNL     1     -10.402  10.788  66.935  1.00  0.00    -0.231 N  
HETATM    7  O   UNL     1      -9.500   8.971  65.666  1.00  0.00    -0.244 OA 
ENDROOT
BRANCH   3   8
HETATM    8  C   UNL     1     -10.786   7.976  68.344  1.00  0.00    -0.070 C  
BRANCH   8   9
HETATM    9  C   UNL     1     -10.416   6.699  69.115  1.00  0.00    -0.219 C  
BRANCH   9  10
HETATM   10  S   UNL     1      -9.040   5.850  68.251  1.00  0.00    -0.117 S  
HETATM   11  O   UNL     1      -9.034   6.362  66.839  1.00  0.00    -0.119 OA 
BRANCH  10  12
HETATM   12  C   UNL     1      -7.656   6.678  69.073  1.00  0.00    -0.101 A  
HETATM   13  C   UNL     1      -6.481   7.334  71.091  1.00  0.00    -0.043 A  
HETATM   14  C   UNL     1      -5.746   8.167  68.948  1.00  0.00    -0.035 A  
HETATM   15  C   UNL     1      -5.604   8.109  70.334  1.00  0.00    -0.022 A  
HETATM   16  C   UNL     1      -6.768   7.453  68.317  1.00  0.00    -0.054 A  
HETATM   17  C   UNL     1      -7.506   6.623  70.463  1.00  0.00    -0.087 A  
ENDBRANCH  10  12
ENDBRANCH   9  10
ENDBRANCH   8   9
ENDBRANCH   3   8
BRANCH   6  18
HETATM   18  C   UNL     1     -10.829  11.645  65.868  1.00  0.00    -0.287 A  
HETATM   19  C   UNL     1     -12.173  13.566  65.126  1.00  0.00    -0.462 A  
HETATM   20  C   UNL     1     -11.567  13.533  63.880  1.00  0.00    -0.350 A  
HETATM   21  C   UNL     1     -10.285  11.594  64.581  1.00  0.00    -0.327 A  
HETATM   22  C   UNL     1     -11.799  12.640  66.106  1.00  0.00    -0.477 A  
HETATM   23  C   UNL     1     -10.629  12.542  63.606  1.00  0.00    -0.446 A  
ENDBRANCH   6  18
BRANCH   4  24
HETATM   24  C   UNL     1     -10.921  12.071  69.088  1.00  0.00    -0.178 A  
HETATM   25  C   UNL     1     -10.610  13.438  69.020  1.00  0.00    -0.106 A  
HETATM   26  C   UNL     1     -12.528  12.576  70.826  1.00  0.00    -0.357 A  
HETATM   27  C   UNL     1     -11.244  14.366  69.846  1.00  0.00    -0.226 A  
HETATM   28  C   UNL     1     -11.900  11.647  69.989  1.00  0.00    -0.435 A  
HETATM   29  C   UNL     1     -12.200  13.927  70.756  1.00  0.00    -0.441 A  
ENDBRANCH   4  24
TORSDOF 6
ENDMDL
MODEL      196
REMARK 921   NORMALIZED FREE ENERGY PREDICTED BY IDOCK:   -3.39 KCAL/MOL
REMARK 922        TOTAL FREE ENERGY PREDICTED BY IDOCK:   -5.81 KCAL/MOL
REMARK 923 INTER-LIGAND FREE ENERGY PREDICTED BY IDOCK:   -4.55 KCAL/MOL
REMARK 924 INTRA-LIGAND FREE ENERGY PREDICTED BY IDOCK:   -1.26 KCAL/MOL
REMARK 927      BINDING AFFINITY PREDICTED BY RF-SCORE:    0.00 PKD
ROOT
HETATM    1  O   UNL     1     -11.672   9.579  70.356  1.00  0.00    -0.247 OA 
HETATM    2  C   UNL     1     -11.000   9.427  69.344  1.00  0.00    -0.145 C  
HETATM    3  C   UNL     1     -10.919  10.449  68.244  1.00  0.00    -0.321 C  
HETATM    4  N   UNL     1     -10.068   8.406  69.041  1.00  0.00    -0.197 N  
HETATM    5  C   UNL     1     -10.190   9.726  67.158  1.00  0.00    -0.228 C  
HETATM    6  N   UNL     1      -9.481   8.674  67.761  1.00  0.00    -0.140 N  
HETATM    7  O   UNL     1     -10.246  10.089  65.990  1.00  0.00    -0.252 OA 
ENDROOT
BRANCH   3   8
HETATM    8  C   UNL     1     -10.066  11.641  68.707  1.00  0.00    -0.169 C  
BRANCH   8   9
HETATM    9  C   UNL     1      -9.160  12.229  67.613  1.00  0.00    -0.184 C  
BRANCH   9  10
HETATM   10  S   UNL     1      -7.419  12.188  68.185  1.00  0.00    -0.124 S  
HETATM   11  O   UNL     1      -6.578  11.852  66.986  1.00  0.00    -0.142 OA 
BRANCH  10  12
HETATM   12  C   UNL     1      -7.185  13.962  68.459  1.00  0.00    -0.107 A  
HETATM   13  C   UNL     1      -6.216  15.798  69.714  1.00  0.00    -0.172 A  
HETATM   14  C   UNL     1      -7.831  16.249  67.977  1.00  0.00    -0.154 A  
HETATM   15  C   UNL     1      -6.972  16.708  68.976  1.00  0.00    -0.212 A  
HETATM   16  C   UNL     1      -7.936  14.881  67.716  1.00  0.00    -0.161 A  
HETATM   17  C   UNL     1      -6.324  14.429  69.459  1.00  0.00    -0.128 A  
ENDBRANCH  10  12
ENDBRANCH   9  10
ENDBRANCH   8   9
ENDBRANCH   3   8
BRANCH   6  18
HETATM   18  C   UNL     1      -8.595   7.818  67.028  1.00  0.00    -0.129 A  
HETATM   19  C   UNL     1      -8.301   5.987  65.413  1.00  0.00    -0.150 A  
HETATM   20  C   UNL     1      -6.936   6.223  65.365  1.00  0.00    -0.056 A  
HETATM   21  C   UNL     1      -7.207   7.988  67.010  1.00  0.00    -0.087 A  
HETATM   22  C   UNL     1      -9.116   6.781  66.226  1.00  0.00    -0.165 A  
HETATM   23  C   UNL     1      -6.389   7.218  66.170  1.00  0.00    -0.041 A  
ENDBRANCH   6  18
BRANCH   4  24
HETATM   24  C   UNL     1      -9.447   7.790  70.163  1.00  0.00    -0.160 A  
HETATM   25  C   UNL     1      -8.368   8.450  70.771  1.00  0.00    -0.139 A  
HETATM   26  C   UNL     1      -9.078   5.921  71.656  1.00  0.00    -0.149 A  
HETATM   27  C   UNL     1      -7.646   7.855  71.806  1.00  0.00    -0.092 A  
HETATM   28  C   UNL     1      -9.808   6.522  70.625  1.00  0.00    -0.201 A  
HETATM   29  C   UNL     1      -8.002   6.583  72.241  1.00  0.00    -0.102 A  
ENDBRANCH   4  24
TORSDOF 6
ENDMDL
MODEL      197
REMARK 921   NORMALIZED FREE ENERGY PREDICTED BY IDOCK:   -3.38 KCAL/MOL
REMARK 922        TOTAL FREE ENERGY PREDICTED BY IDOCK:   -5.80 KCAL/MOL
REMARK 923 INTER-LIGAND FREE ENERGY PREDICTED BY IDOCK:   -4.94 KCAL/MOL
REMARK 924 INTRA-LIGAND FREE ENERGY PREDICTED BY IDOCK:   -0.86 KCAL/MOL
REMARK 927      BINDING AFFINITY PREDICTED BY RF-SCORE:    0.00 PKD
ROOT
HETATM    1  O   UNL     1      -8.980  11.145  69.014  1.00  0.00    -0.126 OA 
HETATM    2  C   UNL     1      -8.258  11.997  68.512  1.00  0.00    -0.113 C  
HETATM    3  C   UNL     1      -7.136  11.674  67.564  1.00  0.00    -0.111 C  
HETATM    4  N   UNL     1      -8.380  13.405  68.558  1.00  0.00    -0.127 N  
HETATM    5  C   UNL     1      -6.424  12.979  67.420  1.00  0.00    -0.098 C  
HETATM    6  N   UNL     1      -7.332  13.991  67.775  1.00  0.00    -0.150 N  
HETATM    7  O   UNL     1      -5.267  13.044  67.025  1.00  0.00    -0.321 OA 
ENDROOT
BRANCH   3   8
HETATM    8  C   UNL     1      -7.713  11.270  66.198  1.00  0.00     0.004 C  
BRANCH   8   9
HETATM    9  C   UNL     1      -9.090  10.591  66.272  1.00  0.00    -0.164 C  
BRANCH   9  10
HETATM   10  S   UNL     1      -8.948   8.869  65.659  1.00  0.00    -0.193 S  
HETATM   11  O   UNL     1      -7.503   8.654  65.305  1.00  0.00    -0.083 OA 
BRANCH  10  12
HETATM   12  C   UNL     1      -9.196   8.004  67.229  1.00  0.00    -0.139 A  
HETATM   13  C   UNL     1     -10.644   7.260  69.027  1.00  0.00    -0.214 A  
HETATM   14  C   UNL     1      -8.256   6.955  69.203  1.00  0.00    -0.121 A  
HETATM   15  C   UNL     1      -9.534   6.812  69.743  1.00  0.00    -0.144 A  
HETATM   16  C   UNL     1      -8.086   7.547  67.949  1.00  0.00    -0.119 A  
HETATM   17  C   UNL     1     -10.476   7.857  67.776  1.00  0.00    -0.278 A  
ENDBRANCH  10  12
ENDBRANCH   9  10
ENDBRANCH   8   9
ENDBRANCH   3   8
BRANCH   6  18
HETATM   18  C   UNL     1      -7.015  15.385  67.671  1.00  0.00    -0.184 A  
HETATM   19  C   UNL     1      -5.597  17.275  68.351  1.00  0.00    -0.141 A  
HETATM   20  C   UNL     1      -6.165  18.078  67.375  1.00  0.00    -0.173 A  
HETATM   21  C   UNL     1      -7.618  16.239  66.740  1.00  0.00    -0.285 A  
HETATM   22  C   UNL     1      -6.012  15.947  68.487  1.00  0.00    -0.102 A  
HETATM   23  C   UNL     1      -7.181  17.562  66.576  1.00  0.00    -0.298 A  
ENDBRANCH   6  18
BRANCH   4  24
HETATM   24  C   UNL     1      -9.701  13.902  68.739  1.00  0.00    -0.093 A  
HETATM   25  C   UNL     1      -9.898  14.943  69.660  1.00  0.00    -0.010 A  
HETATM   26  C   UNL     1     -12.098  13.796  68.421  1.00  0.00    -0.324 A  
HETATM   27  C   UNL     1     -11.179  15.405  69.965  1.00  0.00    -0.314 A  
HETATM   28  C   UNL     1     -10.813  13.341  68.108  1.00  0.00    -0.270 A  
HETATM   29  C   UNL     1     -12.280  14.822  69.346  1.00  0.00    -0.251 A  
ENDBRANCH   4  24
TORSDOF 6
ENDMDL
MODEL      198
REMARK 921   NORMALIZED FREE ENERGY PREDICTED BY IDOCK:   -3.38 KCAL/MOL
REMARK 922        TOTAL FREE ENERGY PREDICTED BY IDOCK:   -5.80 KCAL/MOL
REMARK 923 INTER-LIGAND FREE ENERGY PREDICTED BY IDOCK:   -4.85 KCAL/MOL
REMARK 924 INTRA-LIGAND FREE ENERGY PREDICTED BY IDOCK:   -0.95 KCAL/MOL
REMARK 927      BINDING AFFINITY PREDICTED BY RF-SCORE:    0.00 PKD
ROOT
HETATM    1  O   UNL     1     -10.322   5.377  67.938  1.00  0.00    -0.188 OA 
HETATM    2  C   UNL     1      -9.341   5.897  68.454  1.00  0.00    -0.120 C  
HETATM    3  C   UNL     1      -8.372   6.762  67.698  1.00  0.00    -0.123 C  
HETATM    4  N   UNL     1      -8.980   5.952  69.820  1.00  0.00    -0.130 N  
HETATM    5  C   UNL     1      -7.256   6.957  68.672  1.00  0.00    -0.088 C  
HETATM    6  N   UNL     1      -7.776   6.718  69.955  1.00  0.00    -0.100 N  
HETATM    7  O   UNL     1      -6.136   7.296  68.312  1.00  0.00    -0.029 OA 
ENDROOT
BRANCH   3   8
HETATM    8  C   UNL     1      -9.017   8.125  67.402  1.00  0.00    -0.145 C  
BRANCH   8   9
HETATM    9  C   UNL     1      -9.244   8.404  65.908  1.00  0.00    -0.155 C  
BRANCH   9  10
HETATM   10  S   UNL     1      -8.907  10.173  65.565  1.00  0.00    -0.181 S  
HETATM   11  O   UNL     1      -9.659  10.521  64.311  1.00  0.00    -0.254 OA 
BRANCH  10  12
HETATM   12  C   UNL     1      -9.864  10.896  66.921  1.00  0.00    -0.189 A  
HETATM   13  C   UNL     1     -10.214  11.284  69.289  1.00  0.00    -0.058 A  
HETATM   14  C   UNL     1     -11.890  11.978  67.697  1.00  0.00    -0.294 A  
HETATM   15  C   UNL     1     -11.448  11.872  69.016  1.00  0.00    -0.355 A  
HETATM   16  C   UNL     1     -11.100  11.493  66.651  1.00  0.00    -0.355 A  
HETATM   17  C   UNL     1      -9.425  10.794  68.246  1.00  0.00    -0.164 A  
ENDBRANCH  10  12
ENDBRANCH   9  10
ENDBRANCH   8   9
ENDBRANCH   3   8
BRANCH   6  18
HETATM   18  C   UNL     1      -7.004   6.900  71.149  1.00  0.00    -0.069 A  
HETATM   19  C   UNL     1      -6.230   8.392  72.944  1.00  0.00    -0.091 A  
HETATM   20  C   UNL     1      -5.689   7.317  73.630  1.00  0.00    -0.049 A  
HETATM   21  C   UNL     1      -6.388   5.845  71.831  1.00  0.00    -0.045 A  
HETATM   22  C   UNL     1      -6.885   8.181  71.726  1.00  0.00    -0.073 A  
HETATM   23  C   UNL     1      -5.761   6.046  73.069  1.00  0.00    -0.037 A  
ENDBRANCH   6  18
BRANCH   4  24
HETATM   24  C   UNL     1     -10.059   5.873  70.744  1.00  0.00    -0.199 A  
HETATM   25  C   UNL     1     -11.083   6.829  70.654  1.00  0.00    -0.338 A  
HETATM   26  C   UNL     1     -11.125   4.994  72.732  1.00  0.00    -0.310 A  
HETATM   27  C   UNL     1     -12.116   6.874  71.591  1.00  0.00    -0.394 A  
HETATM   28  C   UNL     1     -10.097   4.942  71.786  1.00  0.00    -0.267 A  
HETATM   29  C   UNL     1     -12.128   5.956  72.637  1.00  0.00    -0.046 A  
ENDBRANCH   4  24
TORSDOF 6
ENDMDL
MODEL      199
REMARK 921   NORMALIZED FREE ENERGY PREDICTED BY IDOCK:   -3.18 KCAL/MOL
REMARK 922        TOTAL FREE ENERGY PREDICTED BY IDOCK:   -5.52 KCAL/MOL
REMARK 923 INTER-LIGAND FREE ENERGY PREDICTED BY IDOCK:   -5.69 KCAL/MOL
REMARK 924 INTRA-LIGAND FREE ENERGY PREDICTED BY IDOCK:    0.17 KCAL/MOL
REMARK 927      BINDING AFFINITY PREDICTED BY RF-SCORE:    0.00 PKD
ROOT
HETATM    1  O   UNL     1     -10.319   9.878  65.303  1.00  0.00    -0.186 OA 
HETATM    2  C   UNL     1     -10.404   9.508  66.467  1.00  0.00    -0.193 C  
HETATM    3  C   UNL     1      -9.570   8.397  67.043  1.00  0.00    -0.248 C  
HETATM    4  N   UNL     1     -11.129  10.088  67.534  1.00  0.00    -0.218 N  
HETATM    5  C   UNL     1     -10.186   8.168  68.385  1.00  0.00    -0.209 C  
HETATM    6  N   UNL     1     -10.881   9.339  68.730  1.00  0.00    -0.145 N  
HETATM    7  O   UNL     1     -10.024   7.121  68.999  1.00  0.00    -0.166 OA 
ENDROOT
BRANCH   3   8
HETATM    8  C   UNL     1      -8.124   8.882  67.236  1.00  0.00    -0.104 C  
BRANCH   8   9
HETATM    9  C   UNL     1      -7.067   7.994  66.562  1.00  0.00    -0.075 C  
BRANCH   9  10
HETATM   10  S   UNL     1      -7.903   6.777  65.476  1.00  0.00    -0.119 S  
HETATM   11  O   UNL     1      -6.875   6.301  64.489  1.00  0.00    -0.044 OA 
BRANCH  10  12
HETATM   12  C   UNL     1      -8.088   5.432  66.672  1.00  0.00    -0.105 A  
HETATM   13  C   UNL     1      -7.308   4.210  68.617  1.00  0.00    -0.055 A  
HETATM   14  C   UNL     1      -9.176   3.370  67.339  1.00  0.00    -0.228 A  
HETATM   15  C   UNL     1      -8.292   3.243  68.410  1.00  0.00    -0.094 A  
HETATM   16  C   UNL     1      -9.077   4.462  66.473  1.00  0.00    -0.123 A  
HETATM   17  C   UNL     1      -7.204   5.299  67.749  1.00  0.00    -0.071 A  
ENDBRANCH  10  12
ENDBRANCH   9  10
ENDBRANCH   8   9
ENDBRANCH   3   8
BRANCH   6  18
HETATM   18  C   UNL     1     -11.525   9.510  69.999  1.00  0.00    -0.109 A  
HETATM   19  C   UNL     1     -13.503  10.227  71.272  1.00  0.00    -0.267 A  
HETATM   20  C   UNL     1     -12.976   9.686  72.433  1.00  0.00    -0.358 A  
HETATM   21  C   UNL     1     -10.989   9.034  71.200  1.00  0.00    -0.371 A  
HETATM   22  C   UNL     1     -12.790  10.130  70.073  1.00  0.00     0.151 A  
HETATM   23  C   UNL     1     -11.716   9.098  72.399  1.00  0.00    -0.044 A  
ENDBRANCH   6  18
BRANCH   4  24
HETATM   24  C   UNL     1     -11.367  11.487  67.426  1.00  0.00    -0.298 A  
HETATM   25  C   UNL     1     -11.313  12.261  68.595  1.00  0.00    -0.339 A  
HETATM   26  C   UNL     1     -12.072  13.459  66.212  1.00  0.00    -0.475 A  
HETATM   27  C   UNL     1     -11.638  13.618  68.579  1.00  0.00    -0.371 A  
HETATM   28  C   UNL     1     -11.735  12.102  66.227  1.00  0.00    -0.389 A  
HETATM   29  C   UNL     1     -12.026  14.213  67.383  1.00  0.00    -0.439 A  
ENDBRANCH   4  24
TORSDOF 6
ENDMDL
MODEL      200
REMARK 921   NORMALIZED FREE ENERGY PREDICTED BY IDOCK:   -3.18 KCAL/MOL
REMARK 922        TOTAL FREE ENERGY PREDICTED BY IDOCK:   -5.52 KCAL/MOL
REMARK 923 INTER-LIGAND FREE ENERGY PREDICTED BY IDOCK:   -3.48 KCAL/MOL
REMARK 924 INTRA-LIGAND FREE ENERGY PREDICTED BY IDOCK:   -2.04 KCAL/MOL
REMARK 927      BINDING AFFINITY PREDICTED BY RF-SCORE:    0.00 PKD
ROOT
HETATM    1  O   UNL     1      -6.456   8.108  67.640  1.00  0.00    -0.054 OA 
HETATM    2  C   UNL     1      -7.649   7.927  67.847  1.00  0.00    -0.109 C  
HETATM    3  C   UNL     1      -8.586   7.345  66.826  1.00  0.00    -0.127 C  
HETATM    4  N   UNL     1      -8.369   8.055  69.058  1.00  0.00    -0.128 N  
HETATM    5  C   UNL     1      -9.931   7.539  67.446  1.00  0.00    -0.187 C  
HETATM    6  N   UNL     1      -9.735   7.685  68.830  1.00  0.00    -0.154 N  
HETATM    7  O   UNL     1     -10.958   7.526  66.780  1.00  0.00    -0.220 OA 
ENDROOT
BRANCH   3   8
HETATM    8  C   UNL     1      -8.320   5.838  66.679  1.00  0.00    -0.109 C  
BRANCH   8   9
HETATM    9  C   UNL     1      -8.056   5.383  65.235  1.00  0.00    -0.123 C  
BRANCH   9  10
HETATM   10  S   UNL     1      -6.297   4.896  65.067  1.00  0.00    -0.036 S  
HETATM   11  O   UNL     1      -5.495   6.167  65.061  1.00  0.00    -0.016 OA 
BRANCH  10  12
HETATM   12  C   UNL     1      -6.059   4.180  66.713  1.00  0.00    -0.031 A  
HETATM   13  C   UNL     1      -5.134   4.290  68.952  1.00  0.00     0.000 A  
HETATM   14  C   UNL     1      -6.228   2.274  68.201  1.00  0.00    -0.025 A  
HETATM   15  C   UNL     1      -5.553   2.982  69.195  1.00  0.00    -0.018 A  
HETATM   16  C   UNL     1      -6.483   2.870  66.964  1.00  0.00    -0.036 A  
HETATM   17  C   UNL     1      -5.383   4.886  67.715  1.00  0.00    -0.012 A  
ENDBRANCH  10  12
ENDBRANCH   9  10
ENDBRANCH   8   9
ENDBRANCH   3   8
BRANCH   6  18
HETATM   18  C   UNL     1     -10.822   7.803  69.757  1.00  0.00    -0.209 A  
HETATM   19  C   UNL     1     -12.415   9.242  70.956  1.00  0.00    -0.276 A  
HETATM   20  C   UNL     1     -13.111   8.132  71.404  1.00  0.00    -0.248 A  
HETATM   21  C   UNL     1     -11.505   6.699  70.281  1.00  0.00    -0.449 A  
HETATM   22  C   UNL     1     -11.293   9.076  70.136  1.00  0.00    -0.139 A  
HETATM   23  C   UNL     1     -12.651   6.861  71.074  1.00  0.00    -0.319 A  
ENDBRANCH   6  18
BRANCH   4  24
HETATM   24  C   UNL     1      -7.611   7.864  70.247  1.00  0.00    -0.086 A  
HETATM   25  C   UNL     1      -7.352   6.549  70.665  1.00  0.00    -0.079 A  
HETATM   26  C   UNL     1      -6.556   8.664  72.273  1.00  0.00    -0.069 A  
HETATM   27  C   UNL     1      -6.706   6.290  71.875  1.00  0.00    -0.064 A  
HETATM   28  C   UNL     1      -7.193   8.924  71.055  1.00  0.00    -0.101 A  
HETATM   29  C   UNL     1      -6.316   7.354  72.681  1.00  0.00    -0.055 A  
ENDBRANCH   4  24
TORSDOF 6
ENDMDL
MODEL      201
REMARK 921   NORMALIZED FREE ENERGY PREDICTED BY IDOCK:   -2.97 KCAL/MOL
REMARK 922        TOTAL FREE ENERGY PREDICTED BY IDOCK:   -5.24 KCAL/MOL
REMARK 923 INTER-LIGAND FREE ENERGY PREDICTED BY IDOCK:   -5.40 KCAL/MOL
REMARK 924 INTRA-LIGAND FREE ENERGY PREDICTED BY IDOCK:    0.16 KCAL/MOL
REMARK 927      BINDING AFFINITY PREDICTED BY RF-SCORE:    0.00 PKD
ROOT
HETATM    1  O   UNL     1     -11.713  12.408  68.519  1.00  0.00    -0.292 OA 
HETATM    2  C   UNL     1     -11.002  13.402  68.440  1.00  0.00    -0.267 C  
HETATM    3  C   UNL     1      -9.717  13.561  69.205  1.00  0.00     0.364 C  
HETATM    4  N   UNL     1     -11.106  14.502  67.556  1.00  0.00    -0.297 N  
HETATM    5  C   UNL     1      -9.351  14.989  68.964  1.00  0.00    -0.206 C  
HETATM    6  N   UNL     1     -10.014  15.399  67.795  1.00  0.00    -0.224 N  
HETATM    7  O   UNL     1      -8.577  15.590  69.699  1.00  0.00    -0.246 OA 
ENDROOT
BRANCH   3   8
HETATM    8  C   UNL     1      -8.634  12.660  68.591  1.00  0.00     0.046 C  
BRANCH   8   9
HETATM    9  C   UNL     1      -9.119  11.810  67.406  1.00  0.00    -0.175 C  
BRANCH   9  10
HETATM   10  S   UNL     1      -8.125  10.273  67.319  1.00  0.00    -0.121 S  
HETATM   11  O   UNL     1      -9.001   9.161  67.824  1.00  0.00    -0.127 OA 
BRANCH  10  12
HETATM   12  C   UNL     1      -8.086  10.080  65.520  1.00  0.00    -0.137 A  
HETATM   13  C   UNL     1      -9.229   9.853  63.393  1.00  0.00    -0.278 A  
HETATM   14  C   UNL     1      -6.830   9.603  63.501  1.00  0.00    -0.110 A  
HETATM   15  C   UNL     1      -8.011   9.608  62.759  1.00  0.00    -0.125 A  
HETATM   16  C   UNL     1      -6.866   9.840  64.877  1.00  0.00    -0.117 A  
HETATM   17  C   UNL     1      -9.267  10.085  64.769  1.00  0.00    -0.301 A  
ENDBRANCH  10  12
ENDBRANCH   9  10
ENDBRANCH   8   9
ENDBRANCH   3   8
BRANCH   6  18
HETATM   18  C   UNL     1      -9.824  16.694  67.212  1.00  0.00    -0.255 A  
HETATM   19  C   UNL     1     -10.657  18.980  66.852  1.00  0.00    -0.518 A  
HETATM   20  C   UNL     1      -9.447  19.353  66.289  1.00  0.00    -0.422 A  
HETATM   21  C   UNL     1      -8.639  17.082  66.577  1.00  0.00    -0.305 A  
HETATM   22  C   UNL     1     -10.835  17.671  67.314  1.00  0.00    -0.141 A  
HETATM   23  C   UNL     1      -8.442  18.401  66.144  1.00  0.00    -0.145 A  
ENDBRANCH   6  18
BRANCH   4  24
HETATM   24  C   UNL     1     -11.744  14.232  66.313  1.00  0.00    -0.393 A  
HETATM   25  C   UNL     1     -12.034  12.897  65.991  1.00  0.00    -0.505 A  
HETATM   26  C   UNL     1     -12.533  14.880  64.118  1.00  0.00    -0.093 A  
HETATM   27  C   UNL     1     -12.562  12.552  64.746  1.00  0.00    -0.493 A  
HETATM   28  C   UNL     1     -12.014  15.227  65.370  1.00  0.00     0.180 A  
HETATM   29  C   UNL     1     -12.803  13.549  63.808  1.00  0.00     0.306 A  
ENDBRANCH   4  24
TORSDOF 6
ENDMDL
MODEL      202
REMARK 921   NORMALIZED FREE ENERGY PREDICTED BY IDOCK:   -2.88 KCAL/MOL
REMARK 922        TOTAL FREE ENERGY PREDICTED BY IDOCK:   -5.12 KCAL/MOL
REMARK 923 INTER-LIGAND FREE ENERGY PREDICTED BY IDOCK:   -4.12 KCAL/MOL
REMARK 924 INTRA-LIGAND FREE ENERGY PREDICTED BY IDOCK:   -1.00 KCAL/MOL
REMARK 927      BINDING AFFINITY PREDICTED BY RF-SCORE:    0.00 PKD
ROOT
HETATM    1  O   UNL     1      -7.625  10.119  67.603  1.00  0.00    -0.090 OA 
HETATM    2  C   UNL     1      -8.587  10.557  68.221  1.00  0.00    -0.127 C  
HETATM    3  C   UNL     1      -9.488   9.698  69.064  1.00  0.00    -0.168 C  
HETATM    4  N   UNL     1      -8.977  11.902  68.423  1.00  0.00    -0.182 N  
HETATM    5  C   UNL     1     -10.614  10.618  69.408  1.00  0.00    -0.239 C  
HETATM    6  N   UNL     1     -10.138  11.932  69.261  1.00  0.00     0.178 N  
HETATM    7  O   UNL     1     -11.704  10.196  69.772  1.00  0.00    -0.218 OA 
ENDROOT
BRANCH   3   8
HETATM    8  C   UNL     1      -8.761   9.297  70.357  1.00  0.00    -0.263 C  
BRANCH   8   9
HETATM    9  C   UNL     1      -8.689   7.781  70.595  1.00  0.00    -0.139 C  
BRANCH   9  10
HETATM   10  S   UNL     1      -7.360   7.067  69.554  1.00  0.00    -0.096 S  
HETATM   11  O   UNL     1      -6.697   5.996  70.373  1.00  0.00    -0.049 OA 
BRANCH  10  12
HETATM   12  C   UNL     1      -8.398   6.190  68.358  1.00  0.00    -0.114 A  
HETATM   13  C   UNL     1      -9.622   6.129  66.265  1.00  0.00    -0.123 A  
HETATM   14  C   UNL     1      -9.793   4.284  67.812  1.00  0.00    -0.132 A  
HETATM   15  C   UNL     1     -10.145   4.881  66.601  1.00  0.00    -0.280 A  
HETATM   16  C   UNL     1      -8.921   4.934  68.688  1.00  0.00    -0.130 A  
HETATM   17  C   UNL     1      -8.754   6.784  67.141  1.00  0.00    -0.119 A  
ENDBRANCH  10  12
ENDBRANCH   9  10
ENDBRANCH   8   9
ENDBRANCH   3   8
BRANCH   6  18
HETATM   18  C   UNL     1     -10.927  13.081  69.595  1.00  0.00     0.201 A  
HETATM   19  C   UNL     1     -11.736  15.323  68.988  1.00  0.00    -0.368 A  
HETATM   20  C   UNL     1     -12.626  15.310  70.050  1.00  0.00    -0.277 A  
HETATM   21  C   UNL     1     -11.787  13.126  70.698  1.00  0.00    -0.098 A  
HETATM   22  C   UNL     1     -10.907  14.219  68.762  1.00  0.00    -0.265 A  
HETATM   23  C   UNL     1     -12.644  14.216  70.909  1.00  0.00    -0.433 A  
ENDBRANCH   6  18
BRANCH   4  24
HETATM   24  C   UNL     1      -7.926  12.860  68.371  1.00  0.00    -0.137 A  
HETATM   25  C   UNL     1      -6.923  12.800  69.352  1.00  0.00     0.110 A  
HETATM   26  C   UNL     1      -6.902  14.883  67.522  1.00  0.00    -0.189 A  
HETATM   27  C   UNL     1      -5.923  13.769  69.423  1.00  0.00    -0.101 A  
HETATM   28  C   UNL     1      -7.899  13.904  67.443  1.00  0.00    -0.177 A  
HETATM   29  C   UNL     1      -5.921  14.817  68.508  1.00  0.00    -0.096 A  
ENDBRANCH   4  24
TORSDOF 6
ENDMDL
MODEL      203
REMARK 921   NORMALIZED FREE ENERGY PREDICTED BY IDOCK:   -2.77 KCAL/MOL
REMARK 922        TOTAL FREE ENERGY PREDICTED BY IDOCK:   -4.97 KCAL/MOL
REMARK 923 INTER-LIGAND FREE ENERGY PREDICTED BY IDOCK:   -3.78 KCAL/MOL
REMARK 924 INTRA-LIGAND FREE ENERGY PREDICTED BY IDOCK:   -1.19 KCAL/MOL
REMARK 927      BINDING AFFINITY PREDICTED BY RF-SCORE:    0.00 PKD
ROOT
HETATM    1  O   UNL     1      -9.545  10.884  68.678  1.00  0.00    -0.176 OA 
HETATM    2  C   UNL     1      -8.676  11.685  68.356  1.00  0.00    -0.158 C  
HETATM    3  C   UNL     1      -7.418  11.292  67.632  1.00  0.00    -0.101 C  
HETATM    4  N   UNL     1      -8.699  13.097  68.426  1.00  0.00    -0.156 N  
HETATM    5  C   UNL     1      -6.596  12.538  67.675  1.00  0.00    -0.136 C  
HETATM    6  N   UNL     1      -7.477  13.613  67.882  1.00  0.00    -0.139 N  
HETATM    7  O   UNL     1      -5.382  12.518  67.515  1.00  0.00    -0.105 OA 
ENDROOT
BRANCH   3   8
HETATM    8  C   UNL     1      -7.745  10.962  66.167  1.00  0.00    -0.133 C  
BRANCH   8   9
HETATM    9  C   UNL     1      -8.040   9.476  65.907  1.00  0.00    -0.115 C  
BRANCH   9  10
HETATM   10  S   UNL     1      -8.549   9.259  64.160  1.00  0.00    -0.163 S  
HETATM   11  O   UNL     1      -8.093  10.485  63.421  1.00  0.00    -0.150 OA 
BRANCH  10  12
HETATM   12  C   UNL     1      -7.383   7.953  63.700  1.00  0.00    -0.103 A  
HETATM   13  C   UNL     1      -5.450   7.189  62.452  1.00  0.00    -0.037 A  
HETATM   14  C   UNL     1      -6.776   5.606  63.701  1.00  0.00    -0.037 A  
HETATM   15  C   UNL     1      -5.693   5.880  62.866  1.00  0.00    -0.018 A  
HETATM   16  C   UNL     1      -7.619   6.639  64.119  1.00  0.00    -0.104 A  
HETATM   17  C   UNL     1      -6.293   8.222  62.864  1.00  0.00    -0.086 A  
ENDBRANCH  10  12
ENDBRANCH   9  10
ENDBRANCH   8   9
ENDBRANCH   3   8
BRANCH   6  18
HETATM   18  C   UNL     1      -7.043  14.979  67.890  1.00  0.00    -0.151 A  
HETATM   19  C   UNL     1      -5.715  16.756  68.949  1.00  0.00    -0.145 A  
HETATM   20  C   UNL     1      -5.950  17.599  67.875  1.00  0.00    -0.155 A  
HETATM   21  C   UNL     1      -7.320  15.876  66.852  1.00  0.00    -0.207 A  
HETATM   22  C   UNL     1      -6.247  15.462  68.948  1.00  0.00    -0.098 A  
HETATM   23  C   UNL     1      -6.760  17.161  66.832  1.00  0.00    -0.238 A  
ENDBRANCH   6  18
BRANCH   4  24
HETATM   24  C   UNL     1      -9.989  13.694  68.365  1.00  0.00    -0.235 A  
HETATM   25  C   UNL     1     -10.437  14.423  69.479  1.00  0.00    -0.028 A  
HETATM   26  C   UNL     1     -12.157  14.026  67.340  1.00  0.00    -0.384 A  
HETATM   27  C   UNL     1     -11.730  14.945  69.529  1.00  0.00    -0.353 A  
HETATM   28  C   UNL     1     -10.857  13.512  67.286  1.00  0.00    -0.285 A  
HETATM   29  C   UNL     1     -12.591  14.736  68.457  1.00  0.00     0.421 A  
ENDBRANCH   4  24
TORSDOF 6
ENDMDL
MODEL      204
REMARK 921   NORMALIZED FREE ENERGY PREDICTED BY IDOCK:   -2.32 KCAL/MOL
REMARK 922        TOTAL FREE ENERGY PREDICTED BY IDOCK:   -4.37 KCAL/MOL
REMARK 923 INTER-LIGAND FREE ENERGY PREDICTED BY IDOCK:   -3.55 KCAL/MOL
REMARK 924 INTRA-LIGAND FREE ENERGY PREDICTED BY IDOCK:   -0.82 KCAL/MOL
REMARK 927      BINDING AFFINITY PREDICTED BY RF-SCORE:    0.00 PKD
ROOT
HETATM    1  O   UNL     1      -8.047  12.126  69.780  1.00  0.00     1.135 OA 
HETATM    2  C   UNL     1      -7.630  13.048  69.090  1.00  0.00     0.254 C  
HETATM    3  C   UNL     1      -6.484  12.906  68.127  1.00  0.00    -0.096 C  
HETATM    4  N   UNL     1      -8.177  14.339  68.908  1.00  0.00    -0.101 N  
HETATM    5  C   UNL     1      -6.209  14.315  67.713  1.00  0.00    -0.137 C  
HETATM    6  N   UNL     1      -7.376  15.058  67.961  1.00  0.00    -0.115 N  
HETATM    7  O   UNL     1      -5.136  14.648  67.227  1.00  0.00    -0.287 OA 
ENDROOT
BRANCH   3   8
HETATM    8  C   UNL     1      -6.937  12.106  66.896  1.00  0.00     0.006 C  
BRANCH   8   9
HETATM    9  C   UNL     1      -8.224  12.634  66.241  1.00  0.00     0.604 C  
BRANCH   9  10
HETATM   10  S   UNL     1      -9.389  11.242  65.992  1.00  0.00    -0.218 S  
HETATM   11  O   UNL     1     -10.065  11.002  67.313  1.00  0.00    -0.181 OA 
BRANCH  10  12
HETATM   12  C   UNL     1     -10.614  12.096  64.970  1.00  0.00    -0.291 A  
HETATM   13  C   UNL     1     -11.868  14.092  64.397  1.00  0.00    -0.447 A  
HETATM   14  C   UNL     1     -12.392  11.995  63.324  1.00  0.00    -0.553 A  
HETATM   15  C   UNL     1     -12.635  13.357  63.494  1.00  0.00    -0.126 A  
HETATM   16  C   UNL     1     -11.383  11.365  64.057  1.00  0.00    -0.291 A  
HETATM   17  C   UNL     1     -10.863  13.464  65.135  1.00  0.00    -0.322 A  
ENDBRANCH  10  12
ENDBRANCH   9  10
ENDBRANCH   8   9
ENDBRANCH   3   8
BRANCH   6  18
HETATM   18  C   UNL     1      -7.505  16.439  67.601  1.00  0.00    -0.133 A  
HETATM   19  C   UNL     1      -7.314  18.805  68.244  1.00  0.00    -0.295 A  
HETATM   20  C   UNL     1      -7.513  19.198  66.930  1.00  0.00    -0.230 A  
HETATM   21  C   UNL     1      -7.771  16.869  66.297  1.00  0.00    -0.332 A  
HETATM   22  C   UNL     1      -7.301  17.445  68.569  1.00  0.00    -0.237 A  
HETATM   23  C   UNL     1      -7.751  18.230  65.959  1.00  0.00    -0.200 A  
ENDBRANCH   6  18
BRANCH   4  24
HETATM   24  C   UNL     1      -9.583  14.444  69.103  1.00  0.00     0.029 A  
HETATM   25  C   UNL     1     -10.047  14.957  70.324  1.00  0.00     0.254 A  
HETATM   26  C   UNL     1     -11.878  14.002  68.474  1.00  0.00    -0.399 A  
HETATM   27  C   UNL     1     -11.410  14.990  70.623  1.00  0.00    -0.312 A  
HETATM   28  C   UNL     1     -10.513  13.980  68.170  1.00  0.00    -0.243 A  
HETATM   29  C   UNL     1     -12.324  14.502  69.695  1.00  0.00    -0.284 A  
ENDBRANCH   4  24
TORSDOF 6
ENDMDL
MODEL      205
REMARK 921   NORMALIZED FREE ENERGY PREDICTED BY IDOCK:   -2.04 KCAL/MOL
REMARK 922        TOTAL FREE ENERGY PREDICTED BY IDOCK:   -3.98 KCAL/MOL
REMARK 923 INTER-LIGAND FREE ENERGY PREDICTED BY IDOCK:   -4.50 KCAL/MOL
REMARK 924 INTRA-LIGAND FREE ENERGY PREDICTED BY IDOCK:    0.52 KCAL/MOL
REMARK 927      BINDING AFFINITY PREDICTED BY RF-SCORE:    0.00 PKD
ROOT
HETATM    1  O   UNL     1      -7.112   9.390  67.529  1.00  0.00    -0.077 OA 
HETATM    2  C   UNL     1      -7.954  10.214  67.197  1.00  0.00    -0.109 C  
HETATM    3  C   UNL     1      -9.394   9.865  66.940  1.00  0.00    -0.184 C  
HETATM    4  N   UNL     1      -7.843  11.623  67.132  1.00  0.00    -0.156 N  
HETATM    5  C   UNL     1      -9.951  11.121  66.353  1.00  0.00    -0.217 C  
HETATM    6  N   UNL     1      -9.109  12.175  66.746  1.00  0.00    -0.202 N  
HETATM    7  O   UNL     1     -10.980  11.123  65.690  1.00  0.00    -0.195 OA 
ENDROOT
BRANCH   3   8
HETATM    8  C   UNL     1     -10.104   9.584  68.274  1.00  0.00    -0.210 C  
BRANCH   8   9
HETATM    9  C   UNL     1     -10.194   8.093  68.638  1.00  0.00    -0.207 C  
BRANCH   9  10
HETATM   10  S   UNL     1      -8.524   7.344  68.536  1.00  0.00    -0.125 S  
HETATM   11  O   UNL     1      -8.299   6.612  69.828  1.00  0.00    -0.128 OA 
BRANCH  10  12
HETATM   12  C   UNL     1      -8.879   6.063  67.307  1.00  0.00    -0.107 A  
HETATM   13  C   UNL     1      -8.672   5.172  65.061  1.00  0.00    -0.148 A  
HETATM   14  C   UNL     1     -10.135   4.096  66.650  1.00  0.00    -0.055 A  
HETATM   15  C   UNL     1      -9.580   4.161  65.373  1.00  0.00    -0.187 A  
HETATM   16  C   UNL     1      -9.785   5.042  67.617  1.00  0.00    -0.188 A  
HETATM   17  C   UNL     1      -8.324   6.122  66.024  1.00  0.00    -0.136 A  
ENDBRANCH  10  12
ENDBRANCH   9  10
ENDBRANCH   8   9
ENDBRANCH   3   8
BRANCH   6  18
HETATM   18  C   UNL     1      -9.388  13.545  66.435  1.00  0.00    -0.176 A  
HETATM   19  C   UNL     1      -9.214  15.919  67.054  1.00  0.00    -0.231 A  
HETATM   20  C   UNL     1      -9.693  16.298  65.811  1.00  0.00    -0.299 A  
HETATM   21  C   UNL     1      -9.933  13.957  65.214  1.00  0.00    -0.266 A  
HETATM   22  C   UNL     1      -9.056  14.562  67.354  1.00  0.00    -0.201 A  
HETATM   23  C   UNL     1     -10.061  15.318  64.895  1.00  0.00    -0.114 A  
ENDBRANCH   6  18
BRANCH   4  24
HETATM   24  C   UNL     1      -6.879  12.203  68.003  1.00  0.00    -0.081 A  
HETATM   25  C   UNL     1      -6.862  11.790  69.345  1.00  0.00    -0.067 A  
HETATM   26  C   UNL     1      -5.173  13.835  68.537  1.00  0.00    -0.091 A  
HETATM   27  C   UNL     1      -6.015  12.392  70.276  1.00  0.00    -0.132 A  
HETATM   28  C   UNL     1      -6.014  13.223  67.601  1.00  0.00    -0.124 A  
HETATM   29  C   UNL     1      -5.175  13.423  69.867  1.00  0.00    -0.087 A  
ENDBRANCH   4  24
TORSDOF 6
ENDMDL
MODEL      206
REMARK 921   NORMALIZED FREE ENERGY PREDICTED BY IDOCK:   -1.99 KCAL/MOL
REMARK 922        TOTAL FREE ENERGY PREDICTED BY IDOCK:   -3.92 KCAL/MOL
REMARK 923 INTER-LIGAND FREE ENERGY PREDICTED BY IDOCK:   -3.60 KCAL/MOL
REMARK 924 INTRA-LIGAND FREE ENERGY PREDICTED BY IDOCK:   -0.32 KCAL/MOL
REMARK 927      BINDING AFFINITY PREDICTED BY RF-SCORE:    0.00 PKD
ROOT
HETATM    1  O   UNL     1      -8.438  15.943  66.941  1.00  0.00    -0.194 OA 
HETATM    2  C   UNL     1      -8.076  14.774  66.903  1.00  0.00    -0.048 C  
HETATM    3  C   UNL     1      -6.908  14.246  67.689  1.00  0.00    -0.201 C  
HETATM    4  N   UNL     1      -8.708  13.667  66.290  1.00  0.00     0.244 N  
HETATM    5  C   UNL     1      -6.725  12.867  67.144  1.00  0.00     0.098 C  
HETATM    6  N   UNL     1      -7.944  12.484  66.559  1.00  0.00     0.212 N  
HETATM    7  O   UNL     1      -5.670  12.258  67.268  1.00  0.00    -0.130 OA 
ENDROOT
BRANCH   3   8
HETATM    8  C   UNL     1      -7.287  14.146  69.175  1.00  0.00    -0.067 C  
BRANCH   8   9
HETATM    9  C   UNL     1      -7.800  15.461  69.784  1.00  0.00    -0.059 C  
BRANCH   9  10
HETATM   10  S   UNL     1      -6.373  16.451  70.371  1.00  0.00     0.584 S  
HETATM   11  O   UNL     1      -5.133  15.720  69.940  1.00  0.00    -0.107 OA 
BRANCH  10  12
HETATM   12  C   UNL     1      -6.532  17.850  69.233  1.00  0.00    -0.248 A  
HETATM   13  C   UNL     1      -7.859  19.603  68.210  1.00  0.00    -0.355 A  
HETATM   14  C   UNL     1      -5.618  19.176  67.420  1.00  0.00    -0.165 A  
HETATM   15  C   UNL     1      -6.809  19.899  67.342  1.00  0.00    -0.253 A  
HETATM   16  C   UNL     1      -5.478  18.155  68.363  1.00  0.00    -0.163 A  
HETATM   17  C   UNL     1      -7.723  18.580  69.150  1.00  0.00    -0.088 A  
ENDBRANCH  10  12
ENDBRANCH   9  10
ENDBRANCH   8   9
ENDBRANCH   3   8
BRANCH   6  18
HETATM   18  C   UNL     1      -8.162  11.179  66.009  1.00  0.00    -0.094 A  
HETATM   19  C   UNL     1      -9.737   9.495  65.154  1.00  0.00    -0.207 A  
HETATM   20  C   UNL     1      -8.686   8.705  64.717  1.00  0.00    -0.099 A  
HETATM   21  C   UNL     1      -7.122  10.329  65.619  1.00  0.00    -0.137 A  
HETATM   22  C   UNL     1      -9.475  10.717  65.782  1.00  0.00    -0.244 A  
HETATM   23  C   UNL     1      -7.379   9.118  64.958  1.00  0.00    -0.100 A  
ENDBRANCH   6  18
BRANCH   4  24
HETATM   24  C   UNL     1     -10.120  13.768  66.148  1.00  0.00    -0.307 A  
HETATM   25  C   UNL     1     -10.893  13.948  67.306  1.00  0.00    -0.292 A  
HETATM   26  C   UNL     1     -12.168  13.598  64.869  1.00  0.00    -0.447 A  
HETATM   27  C   UNL     1     -12.287  13.949  67.252  1.00  0.00    -0.201 A  
HETATM   28  C   UNL     1     -10.770  13.608  64.922  1.00  0.00    -0.400 A  
HETATM   29  C   UNL     1     -12.922  13.765  66.028  1.00  0.00    -0.128 A  
ENDBRANCH   4  24
TORSDOF 6
ENDMDL
MODEL      207
REMARK 921   NORMALIZED FREE ENERGY PREDICTED BY IDOCK:   -1.74 KCAL/MOL
REMARK 922        TOTAL FREE ENERGY PREDICTED BY IDOCK:   -3.58 KCAL/MOL
REMARK 923 INTER-LIGAND FREE ENERGY PREDICTED BY IDOCK:   -3.09 KCAL/MOL
REMARK 924 INTRA-LIGAND FREE ENERGY PREDICTED BY IDOCK:   -0.50 KCAL/MOL
REMARK 927      BINDING AFFINITY PREDICTED BY RF-SCORE:    0.00 PKD
ROOT
HETATM    1  O   UNL     1      -9.926  14.998  64.867  1.00  0.00    -0.273 OA 
HETATM    2  C   UNL     1      -9.849  14.227  65.815  1.00  0.00    -0.287 C  
HETATM    3  C   UNL     1      -9.880  14.677  67.250  1.00  0.00    -0.231 C  
HETATM    4  N   UNL     1      -9.876  12.813  65.815  1.00  0.00    -0.247 N  
HETATM    5  C   UNL     1      -9.528  13.436  68.004  1.00  0.00    -0.218 C  
HETATM    6  N   UNL     1      -9.815  12.344  67.168  1.00  0.00    -0.203 N  
HETATM    7  O   UNL     1      -9.102  13.477  69.152  1.00  0.00     0.275 OA 
ENDROOT
BRANCH   3   8
HETATM    8  C   UNL     1     -11.307  15.101  67.629  1.00  0.00    -0.327 C  
BRANCH   8   9
HETATM    9  C   UNL     1     -11.675  14.832  69.097  1.00  0.00    -0.313 C  
BRANCH   9  10
HETATM   10  S   UNL     1     -11.726  16.421  70.008  1.00  0.00     0.305 S  
HETATM   11  O   UNL     1     -11.004  16.199  71.306  1.00  0.00    -0.090 OA 
BRANCH  10  12
HETATM   12  C   UNL     1     -10.581  17.363  68.970  1.00  0.00    -0.207 A  
HETATM   13  C   UNL     1     -10.160  18.909  67.149  1.00  0.00    -0.414 A  
HETATM   14  C   UNL     1      -8.312  17.793  68.229  1.00  0.00    -0.276 A  
HETATM   15  C   UNL     1      -8.790  18.677  67.261  1.00  0.00    -0.283 A  
HETATM   16  C   UNL     1      -9.204  17.138  69.083  1.00  0.00    -0.042 A  
HETATM   17  C   UNL     1     -11.053  18.252  67.998  1.00  0.00     0.185 A  
ENDBRANCH  10  12
ENDBRANCH   9  10
ENDBRANCH   8   9
ENDBRANCH   3   8
BRANCH   6  18
HETATM   18  C   UNL     1      -9.682  10.984  67.600  1.00  0.00    -0.168 A  
HETATM   19  C   UNL     1      -8.243   9.020  67.945  1.00  0.00    -0.110 A  
HETATM   20  C   UNL     1      -9.258   8.372  68.630  1.00  0.00    -0.143 A  
HETATM   21  C   UNL     1     -10.709  10.278  68.236  1.00  0.00    -0.276 A  
HETATM   22  C   UNL     1      -8.452  10.310  67.447  1.00  0.00    -0.125 A  
HETATM   23  C   UNL     1     -10.493   8.998  68.768  1.00  0.00    -0.230 A  
ENDBRANCH   6  18
BRANCH   4  24
HETATM   24  C   UNL     1     -10.564  12.212  64.725  1.00  0.00    -0.296 A  
HETATM   25  C   UNL     1      -9.811  11.505  63.773  1.00  0.00    -0.348 A  
HETATM   26  C   UNL     1     -12.531  11.853  63.360  1.00  0.00    -0.582 A  
HETATM   27  C   UNL     1     -10.407  10.981  62.625  1.00  0.00     0.223 A  
HETATM   28  C   UNL     1     -11.936  12.369  64.517  1.00  0.00    -0.474 A  
HETATM   29  C   UNL     1     -11.770  11.165  62.419  1.00  0.00     2.085 A  
ENDBRANCH   4  24
TORSDOF 6
ENDMDL
MODEL      208
REMARK 921   NORMALIZED FREE ENERGY PREDICTED BY IDOCK:   -1.62 KCAL/MOL
REMARK 922        TOTAL FREE ENERGY PREDICTED BY IDOCK:   -3.41 KCAL/MOL
REMARK 923 INTER-LIGAND FREE ENERGY PREDICTED BY IDOCK:   -3.69 KCAL/MOL
REMARK 924 INTRA-LIGAND FREE ENERGY PREDICTED BY IDOCK:    0.28 KCAL/MOL
REMARK 927      BINDING AFFINITY PREDICTED BY RF-SCORE:    0.00 PKD
ROOT
HETATM    1  O   UNL     1      -8.035  14.823  70.897  1.00  0.00     1.400 OA 
HETATM    2  C   UNL     1      -8.694  14.918  69.869  1.00  0.00     0.367 C  
HETATM    3  C   UNL     1      -9.136  16.234  69.291  1.00  0.00    -0.185 C  
HETATM    4  N   UNL     1      -9.046  13.910  68.941  1.00  0.00     0.010 N  
HETATM    5  C   UNL     1     -10.080  15.831  68.206  1.00  0.00    -0.222 C  
HETATM    6  N   UNL     1      -9.777  14.503  67.860  1.00  0.00    -0.215 N  
HETATM    7  O   UNL     1     -10.911  16.607  67.750  1.00  0.00    -0.340 OA 
ENDROOT
BRANCH   3   8
HETATM    8  C   UNL     1      -7.932  16.952  68.660  1.00  0.00    -0.256 C  
BRANCH   8   9
HETATM    9  C   UNL     1      -7.948  16.978  67.123  1.00  0.00    -0.188 C  
BRANCH   9  10
HETATM   10  S   UNL     1      -8.767  18.515  66.553  1.00  0.00    -0.265 S  
HETATM   11  O   UNL     1      -9.552  19.045  67.719  1.00  0.00    -0.297 OA 
BRANCH  10  12
HETATM   12  C   UNL     1      -7.302  19.571  66.434  1.00  0.00    -0.253 A  
HETATM   13  C   UNL     1      -5.394  20.663  67.459  1.00  0.00    -0.228 A  
HETATM   14  C   UNL     1      -5.960  21.140  65.162  1.00  0.00    -0.211 A  
HETATM   15  C   UNL     1      -5.140  21.346  66.270  1.00  0.00    -0.263 A  
HETATM   16  C   UNL     1      -7.038  20.254  65.241  1.00  0.00    -0.222 A  
HETATM   17  C   UNL     1      -6.473  19.781  67.543  1.00  0.00    -0.231 A  
ENDBRANCH  10  12
ENDBRANCH   9  10
ENDBRANCH   8   9
ENDBRANCH   3   8
BRANCH   6  18
HETATM   18  C   UNL     1     -10.430  13.815  66.786  1.00  0.00    -0.270 A  
HETATM   19  C   UNL     1     -12.159  12.228  66.051  1.00  0.00    -0.229 A  
HETATM   20  C   UNL     1     -11.935  12.569  64.726  1.00  0.00    -0.469 A  
HETATM   21  C   UNL     1     -10.180  14.087  65.437  1.00  0.00    -0.368 A  
HETATM   22  C   UNL     1     -11.422  12.851  67.063  1.00  0.00    -0.390 A  
HETATM   23  C   UNL     1     -10.940  13.492  64.420  1.00  0.00    -0.399 A  
ENDBRANCH   6  18
BRANCH   4  24
HETATM   24  C   UNL     1      -8.158  12.801  68.875  1.00  0.00     0.216 A  
HETATM   25  C   UNL     1      -8.699  11.509  68.981  1.00  0.00     0.134 A  
HETATM   26  C   UNL     1      -5.946  11.816  68.857  1.00  0.00    -0.051 A  
HETATM   27  C   UNL     1      -7.878  10.383  69.030  1.00  0.00    -0.120 A  
HETATM   28  C   UNL     1      -6.771  12.945  68.797  1.00  0.00    -0.093 A  
HETATM   29  C   UNL     1      -6.497  10.542  68.975  1.00  0.00    -0.054 A  
ENDBRANCH   4  24
TORSDOF 6
ENDMDL
MODEL      209
REMARK 921   NORMALIZED FREE ENERGY PREDICTED BY IDOCK:   -0.90 KCAL/MOL
REMARK 922        TOTAL FREE ENERGY PREDICTED BY IDOCK:   -2.44 KCAL/MOL
REMARK 923 INTER-LIGAND FREE ENERGY PREDICTED BY IDOCK:   -2.00 KCAL/MOL
REMARK 924 INTRA-LIGAND FREE ENERGY PREDICTED BY IDOCK:   -0.44 KCAL/MOL
REMARK 927      BINDING AFFINITY PREDICTED BY RF-SCORE:    0.00 PKD
ROOT
HETATM    1  O   UNL     1      -9.361   6.430  63.708  1.00  0.00     1.341 OA 
HETATM    2  C   UNL     1      -8.672   6.066  64.652  1.00  0.00     0.171 C  
HETATM    3  C   UNL     1      -8.413   6.920  65.862  1.00  0.00    -0.147 C  
HETATM    4  N   UNL     1      -8.119   4.790  64.909  1.00  0.00    -0.101 N  
HETATM    5  C   UNL     1      -7.361   6.157  66.600  1.00  0.00    -0.082 C  
HETATM    6  N   UNL     1      -7.434   4.822  66.168  1.00  0.00    -0.085 N  
HETATM    7  O   UNL     1      -6.639   6.691  67.432  1.00  0.00    -0.052 OA 
ENDROOT
BRANCH   3   8
HETATM    8  C   UNL     1      -9.679   6.986  66.731  1.00  0.00    -0.241 C  
BRANCH   8   9
HETATM    9  C   UNL     1     -10.369   8.359  66.734  1.00  0.00    -0.287 C  
BRANCH   9  10
HETATM   10  S   UNL     1     -10.663   8.883  68.466  1.00  0.00    -0.007 S  
HETATM   11  O   UNL     1      -9.332   8.845  69.161  1.00  0.00    -0.147 OA 
BRANCH  10  12
HETATM   12  C   UNL     1     -11.002  10.635  68.162  1.00  0.00    -0.269 A  
HETATM   13  C   UNL     1     -11.283  12.501  66.639  1.00  0.00    -0.357 A  
HETATM   14  C   UNL     1     -11.258  12.888  69.021  1.00  0.00    -0.320 A  
HETATM   15  C   UNL     1     -11.356  13.379  67.719  1.00  0.00    -0.325 A  
HETATM   16  C   UNL     1     -11.083  11.520  69.244  1.00  0.00    -0.305 A  
HETATM   17  C   UNL     1     -11.104  11.134  66.859  1.00  0.00    -0.313 A  
ENDBRANCH  10  12
ENDBRANCH   9  10
ENDBRANCH   8   9
ENDBRANCH   3   8
BRANCH   6  18
HETATM   18  C   UNL     1      -6.626   3.781  66.732  1.00  0.00    -0.045 A  
HETATM   19  C   UNL     1      -5.995   2.439  68.693  1.00  0.00    -0.024 A  
HETATM   20  C   UNL     1      -5.237   1.596  67.897  1.00  0.00    -0.012 A  
HETATM   21  C   UNL     1      -5.797   2.955  65.964  1.00  0.00    -0.023 A  
HETATM   22  C   UNL     1      -6.686   3.509  68.114  1.00  0.00    -0.046 A  
HETATM   23  C   UNL     1      -5.131   1.860  66.535  1.00  0.00    -0.005 A  
ENDBRANCH   6  18
BRANCH   4  24
HETATM   24  C   UNL     1      -8.818   3.691  64.336  1.00  0.00    -0.117 A  
HETATM   25  C   UNL     1      -9.133   3.746  62.969  1.00  0.00    -0.104 A  
HETATM   26  C   UNL     1     -10.060   1.619  64.488  1.00  0.00     0.249 A  
HETATM   27  C   UNL     1      -9.907   2.754  62.365  1.00  0.00    -0.091 A  
HETATM   28  C   UNL     1      -9.275   2.609  65.090  1.00  0.00    -0.131 A  
HETATM   29  C   UNL     1     -10.376   1.693  63.133  1.00  0.00    -0.126 A  
ENDBRANCH   4  24
TORSDOF 6
ENDMDL
MODEL      210
REMARK 921   NORMALIZED FREE ENERGY PREDICTED BY IDOCK:   -0.37 KCAL/MOL
REMARK 922        TOTAL FREE ENERGY PREDICTED BY IDOCK:   -1.72 KCAL/MOL
REMARK 923 INTER-LIGAND FREE ENERGY PREDICTED BY IDOCK:   -1.38 KCAL/MOL
REMARK 924 INTRA-LIGAND FREE ENERGY PREDICTED BY IDOCK:   -0.34 KCAL/MOL
REMARK 927      BINDING AFFINITY PREDICTED BY RF-SCORE:    0.00 PKD
ROOT
HETATM    1  O   UNL     1      -9.466   6.424  63.718  1.00  0.00     1.670 OA 
HETATM    2  C   UNL     1      -8.763   6.077  64.659  1.00  0.00     0.171 C  
HETATM    3  C   UNL     1      -8.385   6.994  65.789  1.00  0.00    -0.143 C  
HETATM    4  N   UNL     1      -8.296   4.784  64.989  1.00  0.00    -0.125 N  
HETATM    5  C   UNL     1      -7.360   6.207  66.539  1.00  0.00    -0.081 C  
HETATM    6  N   UNL     1      -7.553   4.854  66.213  1.00  0.00    -0.086 N  
HETATM    7  O   UNL     1      -6.564   6.743  67.299  1.00  0.00    -0.050 OA 
ENDROOT
BRANCH   3   8
HETATM    8  C   UNL     1      -9.602   7.221  66.700  1.00  0.00    -0.236 C  
BRANCH   8   9
HETATM    9  C   UNL     1     -10.116   8.670  66.715  1.00  0.00    -0.296 C  
BRANCH   9  10
HETATM   10  S   UNL     1      -9.722   9.434  68.334  1.00  0.00    -0.152 S  
HETATM   11  O   UNL     1     -10.936  10.215  68.750  1.00  0.00    -0.222 OA 
BRANCH  10  12
HETATM   12  C   UNL     1      -9.737   7.935  69.349  1.00  0.00    -0.170 A  
HETATM   13  C   UNL     1     -10.919   6.060  70.332  1.00  0.00    -0.399 A  
HETATM   14  C   UNL     1      -8.620   6.480  70.934  1.00  0.00    -0.135 A  
HETATM   15  C   UNL     1      -9.782   5.719  71.062  1.00  0.00    -0.213 A  
HETATM   16  C   UNL     1      -8.596   7.585  70.079  1.00  0.00    -0.139 A  
HETATM   17  C   UNL     1     -10.899   7.166  69.481  1.00  0.00    -0.244 A  
ENDBRANCH  10  12
ENDBRANCH   9  10
ENDBRANCH   8   9
ENDBRANCH   3   8
BRANCH   6  18
HETATM   18  C   UNL     1      -6.799   3.797  66.821  1.00  0.00    -0.054 A  
HETATM   19  C   UNL     1      -6.490   2.255  68.711  1.00  0.00    -0.029 A  
HETATM   20  C   UNL     1      -5.513   1.564  68.012  1.00  0.00    -0.017 A  
HETATM   21  C   UNL     1      -5.762   3.123  66.168  1.00  0.00    -0.018 A  
HETATM   22  C   UNL     1      -7.128   3.349  68.117  1.00  0.00    -0.050 A  
HETATM   23  C   UNL     1      -5.144   2.004  66.745  1.00  0.00    -0.005 A  
ENDBRANCH   6  18
BRANCH   4  24
HETATM   24  C   UNL     1      -9.100   3.704  64.530  1.00  0.00    -0.131 A  
HETATM   25  C   UNL     1      -9.975   3.937  63.457  1.00  0.00    -0.172 A  
HETATM   26  C   UNL     1     -10.019   1.473  64.728  1.00  0.00     0.291 A  
HETATM   27  C   UNL     1     -10.866   2.955  63.024  1.00  0.00    -0.200 A  
HETATM   28  C   UNL     1      -9.118   2.455  65.154  1.00  0.00    -0.126 A  
HETATM   29  C   UNL     1     -10.890   1.723  63.670  1.00  0.00    -0.025 A  
ENDBRANCH   4  24
TORSDOF 6
ENDMDL
MODEL      211
REMARK 921   NORMALIZED FREE ENERGY PREDICTED BY IDOCK:    2.14 KCAL/MOL
REMARK 922        TOTAL FREE ENERGY PREDICTED BY IDOCK:    1.66 KCAL/MOL
REMARK 923 INTER-LIGAND FREE ENERGY PREDICTED BY IDOCK:   -5.22 KCAL/MOL
REMARK 924 INTRA-LIGAND FREE ENERGY PREDICTED BY IDOCK:    6.88 KCAL/MOL
REMARK 927      BINDING AFFINITY PREDICTED BY RF-SCORE:    0.00 PKD
ROOT
HETATM    1  O   UNL     1      -5.696  14.575  67.595  1.00  0.00    -0.303 OA 
HETATM    2  C   UNL     1      -6.827  14.897  67.935  1.00  0.00    -0.157 C  
HETATM    3  C   UNL     1      -7.400  16.268  67.703  1.00  0.00    -0.161 C  
HETATM    4  N   UNL     1      -7.867  14.086  68.445  1.00  0.00    -0.137 N  
HETATM    5  C   UNL     1      -8.676  16.241  68.480  1.00  0.00    -0.211 C  
HETATM    6  N   UNL     1      -9.034  14.893  68.647  1.00  0.00    -0.179 N  
HETATM    7  O   UNL     1      -9.240  17.270  68.831  1.00  0.00    -0.256 OA 
ENDROOT
BRANCH   3   8
HETATM    8  C   UNL     1      -7.730  16.446  66.212  1.00  0.00    -0.144 C  
BRANCH   8   9
HETATM    9  C   UNL     1      -9.232  16.566  65.909  1.00  0.00    -0.174 C  
BRANCH   9  10
HETATM   10  S   UNL     1      -9.668  18.336  65.712  1.00  0.00     0.429 S  
HETATM   11  O   UNL     1     -11.031  18.515  66.317  1.00  0.00    -0.100 OA 
BRANCH  10  12
HETATM   12  C   UNL     1      -8.508  19.034  66.913  1.00  0.00    -0.290 A  
HETATM   13  C   UNL     1      -6.435  20.182  67.430  1.00  0.00    -0.246 A  
HETATM   14  C   UNL     1      -7.782  19.272  69.214  1.00  0.00    -0.190 A  
HETATM   15  C   UNL     1      -6.642  19.954  68.790  1.00  0.00    -0.355 A  
HETATM   16  C   UNL     1      -8.714  18.814  68.280  1.00  0.00    -0.363 A  
HETATM   17  C   UNL     1      -7.363  19.720  66.494  1.00  0.00    -0.275 A  
ENDBRANCH  10  12
ENDBRANCH   9  10
ENDBRANCH   8   9
ENDBRANCH   3   8
BRANCH   6  18
HETATM   18  C   UNL     1     -10.258  14.490  69.274  1.00  0.00    -0.109 A  
HETATM   19  C   UNL     1     -12.150  12.923  69.378  1.00  0.00    -0.254 A  
HETATM   20  C   UNL     1     -12.569  13.477  70.576  1.00  0.00    -0.311 A  
HETATM   21  C   UNL     1     -10.744  15.074  70.449  1.00  0.00    -0.134 A  
HETATM   22  C   UNL     1     -11.006  13.419  68.744  1.00  0.00    -0.290 A  
HETATM   23  C   UNL     1     -11.871  14.558  71.107  1.00  0.00    -0.353 A  
ENDBRANCH   6  18
BRANCH   4  24
HETATM   24  C   UNL     1      -7.822  12.717  68.061  1.00  0.00    -0.149 A  
HETATM   25  C   UNL     1      -8.293  12.368  66.785  1.00  0.00    -0.060 A  
HETATM   26  C   UNL     1      -7.505  10.363  68.531  1.00  0.00    -0.089 A  
HETATM   27  C   UNL     1      -8.375  11.034  66.384  1.00  0.00    -0.165 A  
HETATM   28  C   UNL     1      -7.412  11.701  68.928  1.00  0.00    -0.092 A  
HETATM   29  C   UNL     1      -7.986  10.032  67.266  1.00  0.00    -0.106 A  
ENDBRANCH   4  24
TORSDOF 6
ENDMDL
MODEL      212
REMARK 921   NORMALIZED FREE ENERGY PREDICTED BY IDOCK:    3.54 KCAL/MOL
REMARK 922        TOTAL FREE ENERGY PREDICTED BY IDOCK:    3.56 KCAL/MOL
REMARK 923 INTER-LIGAND FREE ENERGY PREDICTED BY IDOCK:   -3.77 KCAL/MOL
REMARK 924 INTRA-LIGAND FREE ENERGY PREDICTED BY IDOCK:    7.33 KCAL/MOL
REMARK 927      BINDING AFFINITY PREDICTED BY RF-SCORE:    0.00 PKD
ROOT
HETATM    1  O   UNL     1      -8.363   8.526  65.349  1.00  0.00    -0.138 OA 
HETATM    2  C   UNL     1      -8.708   8.082  66.436  1.00  0.00    -0.151 C  
HETATM    3  C   UNL     1      -8.464   6.661  66.863  1.00  0.00    -0.115 C  
HETATM    4  N   UNL     1      -9.237   8.773  67.552  1.00  0.00    -0.136 N  
HETATM    5  C   UNL     1      -9.252   6.543  68.127  1.00  0.00    -0.112 C  
HETATM    6  N   UNL     1      -9.438   7.844  68.625  1.00  0.00    -0.149 N  
HETATM    7  O   UNL     1      -9.595   5.457  68.576  1.00  0.00    -0.118 OA 
ENDROOT
BRANCH   3   8
HETATM    8  C   UNL     1      -6.975   6.466  67.186  1.00  0.00    -0.071 C  
BRANCH   8   9
HETATM    9  C   UNL     1      -6.158   7.767  67.202  1.00  0.00    -0.052 C  
BRANCH   9  10
HETATM   10  S   UNL     1      -6.406   8.656  65.618  1.00  0.00    -0.056 S  
HETATM   11  O   UNL     1      -5.136   9.410  65.342  1.00  0.00    -0.035 OA 
BRANCH  10  12
HETATM   12  C   UNL     1      -6.375   7.230  64.503  1.00  0.00    -0.037 A  
HETATM   13  C   UNL     1      -7.325   5.960  62.668  1.00  0.00    -0.054 A  
HETATM   14  C   UNL     1      -5.479   5.051  63.930  1.00  0.00    -0.016 A  
HETATM   15  C   UNL     1      -6.413   4.931  62.901  1.00  0.00    -0.026 A  
HETATM   16  C   UNL     1      -5.457   6.197  64.728  1.00  0.00    -0.017 A  
HETATM   17  C   UNL     1      -7.309   7.104  63.468  1.00  0.00    -0.082 A  
ENDBRANCH  10  12
ENDBRANCH   9  10
ENDBRANCH   8   9
ENDBRANCH   3   8
BRANCH   6  18
HETATM   18  C   UNL     1     -10.080   8.108  69.879  1.00  0.00    -0.195 A  
HETATM   19  C   UNL     1     -10.821   9.745  71.557  1.00  0.00    -0.045 A  
HETATM   20  C   UNL     1     -11.523   8.761  72.235  1.00  0.00    -0.376 A  
HETATM   21  C   UNL     1     -10.742   7.124  70.622  1.00  0.00    -0.255 A  
HETATM   22  C   UNL     1     -10.119   9.420  70.392  1.00  0.00    -0.310 A  
HETATM   23  C   UNL     1     -11.476   7.450  71.772  1.00  0.00    -0.297 A  
ENDBRANCH   6  18
BRANCH   4  24
HETATM   24  C   UNL     1      -8.869  10.143  67.656  1.00  0.00    -0.125 A  
HETATM   25  C   UNL     1      -9.559  11.077  66.867  1.00  0.00    -0.205 A  
HETATM   26  C   UNL     1      -7.413  11.927  68.404  1.00  0.00    -0.102 A  
HETATM   27  C   UNL     1      -9.182  12.420  66.840  1.00  0.00    -0.209 A  
HETATM   28  C   UNL     1      -7.799  10.583  68.439  1.00  0.00    -0.110 A  
HETATM   29  C   UNL     1      -8.100  12.840  67.607  1.00  0.00    -0.175 A  
ENDBRANCH   4  24
TORSDOF 6
ENDMDL
MODEL      213
REMARK 921   NORMALIZED FREE ENERGY PREDICTED BY IDOCK:    5.21 KCAL/MOL
REMARK 922        TOTAL FREE ENERGY PREDICTED BY IDOCK:    5.81 KCAL/MOL
REMARK 923 INTER-LIGAND FREE ENERGY PREDICTED BY IDOCK:   -2.36 KCAL/MOL
REMARK 924 INTRA-LIGAND FREE ENERGY PREDICTED BY IDOCK:    8.17 KCAL/MOL
REMARK 927      BINDING AFFINITY PREDICTED BY RF-SCORE:    0.00 PKD
ROOT
HETATM    1  O   UNL     1      -7.429   6.323  69.790  1.00  0.00    -0.077 OA 
HETATM    2  C   UNL     1      -8.214   7.236  69.566  1.00  0.00    -0.131 C  
HETATM    3  C   UNL     1      -8.974   7.955  70.646  1.00  0.00    -0.148 C  
HETATM    4  N   UNL     1      -8.468   7.911  68.350  1.00  0.00    -0.128 N  
HETATM    5  C   UNL     1      -9.945   8.794  69.880  1.00  0.00    -0.187 C  
HETATM    6  N   UNL     1      -9.428   8.950  68.583  1.00  0.00    -0.150 N  
HETATM    7  O   UNL     1     -10.961   9.240  70.396  1.00  0.00    -0.231 OA 
ENDROOT
BRANCH   3   8
HETATM    8  C   UNL     1      -8.023   8.879  71.422  1.00  0.00    -0.150 C  
BRANCH   8   9
HETATM    9  C   UNL     1      -6.818   9.371  70.605  1.00  0.00    -0.104 C  
BRANCH   9  10
HETATM   10  S   UNL     1      -7.394  10.560  69.334  1.00  0.00    -0.143 S  
HETATM   11  O   UNL     1      -8.831  10.867  69.650  1.00  0.00     0.123 OA 
BRANCH  10  12
HETATM   12  C   UNL     1      -6.457  12.010  69.878  1.00  0.00    -0.029 A  
HETATM   13  C   UNL     1      -5.606  13.436  71.646  1.00  0.00    -0.066 A  
HETATM   14  C   UNL     1      -5.346  14.096  69.339  1.00  0.00    -0.082 A  
HETATM   15  C   UNL     1      -5.153  14.351  70.697  1.00  0.00    -0.106 A  
HETATM   16  C   UNL     1      -5.994  12.929  68.929  1.00  0.00    -0.079 A  
HETATM   17  C   UNL     1      -6.259  12.271  71.239  1.00  0.00     1.435 A  
ENDBRANCH  10  12
ENDBRANCH   9  10
ENDBRANCH   8   9
ENDBRANCH   3   8
BRANCH   6  18
HETATM   18  C   UNL     1     -10.057   9.775  67.594  1.00  0.00    -0.190 A  
HETATM   19  C   UNL     1     -11.424  11.748  67.065  1.00  0.00    -0.368 A  
HETATM   20  C   UNL     1     -11.156  11.596  65.714  1.00  0.00    -0.313 A  
HETATM   21  C   UNL     1      -9.860   9.607  66.219  1.00  0.00    -0.323 A  
HETATM   22  C   UNL     1     -10.873  10.854  67.988  1.00  0.00    -0.293 A  
HETATM   23  C   UNL     1     -10.381  10.521  65.291  1.00  0.00    -0.300 A  
ENDBRANCH   6  18
BRANCH   4  24
HETATM   24  C   UNL     1      -7.392   7.924  67.419  1.00  0.00    -0.092 A  
HETATM   25  C   UNL     1      -7.309   6.879  66.485  1.00  0.00    -0.073 A  
HETATM   26  C   UNL     1      -5.282   8.768  66.585  1.00  0.00    -0.035 A  
HETATM   27  C   UNL     1      -6.225   6.773  65.613  1.00  0.00    -0.039 A  
HETATM   28  C   UNL     1      -6.375   8.880  67.452  1.00  0.00    -0.056 A  
HETATM   29  C   UNL     1      -5.207   7.718  65.673  1.00  0.00    -0.028 A  
ENDBRANCH   4  24
TORSDOF 6
ENDMDL
MODEL      214
REMARK 921   NORMALIZED FREE ENERGY PREDICTED BY IDOCK:    5.47 KCAL/MOL
REMARK 922        TOTAL FREE ENERGY PREDICTED BY IDOCK:    6.15 KCAL/MOL
REMARK 923 INTER-LIGAND FREE ENERGY PREDICTED BY IDOCK:    5.25 KCAL/MOL
REMARK 924 INTRA-LIGAND FREE ENERGY PREDICTED BY IDOCK:    0.90 KCAL/MOL
REMARK 927      BINDING AFFINITY PREDICTED BY RF-SCORE:    0.00 PKD
ROOT
HETATM    1  O   UNL     1      -8.550  16.082  67.039  1.00  0.00    -0.180 OA 
HETATM    2  C   UNL     1      -8.445  14.949  66.587  1.00  0.00    -0.103 C  
HETATM    3  C   UNL     1      -7.459  13.939  67.106  1.00  0.00     0.094 C  
HETATM    4  N   UNL     1      -9.268  14.289  65.644  1.00  0.00     0.182 N  
HETATM    5  C   UNL     1      -7.549  12.830  66.110  1.00  0.00     1.770 C  
HETATM    6  N   UNL     1      -8.790  12.950  65.462  1.00  0.00     0.822 N  
HETATM    7  O   UNL     1      -6.657  12.001  65.985  1.00  0.00     0.504 OA 
ENDROOT
BRANCH   3   8
HETATM    8  C   UNL     1      -7.925  13.417  68.475  1.00  0.00    -0.107 C  
BRANCH   8   9
HETATM    9  C   UNL     1      -7.866  14.462  69.601  1.00  0.00     0.285 C  
BRANCH   9  10
HETATM   10  S   UNL     1      -6.129  14.992  69.843  1.00  0.00    -0.153 S  
HETATM   11  O   UNL     1      -5.262  13.919  69.246  1.00  0.00    -0.081 OA 
BRANCH  10  12
HETATM   12  C   UNL     1      -6.097  16.357  68.655  1.00  0.00    -0.126 A  
HETATM   13  C   UNL     1      -5.146  17.442  66.706  1.00  0.00    -0.195 A  
HETATM   14  C   UNL     1      -6.826  18.579  68.013  1.00  0.00    -0.228 A  
HETATM   15  C   UNL     1      -5.947  18.561  66.931  1.00  0.00    -0.171 A  
HETATM   16  C   UNL     1      -6.904  17.480  68.873  1.00  0.00    -0.246 A  
HETATM   17  C   UNL     1      -5.217  16.345  67.566  1.00  0.00    -0.156 A  
ENDBRANCH  10  12
ENDBRANCH   9  10
ENDBRANCH   8   9
ENDBRANCH   3   8
BRANCH   6  18
HETATM   18  C   UNL     1      -9.255  11.995  64.499  1.00  0.00     0.413 A  
HETATM   19  C   UNL     1      -8.797  10.022  63.106  1.00  0.00    -0.244 A  
HETATM   20  C   UNL     1     -10.136   9.928  62.764  1.00  0.00     1.020 A  
HETATM   21  C   UNL     1     -10.588  11.916  64.082  1.00  0.00    -0.397 A  
HETATM   22  C   UNL     1      -8.369  11.036  63.969  1.00  0.00     0.287 A  
HETATM   23  C   UNL     1     -11.030  10.881  63.245  1.00  0.00     0.341 A  
ENDBRANCH   6  18
BRANCH   4  24
HETATM   24  C   UNL     1     -10.617  14.738  65.586  1.00  0.00    -0.340 A  
HETATM   25  C   UNL     1     -11.552  14.145  66.449  1.00  0.00    -0.380 A  
HETATM   26  C   UNL     1     -12.424  15.985  64.566  1.00  0.00     0.771 A  
HETATM   27  C   UNL     1     -12.909  14.462  66.372  1.00  0.00     0.362 A  
HETATM   28  C   UNL     1     -11.062  15.675  64.651  1.00  0.00    -0.387 A  
HETATM   29  C   UNL     1     -13.342  15.380  65.421  1.00  0.00     1.892 A  
ENDBRANCH   4  24
TORSDOF 6
ENDMDL
MODEL      215
REMARK 921   NORMALIZED FREE ENERGY PREDICTED BY IDOCK:   12.35 KCAL/MOL
REMARK 922        TOTAL FREE ENERGY PREDICTED BY IDOCK:   15.45 KCAL/MOL
REMARK 923 INTER-LIGAND FREE ENERGY PREDICTED BY IDOCK:   -2.35 KCAL/MOL
REMARK 924 INTRA-LIGAND FREE ENERGY PREDICTED BY IDOCK:   17.80 KCAL/MOL
REMARK 927      BINDING AFFINITY PREDICTED BY RF-SCORE:    0.00 PKD
ROOT
HETATM    1  O   UNL     1      -8.265   8.750  65.371  1.00  0.00    -0.120 OA 
HETATM    2  C   UNL     1      -7.979   8.436  66.520  1.00  0.00    -0.096 C  
HETATM    3  C   UNL     1      -6.838   7.519  66.865  1.00  0.00    -0.070 C  
HETATM    4  N   UNL     1      -8.497   8.941  67.735  1.00  0.00    -0.124 N  
HETATM    5  C   UNL     1      -7.036   7.262  68.324  1.00  0.00    -0.081 C  
HETATM    6  N   UNL     1      -7.818   8.314  68.830  1.00  0.00    -0.109 N  
HETATM    7  O   UNL     1      -6.535   6.295  68.883  1.00  0.00    -0.039 OA 
ENDROOT
BRANCH   3   8
HETATM    8  C   UNL     1      -5.504   8.255  66.667  1.00  0.00    -0.032 C  
BRANCH   8   9
HETATM    9  C   UNL     1      -5.648   9.766  66.424  1.00  0.00    -0.052 C  
BRANCH   9  10
HETATM   10  S   UNL     1      -7.191  10.082  65.487  1.00  0.00    -0.139 S  
HETATM   11  O   UNL     1      -6.993  11.378  64.753  1.00  0.00     1.030 OA 
BRANCH  10  12
HETATM   12  C   UNL     1      -7.017   8.785  64.237  1.00  0.00    -0.088 A  
HETATM   13  C   UNL     1      -7.854   6.803  63.116  1.00  0.00    -0.105 A  
HETATM   14  C   UNL     1      -5.635   7.617  62.623  1.00  0.00    -0.047 A  
HETATM   15  C   UNL     1      -6.653   6.685  62.418  1.00  0.00    -0.039 A  
HETATM   16  C   UNL     1      -5.816   8.666  63.528  1.00  0.00    -0.072 A  
HETATM   17  C   UNL     1      -8.035   7.848  64.025  1.00  0.00    -0.124 A  
ENDBRANCH  10  12
ENDBRANCH   9  10
ENDBRANCH   8   9
ENDBRANCH   3   8
BRANCH   6  18
HETATM   18  C   UNL     1      -8.134   8.442  70.222  1.00  0.00    -0.104 A  
HETATM   19  C   UNL     1      -9.786   8.229  72.031  1.00  0.00    -0.327 A  
HETATM   20  C   UNL     1      -8.803   8.448  72.982  1.00  0.00    -0.233 A  
HETATM   21  C   UNL     1      -7.176   8.729  71.201  1.00  0.00    -0.097 A  
HETATM   22  C   UNL     1      -9.451   8.217  70.673  1.00  0.00    -0.174 A  
HETATM   23  C   UNL     1      -7.501   8.707  72.566  1.00  0.00    -0.007 A  
ENDBRANCH   6  18
BRANCH   4  24
HETATM   24  C   UNL     1      -9.003  10.270  67.681  1.00  0.00    -0.134 A  
HETATM   25  C   UNL     1      -8.373  11.253  68.461  1.00  0.00    -0.155 A  
HETATM   26  C   UNL     1     -10.661  11.914  67.043  1.00  0.00    -0.280 A  
HETATM   27  C   UNL     1      -8.879  12.550  68.538  1.00  0.00    -0.046 A  
HETATM   28  C   UNL     1     -10.146  10.616  66.958  1.00  0.00    -0.255 A  
HETATM   29  C   UNL     1     -10.032  12.875  67.831  1.00  0.00    -0.233 A  
ENDBRANCH   4  24
TORSDOF 6
ENDMDL
MODEL      216
REMARK 921   NORMALIZED FREE ENERGY PREDICTED BY IDOCK:   14.95 KCAL/MOL
REMARK 922        TOTAL FREE ENERGY PREDICTED BY IDOCK:   18.96 KCAL/MOL
REMARK 923 INTER-LIGAND FREE ENERGY PREDICTED BY IDOCK:   16.29 KCAL/MOL
REMARK 924 INTRA-LIGAND FREE ENERGY PREDICTED BY IDOCK:    2.67 KCAL/MOL
REMARK 927      BINDING AFFINITY PREDICTED BY RF-SCORE:    0.00 PKD
ROOT
HETATM    1  O   UNL     1     -10.457  15.157  66.242  1.00  0.00    -0.287 OA 
HETATM    2  C   UNL     1     -10.407  14.267  67.081  1.00  0.00    -0.262 C  
HETATM    3  C   UNL     1     -10.674  14.495  68.543  1.00  0.00    -0.253 C  
HETATM    4  N   UNL     1     -10.258  12.874  66.890  1.00  0.00    -0.240 N  
HETATM    5  C   UNL     1     -10.270  13.200  69.170  1.00  0.00     0.230 C  
HETATM    6  N   UNL     1     -10.311  12.219  68.164  1.00  0.00    -0.210 N  
HETATM    7  O   UNL     1     -10.001  13.115  70.361  1.00  0.00     2.910 OA 
ENDROOT
BRANCH   3   8
HETATM    8  C   UNL     1     -12.180  14.706  68.767  1.00  0.00    -0.154 C  
BRANCH   8   9
HETATM    9  C   UNL     1     -12.796  13.776  69.824  1.00  0.00     0.353 C  
BRANCH   9  10
HETATM   10  S   UNL     1     -12.522  14.490  71.490  1.00  0.00    -0.370 S  
HETATM   11  O   UNL     1     -11.488  13.633  72.163  1.00  0.00     1.748 OA 
BRANCH  10  12
HETATM   12  C   UNL     1     -11.654  15.999  70.995  1.00  0.00    -0.431 A  
HETATM   13  C   UNL     1      -9.789  17.535  71.216  1.00  0.00     5.086 A  
HETATM   14  C   UNL     1     -11.652  18.103  69.790  1.00  0.00     4.361 A  
HETATM   15  C   UNL     1     -10.412  18.425  70.342  1.00  0.00     1.786 A  
HETATM   16  C   UNL     1     -12.272  16.893  70.113  1.00  0.00     2.569 A  
HETATM   17  C   UNL     1     -10.409  16.327  71.545  1.00  0.00     2.145 A  
ENDBRANCH  10  12
ENDBRANCH   9  10
ENDBRANCH   8   9
ENDBRANCH   3   8
BRANCH   6  18
HETATM   18  C   UNL     1     -10.066  10.831  68.427  1.00  0.00    -0.169 A  
HETATM   19  C   UNL     1     -10.826   8.498  68.278  1.00  0.00     0.013 A  
HETATM   20  C   UNL     1      -9.587   8.046  68.700  1.00  0.00    -0.150 A  
HETATM   21  C   UNL     1      -8.847  10.349  68.917  1.00  0.00    -0.161 A  
HETATM   22  C   UNL     1     -11.055   9.871  68.136  1.00  0.00    -0.215 A  
HETATM   23  C   UNL     1      -8.601   8.972  69.028  1.00  0.00    -0.134 A  
ENDBRANCH   6  18
BRANCH   4  24
HETATM   24  C   UNL     1     -10.722  12.371  65.643  1.00  0.00    -0.264 A  
HETATM   25  C   UNL     1     -10.060  11.266  65.084  1.00  0.00    -0.326 A  
HETATM   26  C   UNL     1     -12.074  12.509  63.640  1.00  0.00    -0.642 A  
HETATM   27  C   UNL     1     -10.395  10.788  63.817  1.00  0.00    -0.294 A  
HETATM   28  C   UNL     1     -11.746  12.981  64.915  1.00  0.00    -0.381 A  
HETATM   29  C   UNL     1     -11.400  11.420  63.093  1.00  0.00     0.033 A  
ENDBRANCH   4  24
TORSDOF 6
ENDMDL
MODEL      217
REMARK 921   NORMALIZED FREE ENERGY PREDICTED BY IDOCK:   18.63 KCAL/MOL
REMARK 922        TOTAL FREE ENERGY PREDICTED BY IDOCK:   23.93 KCAL/MOL
REMARK 923 INTER-LIGAND FREE ENERGY PREDICTED BY IDOCK:   12.67 KCAL/MOL
REMARK 924 INTRA-LIGAND FREE ENERGY PREDICTED BY IDOCK:   11.26 KCAL/MOL
REMARK 927      BINDING AFFINITY PREDICTED BY RF-SCORE:    0.00 PKD
ROOT
HETATM    1  O   UNL     1      -7.105  16.123  72.175  1.00  0.00     5.254 OA 
HETATM    2  C   UNL     1      -7.606  15.936  71.073  1.00  0.00     3.184 C  
HETATM    3  C   UNL     1      -7.880  17.043  70.092  1.00  0.00     2.050 C  
HETATM    4  N   UNL     1      -7.884  14.713  70.419  1.00  0.00     0.789 N  
HETATM    5  C   UNL     1      -8.685  16.366  69.031  1.00  0.00    -0.233 C  
HETATM    6  N   UNL     1      -8.418  14.990  69.118  1.00  0.00    -0.202 N  
HETATM    7  O   UNL     1      -9.394  16.998  68.257  1.00  0.00    -0.239 OA 
ENDROOT
BRANCH   3   8
HETATM    8  C   UNL     1      -6.558  17.529  69.478  1.00  0.00    -0.160 C  
BRANCH   8   9
HETATM    9  C   UNL     1      -6.191  16.846  68.151  1.00  0.00    -0.132 C  
BRANCH   9  10
HETATM   10  S   UNL     1      -7.468  17.240  66.896  1.00  0.00    -0.231 S  
HETATM   11  O   UNL     1      -8.712  17.618  67.650  1.00  0.00    -0.228 OA 
BRANCH  10  12
HETATM   12  C   UNL     1      -6.776  18.799  66.289  1.00  0.00    -0.218 A  
HETATM   13  C   UNL     1      -6.057  21.083  66.670  1.00  0.00    -0.335 A  
HETATM   14  C   UNL     1      -6.127  20.204  64.423  1.00  0.00    -0.319 A  
HETATM   15  C   UNL     1      -5.867  21.258  65.299  1.00  0.00    -0.168 A  
HETATM   16  C   UNL     1      -6.578  18.977  64.915  1.00  0.00    -0.024 A  
HETATM   17  C   UNL     1      -6.513  19.859  67.163  1.00  0.00    -0.211 A  
ENDBRANCH  10  12
ENDBRANCH   9  10
ENDBRANCH   8   9
ENDBRANCH   3   8
BRANCH   6  18
HETATM   18  C   UNL     1      -8.955  14.038  68.191  1.00  0.00    -0.183 A  
HETATM   19  C   UNL     1     -10.901  12.796  67.344  1.00  0.00    -0.265 A  
HETATM   20  C   UNL     1     -10.163  12.337  66.265  1.00  0.00    -0.251 A  
HETATM   21  C   UNL     1      -8.217  13.503  67.129  1.00  0.00    -0.126 A  
HETATM   22  C   UNL     1     -10.305  13.641  68.286  1.00  0.00    -0.251 A  
HETATM   23  C   UNL     1      -8.820  12.683  66.163  1.00  0.00     0.194 A  
ENDBRANCH   6  18
BRANCH   4  24
HETATM   24  C   UNL     1      -7.066  13.614  70.799  1.00  0.00     1.799 A  
HETATM   25  C   UNL     1      -6.511  13.613  72.089  1.00  0.00     2.079 A  
HETATM   26  C   UNL     1      -5.817  11.596  70.317  1.00  0.00    -0.161 A  
HETATM   27  C   UNL     1      -5.616  12.621  72.491  1.00  0.00     0.930 A  
HETATM   28  C   UNL     1      -6.723  12.585  69.918  1.00  0.00     0.237 A  
HETATM   29  C   UNL     1      -5.265  11.616  71.596  1.00  0.00     0.091 A  
ENDBRANCH   4  24
TORSDOF 6
ENDMDL
MODEL      218
REMARK 921   NORMALIZED FREE ENERGY PREDICTED BY IDOCK:   28.70 KCAL/MOL
REMARK 922        TOTAL FREE ENERGY PREDICTED BY IDOCK:   37.53 KCAL/MOL
REMARK 923 INTER-LIGAND FREE ENERGY PREDICTED BY IDOCK:   19.39 KCAL/MOL
REMARK 924 INTRA-LIGAND FREE ENERGY PREDICTED BY IDOCK:   18.14 KCAL/MOL
REMARK 927      BINDING AFFINITY PREDICTED BY RF-SCORE:    0.00 PKD
ROOT
HETATM    1  O   UNL     1      -6.026  17.135  73.182  1.00  0.00     2.239 OA 
HETATM    2  C   UNL     1      -6.668  16.977  72.152  1.00  0.00     5.969 C  
HETATM    3  C   UNL     1      -6.846  18.054  71.117  1.00  0.00     3.352 C  
HETATM    4  N   UNL     1      -7.228  15.789  71.626  1.00  0.00     3.628 N  
HETATM    5  C   UNL     1      -7.869  17.475  70.194  1.00  0.00     2.242 C  
HETATM    6  N   UNL     1      -7.842  16.080  70.364  1.00  0.00     1.342 N  
HETATM    7  O   UNL     1      -8.534  18.178  69.444  1.00  0.00     0.190 OA 
ENDROOT
BRANCH   3   8
HETATM    8  C   UNL     1      -5.533  18.250  70.343  1.00  0.00    -0.245 C  
BRANCH   8   9
HETATM    9  C   UNL     1      -5.389  17.348  69.107  1.00  0.00    -0.164 C  
BRANCH   9  10
HETATM   10  S   UNL     1      -6.899  17.488  68.078  1.00  0.00    -0.194 S  
HETATM   11  O   UNL     1      -8.009  17.918  68.994  1.00  0.00    -0.196 OA 
BRANCH  10  12
HETATM   12  C   UNL     1      -6.446  18.967  67.138  1.00  0.00    -0.188 A  
HETATM   13  C   UNL     1      -5.822  20.038  65.053  1.00  0.00    -0.250 A  
HETATM   14  C   UNL     1      -5.772  21.296  67.113  1.00  0.00    -0.386 A  
HETATM   15  C   UNL     1      -5.578  21.231  65.733  1.00  0.00    -0.237 A  
HETATM   16  C   UNL     1      -6.206  20.169  67.814  1.00  0.00    -0.261 A  
HETATM   17  C   UNL     1      -6.252  18.909  65.753  1.00  0.00    -0.257 A  
ENDBRANCH  10  12
ENDBRANCH   9  10
ENDBRANCH   8   9
ENDBRANCH   3   8
BRANCH   6  18
HETATM   18  C   UNL     1      -8.636  15.189  69.570  1.00  0.00    -0.133 A  
HETATM   19  C   UNL     1      -8.737  13.345  67.947  1.00  0.00    -0.187 A  
HETATM   20  C   UNL     1     -10.106  13.235  68.128  1.00  0.00    -0.241 A  
HETATM   21  C   UNL     1     -10.028  15.100  69.680  1.00  0.00    -0.183 A  
HETATM   22  C   UNL     1      -8.015  14.302  68.667  1.00  0.00    -0.139 A  
HETATM   23  C   UNL     1     -10.752  14.118  68.987  1.00  0.00    -0.249 A  
ENDBRANCH   6  18
BRANCH   4  24
HETATM   24  C   UNL     1      -6.580  14.582  72.012  1.00  0.00     1.433 A  
HETATM   25  C   UNL     1      -6.504  14.278  73.380  1.00  0.00     1.466 A  
HETATM   26  C   UNL     1      -5.225  12.630  71.554  1.00  0.00    -0.090 A  
HETATM   27  C   UNL     1      -5.793  13.167  73.835  1.00  0.00     0.877 A  
HETATM   28  C   UNL     1      -5.947  13.738  71.097  1.00  0.00    -0.098 A  
HETATM   29  C   UNL     1      -5.147  12.347  72.915  1.00  0.00     0.347 A  
ENDBRANCH   4  24
TORSDOF 6
ENDMDL
