MODEL        1
REMARK 921   NORMALIZED FREE ENERGY PREDICTED BY IDOCK:   -5.31 KCAL/MOL
REMARK 922        TOTAL FREE ENERGY PREDICTED BY IDOCK:   -5.67 KCAL/MOL
REMARK 923 INTER-LIGAND FREE ENERGY PREDICTED BY IDOCK:   -5.62 KCAL/MOL
REMARK 924 INTRA-LIGAND FREE ENERGY PREDICTED BY IDOCK:   -0.05 KCAL/MOL
REMARK 927      BINDING AFFINITY PREDICTED BY RF-SCORE:    0.00 PKD
ROOT
HETATM    1  N   UNL     1     -11.501  13.407  69.844  1.00  0.00    -0.491 NA 
HETATM    2  C   UNL     1     -11.706  13.253  68.468  1.00  0.00    -0.352 A  
HETATM    3  H2  UNL     1     -12.321  13.868  70.242  1.00  0.00     0.000 HD 
HETATM    4  H1  UNL     1     -11.274  12.598  70.422  1.00  0.00     0.000 HD 
HETATM    5  C   UNL     1     -12.017  14.363  67.676  1.00  0.00    -0.378 A  
HETATM    6  C   UNL     1     -12.120  14.243  66.288  1.00  0.00    -0.433 A  
HETATM    7  C   UNL     1     -11.856  13.014  65.682  1.00  0.00    -0.399 A  
HETATM    8  C   UNL     1     -11.485  11.911  66.453  1.00  0.00    -0.371 A  
HETATM    9  C   UNL     1     -11.386  12.044  67.840  1.00  0.00    -0.369 A  
ENDROOT
BRANCH   7  10
HETATM   10  S   UNL     1     -12.034  12.847  63.932  1.00  0.00    -0.514 S  
HETATM   11  O   UNL     1     -13.236  12.098  63.648  1.00  0.00    -0.770 OA 
HETATM   12  N   UNL     1     -12.352  14.426  63.460  1.00  0.00    -1.114 N  
HETATM   13  O   UNL     1     -10.756  12.509  63.351  1.00  0.00    -0.426 OA 
HETATM   14  H1  UNL     1     -12.455  14.330  62.449  1.00  0.00     0.000 HD 
HETATM   15  H2  UNL     1     -12.424  15.266  64.034  1.00  0.00     0.000 HD 
ENDBRANCH   7  10
TORSDOF 1
ENDMDL
MODEL        2
REMARK 921   NORMALIZED FREE ENERGY PREDICTED BY IDOCK:   -5.26 KCAL/MOL
REMARK 922        TOTAL FREE ENERGY PREDICTED BY IDOCK:   -5.61 KCAL/MOL
REMARK 923 INTER-LIGAND FREE ENERGY PREDICTED BY IDOCK:   -5.56 KCAL/MOL
REMARK 924 INTRA-LIGAND FREE ENERGY PREDICTED BY IDOCK:   -0.05 KCAL/MOL
REMARK 927      BINDING AFFINITY PREDICTED BY RF-SCORE:    0.00 PKD
ROOT
HETATM    1  N   UNL     1     -11.523  13.013  70.011  1.00  0.00    -0.522 NA 
HETATM    2  C   UNL     1     -11.558  12.993  68.612  1.00  0.00    -0.318 A  
HETATM    3  H2  UNL     1     -10.664  12.554  70.319  1.00  0.00     0.000 HD 
HETATM    4  H1  UNL     1     -11.612  13.898  70.513  1.00  0.00     0.000 HD 
HETATM    5  C   UNL     1     -11.435  11.780  67.925  1.00  0.00    -0.387 A  
HETATM    6  C   UNL     1     -11.575  11.730  66.536  1.00  0.00    -0.256 A  
HETATM    7  C   UNL     1     -11.894  12.893  65.834  1.00  0.00    -0.424 A  
HETATM    8  C   UNL     1     -12.080  14.099  66.511  1.00  0.00    -0.481 A  
HETATM    9  C   UNL     1     -11.937  14.136  67.901  1.00  0.00    -0.378 A  
ENDROOT
BRANCH   7  10
HETATM   10  S   UNL     1     -12.021  12.843  64.072  1.00  0.00    -0.487 S  
HETATM   11  O   UNL     1     -13.202  12.098  63.703  1.00  0.00    -0.770 OA 
HETATM   12  N   UNL     1     -12.350  14.446  63.699  1.00  0.00    -1.106 N  
HETATM   13  O   UNL     1     -10.722  12.564  63.507  1.00  0.00    -0.435 OA 
HETATM   14  H1  UNL     1     -12.424  14.417  62.682  1.00  0.00     0.000 HD 
HETATM   15  H2  UNL     1     -12.452  15.243  64.327  1.00  0.00     0.000 HD 
ENDBRANCH   7  10
TORSDOF 1
ENDMDL
MODEL        3
REMARK 921   NORMALIZED FREE ENERGY PREDICTED BY IDOCK:   -5.15 KCAL/MOL
REMARK 922        TOTAL FREE ENERGY PREDICTED BY IDOCK:   -5.50 KCAL/MOL
REMARK 923 INTER-LIGAND FREE ENERGY PREDICTED BY IDOCK:   -5.45 KCAL/MOL
REMARK 924 INTRA-LIGAND FREE ENERGY PREDICTED BY IDOCK:   -0.05 KCAL/MOL
REMARK 927      BINDING AFFINITY PREDICTED BY RF-SCORE:    0.00 PKD
ROOT
HETATM    1  N   UNL     1     -11.461  16.431  63.837  1.00  0.00    -1.618 NA 
HETATM    2  C   UNL     1     -11.414  15.523  64.902  1.00  0.00    -0.279 A  
HETATM    3  H2  UNL     1     -10.504  16.674  63.579  1.00  0.00     0.000 HD 
HETATM    4  H1  UNL     1     -11.974  16.196  62.987  1.00  0.00     0.000 HD 
HETATM    5  C   UNL     1     -10.710  15.845  66.067  1.00  0.00    -0.289 A  
HETATM    6  C   UNL     1     -10.741  14.997  67.177  1.00  0.00    -0.303 A  
HETATM    7  C   UNL     1     -11.528  13.845  67.141  1.00  0.00    -0.347 A  
HETATM    8  C   UNL     1     -12.284  13.541  66.008  1.00  0.00    -0.493 A  
HETATM    9  C   UNL     1     -12.244  14.397  64.904  1.00  0.00    -0.440 A  
ENDROOT
BRANCH   7  10
HETATM   10  S   UNL     1     -11.530  12.745  68.523  1.00  0.00    -0.333 S  
HETATM   11  O   UNL     1     -12.057  11.465  68.110  1.00  0.00    -0.623 OA 
HETATM   12  N   UNL     1      -9.889  12.506  68.784  1.00  0.00    -0.421 N  
HETATM   13  O   UNL     1     -12.019  13.443  69.689  1.00  0.00    -0.308 OA 
HETATM   14  H1  UNL     1      -9.890  11.871  69.582  1.00  0.00     0.000 HD 
HETATM   15  H2  UNL     1      -9.095  12.895  68.275  1.00  0.00     0.000 HD 
ENDBRANCH   7  10
TORSDOF 1
ENDMDL
MODEL        4
REMARK 921   NORMALIZED FREE ENERGY PREDICTED BY IDOCK:   -5.09 KCAL/MOL
REMARK 922        TOTAL FREE ENERGY PREDICTED BY IDOCK:   -5.44 KCAL/MOL
REMARK 923 INTER-LIGAND FREE ENERGY PREDICTED BY IDOCK:   -5.39 KCAL/MOL
REMARK 924 INTRA-LIGAND FREE ENERGY PREDICTED BY IDOCK:   -0.05 KCAL/MOL
REMARK 927      BINDING AFFINITY PREDICTED BY RF-SCORE:    0.00 PKD
ROOT
HETATM    1  N   UNL     1     -11.623  16.256  63.885  1.00  0.00    -1.573 NA 
HETATM    2  C   UNL     1     -11.519  15.203  64.801  1.00  0.00    -0.383 A  
HETATM    3  H2  UNL     1     -12.576  16.619  63.919  1.00  0.00     0.000 HD 
HETATM    4  H1  UNL     1     -10.976  17.044  63.936  1.00  0.00     0.000 HD 
HETATM    5  C   UNL     1     -12.405  14.123  64.732  1.00  0.00    -0.436 A  
HETATM    6  C   UNL     1     -12.249  13.016  65.570  1.00  0.00    -0.521 A  
HETATM    7  C   UNL     1     -11.164  12.964  66.446  1.00  0.00    -0.300 A  
HETATM    8  C   UNL     1     -10.236  14.007  66.484  1.00  0.00    -0.279 A  
HETATM    9  C   UNL     1     -10.404  15.108  65.642  1.00  0.00    -0.379 A  
ENDROOT
BRANCH   7  10
HETATM   10  S   UNL     1     -10.991  11.590  67.542  1.00  0.00    -0.274 S  
HETATM   11  O   UNL     1     -10.189  10.572  66.905  1.00  0.00    -0.210 OA 
HETATM   12  N   UNL     1     -10.036  12.233  68.764  1.00  0.00    -0.408 N  
HETATM   13  O   UNL     1     -12.269  11.299  68.150  1.00  0.00    -0.622 OA 
HETATM   14  H1  UNL     1      -9.936  11.440  69.397  1.00  0.00     0.000 HD 
HETATM   15  H2  UNL     1      -9.654  13.175  68.850  1.00  0.00     0.000 HD 
ENDBRANCH   7  10
TORSDOF 1
ENDMDL
MODEL        5
REMARK 921   NORMALIZED FREE ENERGY PREDICTED BY IDOCK:   -4.98 KCAL/MOL
REMARK 922        TOTAL FREE ENERGY PREDICTED BY IDOCK:   -5.33 KCAL/MOL
REMARK 923 INTER-LIGAND FREE ENERGY PREDICTED BY IDOCK:   -5.28 KCAL/MOL
REMARK 924 INTRA-LIGAND FREE ENERGY PREDICTED BY IDOCK:   -0.05 KCAL/MOL
REMARK 927      BINDING AFFINITY PREDICTED BY RF-SCORE:    0.00 PKD
ROOT
HETATM    1  N   UNL     1     -11.236  12.971  69.682  1.00  0.00    -0.477 NA 
HETATM    2  C   UNL     1     -11.551  12.906  68.320  1.00  0.00    -0.335 A  
HETATM    3  H2  UNL     1     -12.064  13.285  70.190  1.00  0.00     0.000 HD 
HETATM    4  H1  UNL     1     -10.858  12.152  70.160  1.00  0.00     0.000 HD 
HETATM    5  C   UNL     1     -12.069  14.028  67.665  1.00  0.00    -0.344 A  
HETATM    6  C   UNL     1     -12.288  14.012  66.285  1.00  0.00    -0.482 A  
HETATM    7  C   UNL     1     -11.934  12.883  65.546  1.00  0.00    -0.436 A  
HETATM    8  C   UNL     1     -11.360  11.777  66.175  1.00  0.00    -0.342 A  
HETATM    9  C   UNL     1     -11.146  11.806  67.556  1.00  0.00    -0.330 A  
ENDROOT
BRANCH   7  10
HETATM   10  S   UNL     1     -12.257  12.839  63.809  1.00  0.00    -0.491 S  
HETATM   11  O   UNL     1     -12.529  14.179  63.344  1.00  0.00    -0.797 OA 
HETATM   12  N   UNL     1     -10.754  12.429  63.184  1.00  0.00    -0.628 N  
HETATM   13  O   UNL     1     -13.127  11.726  63.512  1.00  0.00    -0.617 OA 
HETATM   14  H1  UNL     1     -10.940  12.404  62.181  1.00  0.00     0.000 HD 
HETATM   15  H2  UNL     1      -9.880  12.250  63.679  1.00  0.00     0.000 HD 
ENDBRANCH   7  10
TORSDOF 1
ENDMDL
MODEL        6
REMARK 921   NORMALIZED FREE ENERGY PREDICTED BY IDOCK:   -4.97 KCAL/MOL
REMARK 922        TOTAL FREE ENERGY PREDICTED BY IDOCK:   -5.31 KCAL/MOL
REMARK 923 INTER-LIGAND FREE ENERGY PREDICTED BY IDOCK:   -5.26 KCAL/MOL
REMARK 924 INTRA-LIGAND FREE ENERGY PREDICTED BY IDOCK:   -0.05 KCAL/MOL
REMARK 927      BINDING AFFINITY PREDICTED BY RF-SCORE:    0.00 PKD
ROOT
HETATM    1  N   UNL     1     -13.210  16.133  74.076  1.00  0.00    -0.941 NA 
HETATM    2  C   UNL     1     -12.919  15.483  72.871  1.00  0.00    -0.477 A  
HETATM    3  H2  UNL     1     -13.491  17.091  73.866  1.00  0.00     0.000 HD 
HETATM    4  H1  UNL     1     -13.890  15.732  74.722  1.00  0.00     0.000 HD 
HETATM    5  C   UNL     1     -11.986  16.033  71.985  1.00  0.00    -0.622 A  
HETATM    6  C   UNL     1     -11.606  15.344  70.830  1.00  0.00    -0.396 A  
HETATM    7  C   UNL     1     -12.123  14.071  70.588  1.00  0.00    -0.354 A  
HETATM    8  C   UNL     1     -13.009  13.483  71.492  1.00  0.00    -0.440 A  
HETATM    9  C   UNL     1     -13.380  14.182  72.643  1.00  0.00    -0.638 A  
ENDROOT
BRANCH   7  10
HETATM   10  S   UNL     1     -11.685  13.219  69.103  1.00  0.00    -0.339 S  
HETATM   11  O   UNL     1     -12.183  13.959  67.967  1.00  0.00    -0.326 OA 
HETATM   12  N   UNL     1     -10.016  13.398  69.076  1.00  0.00    -0.421 N  
HETATM   13  O   UNL     1     -11.929  11.806  69.273  1.00  0.00    -0.306 OA 
HETATM   14  H1  UNL     1      -9.763  12.907  68.218  1.00  0.00     0.000 HD 
HETATM   15  H2  UNL     1      -9.411  13.876  69.743  1.00  0.00     0.000 HD 
ENDBRANCH   7  10
TORSDOF 1
ENDMDL
MODEL        7
REMARK 921   NORMALIZED FREE ENERGY PREDICTED BY IDOCK:   -4.95 KCAL/MOL
REMARK 922        TOTAL FREE ENERGY PREDICTED BY IDOCK:   -5.29 KCAL/MOL
REMARK 923 INTER-LIGAND FREE ENERGY PREDICTED BY IDOCK:   -5.24 KCAL/MOL
REMARK 924 INTRA-LIGAND FREE ENERGY PREDICTED BY IDOCK:   -0.05 KCAL/MOL
REMARK 927      BINDING AFFINITY PREDICTED BY RF-SCORE:    0.00 PKD
ROOT
HETATM    1  N   UNL     1     -13.135  16.117  74.284  1.00  0.00    -0.925 NA 
HETATM    2  C   UNL     1     -12.719  15.457  73.122  1.00  0.00    -0.479 A  
HETATM    3  H2  UNL     1     -13.123  15.450  75.056  1.00  0.00     0.000 HD 
HETATM    4  H1  UNL     1     -12.660  16.968  74.586  1.00  0.00     0.000 HD 
HETATM    5  C   UNL     1     -13.369  14.290  72.707  1.00  0.00    -0.621 A  
HETATM    6  C   UNL     1     -13.036  13.679  71.496  1.00  0.00    -0.443 A  
HETATM    7  C   UNL     1     -12.082  14.270  70.667  1.00  0.00    -0.346 A  
HETATM    8  C   UNL     1     -11.467  15.467  71.038  1.00  0.00    -0.407 A  
HETATM    9  C   UNL     1     -11.809  16.068  72.252  1.00  0.00    -0.628 A  
ENDROOT
BRANCH   7  10
HETATM   10  S   UNL     1     -11.621  13.473  69.159  1.00  0.00    -0.329 S  
HETATM   11  O   UNL     1     -12.157  14.220  68.045  1.00  0.00    -0.338 OA 
HETATM   12  N   UNL     1      -9.961  13.720  69.125  1.00  0.00    -0.425 N  
HETATM   13  O   UNL     1     -11.806  12.048  69.295  1.00  0.00    -0.303 OA 
HETATM   14  H1  UNL     1      -9.695  13.260  68.254  1.00  0.00     0.000 HD 
HETATM   15  H2  UNL     1      -9.370  14.206  69.800  1.00  0.00     0.000 HD 
ENDBRANCH   7  10
TORSDOF 1
ENDMDL
MODEL        8
REMARK 921   NORMALIZED FREE ENERGY PREDICTED BY IDOCK:   -4.92 KCAL/MOL
REMARK 922        TOTAL FREE ENERGY PREDICTED BY IDOCK:   -5.26 KCAL/MOL
REMARK 923 INTER-LIGAND FREE ENERGY PREDICTED BY IDOCK:   -5.21 KCAL/MOL
REMARK 924 INTRA-LIGAND FREE ENERGY PREDICTED BY IDOCK:   -0.05 KCAL/MOL
REMARK 927      BINDING AFFINITY PREDICTED BY RF-SCORE:    0.00 PKD
ROOT
HETATM    1  N   UNL     1      -9.054   8.922  64.924  1.00  0.00    -0.432 NA 
HETATM    2  C   UNL     1      -9.819  10.092  64.867  1.00  0.00    -0.319 A  
HETATM    3  H2  UNL     1      -9.526   8.259  65.541  1.00  0.00     0.000 HD 
HETATM    4  H1  UNL     1      -8.798   8.435  64.065  1.00  0.00     0.000 HD 
HETATM    5  C   UNL     1     -10.170  10.760  66.045  1.00  0.00    -0.310 A  
HETATM    6  C   UNL     1     -10.842  11.984  65.999  1.00  0.00    -0.329 A  
HETATM    7  C   UNL     1     -11.115  12.573  64.764  1.00  0.00    -0.301 A  
HETATM    8  C   UNL     1     -10.718  11.949  63.580  1.00  0.00    -0.504 A  
HETATM    9  C   UNL     1     -10.047  10.725  63.640  1.00  0.00    -0.375 A  
ENDROOT
BRANCH   7  10
HETATM   10  S   UNL     1     -12.008  14.096  64.701  1.00  0.00    -0.466 S  
HETATM   11  O   UNL     1     -11.094  15.192  64.920  1.00  0.00    -0.389 OA 
HETATM   12  N   UNL     1     -12.447  14.178  63.082  1.00  0.00    -1.037 N  
HETATM   13  O   UNL     1     -13.242  13.958  65.439  1.00  0.00    -0.750 OA 
HETATM   14  H1  UNL     1     -12.963  15.057  63.046  1.00  0.00     0.000 HD 
HETATM   15  H2  UNL     1     -12.249  13.519  62.329  1.00  0.00     0.000 HD 
ENDBRANCH   7  10
TORSDOF 1
ENDMDL
MODEL        9
REMARK 921   NORMALIZED FREE ENERGY PREDICTED BY IDOCK:   -4.91 KCAL/MOL
REMARK 922        TOTAL FREE ENERGY PREDICTED BY IDOCK:   -5.25 KCAL/MOL
REMARK 923 INTER-LIGAND FREE ENERGY PREDICTED BY IDOCK:   -5.20 KCAL/MOL
REMARK 924 INTRA-LIGAND FREE ENERGY PREDICTED BY IDOCK:   -0.05 KCAL/MOL
REMARK 927      BINDING AFFINITY PREDICTED BY RF-SCORE:    0.00 PKD
ROOT
HETATM    1  N   UNL     1     -13.281  16.100  74.024  1.00  0.00    -0.941 NA 
HETATM    2  C   UNL     1     -12.925  15.515  72.804  1.00  0.00    -0.457 A  
HETATM    3  H2  UNL     1     -13.624  17.044  73.841  1.00  0.00     0.000 HD 
HETATM    4  H1  UNL     1     -13.944  15.632  74.642  1.00  0.00     0.000 HD 
HETATM    5  C   UNL     1     -12.016  16.157  71.956  1.00  0.00    -0.607 A  
HETATM    6  C   UNL     1     -11.570  15.537  70.786  1.00  0.00    -0.399 A  
HETATM    7  C   UNL     1     -11.994  14.241  70.490  1.00  0.00    -0.331 A  
HETATM    8  C   UNL     1     -12.854  13.563  71.356  1.00  0.00    -0.440 A  
HETATM    9  C   UNL     1     -13.292  14.194  72.522  1.00  0.00    -0.616 A  
ENDROOT
BRANCH   7  10
HETATM   10  S   UNL     1     -11.473  13.474  68.986  1.00  0.00    -0.323 S  
HETATM   11  O   UNL     1     -11.920  12.101  68.974  1.00  0.00    -0.297 OA 
HETATM   12  N   UNL     1     -12.405  14.274  67.842  1.00  0.00    -0.570 N  
HETATM   13  O   UNL     1     -10.104  13.844  68.710  1.00  0.00    -0.221 OA 
HETATM   14  H1  UNL     1     -12.104  13.831  66.974  1.00  0.00     0.000 HD 
HETATM   15  H2  UNL     1     -13.095  15.012  67.980  1.00  0.00     0.000 HD 
ENDBRANCH   7  10
TORSDOF 1
ENDMDL
MODEL       10
REMARK 921   NORMALIZED FREE ENERGY PREDICTED BY IDOCK:   -4.90 KCAL/MOL
REMARK 922        TOTAL FREE ENERGY PREDICTED BY IDOCK:   -5.24 KCAL/MOL
REMARK 923 INTER-LIGAND FREE ENERGY PREDICTED BY IDOCK:   -5.19 KCAL/MOL
REMARK 924 INTRA-LIGAND FREE ENERGY PREDICTED BY IDOCK:   -0.05 KCAL/MOL
REMARK 927      BINDING AFFINITY PREDICTED BY RF-SCORE:    0.00 PKD
ROOT
HETATM    1  N   UNL     1     -10.377  15.086  69.990  1.00  0.00    -0.475 NA 
HETATM    2  C   UNL     1     -10.824  14.696  68.723  1.00  0.00    -0.255 A  
HETATM    3  H2  UNL     1     -10.636  16.063  70.137  1.00  0.00     0.000 HD 
HETATM    4  H1  UNL     1     -10.650  14.553  70.816  1.00  0.00     0.000 HD 
HETATM    5  C   UNL     1     -10.450  15.427  67.590  1.00  0.00    -0.272 A  
HETATM    6  C   UNL     1     -10.800  14.990  66.310  1.00  0.00    -0.333 A  
HETATM    7  C   UNL     1     -11.483  13.782  66.159  1.00  0.00    -0.338 A  
HETATM    8  C   UNL     1     -11.811  13.010  67.275  1.00  0.00    -0.419 A  
HETATM    9  C   UNL     1     -11.455  13.459  68.549  1.00  0.00    -0.345 A  
ENDROOT
BRANCH   7  10
HETATM   10  S   UNL     1     -11.971  13.252  64.546  1.00  0.00    -0.423 S  
HETATM   11  O   UNL     1     -13.214  12.523  64.642  1.00  0.00    -0.848 OA 
HETATM   12  N   UNL     1     -12.346  14.707  63.797  1.00  0.00    -1.092 N  
HETATM   13  O   UNL     1     -10.821  12.731  63.845  1.00  0.00    -0.389 OA 
HETATM   14  H1  UNL     1     -12.629  14.401  62.866  1.00  0.00     0.000 HD 
HETATM   15  H2  UNL     1     -12.304  15.653  64.175  1.00  0.00     0.000 HD 
ENDBRANCH   7  10
TORSDOF 1
ENDMDL
MODEL       11
REMARK 921   NORMALIZED FREE ENERGY PREDICTED BY IDOCK:   -4.86 KCAL/MOL
REMARK 922        TOTAL FREE ENERGY PREDICTED BY IDOCK:   -5.19 KCAL/MOL
REMARK 923 INTER-LIGAND FREE ENERGY PREDICTED BY IDOCK:   -5.15 KCAL/MOL
REMARK 924 INTRA-LIGAND FREE ENERGY PREDICTED BY IDOCK:   -0.05 KCAL/MOL
REMARK 927      BINDING AFFINITY PREDICTED BY RF-SCORE:    0.00 PKD
ROOT
HETATM    1  N   UNL     1     -11.634  10.202  68.236  1.00  0.00    -0.663 NA 
HETATM    2  C   UNL     1     -11.847  11.276  69.108  1.00  0.00    -0.355 A  
HETATM    3  H2  UNL     1     -10.709  10.306  67.817  1.00  0.00     0.000 HD 
HETATM    4  H1  UNL     1     -11.730   9.243  68.572  1.00  0.00     0.000 HD 
HETATM    5  C   UNL     1     -11.716  12.590  68.648  1.00  0.00    -0.368 A  
HETATM    6  C   UNL     1     -12.028  13.672  69.476  1.00  0.00    -0.397 A  
HETATM    7  C   UNL     1     -12.528  13.434  70.757  1.00  0.00    -0.341 A  
HETATM    8  C   UNL     1     -12.722  12.129  71.210  1.00  0.00    -0.363 A  
HETATM    9  C   UNL     1     -12.406  11.056  70.372  1.00  0.00    -0.442 A  
ENDROOT
BRANCH   7  10
HETATM   10  S   UNL     1     -12.875  14.799  71.825  1.00  0.00    -0.349 S  
HETATM   11  O   UNL     1     -11.761  15.718  71.798  1.00  0.00    -0.393 OA 
HETATM   12  N   UNL     1     -14.129  15.568  71.016  1.00  0.00    -0.831 N  
HETATM   13  O   UNL     1     -13.443  14.307  73.059  1.00  0.00    -0.644 OA 
HETATM   14  H1  UNL     1     -14.329  16.355  71.632  1.00  0.00     0.000 HD 
HETATM   15  H2  UNL     1     -14.574  15.313  70.134  1.00  0.00     0.000 HD 
ENDBRANCH   7  10
TORSDOF 1
ENDMDL
MODEL       12
REMARK 921   NORMALIZED FREE ENERGY PREDICTED BY IDOCK:   -4.83 KCAL/MOL
REMARK 922        TOTAL FREE ENERGY PREDICTED BY IDOCK:   -5.17 KCAL/MOL
REMARK 923 INTER-LIGAND FREE ENERGY PREDICTED BY IDOCK:   -5.12 KCAL/MOL
REMARK 924 INTRA-LIGAND FREE ENERGY PREDICTED BY IDOCK:   -0.05 KCAL/MOL
REMARK 927      BINDING AFFINITY PREDICTED BY RF-SCORE:    0.00 PKD
ROOT
HETATM    1  N   UNL     1     -10.851  16.457  69.165  1.00  0.00    -0.310 NA 
HETATM    2  C   UNL     1     -11.030  15.625  68.053  1.00  0.00    -0.318 A  
HETATM    3  H2  UNL     1     -10.462  15.898  69.926  1.00  0.00     0.000 HD 
HETATM    4  H1  UNL     1     -10.302  17.313  69.081  1.00  0.00     0.000 HD 
HETATM    5  C   UNL     1     -11.782  14.452  68.168  1.00  0.00    -0.377 A  
HETATM    6  C   UNL     1     -12.058  13.667  67.046  1.00  0.00    -0.423 A  
HETATM    7  C   UNL     1     -11.625  14.090  65.788  1.00  0.00    -0.339 A  
HETATM    8  C   UNL     1     -10.925  15.289  65.648  1.00  0.00    -0.348 A  
HETATM    9  C   UNL     1     -10.655  16.064  66.778  1.00  0.00    -0.297 A  
ENDROOT
BRANCH   7  10
HETATM   10  S   UNL     1     -11.928  13.075  64.374  1.00  0.00    -0.426 S  
HETATM   11  O   UNL     1     -13.092  12.256  64.618  1.00  0.00    -0.770 OA 
HETATM   12  N   UNL     1     -12.392  14.206  63.224  1.00  0.00    -1.133 N  
HETATM   13  O   UNL     1     -10.678  12.523  63.904  1.00  0.00    -0.377 OA 
HETATM   14  H1  UNL     1     -12.567  13.621  62.407  1.00  0.00     0.000 HD 
HETATM   15  H2  UNL     1     -12.478  15.218  63.318  1.00  0.00     0.000 HD 
ENDBRANCH   7  10
TORSDOF 1
ENDMDL
MODEL       13
REMARK 921   NORMALIZED FREE ENERGY PREDICTED BY IDOCK:   -4.82 KCAL/MOL
REMARK 922        TOTAL FREE ENERGY PREDICTED BY IDOCK:   -5.15 KCAL/MOL
REMARK 923 INTER-LIGAND FREE ENERGY PREDICTED BY IDOCK:   -5.11 KCAL/MOL
REMARK 924 INTRA-LIGAND FREE ENERGY PREDICTED BY IDOCK:   -0.05 KCAL/MOL
REMARK 927      BINDING AFFINITY PREDICTED BY RF-SCORE:    0.00 PKD
ROOT
HETATM    1  N   UNL     1     -10.437  17.657  68.891  1.00  0.00    -0.370 NA 
HETATM    2  C   UNL     1     -10.780  16.722  67.908  1.00  0.00    -0.347 A  
HETATM    3  H2  UNL     1     -10.648  18.591  68.535  1.00  0.00     0.000 HD 
HETATM    4  H1  UNL     1     -10.824  17.576  69.832  1.00  0.00     0.000 HD 
HETATM    5  C   UNL     1     -10.250  16.833  66.618  1.00  0.00    -0.310 A  
HETATM    6  C   UNL     1     -10.498  15.850  65.657  1.00  0.00    -0.411 A  
HETATM    7  C   UNL     1     -11.237  14.719  66.005  1.00  0.00    -0.341 A  
HETATM    8  C   UNL     1     -11.722  14.563  67.305  1.00  0.00    -0.429 A  
HETATM    9  C   UNL     1     -11.467  15.554  68.256  1.00  0.00    -0.359 A  
ENDROOT
BRANCH   7  10
HETATM   10  S   UNL     1     -11.595  13.498  64.779  1.00  0.00    -0.366 S  
HETATM   11  O   UNL     1     -12.578  12.577  65.299  1.00  0.00    -0.645 OA 
HETATM   12  N   UNL     1     -12.385  14.402  63.605  1.00  0.00    -1.106 N  
HETATM   13  O   UNL     1     -10.362  13.053  64.173  1.00  0.00    -0.419 OA 
HETATM   14  H1  UNL     1     -12.592  13.697  62.897  1.00  0.00     0.000 HD 
HETATM   15  H2  UNL     1     -12.602  15.398  63.601  1.00  0.00     0.000 HD 
ENDBRANCH   7  10
TORSDOF 1
ENDMDL
MODEL       14
REMARK 921   NORMALIZED FREE ENERGY PREDICTED BY IDOCK:   -4.79 KCAL/MOL
REMARK 922        TOTAL FREE ENERGY PREDICTED BY IDOCK:   -5.12 KCAL/MOL
REMARK 923 INTER-LIGAND FREE ENERGY PREDICTED BY IDOCK:   -5.08 KCAL/MOL
REMARK 924 INTRA-LIGAND FREE ENERGY PREDICTED BY IDOCK:   -0.05 KCAL/MOL
REMARK 927      BINDING AFFINITY PREDICTED BY RF-SCORE:    0.00 PKD
ROOT
HETATM    1  N   UNL     1     -10.375  15.103  70.177  1.00  0.00    -0.497 NA 
HETATM    2  C   UNL     1     -10.886  14.821  68.905  1.00  0.00    -0.254 A  
HETATM    3  H2  UNL     1     -10.615  16.066  70.415  1.00  0.00     0.000 HD 
HETATM    4  H1  UNL     1     -10.615  14.506  70.969  1.00  0.00     0.000 HD 
HETATM    5  C   UNL     1     -10.556  15.639  67.819  1.00  0.00    -0.281 A  
HETATM    6  C   UNL     1     -10.972  15.310  66.526  1.00  0.00    -0.295 A  
HETATM    7  C   UNL     1     -11.675  14.125  66.310  1.00  0.00    -0.390 A  
HETATM    8  C   UNL     1     -11.960  13.268  67.374  1.00  0.00    -0.383 A  
HETATM    9  C   UNL     1     -11.539  13.608  68.662  1.00  0.00    -0.364 A  
ENDROOT
BRANCH   7  10
HETATM   10  S   UNL     1     -12.246  13.732  64.685  1.00  0.00    -0.394 S  
HETATM   11  O   UNL     1     -12.609  14.952  64.002  1.00  0.00    -0.832 OA 
HETATM   12  N   UNL     1     -10.842  13.188  63.942  1.00  0.00    -0.532 N  
HETATM   13  O   UNL     1     -13.127  12.590  64.750  1.00  0.00    -0.853 OA 
HETATM   14  H1  UNL     1     -11.171  12.961  63.004  1.00  0.00     0.000 HD 
HETATM   15  H2  UNL     1      -9.902  13.106  64.330  1.00  0.00     0.000 HD 
ENDBRANCH   7  10
TORSDOF 1
ENDMDL
MODEL       15
REMARK 921   NORMALIZED FREE ENERGY PREDICTED BY IDOCK:   -4.72 KCAL/MOL
REMARK 922        TOTAL FREE ENERGY PREDICTED BY IDOCK:   -5.04 KCAL/MOL
REMARK 923 INTER-LIGAND FREE ENERGY PREDICTED BY IDOCK:   -5.00 KCAL/MOL
REMARK 924 INTRA-LIGAND FREE ENERGY PREDICTED BY IDOCK:   -0.05 KCAL/MOL
REMARK 927      BINDING AFFINITY PREDICTED BY RF-SCORE:    0.00 PKD
ROOT
HETATM    1  N   UNL     1     -11.908  12.718  70.408  1.00  0.00    -0.550 NA 
HETATM    2  C   UNL     1     -11.852  13.161  69.081  1.00  0.00    -0.314 A  
HETATM    3  H2  UNL     1     -12.706  13.163  70.863  1.00  0.00     0.000 HD 
HETATM    4  H1  UNL     1     -11.936  11.719  70.613  1.00  0.00     0.000 HD 
HETATM    5  C   UNL     1     -11.814  14.530  68.799  1.00  0.00    -0.350 A  
HETATM    6  C   UNL     1     -11.651  14.985  67.488  1.00  0.00    -0.315 A  
HETATM    7  C   UNL     1     -11.471  14.062  66.458  1.00  0.00    -0.357 A  
HETATM    8  C   UNL     1     -11.446  12.693  66.730  1.00  0.00    -0.410 A  
HETATM    9  C   UNL     1     -11.610  12.252  68.045  1.00  0.00    -0.408 A  
ENDROOT
BRANCH   7  10
HETATM   10  S   UNL     1     -11.316  14.632  64.792  1.00  0.00    -0.383 S  
HETATM   11  O   UNL     1     -10.585  15.877  64.783  1.00  0.00    -0.562 OA 
HETATM   12  N   UNL     1     -10.286  13.486  64.124  1.00  0.00    -0.617 N  
HETATM   13  O   UNL     1     -12.580  14.472  64.113  1.00  0.00    -0.730 OA 
HETATM   14  H1  UNL     1     -10.197  13.815  63.162  1.00  0.00     0.000 HD 
HETATM   15  H2  UNL     1      -9.860  12.672  64.565  1.00  0.00     0.000 HD 
ENDBRANCH   7  10
TORSDOF 1
ENDMDL
MODEL       16
REMARK 921   NORMALIZED FREE ENERGY PREDICTED BY IDOCK:   -4.69 KCAL/MOL
REMARK 922        TOTAL FREE ENERGY PREDICTED BY IDOCK:   -5.02 KCAL/MOL
REMARK 923 INTER-LIGAND FREE ENERGY PREDICTED BY IDOCK:   -4.97 KCAL/MOL
REMARK 924 INTRA-LIGAND FREE ENERGY PREDICTED BY IDOCK:   -0.05 KCAL/MOL
REMARK 927      BINDING AFFINITY PREDICTED BY RF-SCORE:    0.00 PKD
ROOT
HETATM    1  N   UNL     1     -12.365   9.303  70.526  1.00  0.00    -0.476 NA 
HETATM    2  C   UNL     1     -12.584  10.662  70.781  1.00  0.00    -0.386 A  
HETATM    3  H2  UNL     1     -13.265   8.821  70.549  1.00  0.00     0.000 HD 
HETATM    4  H1  UNL     1     -11.867   9.014  69.684  1.00  0.00     0.000 HD 
HETATM    5  C   UNL     1     -13.268  11.058  71.936  1.00  0.00    -0.503 A  
HETATM    6  C   UNL     1     -13.402  12.411  72.258  1.00  0.00    -0.427 A  
HETATM    7  C   UNL     1     -12.800  13.373  71.446  1.00  0.00    -0.333 A  
HETATM    8  C   UNL     1     -12.063  12.992  70.324  1.00  0.00    -0.388 A  
HETATM    9  C   UNL     1     -11.937  11.636  70.013  1.00  0.00    -0.429 A  
ENDROOT
BRANCH   7  10
HETATM   10  S   UNL     1     -13.010  15.087  71.822  1.00  0.00    -0.382 S  
HETATM   11  O   UNL     1     -11.887  15.829  71.298  1.00  0.00    -0.360 OA 
HETATM   12  N   UNL     1     -14.324  15.498  70.860  1.00  0.00    -0.817 N  
HETATM   13  O   UNL     1     -13.460  15.226  73.187  1.00  0.00    -0.474 OA 
HETATM   14  H1  UNL     1     -14.445  16.487  71.077  1.00  0.00     0.000 HD 
HETATM   15  H2  UNL     1     -14.862  14.910  70.224  1.00  0.00     0.000 HD 
ENDBRANCH   7  10
TORSDOF 1
ENDMDL
MODEL       17
REMARK 921   NORMALIZED FREE ENERGY PREDICTED BY IDOCK:   -4.68 KCAL/MOL
REMARK 922        TOTAL FREE ENERGY PREDICTED BY IDOCK:   -5.00 KCAL/MOL
REMARK 923 INTER-LIGAND FREE ENERGY PREDICTED BY IDOCK:   -4.95 KCAL/MOL
REMARK 924 INTRA-LIGAND FREE ENERGY PREDICTED BY IDOCK:   -0.05 KCAL/MOL
REMARK 927      BINDING AFFINITY PREDICTED BY RF-SCORE:    0.00 PKD
ROOT
HETATM    1  N   UNL     1     -12.380  14.065  63.241  1.00  0.00    -1.145 NA 
HETATM    2  C   UNL     1     -12.040  14.371  64.564  1.00  0.00    -0.481 A  
HETATM    3  H2  UNL     1     -13.398  14.066  63.162  1.00  0.00     0.000 HD 
HETATM    4  H1  UNL     1     -11.997  14.616  62.473  1.00  0.00     0.000 HD 
HETATM    5  C   UNL     1     -12.565  13.615  65.617  1.00  0.00    -0.531 A  
HETATM    6  C   UNL     1     -12.153  13.841  66.933  1.00  0.00    -0.454 A  
HETATM    7  C   UNL     1     -11.166  14.793  67.191  1.00  0.00    -0.343 A  
HETATM    8  C   UNL     1     -10.588  15.513  66.145  1.00  0.00    -0.321 A  
HETATM    9  C   UNL     1     -11.009  15.279  64.834  1.00  0.00    -0.445 A  
ENDROOT
BRANCH   7  10
HETATM   10  S   UNL     1     -10.679  15.116  68.858  1.00  0.00    -0.251 S  
HETATM   11  O   UNL     1     -11.632  16.016  69.465  1.00  0.00    -0.330 OA 
HETATM   12  N   UNL     1     -10.922  13.624  69.590  1.00  0.00    -0.461 N  
HETATM   13  O   UNL     1      -9.255  15.351  68.904  1.00  0.00    -0.189 OA 
HETATM   14  H1  UNL     1     -10.641  13.810  70.553  1.00  0.00     0.000 HD 
HETATM   15  H2  UNL     1     -11.263  12.755  69.178  1.00  0.00     0.000 HD 
ENDBRANCH   7  10
TORSDOF 1
ENDMDL
MODEL       18
REMARK 921   NORMALIZED FREE ENERGY PREDICTED BY IDOCK:   -4.65 KCAL/MOL
REMARK 922        TOTAL FREE ENERGY PREDICTED BY IDOCK:   -4.97 KCAL/MOL
REMARK 923 INTER-LIGAND FREE ENERGY PREDICTED BY IDOCK:   -4.93 KCAL/MOL
REMARK 924 INTRA-LIGAND FREE ENERGY PREDICTED BY IDOCK:   -0.05 KCAL/MOL
REMARK 927      BINDING AFFINITY PREDICTED BY RF-SCORE:    0.00 PKD
ROOT
HETATM    1  N   UNL     1     -10.323  17.524  68.757  1.00  0.00    -0.366 NA 
HETATM    2  C   UNL     1     -10.603  16.529  67.813  1.00  0.00    -0.332 A  
HETATM    3  H2  UNL     1      -9.929  17.079  69.587  1.00  0.00     0.000 HD 
HETATM    4  H1  UNL     1      -9.731  18.316  68.505  1.00  0.00     0.000 HD 
HETATM    5  C   UNL     1     -11.414  15.443  68.159  1.00  0.00    -0.352 A  
HETATM    6  C   UNL     1     -11.790  14.499  67.200  1.00  0.00    -0.412 A  
HETATM    7  C   UNL     1     -11.395  14.673  65.873  1.00  0.00    -0.338 A  
HETATM    8  C   UNL     1     -10.636  15.783  65.500  1.00  0.00    -0.424 A  
HETATM    9  C   UNL     1     -10.268  16.720  66.468  1.00  0.00    -0.319 A  
ENDROOT
BRANCH   7  10
HETATM   10  S   UNL     1     -11.825  13.454  64.667  1.00  0.00    -0.413 S  
HETATM   11  O   UNL     1     -12.628  14.069  63.636  1.00  0.00    -0.818 OA 
HETATM   12  N   UNL     1     -10.339  13.121  63.960  1.00  0.00    -0.607 N  
HETATM   13  O   UNL     1     -12.225  12.239  65.338  1.00  0.00    -0.546 OA 
HETATM   14  H1  UNL     1     -10.587  12.418  63.264  1.00  0.00     0.000 HD 
HETATM   15  H2  UNL     1      -9.425  13.520  64.171  1.00  0.00     0.000 HD 
ENDBRANCH   7  10
TORSDOF 1
ENDMDL
MODEL       19
REMARK 921   NORMALIZED FREE ENERGY PREDICTED BY IDOCK:   -4.65 KCAL/MOL
REMARK 922        TOTAL FREE ENERGY PREDICTED BY IDOCK:   -4.97 KCAL/MOL
REMARK 923 INTER-LIGAND FREE ENERGY PREDICTED BY IDOCK:   -4.93 KCAL/MOL
REMARK 924 INTRA-LIGAND FREE ENERGY PREDICTED BY IDOCK:   -0.05 KCAL/MOL
REMARK 927      BINDING AFFINITY PREDICTED BY RF-SCORE:    0.00 PKD
ROOT
HETATM    1  N   UNL     1     -12.307  14.037  63.237  1.00  0.00    -1.145 NA 
HETATM    2  C   UNL     1     -11.866  14.322  64.534  1.00  0.00    -0.442 A  
HETATM    3  H2  UNL     1     -11.490  13.884  62.645  1.00  0.00     0.000 HD 
HETATM    4  H1  UNL     1     -12.968  13.276  63.077  1.00  0.00     0.000 HD 
HETATM    5  C   UNL     1     -10.959  15.364  64.754  1.00  0.00    -0.411 A  
HETATM    6  C   UNL     1     -10.591  15.729  66.052  1.00  0.00    -0.334 A  
HETATM    7  C   UNL     1     -11.177  15.081  67.140  1.00  0.00    -0.336 A  
HETATM    8  C   UNL     1     -12.128  14.080  66.939  1.00  0.00    -0.465 A  
HETATM    9  C   UNL     1     -12.487  13.724  65.637  1.00  0.00    -0.541 A  
ENDROOT
BRANCH   7  10
HETATM   10  S   UNL     1     -10.676  15.505  68.781  1.00  0.00    -0.263 S  
HETATM   11  O   UNL     1     -11.848  15.777  69.580  1.00  0.00    -0.354 OA 
HETATM   12  N   UNL     1     -10.059  14.049  69.346  1.00  0.00    -0.405 N  
HETATM   13  O   UNL     1      -9.555  16.412  68.719  1.00  0.00    -0.229 OA 
HETATM   14  H1  UNL     1      -9.770  14.293  70.293  1.00  0.00     0.000 HD 
HETATM   15  H2  UNL     1      -9.992  13.152  68.866  1.00  0.00     0.000 HD 
ENDBRANCH   7  10
TORSDOF 1
ENDMDL
MODEL       20
REMARK 921   NORMALIZED FREE ENERGY PREDICTED BY IDOCK:   -4.61 KCAL/MOL
REMARK 922        TOTAL FREE ENERGY PREDICTED BY IDOCK:   -4.93 KCAL/MOL
REMARK 923 INTER-LIGAND FREE ENERGY PREDICTED BY IDOCK:   -4.88 KCAL/MOL
REMARK 924 INTRA-LIGAND FREE ENERGY PREDICTED BY IDOCK:   -0.05 KCAL/MOL
REMARK 927      BINDING AFFINITY PREDICTED BY RF-SCORE:    0.00 PKD
ROOT
HETATM    1  N   UNL     1     -12.414  10.237  69.908  1.00  0.00    -0.539 NA 
HETATM    2  C   UNL     1     -12.613  11.489  70.500  1.00  0.00    -0.201 A  
HETATM    3  H2  UNL     1     -13.320   9.774  69.820  1.00  0.00     0.000 HD 
HETATM    4  H1  UNL     1     -11.928  10.164  69.014  1.00  0.00     0.000 HD 
HETATM    5  C   UNL     1     -13.280  11.588  71.725  1.00  0.00    -0.456 A  
HETATM    6  C   UNL     1     -13.393  12.818  72.379  1.00  0.00    -0.479 A  
HETATM    7  C   UNL     1     -12.786  13.948  71.829  1.00  0.00    -0.335 A  
HETATM    8  C   UNL     1     -12.066  13.854  70.638  1.00  0.00    -0.417 A  
HETATM    9  C   UNL     1     -11.960  12.619  69.994  1.00  0.00    -0.377 A  
ENDROOT
BRANCH   7  10
HETATM   10  S   UNL     1     -12.971  15.513  72.627  1.00  0.00    -0.496 S  
HETATM   11  O   UNL     1     -14.358  15.911  72.577  1.00  0.00    -0.468 OA 
HETATM   12  N   UNL     1     -12.658  15.129  74.231  1.00  0.00    -0.580 N  
HETATM   13  O   UNL     1     -11.899  16.389  72.214  1.00  0.00    -0.534 OA 
HETATM   14  H1  UNL     1     -12.764  16.032  74.692  1.00  0.00     0.000 HD 
HETATM   15  H2  UNL     1     -12.423  14.224  74.640  1.00  0.00     0.000 HD 
ENDBRANCH   7  10
TORSDOF 1
ENDMDL
MODEL       21
REMARK 921   NORMALIZED FREE ENERGY PREDICTED BY IDOCK:   -4.60 KCAL/MOL
REMARK 922        TOTAL FREE ENERGY PREDICTED BY IDOCK:   -4.91 KCAL/MOL
REMARK 923 INTER-LIGAND FREE ENERGY PREDICTED BY IDOCK:   -4.86 KCAL/MOL
REMARK 924 INTRA-LIGAND FREE ENERGY PREDICTED BY IDOCK:   -0.05 KCAL/MOL
REMARK 927      BINDING AFFINITY PREDICTED BY RF-SCORE:    0.00 PKD
ROOT
HETATM    1  N   UNL     1     -13.629  15.951  72.772  1.00  0.00    -0.548 NA 
HETATM    2  C   UNL     1     -13.339  14.795  72.038  1.00  0.00    -0.363 A  
HETATM    3  H2  UNL     1     -13.995  16.657  72.131  1.00  0.00     0.000 HD 
HETATM    4  H1  UNL     1     -14.247  15.902  73.582  1.00  0.00     0.000 HD 
HETATM    5  C   UNL     1     -12.492  14.863  70.927  1.00  0.00    -0.395 A  
HETATM    6  C   UNL     1     -12.109  13.703  70.249  1.00  0.00    -0.427 A  
HETATM    7  C   UNL     1     -12.534  12.460  70.720  1.00  0.00    -0.267 A  
HETATM    8  C   UNL     1     -13.330  12.370  71.863  1.00  0.00    -0.450 A  
HETATM    9  C   UNL     1     -13.706  13.538  72.531  1.00  0.00    -0.664 A  
ENDROOT
BRANCH   7  10
HETATM   10  S   UNL     1     -12.093  10.994  69.836  1.00  0.00    -0.363 S  
HETATM   11  O   UNL     1     -10.808  10.528  70.300  1.00  0.00    -0.279 OA 
HETATM   12  N   UNL     1     -13.220   9.888  70.408  1.00  0.00    -0.554 N  
HETATM   13  O   UNL     1     -12.391  11.174  68.434  1.00  0.00    -0.556 OA 
HETATM   14  H1  UNL     1     -12.966   9.042  69.897  1.00  0.00     0.000 HD 
HETATM   15  H2  UNL     1     -13.966  10.026  71.090  1.00  0.00     0.000 HD 
ENDBRANCH   7  10
TORSDOF 1
ENDMDL
MODEL       22
REMARK 921   NORMALIZED FREE ENERGY PREDICTED BY IDOCK:   -4.58 KCAL/MOL
REMARK 922        TOTAL FREE ENERGY PREDICTED BY IDOCK:   -4.90 KCAL/MOL
REMARK 923 INTER-LIGAND FREE ENERGY PREDICTED BY IDOCK:   -4.85 KCAL/MOL
REMARK 924 INTRA-LIGAND FREE ENERGY PREDICTED BY IDOCK:   -0.05 KCAL/MOL
REMARK 927      BINDING AFFINITY PREDICTED BY RF-SCORE:    0.00 PKD
ROOT
HETATM    1  N   UNL     1     -12.333  13.903  63.323  1.00  0.00    -1.148 NA 
HETATM    2  C   UNL     1     -12.184  13.381  64.613  1.00  0.00    -0.407 A  
HETATM    3  H2  UNL     1     -12.754  13.186  62.731  1.00  0.00     0.000 HD 
HETATM    4  H1  UNL     1     -12.841  14.777  63.180  1.00  0.00     0.000 HD 
HETATM    5  C   UNL     1     -11.488  12.184  64.809  1.00  0.00    -0.377 A  
HETATM    6  C   UNL     1     -11.239  11.705  66.098  1.00  0.00    -0.314 A  
HETATM    7  C   UNL     1     -11.643  12.459  67.201  1.00  0.00    -0.365 A  
HETATM    8  C   UNL     1     -12.285  13.685  67.023  1.00  0.00    -0.373 A  
HETATM    9  C   UNL     1     -12.528  14.152  65.729  1.00  0.00    -0.490 A  
ENDROOT
BRANCH   7  10
HETATM   10  S   UNL     1     -11.376  11.833  68.832  1.00  0.00    -0.294 S  
HETATM   11  O   UNL     1     -10.010  11.378  68.948  1.00  0.00    -0.198 OA 
HETATM   12  N   UNL     1     -11.480  13.225  69.764  1.00  0.00    -0.484 N  
HETATM   13  O   UNL     1     -12.499  11.012  69.219  1.00  0.00    -0.400 OA 
HETATM   14  H1  UNL     1     -11.326  12.864  70.705  1.00  0.00     0.000 HD 
HETATM   15  H2  UNL     1     -11.653  14.185  69.465  1.00  0.00     0.000 HD 
ENDBRANCH   7  10
TORSDOF 1
ENDMDL
MODEL       23
REMARK 921   NORMALIZED FREE ENERGY PREDICTED BY IDOCK:   -4.56 KCAL/MOL
REMARK 922        TOTAL FREE ENERGY PREDICTED BY IDOCK:   -4.87 KCAL/MOL
REMARK 923 INTER-LIGAND FREE ENERGY PREDICTED BY IDOCK:   -4.82 KCAL/MOL
REMARK 924 INTRA-LIGAND FREE ENERGY PREDICTED BY IDOCK:   -0.05 KCAL/MOL
REMARK 927      BINDING AFFINITY PREDICTED BY RF-SCORE:    0.00 PKD
ROOT
HETATM    1  N   UNL     1     -14.196   8.843  73.303  1.00  0.00    -1.237 NA 
HETATM    2  C   UNL     1     -13.324   9.196  72.267  1.00  0.00    -0.477 A  
HETATM    3  H2  UNL     1     -15.142   9.121  73.037  1.00  0.00     0.000 HD 
HETATM    4  H1  UNL     1     -14.226   7.881  73.641  1.00  0.00     0.000 HD 
HETATM    5  C   UNL     1     -13.283  10.515  71.804  1.00  0.00    -0.522 A  
HETATM    6  C   UNL     1     -12.345  10.906  70.845  1.00  0.00    -0.501 A  
HETATM    7  C   UNL     1     -11.404   9.983  70.387  1.00  0.00    -0.320 A  
HETATM    8  C   UNL     1     -11.393   8.678  70.883  1.00  0.00    -0.314 A  
HETATM    9  C   UNL     1     -12.337   8.300  71.842  1.00  0.00    -0.379 A  
ENDROOT
BRANCH   7  10
HETATM   10  S   UNL     1     -10.249  10.460  69.137  1.00  0.00    -0.233 S  
HETATM   11  O   UNL     1     -10.705   9.970  67.857  1.00  0.00    -0.236 OA 
HETATM   12  N   UNL     1     -10.449  12.126  69.093  1.00  0.00    -0.429 N  
HETATM   13  O   UNL     1      -8.906  10.235  69.617  1.00  0.00    -0.175 OA 
HETATM   14  H1  UNL     1      -9.782  12.402  68.372  1.00  0.00     0.000 HD 
HETATM   15  H2  UNL     1     -11.076  12.712  69.644  1.00  0.00     0.000 HD 
ENDBRANCH   7  10
TORSDOF 1
ENDMDL
MODEL       24
REMARK 921   NORMALIZED FREE ENERGY PREDICTED BY IDOCK:   -4.53 KCAL/MOL
REMARK 922        TOTAL FREE ENERGY PREDICTED BY IDOCK:   -4.85 KCAL/MOL
REMARK 923 INTER-LIGAND FREE ENERGY PREDICTED BY IDOCK:   -4.80 KCAL/MOL
REMARK 924 INTRA-LIGAND FREE ENERGY PREDICTED BY IDOCK:   -0.05 KCAL/MOL
REMARK 927      BINDING AFFINITY PREDICTED BY RF-SCORE:    0.00 PKD
ROOT
HETATM    1  N   UNL     1     -12.394  13.907  63.088  1.00  0.00    -1.106 NA 
HETATM    2  C   UNL     1     -12.144  13.330  64.339  1.00  0.00    -0.415 A  
HETATM    3  H2  UNL     1     -12.841  13.208  62.494  1.00  0.00     0.000 HD 
HETATM    4  H1  UNL     1     -12.927  14.775  63.022  1.00  0.00     0.000 HD 
HETATM    5  C   UNL     1     -11.414  12.141  64.429  1.00  0.00    -0.417 A  
HETATM    6  C   UNL     1     -11.066  11.609  65.674  1.00  0.00    -0.308 A  
HETATM    7  C   UNL     1     -11.405  12.303  66.836  1.00  0.00    -0.333 A  
HETATM    8  C   UNL     1     -12.082  13.521  66.761  1.00  0.00    -0.425 A  
HETATM    9  C   UNL     1     -12.423  14.041  65.511  1.00  0.00    -0.533 A  
ENDROOT
BRANCH   7  10
HETATM   10  S   UNL     1     -11.012  11.608  68.413  1.00  0.00    -0.240 S  
HETATM   11  O   UNL     1     -11.977  12.065  69.386  1.00  0.00    -0.301 OA 
HETATM   12  N   UNL     1     -11.337   9.979  68.170  1.00  0.00    -0.530 N  
HETATM   13  O   UNL     1      -9.588  11.699  68.634  1.00  0.00    -0.190 OA 
HETATM   14  H1  UNL     1     -11.110   9.578  69.080  1.00  0.00     0.000 HD 
HETATM   15  H2  UNL     1     -11.674   9.511  67.329  1.00  0.00     0.000 HD 
ENDBRANCH   7  10
TORSDOF 1
ENDMDL
MODEL       25
REMARK 921   NORMALIZED FREE ENERGY PREDICTED BY IDOCK:   -4.49 KCAL/MOL
REMARK 922        TOTAL FREE ENERGY PREDICTED BY IDOCK:   -4.80 KCAL/MOL
REMARK 923 INTER-LIGAND FREE ENERGY PREDICTED BY IDOCK:   -4.75 KCAL/MOL
REMARK 924 INTRA-LIGAND FREE ENERGY PREDICTED BY IDOCK:   -0.05 KCAL/MOL
REMARK 927      BINDING AFFINITY PREDICTED BY RF-SCORE:    0.00 PKD
ROOT
HETATM    1  N   UNL     1     -11.974   7.765  72.999  1.00  0.00    -0.629 NA 
HETATM    2  C   UNL     1     -11.933   8.764  72.019  1.00  0.00    -0.376 A  
HETATM    3  H2  UNL     1     -12.885   7.307  72.955  1.00  0.00     0.000 HD 
HETATM    4  H1  UNL     1     -11.252   7.044  73.024  1.00  0.00     0.000 HD 
HETATM    5  C   UNL     1     -12.922   9.753  71.985  1.00  0.00    -0.515 A  
HETATM    6  C   UNL     1     -12.838  10.816  71.082  1.00  0.00    -0.513 A  
HETATM    7  C   UNL     1     -11.727  10.920  70.244  1.00  0.00    -0.347 A  
HETATM    8  C   UNL     1     -10.702   9.975  70.308  1.00  0.00    -0.367 A  
HETATM    9  C   UNL     1     -10.799   8.917  71.215  1.00  0.00    -0.360 A  
ENDROOT
BRANCH   7  10
HETATM   10  S   UNL     1     -11.642  12.234  69.066  1.00  0.00    -0.332 S  
HETATM   11  O   UNL     1     -12.184  13.435  69.655  1.00  0.00    -0.291 OA 
HETATM   12  N   UNL     1      -9.986  12.487  68.942  1.00  0.00    -0.425 N  
HETATM   13  O   UNL     1     -12.065  11.746  67.774  1.00  0.00    -0.595 OA 
HETATM   14  H1  UNL     1      -9.937  13.245  68.262  1.00  0.00     0.000 HD 
HETATM   15  H2  UNL     1      -9.226  12.006  69.423  1.00  0.00     0.000 HD 
ENDBRANCH   7  10
TORSDOF 1
ENDMDL
MODEL       26
REMARK 921   NORMALIZED FREE ENERGY PREDICTED BY IDOCK:   -4.47 KCAL/MOL
REMARK 922        TOTAL FREE ENERGY PREDICTED BY IDOCK:   -4.79 KCAL/MOL
REMARK 923 INTER-LIGAND FREE ENERGY PREDICTED BY IDOCK:   -4.74 KCAL/MOL
REMARK 924 INTRA-LIGAND FREE ENERGY PREDICTED BY IDOCK:   -0.05 KCAL/MOL
REMARK 927      BINDING AFFINITY PREDICTED BY RF-SCORE:    0.00 PKD
ROOT
HETATM    1  N   UNL     1      -9.295   8.839  65.286  1.00  0.00    -0.445 NA 
HETATM    2  C   UNL     1      -9.806  10.134  65.137  1.00  0.00    -0.325 A  
HETATM    3  H2  UNL     1      -8.387   8.795  64.823  1.00  0.00     0.000 HD 
HETATM    4  H1  UNL     1      -9.203   8.429  66.216  1.00  0.00     0.000 HD 
HETATM    5  C   UNL     1      -9.932  10.696  63.863  1.00  0.00    -0.390 A  
HETATM    6  C   UNL     1     -10.537  11.944  63.689  1.00  0.00    -0.500 A  
HETATM    7  C   UNL     1     -11.068  12.609  64.794  1.00  0.00    -0.300 A  
HETATM    8  C   UNL     1     -11.004  12.034  66.065  1.00  0.00    -0.346 A  
HETATM    9  C   UNL     1     -10.397  10.786  66.224  1.00  0.00    -0.303 A  
ENDROOT
BRANCH   7  10
HETATM   10  S   UNL     1     -11.788  14.210  64.587  1.00  0.00    -0.450 S  
HETATM   11  O   UNL     1     -12.591  14.217  63.386  1.00  0.00    -0.818 OA 
HETATM   12  N   UNL     1     -12.871  14.276  65.868  1.00  0.00    -0.447 N  
HETATM   13  O   UNL     1     -10.793  15.220  64.858  1.00  0.00    -0.415 OA 
HETATM   14  H1  UNL     1     -13.287  15.200  65.748  1.00  0.00     0.000 HD 
HETATM   15  H2  UNL     1     -13.065  13.573  66.581  1.00  0.00     0.000 HD 
ENDBRANCH   7  10
TORSDOF 1
ENDMDL
MODEL       27
REMARK 921   NORMALIZED FREE ENERGY PREDICTED BY IDOCK:   -4.47 KCAL/MOL
REMARK 922        TOTAL FREE ENERGY PREDICTED BY IDOCK:   -4.78 KCAL/MOL
REMARK 923 INTER-LIGAND FREE ENERGY PREDICTED BY IDOCK:   -4.73 KCAL/MOL
REMARK 924 INTRA-LIGAND FREE ENERGY PREDICTED BY IDOCK:   -0.05 KCAL/MOL
REMARK 927      BINDING AFFINITY PREDICTED BY RF-SCORE:    0.00 PKD
ROOT
HETATM    1  N   UNL     1      -8.504  17.014  66.992  1.00  0.00    -0.200 NA 
HETATM    2  C   UNL     1      -9.355  16.058  66.425  1.00  0.00    -0.298 A  
HETATM    3  H2  UNL     1      -9.076  17.718  67.460  1.00  0.00     0.000 HD 
HETATM    4  H1  UNL     1      -7.763  16.725  67.631  1.00  0.00     0.000 HD 
HETATM    5  C   UNL     1     -10.370  16.455  65.548  1.00  0.00    -0.336 A  
HETATM    6  C   UNL     1     -11.158  15.506  64.892  1.00  0.00    -0.428 A  
HETATM    7  C   UNL     1     -10.892  14.149  65.072  1.00  0.00    -0.398 A  
HETATM    8  C   UNL     1      -9.844  13.736  65.896  1.00  0.00    -0.279 A  
HETATM    9  C   UNL     1      -9.063  14.695  66.547  1.00  0.00    -0.267 A  
ENDROOT
BRANCH   7  10
HETATM   10  S   UNL     1     -11.919  12.945  64.284  1.00  0.00    -0.432 S  
HETATM   11  O   UNL     1     -13.067  12.681  65.120  1.00  0.00    -0.726 OA 
HETATM   12  N   UNL     1     -12.500  13.795  62.958  1.00  0.00    -1.000 N  
HETATM   13  O   UNL     1     -11.093  11.890  63.747  1.00  0.00    -0.365 OA 
HETATM   14  H1  UNL     1     -13.093  13.101  62.503  1.00  0.00     0.000 HD 
HETATM   15  H2  UNL     1     -12.310  14.757  62.679  1.00  0.00     0.000 HD 
ENDBRANCH   7  10
TORSDOF 1
ENDMDL
MODEL       28
REMARK 921   NORMALIZED FREE ENERGY PREDICTED BY IDOCK:   -4.47 KCAL/MOL
REMARK 922        TOTAL FREE ENERGY PREDICTED BY IDOCK:   -4.78 KCAL/MOL
REMARK 923 INTER-LIGAND FREE ENERGY PREDICTED BY IDOCK:   -4.73 KCAL/MOL
REMARK 924 INTRA-LIGAND FREE ENERGY PREDICTED BY IDOCK:   -0.05 KCAL/MOL
REMARK 927      BINDING AFFINITY PREDICTED BY RF-SCORE:    0.00 PKD
ROOT
HETATM    1  N   UNL     1     -12.362  14.172  63.124  1.00  0.00    -1.046 NA 
HETATM    2  C   UNL     1     -11.992  13.521  64.307  1.00  0.00    -0.432 A  
HETATM    3  H2  UNL     1     -12.264  15.178  63.266  1.00  0.00     0.000 HD 
HETATM    4  H1  UNL     1     -11.912  13.926  62.242  1.00  0.00     0.000 HD 
HETATM    5  C   UNL     1     -12.609  13.858  65.516  1.00  0.00    -0.560 A  
HETATM    6  C   UNL     1     -12.327  13.145  66.685  1.00  0.00    -0.207 A  
HETATM    7  C   UNL     1     -11.462  12.052  66.631  1.00  0.00    -0.346 A  
HETATM    8  C   UNL     1     -10.885  11.665  65.421  1.00  0.00    -0.336 A  
HETATM    9  C   UNL     1     -11.175  12.386  64.260  1.00  0.00    -0.408 A  
ENDROOT
BRANCH   7  10
HETATM   10  S   UNL     1     -11.064  11.180  68.116  1.00  0.00    -0.290 S  
HETATM   11  O   UNL     1     -12.182  11.258  69.026  1.00  0.00    -0.444 OA 
HETATM   12  N   UNL     1     -11.012   9.588  67.584  1.00  0.00    -0.471 N  
HETATM   13  O   UNL     1      -9.716  11.508  68.516  1.00  0.00    -0.190 OA 
HETATM   14  H1  UNL     1     -10.782   9.085  68.441  1.00  0.00     0.000 HD 
HETATM   15  H2  UNL     1     -11.170   9.219  66.646  1.00  0.00     0.000 HD 
ENDBRANCH   7  10
TORSDOF 1
ENDMDL
MODEL       29
REMARK 921   NORMALIZED FREE ENERGY PREDICTED BY IDOCK:   -4.45 KCAL/MOL
REMARK 922        TOTAL FREE ENERGY PREDICTED BY IDOCK:   -4.76 KCAL/MOL
REMARK 923 INTER-LIGAND FREE ENERGY PREDICTED BY IDOCK:   -4.71 KCAL/MOL
REMARK 924 INTRA-LIGAND FREE ENERGY PREDICTED BY IDOCK:   -0.05 KCAL/MOL
REMARK 927      BINDING AFFINITY PREDICTED BY RF-SCORE:    0.00 PKD
ROOT
HETATM    1  N   UNL     1     -11.992  11.797  63.017  1.00  0.00    -0.862 NA 
HETATM    2  C   UNL     1     -11.656  12.537  64.157  1.00  0.00    -0.389 A  
HETATM    3  H2  UNL     1     -11.317  11.038  62.916  1.00  0.00     0.000 HD 
HETATM    4  H1  UNL     1     -12.930  11.409  62.917  1.00  0.00     0.000 HD 
HETATM    5  C   UNL     1     -10.370  13.069  64.294  1.00  0.00    -0.385 A  
HETATM    6  C   UNL     1     -10.051  13.898  65.373  1.00  0.00    -0.328 A  
HETATM    7  C   UNL     1     -11.043  14.241  66.292  1.00  0.00    -0.323 A  
HETATM    8  C   UNL     1     -12.347  13.768  66.136  1.00  0.00    -0.496 A  
HETATM    9  C   UNL     1     -12.652  12.940  65.053  1.00  0.00    -0.538 A  
ENDROOT
BRANCH   7  10
HETATM   10  S   UNL     1     -10.632  15.248  67.685  1.00  0.00    -0.276 S  
HETATM   11  O   UNL     1     -10.480  16.617  67.253  1.00  0.00    -0.315 OA 
HETATM   12  N   UNL     1     -12.050  15.200  68.583  1.00  0.00    -0.586 N  
HETATM   13  O   UNL     1      -9.635  14.574  68.484  1.00  0.00    -0.210 OA 
HETATM   14  H1  UNL     1     -11.812  15.781  69.387  1.00  0.00     0.000 HD 
HETATM   15  H2  UNL     1     -12.923  14.716  68.377  1.00  0.00     0.000 HD 
ENDBRANCH   7  10
TORSDOF 1
ENDMDL
MODEL       30
REMARK 921   NORMALIZED FREE ENERGY PREDICTED BY IDOCK:   -4.43 KCAL/MOL
REMARK 922        TOTAL FREE ENERGY PREDICTED BY IDOCK:   -4.74 KCAL/MOL
REMARK 923 INTER-LIGAND FREE ENERGY PREDICTED BY IDOCK:   -4.69 KCAL/MOL
REMARK 924 INTRA-LIGAND FREE ENERGY PREDICTED BY IDOCK:   -0.05 KCAL/MOL
REMARK 927      BINDING AFFINITY PREDICTED BY RF-SCORE:    0.00 PKD
ROOT
HETATM    1  N   UNL     1     -13.543   9.826  72.338  1.00  0.00    -0.638 NA 
HETATM    2  C   UNL     1     -13.026  10.958  71.697  1.00  0.00    -0.464 A  
HETATM    3  H2  UNL     1     -12.783   9.161  72.481  1.00  0.00     0.000 HD 
HETATM    4  H1  UNL     1     -14.055   9.924  73.215  1.00  0.00     0.000 HD 
HETATM    5  C   UNL     1     -12.324  10.824  70.495  1.00  0.00    -0.458 A  
HETATM    6  C   UNL     1     -11.893  11.951  69.790  1.00  0.00    -0.411 A  
HETATM    7  C   UNL     1     -12.215  13.223  70.265  1.00  0.00    -0.321 A  
HETATM    8  C   UNL     1     -12.967  13.374  71.431  1.00  0.00    -0.412 A  
HETATM    9  C   UNL     1     -13.391  12.238  72.126  1.00  0.00    -0.473 A  
ENDROOT
BRANCH   7  10
HETATM   10  S   UNL     1     -11.629  14.651  69.404  1.00  0.00    -0.324 S  
HETATM   11  O   UNL     1     -10.213  14.508  69.158  1.00  0.00    -0.226 OA 
HETATM   12  N   UNL     1     -12.376  14.490  67.909  1.00  0.00    -0.599 N  
HETATM   13  O   UNL     1     -12.195  15.836  70.004  1.00  0.00    -0.365 OA 
HETATM   14  H1  UNL     1     -12.038  15.314  67.412  1.00  0.00     0.000 HD 
HETATM   15  H2  UNL     1     -13.006  13.757  67.582  1.00  0.00     0.000 HD 
ENDBRANCH   7  10
TORSDOF 1
ENDMDL
MODEL       31
REMARK 921   NORMALIZED FREE ENERGY PREDICTED BY IDOCK:   -4.41 KCAL/MOL
REMARK 922        TOTAL FREE ENERGY PREDICTED BY IDOCK:   -4.72 KCAL/MOL
REMARK 923 INTER-LIGAND FREE ENERGY PREDICTED BY IDOCK:   -4.68 KCAL/MOL
REMARK 924 INTRA-LIGAND FREE ENERGY PREDICTED BY IDOCK:   -0.05 KCAL/MOL
REMARK 927      BINDING AFFINITY PREDICTED BY RF-SCORE:    0.00 PKD
ROOT
HETATM    1  N   UNL     1     -11.456  16.530  63.820  1.00  0.00    -1.411 NA 
HETATM    2  C   UNL     1     -11.223  15.444  64.672  1.00  0.00    -0.364 A  
HETATM    3  H2  UNL     1     -10.592  16.736  63.316  1.00  0.00     0.000 HD 
HETATM    4  H1  UNL     1     -12.222  16.497  63.146  1.00  0.00     0.000 HD 
HETATM    5  C   UNL     1     -10.174  15.490  65.595  1.00  0.00    -0.403 A  
HETATM    6  C   UNL     1      -9.994  14.460  66.523  1.00  0.00    -0.291 A  
HETATM    7  C   UNL     1     -10.904  13.404  66.562  1.00  0.00    -0.282 A  
HETATM    8  C   UNL     1     -11.991  13.373  65.688  1.00  0.00    -0.439 A  
HETATM    9  C   UNL     1     -12.160  14.409  64.765  1.00  0.00    -0.462 A  
ENDROOT
BRANCH   7  10
HETATM   10  S   UNL     1     -10.651  12.075  67.700  1.00  0.00    -0.217 S  
HETATM   11  O   UNL     1     -11.906  11.750  68.337  1.00  0.00    -0.364 OA 
HETATM   12  N   UNL     1     -10.310  10.793  66.671  1.00  0.00    -0.233 N  
HETATM   13  O   UNL     1      -9.441  12.313  68.451  1.00  0.00    -0.211 OA 
HETATM   14  H1  UNL     1     -10.164  10.026  67.327  1.00  0.00     0.000 HD 
HETATM   15  H2  UNL     1     -10.262  10.783  65.652  1.00  0.00     0.000 HD 
ENDBRANCH   7  10
TORSDOF 1
ENDMDL
MODEL       32
REMARK 921   NORMALIZED FREE ENERGY PREDICTED BY IDOCK:   -4.41 KCAL/MOL
REMARK 922        TOTAL FREE ENERGY PREDICTED BY IDOCK:   -4.72 KCAL/MOL
REMARK 923 INTER-LIGAND FREE ENERGY PREDICTED BY IDOCK:   -4.67 KCAL/MOL
REMARK 924 INTRA-LIGAND FREE ENERGY PREDICTED BY IDOCK:   -0.05 KCAL/MOL
REMARK 927      BINDING AFFINITY PREDICTED BY RF-SCORE:    0.00 PKD
ROOT
HETATM    1  N   UNL     1     -12.018  11.448  67.832  1.00  0.00    -0.644 NA 
HETATM    2  C   UNL     1     -11.531  12.652  67.309  1.00  0.00    -0.342 A  
HETATM    3  H2  UNL     1     -11.718  10.687  67.221  1.00  0.00     0.000 HD 
HETATM    4  H1  UNL     1     -11.811  11.188  68.796  1.00  0.00     0.000 HD 
HETATM    5  C   UNL     1     -11.815  13.009  65.987  1.00  0.00    -0.471 A  
HETATM    6  C   UNL     1     -11.427  14.253  65.484  1.00  0.00    -0.329 A  
HETATM    7  C   UNL     1     -10.799  15.170  66.328  1.00  0.00    -0.333 A  
HETATM    8  C   UNL     1     -10.562  14.853  67.666  1.00  0.00    -0.264 A  
HETATM    9  C   UNL     1     -10.955  13.605  68.156  1.00  0.00    -0.273 A  
ENDROOT
BRANCH   7  10
HETATM   10  S   UNL     1     -10.261  16.724  65.682  1.00  0.00    -0.166 S  
HETATM   11  O   UNL     1     -11.101  17.091  64.566  1.00  0.00    -1.098 OA 
HETATM   12  N   UNL     1     -10.661  17.778  66.927  1.00  0.00    -0.292 N  
HETATM   13  O   UNL     1      -8.819  16.736  65.602  1.00  0.00    -0.461 OA 
HETATM   14  H1  UNL     1     -10.351  18.676  66.554  1.00  0.00     0.000 HD 
HETATM   15  H2  UNL     1     -11.101  17.574  67.824  1.00  0.00     0.000 HD 
ENDBRANCH   7  10
TORSDOF 1
ENDMDL
MODEL       33
REMARK 921   NORMALIZED FREE ENERGY PREDICTED BY IDOCK:   -4.37 KCAL/MOL
REMARK 922        TOTAL FREE ENERGY PREDICTED BY IDOCK:   -4.67 KCAL/MOL
REMARK 923 INTER-LIGAND FREE ENERGY PREDICTED BY IDOCK:   -4.62 KCAL/MOL
REMARK 924 INTRA-LIGAND FREE ENERGY PREDICTED BY IDOCK:   -0.05 KCAL/MOL
REMARK 927      BINDING AFFINITY PREDICTED BY RF-SCORE:    0.00 PKD
ROOT
HETATM    1  N   UNL     1     -11.952  11.512  62.956  1.00  0.00    -0.908 NA 
HETATM    2  C   UNL     1     -11.542  12.634  63.685  1.00  0.00    -0.503 A  
HETATM    3  H2  UNL     1     -12.022  11.775  61.972  1.00  0.00     0.000 HD 
HETATM    4  H1  UNL     1     -11.425  10.640  63.019  1.00  0.00     0.000 HD 
HETATM    5  C   UNL     1     -12.265  13.829  63.598  1.00  0.00    -0.311 A  
HETATM    6  C   UNL     1     -11.932  14.924  64.399  1.00  0.00    -0.408 A  
HETATM    7  C   UNL     1     -10.903  14.805  65.334  1.00  0.00    -0.363 A  
HETATM    8  C   UNL     1     -10.212  13.600  65.476  1.00  0.00    -0.316 A  
HETATM    9  C   UNL     1     -10.555  12.513  64.668  1.00  0.00    -0.343 A  
ENDROOT
BRANCH   7  10
HETATM   10  S   UNL     1     -10.446  16.203  66.313  1.00  0.00    -0.296 S  
HETATM   11  O   UNL     1     -11.120  16.130  67.588  1.00  0.00    -0.301 OA 
HETATM   12  N   UNL     1      -8.826  15.896  66.629  1.00  0.00    -0.252 N  
HETATM   13  O   UNL     1     -10.471  17.391  65.492  1.00  0.00    -0.624 OA 
HETATM   14  H1  UNL     1      -8.562  16.703  67.194  1.00  0.00     0.000 HD 
HETATM   15  H2  UNL     1      -8.253  15.106  66.332  1.00  0.00     0.000 HD 
ENDBRANCH   7  10
TORSDOF 1
ENDMDL
MODEL       34
REMARK 921   NORMALIZED FREE ENERGY PREDICTED BY IDOCK:   -4.35 KCAL/MOL
REMARK 922        TOTAL FREE ENERGY PREDICTED BY IDOCK:   -4.66 KCAL/MOL
REMARK 923 INTER-LIGAND FREE ENERGY PREDICTED BY IDOCK:   -4.61 KCAL/MOL
REMARK 924 INTRA-LIGAND FREE ENERGY PREDICTED BY IDOCK:   -0.05 KCAL/MOL
REMARK 927      BINDING AFFINITY PREDICTED BY RF-SCORE:    0.00 PKD
ROOT
HETATM    1  N   UNL     1     -13.150  12.594  64.669  1.00  0.00    -0.848 NA 
HETATM    2  C   UNL     1     -12.301  13.623  65.093  1.00  0.00    -0.452 A  
HETATM    3  H2  UNL     1     -12.762  12.186  63.817  1.00  0.00     0.000 HD 
HETATM    4  H1  UNL     1     -13.394  11.836  65.307  1.00  0.00     0.000 HD 
HETATM    5  C   UNL     1     -11.967  14.662  64.219  1.00  0.00    -0.406 A  
HETATM    6  C   UNL     1     -11.207  15.749  64.660  1.00  0.00    -0.373 A  
HETATM    7  C   UNL     1     -10.826  15.823  66.000  1.00  0.00    -0.255 A  
HETATM    8  C   UNL     1     -11.203  14.825  66.899  1.00  0.00    -0.347 A  
HETATM    9  C   UNL     1     -11.962  13.743  66.446  1.00  0.00    -0.473 A  
ENDROOT
BRANCH   7  10
HETATM   10  S   UNL     1      -9.823  17.171  66.549  1.00  0.00    -0.309 S  
HETATM   11  O   UNL     1     -10.615  18.378  66.559  1.00  0.00    -0.378 OA 
HETATM   12  N   UNL     1      -9.560  16.778  68.160  1.00  0.00    -0.236 N  
HETATM   13  O   UNL     1      -8.532  17.098  65.907  1.00  0.00    -0.529 OA 
HETATM   14  H1  UNL     1      -8.981  17.555  68.477  1.00  0.00     0.000 HD 
HETATM   15  H2  UNL     1      -9.893  15.970  68.686  1.00  0.00     0.000 HD 
ENDBRANCH   7  10
TORSDOF 1
ENDMDL
MODEL       35
REMARK 921   NORMALIZED FREE ENERGY PREDICTED BY IDOCK:   -4.33 KCAL/MOL
REMARK 922        TOTAL FREE ENERGY PREDICTED BY IDOCK:   -4.64 KCAL/MOL
REMARK 923 INTER-LIGAND FREE ENERGY PREDICTED BY IDOCK:   -4.59 KCAL/MOL
REMARK 924 INTRA-LIGAND FREE ENERGY PREDICTED BY IDOCK:   -0.05 KCAL/MOL
REMARK 927      BINDING AFFINITY PREDICTED BY RF-SCORE:    0.00 PKD
ROOT
HETATM    1  N   UNL     1     -13.068  12.472  64.800  1.00  0.00    -0.814 NA 
HETATM    2  C   UNL     1     -12.382  13.612  65.234  1.00  0.00    -0.465 A  
HETATM    3  H2  UNL     1     -13.967  12.434  65.283  1.00  0.00     0.000 HD 
HETATM    4  H1  UNL     1     -13.231  12.320  63.804  1.00  0.00     0.000 HD 
HETATM    5  C   UNL     1     -12.159  13.821  66.599  1.00  0.00    -0.471 A  
HETATM    6  C   UNL     1     -11.385  14.897  67.040  1.00  0.00    -0.345 A  
HETATM    7  C   UNL     1     -10.784  15.741  66.104  1.00  0.00    -0.290 A  
HETATM    8  C   UNL     1     -10.947  15.511  64.737  1.00  0.00    -0.416 A  
HETATM    9  C   UNL     1     -11.723  14.431  64.310  1.00  0.00    -0.328 A  
ENDROOT
BRANCH   7  10
HETATM   10  S   UNL     1      -9.847  17.132  66.659  1.00  0.00    -0.302 S  
HETATM   11  O   UNL     1      -8.528  17.081  66.073  1.00  0.00    -0.473 OA 
HETATM   12  N   UNL     1     -10.637  18.409  65.907  1.00  0.00    -0.395 N  
HETATM   13  O   UNL     1     -10.057  17.317  68.076  1.00  0.00    -0.292 OA 
HETATM   14  H1  UNL     1     -10.096  19.212  66.227  1.00  0.00     0.000 HD 
HETATM   15  H2  UNL     1     -11.448  18.387  65.289  1.00  0.00     0.000 HD 
ENDBRANCH   7  10
TORSDOF 1
ENDMDL
MODEL       36
REMARK 921   NORMALIZED FREE ENERGY PREDICTED BY IDOCK:   -4.31 KCAL/MOL
REMARK 922        TOTAL FREE ENERGY PREDICTED BY IDOCK:   -4.61 KCAL/MOL
REMARK 923 INTER-LIGAND FREE ENERGY PREDICTED BY IDOCK:   -4.56 KCAL/MOL
REMARK 924 INTRA-LIGAND FREE ENERGY PREDICTED BY IDOCK:   -0.05 KCAL/MOL
REMARK 927      BINDING AFFINITY PREDICTED BY RF-SCORE:    0.00 PKD
ROOT
HETATM    1  N   UNL     1     -11.790  11.588  67.206  1.00  0.00    -0.604 NA 
HETATM    2  C   UNL     1     -11.449  12.899  66.856  1.00  0.00    -0.341 A  
HETATM    3  H2  UNL     1     -12.803  11.540  67.329  1.00  0.00     0.000 HD 
HETATM    4  H1  UNL     1     -11.500  10.808  66.616  1.00  0.00     0.000 HD 
HETATM    5  C   UNL     1     -11.847  13.968  67.665  1.00  0.00    -0.430 A  
HETATM    6  C   UNL     1     -11.425  15.271  67.386  1.00  0.00    -0.246 A  
HETATM    7  C   UNL     1     -10.553  15.498  66.321  1.00  0.00    -0.307 A  
HETATM    8  C   UNL     1     -10.098  14.434  65.540  1.00  0.00    -0.382 A  
HETATM    9  C   UNL     1     -10.528  13.137  65.829  1.00  0.00    -0.291 A  
ENDROOT
BRANCH   7  10
HETATM   10  S   UNL     1     -10.057  17.149  65.934  1.00  0.00    -0.183 S  
HETATM   11  O   UNL     1     -10.952  17.692  64.939  1.00  0.00    -0.886 OA 
HETATM   12  N   UNL     1     -10.406  17.963  67.361  1.00  0.00    -0.363 N  
HETATM   13  O   UNL     1      -8.621  17.197  65.792  1.00  0.00    -0.525 OA 
HETATM   14  H1  UNL     1     -10.120  18.916  67.138  1.00  0.00     0.000 HD 
HETATM   15  H2  UNL     1     -10.802  17.598  68.227  1.00  0.00     0.000 HD 
ENDBRANCH   7  10
TORSDOF 1
ENDMDL
MODEL       37
REMARK 921   NORMALIZED FREE ENERGY PREDICTED BY IDOCK:   -4.29 KCAL/MOL
REMARK 922        TOTAL FREE ENERGY PREDICTED BY IDOCK:   -4.59 KCAL/MOL
REMARK 923 INTER-LIGAND FREE ENERGY PREDICTED BY IDOCK:   -4.55 KCAL/MOL
REMARK 924 INTRA-LIGAND FREE ENERGY PREDICTED BY IDOCK:   -0.05 KCAL/MOL
REMARK 927      BINDING AFFINITY PREDICTED BY RF-SCORE:    0.00 PKD
ROOT
HETATM    1  N   UNL     1     -11.885  16.329  71.495  1.00  0.00    -0.649 NA 
HETATM    2  C   UNL     1     -11.718  15.594  70.316  1.00  0.00    -0.357 A  
HETATM    3  H2  UNL     1     -11.488  15.793  72.268  1.00  0.00     0.000 HD 
HETATM    4  H1  UNL     1     -11.538  17.286  71.556  1.00  0.00     0.000 HD 
HETATM    5  C   UNL     1     -12.194  14.281  70.233  1.00  0.00    -0.407 A  
HETATM    6  C   UNL     1     -12.130  13.573  69.030  1.00  0.00    -0.330 A  
HETATM    7  C   UNL     1     -11.636  14.202  67.887  1.00  0.00    -0.338 A  
HETATM    8  C   UNL     1     -11.213  15.531  67.938  1.00  0.00    -0.325 A  
HETATM    9  C   UNL     1     -11.282  16.228  69.147  1.00  0.00    -0.309 A  
ENDROOT
BRANCH   7  10
HETATM   10  S   UNL     1     -11.506  13.294  66.377  1.00  0.00    -0.345 S  
HETATM   11  O   UNL     1     -11.742  11.894  66.644  1.00  0.00    -0.546 OA 
HETATM   12  N   UNL     1     -12.849  13.834  65.526  1.00  0.00    -0.652 N  
HETATM   13  O   UNL     1     -10.356  13.757  65.638  1.00  0.00    -0.292 OA 
HETATM   14  H1  UNL     1     -12.774  13.310  64.655  1.00  0.00     0.000 HD 
HETATM   15  H2  UNL     1     -13.557  14.512  65.808  1.00  0.00     0.000 HD 
ENDBRANCH   7  10
TORSDOF 1
ENDMDL
MODEL       38
REMARK 921   NORMALIZED FREE ENERGY PREDICTED BY IDOCK:   -4.28 KCAL/MOL
REMARK 922        TOTAL FREE ENERGY PREDICTED BY IDOCK:   -4.58 KCAL/MOL
REMARK 923 INTER-LIGAND FREE ENERGY PREDICTED BY IDOCK:   -4.53 KCAL/MOL
REMARK 924 INTRA-LIGAND FREE ENERGY PREDICTED BY IDOCK:   -0.05 KCAL/MOL
REMARK 927      BINDING AFFINITY PREDICTED BY RF-SCORE:    0.00 PKD
ROOT
HETATM    1  N   UNL     1      -9.773   9.415  68.435  1.00  0.00    -0.146 NA 
HETATM    2  C   UNL     1     -10.418  10.271  67.535  1.00  0.00    -0.244 A  
HETATM    3  H2  UNL     1     -10.474   9.025  69.066  1.00  0.00     0.000 HD 
HETATM    4  H1  UNL     1      -9.192   8.651  68.088  1.00  0.00     0.000 HD 
HETATM    5  C   UNL     1     -11.214  11.318  68.011  1.00  0.00    -0.351 A  
HETATM    6  C   UNL     1     -11.777  12.245  67.129  1.00  0.00    -0.396 A  
HETATM    7  C   UNL     1     -11.496  12.155  65.766  1.00  0.00    -0.361 A  
HETATM    8  C   UNL     1     -10.654  11.152  65.282  1.00  0.00    -0.303 A  
HETATM    9  C   UNL     1     -10.098  10.232  66.174  1.00  0.00    -0.307 A  
ENDROOT
BRANCH   7  10
HETATM   10  S   UNL     1     -12.247  13.294  64.643  1.00  0.00    -0.408 S  
HETATM   11  O   UNL     1     -13.240  14.070  65.347  1.00  0.00    -0.761 OA 
HETATM   12  N   UNL     1     -10.982  14.349  64.315  1.00  0.00    -0.593 N  
HETATM   13  O   UNL     1     -12.532  12.620  63.398  1.00  0.00    -0.663 OA 
HETATM   14  H1  UNL     1     -11.416  15.006  63.667  1.00  0.00     0.000 HD 
HETATM   15  H2  UNL     1     -10.027  14.336  64.672  1.00  0.00     0.000 HD 
ENDBRANCH   7  10
TORSDOF 1
ENDMDL
MODEL       39
REMARK 921   NORMALIZED FREE ENERGY PREDICTED BY IDOCK:   -4.27 KCAL/MOL
REMARK 922        TOTAL FREE ENERGY PREDICTED BY IDOCK:   -4.57 KCAL/MOL
REMARK 923 INTER-LIGAND FREE ENERGY PREDICTED BY IDOCK:   -4.52 KCAL/MOL
REMARK 924 INTRA-LIGAND FREE ENERGY PREDICTED BY IDOCK:   -0.05 KCAL/MOL
REMARK 927      BINDING AFFINITY PREDICTED BY RF-SCORE:    0.00 PKD
ROOT
HETATM    1  N   UNL     1     -11.736  11.503  63.030  1.00  0.00    -0.874 NA 
HETATM    2  C   UNL     1     -11.633  12.129  64.278  1.00  0.00    -0.370 A  
HETATM    3  H2  UNL     1     -11.562  12.199  62.305  1.00  0.00     0.000 HD 
HETATM    4  H1  UNL     1     -11.174  10.677  62.825  1.00  0.00     0.000 HD 
HETATM    5  C   UNL     1     -12.403  13.262  64.560  1.00  0.00    -0.428 A  
HETATM    6  C   UNL     1     -12.391  13.835  65.834  1.00  0.00    -0.516 A  
HETATM    7  C   UNL     1     -11.643  13.237  66.849  1.00  0.00    -0.364 A  
HETATM    8  C   UNL     1     -10.917  12.072  66.600  1.00  0.00    -0.330 A  
HETATM    9  C   UNL     1     -10.938  11.509  65.322  1.00  0.00    -0.291 A  
ENDROOT
BRANCH   7  10
HETATM   10  S   UNL     1     -11.585  13.987  68.448  1.00  0.00    -0.352 S  
HETATM   11  O   UNL     1     -12.286  13.149  69.392  1.00  0.00    -0.251 OA 
HETATM   12  N   UNL     1      -9.956  13.859  68.836  1.00  0.00    -0.410 N  
HETATM   13  O   UNL     1     -11.851  15.401  68.323  1.00  0.00    -0.339 OA 
HETATM   14  H1  UNL     1      -9.922  14.292  69.759  1.00  0.00     0.000 HD 
HETATM   15  H2  UNL     1      -9.197  13.452  68.290  1.00  0.00     0.000 HD 
ENDBRANCH   7  10
TORSDOF 1
ENDMDL
MODEL       40
REMARK 921   NORMALIZED FREE ENERGY PREDICTED BY IDOCK:   -4.27 KCAL/MOL
REMARK 922        TOTAL FREE ENERGY PREDICTED BY IDOCK:   -4.57 KCAL/MOL
REMARK 923 INTER-LIGAND FREE ENERGY PREDICTED BY IDOCK:   -4.52 KCAL/MOL
REMARK 924 INTRA-LIGAND FREE ENERGY PREDICTED BY IDOCK:   -0.05 KCAL/MOL
REMARK 927      BINDING AFFINITY PREDICTED BY RF-SCORE:    0.00 PKD
ROOT
HETATM    1  N   UNL     1     -12.963  15.244  70.522  1.00  0.00    -0.627 NA 
HETATM    2  C   UNL     1     -12.660  13.891  70.714  1.00  0.00    -0.354 A  
HETATM    3  H2  UNL     1     -12.814  15.735  71.404  1.00  0.00     0.000 HD 
HETATM    4  H1  UNL     1     -12.504  15.771  69.778  1.00  0.00     0.000 HD 
HETATM    5  C   UNL     1     -13.288  13.168  71.733  1.00  0.00    -0.477 A  
HETATM    6  C   UNL     1     -13.076  11.794  71.870  1.00  0.00    -0.482 A  
HETATM    7  C   UNL     1     -12.272  11.127  70.945  1.00  0.00    -0.364 A  
HETATM    8  C   UNL     1     -11.686  11.823  69.886  1.00  0.00    -0.399 A  
HETATM    9  C   UNL     1     -11.906  13.197  69.761  1.00  0.00    -0.386 A  
ENDROOT
BRANCH   7  10
HETATM   10  S   UNL     1     -11.961   9.399  71.144  1.00  0.00    -0.354 S  
HETATM   11  O   UNL     1     -13.206   8.721  71.418  1.00  0.00    -0.316 OA 
HETATM   12  N   UNL     1     -11.517   8.942  69.591  1.00  0.00    -0.420 N  
HETATM   13  O   UNL     1     -10.784   9.217  71.962  1.00  0.00    -0.341 OA 
HETATM   14  H1  UNL     1     -11.337   7.944  69.706  1.00  0.00     0.000 HD 
HETATM   15  H2  UNL     1     -11.446   9.513  68.750  1.00  0.00     0.000 HD 
ENDBRANCH   7  10
TORSDOF 1
ENDMDL
MODEL       41
REMARK 921   NORMALIZED FREE ENERGY PREDICTED BY IDOCK:   -4.25 KCAL/MOL
REMARK 922        TOTAL FREE ENERGY PREDICTED BY IDOCK:   -4.55 KCAL/MOL
REMARK 923 INTER-LIGAND FREE ENERGY PREDICTED BY IDOCK:   -4.50 KCAL/MOL
REMARK 924 INTRA-LIGAND FREE ENERGY PREDICTED BY IDOCK:   -0.05 KCAL/MOL
REMARK 927      BINDING AFFINITY PREDICTED BY RF-SCORE:    0.00 PKD
ROOT
HETATM    1  N   UNL     1     -10.102  18.140  65.998  1.00  0.00    -0.554 NA 
HETATM    2  C   UNL     1     -10.475  16.792  65.935  1.00  0.00    -0.301 A  
HETATM    3  H2  UNL     1      -9.219  18.206  66.505  1.00  0.00     0.000 HD 
HETATM    4  H1  UNL     1     -10.024  18.690  65.143  1.00  0.00     0.000 HD 
HETATM    5  C   UNL     1     -10.582  16.038  67.108  1.00  0.00    -0.305 A  
HETATM    6  C   UNL     1     -11.055  14.723  67.070  1.00  0.00    -0.333 A  
HETATM    7  C   UNL     1     -11.477  14.179  65.857  1.00  0.00    -0.338 A  
HETATM    8  C   UNL     1     -11.433  14.939  64.687  1.00  0.00    -0.380 A  
HETATM    9  C   UNL     1     -10.958  16.251  64.738  1.00  0.00    -0.288 A  
ENDROOT
BRANCH   7  10
HETATM   10  S   UNL     1     -12.027  12.501  65.798  1.00  0.00    -0.368 S  
HETATM   11  O   UNL     1     -13.157  12.403  64.904  1.00  0.00    -0.765 OA 
HETATM   12  N   UNL     1     -10.752  11.740  65.015  1.00  0.00    -0.283 N  
HETATM   13  O   UNL     1     -12.051  11.958  67.136  1.00  0.00    -0.590 OA 
HETATM   14  H1  UNL     1     -11.069  10.772  64.981  1.00  0.00     0.000 HD 
HETATM   15  H2  UNL     1      -9.883  12.143  64.663  1.00  0.00     0.000 HD 
ENDBRANCH   7  10
TORSDOF 1
ENDMDL
MODEL       42
REMARK 921   NORMALIZED FREE ENERGY PREDICTED BY IDOCK:   -4.23 KCAL/MOL
REMARK 922        TOTAL FREE ENERGY PREDICTED BY IDOCK:   -4.53 KCAL/MOL
REMARK 923 INTER-LIGAND FREE ENERGY PREDICTED BY IDOCK:   -4.48 KCAL/MOL
REMARK 924 INTRA-LIGAND FREE ENERGY PREDICTED BY IDOCK:   -0.05 KCAL/MOL
REMARK 927      BINDING AFFINITY PREDICTED BY RF-SCORE:    0.00 PKD
ROOT
HETATM    1  N   UNL     1      -8.451  15.523  67.873  1.00  0.00    -0.142 NA 
HETATM    2  C   UNL     1      -9.275  14.959  66.892  1.00  0.00    -0.246 A  
HETATM    3  H2  UNL     1      -7.493  15.213  67.707  1.00  0.00     0.000 HD 
HETATM    4  H1  UNL     1      -8.443  16.533  68.016  1.00  0.00     0.000 HD 
HETATM    5  C   UNL     1      -9.286  13.574  66.697  1.00  0.00    -0.254 A  
HETATM    6  C   UNL     1     -10.179  12.987  65.796  1.00  0.00    -0.297 A  
HETATM    7  C   UNL     1     -11.105  13.788  65.126  1.00  0.00    -0.328 A  
HETATM    8  C   UNL     1     -11.147  15.164  65.355  1.00  0.00    -0.371 A  
HETATM    9  C   UNL     1     -10.249  15.738  66.258  1.00  0.00    -0.317 A  
ENDROOT
BRANCH   7  10
HETATM   10  S   UNL     1     -12.201  13.056  63.949  1.00  0.00    -0.427 S  
HETATM   11  O   UNL     1     -12.559  14.043  62.957  1.00  0.00    -0.643 OA 
HETATM   12  N   UNL     1     -11.196  11.960  63.169  1.00  0.00    -0.691 N  
HETATM   13  O   UNL     1     -13.188  12.263  64.643  1.00  0.00    -0.763 OA 
HETATM   14  H1  UNL     1     -11.829  11.538  62.489  1.00  0.00     0.000 HD 
HETATM   15  H2  UNL     1     -10.208  11.767  63.332  1.00  0.00     0.000 HD 
ENDBRANCH   7  10
TORSDOF 1
ENDMDL
MODEL       43
REMARK 921   NORMALIZED FREE ENERGY PREDICTED BY IDOCK:   -4.20 KCAL/MOL
REMARK 922        TOTAL FREE ENERGY PREDICTED BY IDOCK:   -4.49 KCAL/MOL
REMARK 923 INTER-LIGAND FREE ENERGY PREDICTED BY IDOCK:   -4.44 KCAL/MOL
REMARK 924 INTRA-LIGAND FREE ENERGY PREDICTED BY IDOCK:   -0.05 KCAL/MOL
REMARK 927      BINDING AFFINITY PREDICTED BY RF-SCORE:    0.00 PKD
ROOT
HETATM    1  N   UNL     1     -11.442  13.508  69.091  1.00  0.00    -0.278 NA 
HETATM    2  C   UNL     1     -11.857  12.358  69.772  1.00  0.00    -0.317 A  
HETATM    3  H2  UNL     1     -11.577  13.357  68.091  1.00  0.00     0.000 HD 
HETATM    4  H1  UNL     1     -11.834  14.417  69.335  1.00  0.00     0.000 HD 
HETATM    5  C   UNL     1     -11.318  11.111  69.437  1.00  0.00    -0.352 A  
HETATM    6  C   UNL     1     -11.643   9.971  70.176  1.00  0.00    -0.320 A  
HETATM    7  C   UNL     1     -12.471  10.089  71.294  1.00  0.00    -0.392 A  
HETATM    8  C   UNL     1     -12.968  11.335  71.677  1.00  0.00    -0.537 A  
HETATM    9  C   UNL     1     -12.636  12.467  70.929  1.00  0.00    -0.331 A  
ENDROOT
BRANCH   7  10
HETATM   10  S   UNL     1     -12.924   8.642  72.201  1.00  0.00    -0.392 S  
HETATM   11  O   UNL     1     -14.214   8.852  72.816  1.00  0.00    -0.557 OA 
HETATM   12  N   UNL     1     -13.174   7.523  70.974  1.00  0.00    -0.594 N  
HETATM   13  O   UNL     1     -11.781   8.165  72.944  1.00  0.00    -0.373 OA 
HETATM   14  H1  UNL     1     -13.436   6.688  71.497  1.00  0.00     0.000 HD 
HETATM   15  H2  UNL     1     -13.087   7.647  69.965  1.00  0.00     0.000 HD 
ENDBRANCH   7  10
TORSDOF 1
ENDMDL
MODEL       44
REMARK 921   NORMALIZED FREE ENERGY PREDICTED BY IDOCK:   -4.16 KCAL/MOL
REMARK 922        TOTAL FREE ENERGY PREDICTED BY IDOCK:   -4.46 KCAL/MOL
REMARK 923 INTER-LIGAND FREE ENERGY PREDICTED BY IDOCK:   -4.41 KCAL/MOL
REMARK 924 INTRA-LIGAND FREE ENERGY PREDICTED BY IDOCK:   -0.05 KCAL/MOL
REMARK 927      BINDING AFFINITY PREDICTED BY RF-SCORE:    0.00 PKD
ROOT
HETATM    1  N   UNL     1     -12.256  15.860  63.746  1.00  0.00    -1.141 NA 
HETATM    2  C   UNL     1     -11.671  14.753  64.371  1.00  0.00    -0.336 A  
HETATM    3  H2  UNL     1     -13.270  15.740  63.761  1.00  0.00     0.000 HD 
HETATM    4  H1  UNL     1     -12.040  16.804  64.068  1.00  0.00     0.000 HD 
HETATM    5  C   UNL     1     -11.967  13.460  63.930  1.00  0.00    -0.520 A  
HETATM    6  C   UNL     1     -11.311  12.352  64.473  1.00  0.00    -0.381 A  
HETATM    7  C   UNL     1     -10.310  12.545  65.426  1.00  0.00    -0.282 A  
HETATM    8  C   UNL     1      -9.960  13.833  65.833  1.00  0.00    -0.308 A  
HETATM    9  C   UNL     1     -10.624  14.932  65.283  1.00  0.00    -0.421 A  
ENDROOT
BRANCH   7  10
HETATM   10  S   UNL     1      -9.514  11.144  66.151  1.00  0.00    -0.212 S  
HETATM   11  O   UNL     1     -10.147   9.937  65.672  1.00  0.00    -0.289 OA 
HETATM   12  N   UNL     1      -7.999  11.189  65.429  1.00  0.00    -0.360 N  
HETATM   13  O   UNL     1      -9.290  11.395  67.555  1.00  0.00    -0.161 OA 
HETATM   14  H1  UNL     1      -7.539  10.380  65.847  1.00  0.00     0.000 HD 
HETATM   15  H2  UNL     1      -7.633  11.853  64.747  1.00  0.00     0.000 HD 
ENDBRANCH   7  10
TORSDOF 1
ENDMDL
MODEL       45
REMARK 921   NORMALIZED FREE ENERGY PREDICTED BY IDOCK:   -4.15 KCAL/MOL
REMARK 922        TOTAL FREE ENERGY PREDICTED BY IDOCK:   -4.44 KCAL/MOL
REMARK 923 INTER-LIGAND FREE ENERGY PREDICTED BY IDOCK:   -4.39 KCAL/MOL
REMARK 924 INTRA-LIGAND FREE ENERGY PREDICTED BY IDOCK:   -0.05 KCAL/MOL
REMARK 927      BINDING AFFINITY PREDICTED BY RF-SCORE:    0.00 PKD
ROOT
HETATM    1  N   UNL     1     -11.814  13.750  69.510  1.00  0.00    -0.318 NA 
HETATM    2  C   UNL     1     -11.925  12.510  70.150  1.00  0.00    -0.301 A  
HETATM    3  H2  UNL     1     -11.620  14.461  70.216  1.00  0.00     0.000 HD 
HETATM    4  H1  UNL     1     -11.154  13.872  68.741  1.00  0.00     0.000 HD 
HETATM    5  C   UNL     1     -12.829  12.343  71.204  1.00  0.00    -0.299 A  
HETATM    6  C   UNL     1     -13.028  11.086  71.782  1.00  0.00    -0.544 A  
HETATM    7  C   UNL     1     -12.357   9.978  71.264  1.00  0.00    -0.398 A  
HETATM    8  C   UNL     1     -11.497  10.117  70.174  1.00  0.00    -0.368 A  
HETATM    9  C   UNL     1     -11.307  11.379  69.605  1.00  0.00    -0.347 A  
ENDROOT
BRANCH   7  10
HETATM   10  S   UNL     1     -12.566   8.397  72.025  1.00  0.00    -0.368 S  
HETATM   11  O   UNL     1     -11.435   8.128  72.881  1.00  0.00    -0.389 OA 
HETATM   12  N   UNL     1     -13.867   8.671  73.051  1.00  0.00    -0.793 N  
HETATM   13  O   UNL     1     -13.033   7.450  71.039  1.00  0.00    -0.269 OA 
HETATM   14  H1  UNL     1     -13.988   7.758  73.490  1.00  0.00     0.000 HD 
HETATM   15  H2  UNL     1     -14.398   9.529  73.197  1.00  0.00     0.000 HD 
ENDBRANCH   7  10
TORSDOF 1
ENDMDL
MODEL       46
REMARK 921   NORMALIZED FREE ENERGY PREDICTED BY IDOCK:   -4.15 KCAL/MOL
REMARK 922        TOTAL FREE ENERGY PREDICTED BY IDOCK:   -4.44 KCAL/MOL
REMARK 923 INTER-LIGAND FREE ENERGY PREDICTED BY IDOCK:   -4.39 KCAL/MOL
REMARK 924 INTRA-LIGAND FREE ENERGY PREDICTED BY IDOCK:   -0.05 KCAL/MOL
REMARK 927      BINDING AFFINITY PREDICTED BY RF-SCORE:    0.00 PKD
ROOT
HETATM    1  N   UNL     1     -14.111   8.943  73.184  1.00  0.00    -1.225 NA 
HETATM    2  C   UNL     1     -13.215   8.662  72.146  1.00  0.00    -0.383 A  
HETATM    3  H2  UNL     1     -14.682   9.743  72.909  1.00  0.00     0.000 HD 
HETATM    4  H1  UNL     1     -14.730   8.213  73.538  1.00  0.00     0.000 HD 
HETATM    5  C   UNL     1     -12.368   9.663  71.660  1.00  0.00    -0.489 A  
HETATM    6  C   UNL     1     -11.396   9.372  70.699  1.00  0.00    -0.352 A  
HETATM    7  C   UNL     1     -11.234   8.057  70.262  1.00  0.00    -0.190 A  
HETATM    8  C   UNL     1     -12.032   7.036  70.780  1.00  0.00    -0.392 A  
HETATM    9  C   UNL     1     -13.000   7.341  71.741  1.00  0.00    -0.368 A  
ENDROOT
BRANCH   7  10
HETATM   10  S   UNL     1     -10.041   7.694  69.010  1.00  0.00    -0.202 S  
HETATM   11  O   UNL     1      -9.455   6.401  69.274  1.00  0.00    -0.136 OA 
HETATM   12  N   UNL     1     -11.008   7.494  67.651  1.00  0.00    -0.518 N  
HETATM   13  O   UNL     1      -9.241   8.869  68.756  1.00  0.00    -0.140 OA 
HETATM   14  H1  UNL     1     -10.319   7.284  66.929  1.00  0.00     0.000 HD 
HETATM   15  H2  UNL     1     -12.022   7.564  67.570  1.00  0.00     0.000 HD 
ENDBRANCH   7  10
TORSDOF 1
ENDMDL
MODEL       47
REMARK 921   NORMALIZED FREE ENERGY PREDICTED BY IDOCK:   -4.14 KCAL/MOL
REMARK 922        TOTAL FREE ENERGY PREDICTED BY IDOCK:   -4.43 KCAL/MOL
REMARK 923 INTER-LIGAND FREE ENERGY PREDICTED BY IDOCK:   -4.38 KCAL/MOL
REMARK 924 INTRA-LIGAND FREE ENERGY PREDICTED BY IDOCK:   -0.05 KCAL/MOL
REMARK 927      BINDING AFFINITY PREDICTED BY RF-SCORE:    0.00 PKD
ROOT
HETATM    1  N   UNL     1     -12.331  13.415  63.526  1.00  0.00    -0.852 NA 
HETATM    2  C   UNL     1     -11.848  14.021  64.691  1.00  0.00    -0.417 A  
HETATM    3  H2  UNL     1     -11.540  13.226  62.910  1.00  0.00     0.000 HD 
HETATM    4  H1  UNL     1     -12.901  12.572  63.586  1.00  0.00     0.000 HD 
HETATM    5  C   UNL     1     -11.066  15.178  64.609  1.00  0.00    -0.338 A  
HETATM    6  C   UNL     1     -10.665  15.854  65.764  1.00  0.00    -0.325 A  
HETATM    7  C   UNL     1     -11.097  15.399  67.011  1.00  0.00    -0.273 A  
HETATM    8  C   UNL     1     -11.928  14.282  67.107  1.00  0.00    -0.449 A  
HETATM    9  C   UNL     1     -12.321  13.615  65.944  1.00  0.00    -0.516 A  
ENDROOT
BRANCH   7  10
HETATM   10  S   UNL     1     -10.551  16.221  68.477  1.00  0.00    -0.312 S  
HETATM   11  O   UNL     1      -9.146  15.954  68.675  1.00  0.00    -0.188 OA 
HETATM   12  N   UNL     1     -10.657  17.837  68.033  1.00  0.00    -0.384 N  
HETATM   13  O   UNL     1     -11.530  16.033  69.523  1.00  0.00    -0.326 OA 
HETATM   14  H1  UNL     1     -10.342  18.311  68.880  1.00  0.00     0.000 HD 
HETATM   15  H2  UNL     1     -10.958  18.240  67.146  1.00  0.00     0.000 HD 
ENDBRANCH   7  10
TORSDOF 1
ENDMDL
MODEL       48
REMARK 921   NORMALIZED FREE ENERGY PREDICTED BY IDOCK:   -4.12 KCAL/MOL
REMARK 922        TOTAL FREE ENERGY PREDICTED BY IDOCK:   -4.41 KCAL/MOL
REMARK 923 INTER-LIGAND FREE ENERGY PREDICTED BY IDOCK:   -4.37 KCAL/MOL
REMARK 924 INTRA-LIGAND FREE ENERGY PREDICTED BY IDOCK:   -0.05 KCAL/MOL
REMARK 927      BINDING AFFINITY PREDICTED BY RF-SCORE:    0.00 PKD
ROOT
HETATM    1  N   UNL     1      -7.660  11.806  67.493  1.00  0.00    -0.126 NA 
HETATM    2  C   UNL     1      -8.715  12.313  66.726  1.00  0.00    -0.175 A  
HETATM    3  H2  UNL     1      -6.986  11.368  66.864  1.00  0.00     0.000 HD 
HETATM    4  H1  UNL     1      -7.152  12.418  68.133  1.00  0.00     0.000 HD 
HETATM    5  C   UNL     1      -9.412  11.475  65.849  1.00  0.00    -0.251 A  
HETATM    6  C   UNL     1     -10.533  11.939  65.157  1.00  0.00    -0.330 A  
HETATM    7  C   UNL     1     -10.994  13.236  65.386  1.00  0.00    -0.284 A  
HETATM    8  C   UNL     1     -10.347  14.066  66.303  1.00  0.00    -0.294 A  
HETATM    9  C   UNL     1      -9.226  13.589  66.989  1.00  0.00    -0.248 A  
ENDROOT
BRANCH   7  10
HETATM   10  S   UNL     1     -12.381  13.843  64.475  1.00  0.00    -0.333 S  
HETATM   11  O   UNL     1     -13.502  14.010  65.371  1.00  0.00    -0.679 OA 
HETATM   12  N   UNL     1     -11.881  15.393  64.067  1.00  0.00    -0.927 N  
HETATM   13  O   UNL     1     -12.488  13.121  63.229  1.00  0.00    -0.720 OA 
HETATM   14  H1  UNL     1     -12.682  15.744  63.541  1.00  0.00     0.000 HD 
HETATM   15  H2  UNL     1     -11.004  15.864  64.288  1.00  0.00     0.000 HD 
ENDBRANCH   7  10
TORSDOF 1
ENDMDL
MODEL       49
REMARK 921   NORMALIZED FREE ENERGY PREDICTED BY IDOCK:   -4.11 KCAL/MOL
REMARK 922        TOTAL FREE ENERGY PREDICTED BY IDOCK:   -4.40 KCAL/MOL
REMARK 923 INTER-LIGAND FREE ENERGY PREDICTED BY IDOCK:   -4.35 KCAL/MOL
REMARK 924 INTRA-LIGAND FREE ENERGY PREDICTED BY IDOCK:   -0.05 KCAL/MOL
REMARK 927      BINDING AFFINITY PREDICTED BY RF-SCORE:    0.00 PKD
ROOT
HETATM    1  N   UNL     1      -9.991  10.586  62.358  1.00  0.00    -0.757 NA 
HETATM    2  C   UNL     1     -10.351  10.902  63.673  1.00  0.00    -0.298 A  
HETATM    3  H2  UNL     1     -10.057   9.574  62.240  1.00  0.00     0.000 HD 
HETATM    4  H1  UNL     1     -10.469  11.033  61.575  1.00  0.00     0.000 HD 
HETATM    5  C   UNL     1      -9.697  10.289  64.747  1.00  0.00    -0.397 A  
HETATM    6  C   UNL     1      -9.971  10.672  66.062  1.00  0.00    -0.295 A  
HETATM    7  C   UNL     1     -10.867  11.714  66.303  1.00  0.00    -0.286 A  
HETATM    8  C   UNL     1     -11.484  12.376  65.240  1.00  0.00    -0.389 A  
HETATM    9  C   UNL     1     -11.201  11.984  63.929  1.00  0.00    -0.490 A  
ENDROOT
BRANCH   7  10
HETATM   10  S   UNL     1     -11.255  12.166  67.967  1.00  0.00    -0.287 S  
HETATM   11  O   UNL     1     -10.031  12.450  68.679  1.00  0.00    -0.196 OA 
HETATM   12  N   UNL     1     -12.022  13.645  67.759  1.00  0.00    -0.367 N  
HETATM   13  O   UNL     1     -12.260  11.268  68.484  1.00  0.00    -0.588 OA 
HETATM   14  H1  UNL     1     -12.246  13.906  68.719  1.00  0.00     0.000 HD 
HETATM   15  H2  UNL     1     -12.214  14.152  66.895  1.00  0.00     0.000 HD 
ENDBRANCH   7  10
TORSDOF 1
ENDMDL
MODEL       50
REMARK 921   NORMALIZED FREE ENERGY PREDICTED BY IDOCK:   -4.11 KCAL/MOL
REMARK 922        TOTAL FREE ENERGY PREDICTED BY IDOCK:   -4.40 KCAL/MOL
REMARK 923 INTER-LIGAND FREE ENERGY PREDICTED BY IDOCK:   -4.35 KCAL/MOL
REMARK 924 INTRA-LIGAND FREE ENERGY PREDICTED BY IDOCK:   -0.05 KCAL/MOL
REMARK 927      BINDING AFFINITY PREDICTED BY RF-SCORE:    0.00 PKD
ROOT
HETATM    1  N   UNL     1     -10.616   8.914  68.658  1.00  0.00    -0.347 NA 
HETATM    2  C   UNL     1     -10.703   9.680  67.490  1.00  0.00    -0.256 A  
HETATM    3  H2  UNL     1     -11.552   8.830  69.058  1.00  0.00     0.000 HD 
HETATM    4  H1  UNL     1     -10.193   7.986  68.632  1.00  0.00     0.000 HD 
HETATM    5  C   UNL     1     -11.284  10.952  67.526  1.00  0.00    -0.364 A  
HETATM    6  C   UNL     1     -11.282  11.770  66.393  1.00  0.00    -0.382 A  
HETATM    7  C   UNL     1     -10.645  11.334  65.231  1.00  0.00    -0.261 A  
HETATM    8  C   UNL     1     -10.008  10.092  65.196  1.00  0.00    -0.379 A  
HETATM    9  C   UNL     1     -10.018   9.284  66.336  1.00  0.00    -0.356 A  
ENDROOT
BRANCH   7  10
HETATM   10  S   UNL     1     -10.685  12.344  63.781  1.00  0.00    -0.459 S  
HETATM   11  O   UNL     1     -12.055  12.505  63.352  1.00  0.00    -0.511 OA 
HETATM   12  N   UNL     1     -10.211  13.838  64.382  1.00  0.00    -0.669 N  
HETATM   13  O   UNL     1      -9.636  11.929  62.880  1.00  0.00    -0.367 OA 
HETATM   14  H1  UNL     1     -10.234  14.422  63.546  1.00  0.00     0.000 HD 
HETATM   15  H2  UNL     1      -9.964  14.097  65.338  1.00  0.00     0.000 HD 
ENDBRANCH   7  10
TORSDOF 1
ENDMDL
MODEL       51
REMARK 921   NORMALIZED FREE ENERGY PREDICTED BY IDOCK:   -4.09 KCAL/MOL
REMARK 922        TOTAL FREE ENERGY PREDICTED BY IDOCK:   -4.38 KCAL/MOL
REMARK 923 INTER-LIGAND FREE ENERGY PREDICTED BY IDOCK:   -4.33 KCAL/MOL
REMARK 924 INTRA-LIGAND FREE ENERGY PREDICTED BY IDOCK:   -0.05 KCAL/MOL
REMARK 927      BINDING AFFINITY PREDICTED BY RF-SCORE:    0.00 PKD
ROOT
HETATM    1  N   UNL     1     -11.851  13.887  70.717  1.00  0.00    -0.510 NA 
HETATM    2  C   UNL     1     -11.510  14.633  69.583  1.00  0.00    -0.289 A  
HETATM    3  H2  UNL     1     -12.604  14.372  71.207  1.00  0.00     0.000 HD 
HETATM    4  H1  UNL     1     -12.107  12.904  70.626  1.00  0.00     0.000 HD 
HETATM    5  C   UNL     1     -11.159  15.981  69.708  1.00  0.00    -0.337 A  
HETATM    6  C   UNL     1     -10.714  16.709  68.601  1.00  0.00    -0.349 A  
HETATM    7  C   UNL     1     -10.568  16.068  67.371  1.00  0.00    -0.316 A  
HETATM    8  C   UNL     1     -10.857  14.708  67.242  1.00  0.00    -0.305 A  
HETATM    9  C   UNL     1     -11.300  13.992  68.357  1.00  0.00    -0.321 A  
ENDROOT
BRANCH   7  10
HETATM   10  S   UNL     1     -10.055  16.997  65.958  1.00  0.00    -0.266 S  
HETATM   11  O   UNL     1     -10.893  16.653  64.833  1.00  0.00    -0.697 OA 
HETATM   12  N   UNL     1     -10.485  18.561  66.392  1.00  0.00    -0.416 N  
HETATM   13  O   UNL     1      -8.613  16.991  65.879  1.00  0.00    -0.521 OA 
HETATM   14  H1  UNL     1     -10.189  19.098  65.577  1.00  0.00     0.000 HD 
HETATM   15  H2  UNL     1     -10.928  18.890  67.250  1.00  0.00     0.000 HD 
ENDBRANCH   7  10
TORSDOF 1
ENDMDL
MODEL       52
REMARK 921   NORMALIZED FREE ENERGY PREDICTED BY IDOCK:   -4.08 KCAL/MOL
REMARK 922        TOTAL FREE ENERGY PREDICTED BY IDOCK:   -4.37 KCAL/MOL
REMARK 923 INTER-LIGAND FREE ENERGY PREDICTED BY IDOCK:   -4.32 KCAL/MOL
REMARK 924 INTRA-LIGAND FREE ENERGY PREDICTED BY IDOCK:   -0.05 KCAL/MOL
REMARK 927      BINDING AFFINITY PREDICTED BY RF-SCORE:    0.00 PKD
ROOT
HETATM    1  N   UNL     1     -12.896  11.673  62.836  1.00  0.00    -0.827 NA 
HETATM    2  C   UNL     1     -12.220  12.212  63.937  1.00  0.00    -0.489 A  
HETATM    3  H2  UNL     1     -12.637  10.689  62.750  1.00  0.00     0.000 HD 
HETATM    4  H1  UNL     1     -13.912  11.745  62.774  1.00  0.00     0.000 HD 
HETATM    5  C   UNL     1     -10.827  12.113  64.023  1.00  0.00    -0.436 A  
HETATM    6  C   UNL     1     -10.129  12.737  65.060  1.00  0.00    -0.239 A  
HETATM    7  C   UNL     1     -10.825  13.513  65.987  1.00  0.00    -0.278 A  
HETATM    8  C   UNL     1     -12.208  13.671  65.881  1.00  0.00    -0.502 A  
HETATM    9  C   UNL     1     -12.894  13.042  64.840  1.00  0.00    -0.368 A  
ENDROOT
BRANCH   7  10
HETATM   10  S   UNL     1      -9.953  14.262  67.329  1.00  0.00    -0.255 S  
HETATM   11  O   UNL     1      -9.430  13.228  68.191  1.00  0.00    -0.212 OA 
HETATM   12  N   UNL     1      -8.623  14.931  66.552  1.00  0.00    -0.448 N  
HETATM   13  O   UNL     1     -10.719  15.377  67.834  1.00  0.00    -0.270 OA 
HETATM   14  H1  UNL     1      -8.119  15.364  67.326  1.00  0.00     0.000 HD 
HETATM   15  H2  UNL     1      -8.381  14.910  65.561  1.00  0.00     0.000 HD 
ENDBRANCH   7  10
TORSDOF 1
ENDMDL
MODEL       53
REMARK 921   NORMALIZED FREE ENERGY PREDICTED BY IDOCK:   -4.03 KCAL/MOL
REMARK 922        TOTAL FREE ENERGY PREDICTED BY IDOCK:   -4.32 KCAL/MOL
REMARK 923 INTER-LIGAND FREE ENERGY PREDICTED BY IDOCK:   -4.27 KCAL/MOL
REMARK 924 INTRA-LIGAND FREE ENERGY PREDICTED BY IDOCK:   -0.05 KCAL/MOL
REMARK 927      BINDING AFFINITY PREDICTED BY RF-SCORE:    0.00 PKD
ROOT
HETATM    1  N   UNL     1     -12.062  12.220  66.174  1.00  0.00    -0.627 NA 
HETATM    2  C   UNL     1     -11.474  13.468  66.415  1.00  0.00    -0.331 A  
HETATM    3  H2  UNL     1     -11.342  11.588  65.822  1.00  0.00     0.000 HD 
HETATM    4  H1  UNL     1     -12.574  11.744  66.916  1.00  0.00     0.000 HD 
HETATM    5  C   UNL     1     -10.771  14.121  65.397  1.00  0.00    -0.350 A  
HETATM    6  C   UNL     1     -10.270  15.411  65.590  1.00  0.00    -0.403 A  
HETATM    7  C   UNL     1     -10.523  16.074  66.791  1.00  0.00    -0.308 A  
HETATM    8  C   UNL     1     -11.275  15.460  67.794  1.00  0.00    -0.321 A  
HETATM    9  C   UNL     1     -11.769  14.170  67.589  1.00  0.00    -0.421 A  
ENDROOT
BRANCH   7  10
HETATM   10  S   UNL     1      -9.849  17.686  67.057  1.00  0.00    -0.321 S  
HETATM   11  O   UNL     1     -10.886  18.558  67.557  1.00  0.00    -0.422 OA 
HETATM   12  N   UNL     1      -8.806  17.421  68.346  1.00  0.00    -0.264 N  
HETATM   13  O   UNL     1      -9.010  18.044  65.937  1.00  0.00    -0.506 OA 
HETATM   14  H1  UNL     1      -8.417  18.351  68.500  1.00  0.00     0.000 HD 
HETATM   15  H2  UNL     1      -8.613  16.554  68.847  1.00  0.00     0.000 HD 
ENDBRANCH   7  10
TORSDOF 1
ENDMDL
MODEL       54
REMARK 921   NORMALIZED FREE ENERGY PREDICTED BY IDOCK:   -4.01 KCAL/MOL
REMARK 922        TOTAL FREE ENERGY PREDICTED BY IDOCK:   -4.29 KCAL/MOL
REMARK 923 INTER-LIGAND FREE ENERGY PREDICTED BY IDOCK:   -4.24 KCAL/MOL
REMARK 924 INTRA-LIGAND FREE ENERGY PREDICTED BY IDOCK:   -0.05 KCAL/MOL
REMARK 927      BINDING AFFINITY PREDICTED BY RF-SCORE:    0.00 PKD
ROOT
HETATM    1  N   UNL     1     -13.811  13.487  72.624  1.00  0.00    -0.753 NA 
HETATM    2  C   UNL     1     -13.004  14.185  71.719  1.00  0.00    -0.348 A  
HETATM    3  H2  UNL     1     -14.669  14.022  72.770  1.00  0.00     0.000 HD 
HETATM    4  H1  UNL     1     -14.065  12.516  72.441  1.00  0.00     0.000 HD 
HETATM    5  C   UNL     1     -12.657  15.517  71.970  1.00  0.00    -0.481 A  
HETATM    6  C   UNL     1     -11.767  16.193  71.131  1.00  0.00    -0.454 A  
HETATM    7  C   UNL     1     -11.178  15.515  70.064  1.00  0.00    -0.315 A  
HETATM    8  C   UNL     1     -11.468  14.169  69.835  1.00  0.00    -0.288 A  
HETATM    9  C   UNL     1     -12.359  13.504  70.681  1.00  0.00    -0.432 A  
ENDROOT
BRANCH   7  10
HETATM   10  S   UNL     1     -10.092  16.381  68.972  1.00  0.00    -0.277 S  
HETATM   11  O   UNL     1      -8.764  15.824  69.082  1.00  0.00    -0.222 OA 
HETATM   12  N   UNL     1     -10.665  15.914  67.464  1.00  0.00    -0.315 N  
HETATM   13  O   UNL     1     -10.347  17.799  69.069  1.00  0.00    -0.359 OA 
HETATM   14  H1  UNL     1     -10.038  16.413  66.834  1.00  0.00     0.000 HD 
HETATM   15  H2  UNL     1     -11.440  15.290  67.237  1.00  0.00     0.000 HD 
ENDBRANCH   7  10
TORSDOF 1
ENDMDL
MODEL       55
REMARK 921   NORMALIZED FREE ENERGY PREDICTED BY IDOCK:   -3.98 KCAL/MOL
REMARK 922        TOTAL FREE ENERGY PREDICTED BY IDOCK:   -4.26 KCAL/MOL
REMARK 923 INTER-LIGAND FREE ENERGY PREDICTED BY IDOCK:   -4.21 KCAL/MOL
REMARK 924 INTRA-LIGAND FREE ENERGY PREDICTED BY IDOCK:   -0.05 KCAL/MOL
REMARK 927      BINDING AFFINITY PREDICTED BY RF-SCORE:    0.00 PKD
ROOT
HETATM    1  N   UNL     1      -8.780  11.260  68.979  1.00  0.00    -0.369 NA 
HETATM    2  C   UNL     1      -9.604  11.898  68.044  1.00  0.00    -0.193 A  
HETATM    3  H2  UNL     1      -8.247  11.973  69.478  1.00  0.00     0.000 HD 
HETATM    4  H1  UNL     1      -9.184  10.620  69.664  1.00  0.00     0.000 HD 
HETATM    5  C   UNL     1      -9.051  12.774  67.105  1.00  0.00    -0.219 A  
HETATM    6  C   UNL     1      -9.843  13.336  66.099  1.00  0.00    -0.286 A  
HETATM    7  C   UNL     1     -11.187  12.974  66.000  1.00  0.00    -0.292 A  
HETATM    8  C   UNL     1     -11.739  12.054  66.893  1.00  0.00    -0.342 A  
HETATM    9  C   UNL     1     -10.937  11.500  67.893  1.00  0.00    -0.287 A  
ENDROOT
BRANCH   7  10
HETATM   10  S   UNL     1     -12.203  13.721  64.762  1.00  0.00    -0.403 S  
HETATM   11  O   UNL     1     -13.464  14.106  65.352  1.00  0.00    -0.648 OA 
HETATM   12  N   UNL     1     -11.382  15.152  64.451  1.00  0.00    -0.668 N  
HETATM   13  O   UNL     1     -12.122  12.946  63.546  1.00  0.00    -0.508 OA 
HETATM   14  H1  UNL     1     -11.968  15.583  63.737  1.00  0.00     0.000 HD 
HETATM   15  H2  UNL     1     -10.520  15.501  64.870  1.00  0.00     0.000 HD 
ENDBRANCH   7  10
TORSDOF 1
ENDMDL
MODEL       56
REMARK 921   NORMALIZED FREE ENERGY PREDICTED BY IDOCK:   -3.97 KCAL/MOL
REMARK 922        TOTAL FREE ENERGY PREDICTED BY IDOCK:   -4.26 KCAL/MOL
REMARK 923 INTER-LIGAND FREE ENERGY PREDICTED BY IDOCK:   -4.21 KCAL/MOL
REMARK 924 INTRA-LIGAND FREE ENERGY PREDICTED BY IDOCK:   -0.05 KCAL/MOL
REMARK 927      BINDING AFFINITY PREDICTED BY RF-SCORE:    0.00 PKD
ROOT
HETATM    1  N   UNL     1     -12.115  16.066  63.818  1.00  0.00    -1.255 NA 
HETATM    2  C   UNL     1     -11.368  15.344  64.756  1.00  0.00    -0.376 A  
HETATM    3  H2  UNL     1     -13.096  15.803  63.917  1.00  0.00     0.000 HD 
HETATM    4  H1  UNL     1     -12.056  17.085  63.792  1.00  0.00     0.000 HD 
HETATM    5  C   UNL     1     -11.448  13.948  64.793  1.00  0.00    -0.368 A  
HETATM    6  C   UNL     1     -10.630  13.208  65.650  1.00  0.00    -0.289 A  
HETATM    7  C   UNL     1      -9.685  13.867  66.437  1.00  0.00    -0.297 A  
HETATM    8  C   UNL     1      -9.550  15.255  66.368  1.00  0.00    -0.317 A  
HETATM    9  C   UNL     1     -10.374  15.983  65.507  1.00  0.00    -0.415 A  
ENDROOT
BRANCH   7  10
HETATM   10  S   UNL     1      -8.684  12.939  67.560  1.00  0.00    -0.202 S  
HETATM   11  O   UNL     1      -7.719  13.821  68.175  1.00  0.00    -0.116 OA 
HETATM   12  N   UNL     1      -9.783  12.543  68.765  1.00  0.00    -0.416 N  
HETATM   13  O   UNL     1      -8.306  11.690  66.942  1.00  0.00    -0.159 OA 
HETATM   14  H1  UNL     1      -9.205  12.008  69.413  1.00  0.00     0.000 HD 
HETATM   15  H2  UNL     1     -10.773  12.778  68.832  1.00  0.00     0.000 HD 
ENDBRANCH   7  10
TORSDOF 1
ENDMDL
MODEL       57
REMARK 921   NORMALIZED FREE ENERGY PREDICTED BY IDOCK:   -3.95 KCAL/MOL
REMARK 922        TOTAL FREE ENERGY PREDICTED BY IDOCK:   -4.23 KCAL/MOL
REMARK 923 INTER-LIGAND FREE ENERGY PREDICTED BY IDOCK:   -4.19 KCAL/MOL
REMARK 924 INTRA-LIGAND FREE ENERGY PREDICTED BY IDOCK:   -0.05 KCAL/MOL
REMARK 927      BINDING AFFINITY PREDICTED BY RF-SCORE:    0.00 PKD
ROOT
HETATM    1  N   UNL     1     -13.253  13.895  65.162  1.00  0.00    -0.690 NA 
HETATM    2  C   UNL     1     -12.235  12.955  64.957  1.00  0.00    -0.464 A  
HETATM    3  H2  UNL     1     -14.013  13.693  64.511  1.00  0.00     0.000 HD 
HETATM    4  H1  UNL     1     -13.651  14.024  66.092  1.00  0.00     0.000 HD 
HETATM    5  C   UNL     1     -11.689  12.778  63.681  1.00  0.00    -0.587 A  
HETATM    6  C   UNL     1     -10.603  11.922  63.482  1.00  0.00    -0.507 A  
HETATM    7  C   UNL     1     -10.024  11.280  64.577  1.00  0.00    -0.284 A  
HETATM    8  C   UNL     1     -10.518  11.493  65.865  1.00  0.00    -0.303 A  
HETATM    9  C   UNL     1     -11.605  12.351  66.050  1.00  0.00    -0.455 A  
ENDROOT
BRANCH   7  10
HETATM   10  S   UNL     1      -8.683  10.158  64.322  1.00  0.00    -0.222 S  
HETATM   11  O   UNL     1      -7.582  10.532  65.179  1.00  0.00    -0.129 OA 
HETATM   12  N   UNL     1      -9.296   8.729  64.955  1.00  0.00    -0.402 N  
HETATM   13  O   UNL     1      -8.517   9.925  62.907  1.00  0.00    -0.143 OA 
HETATM   14  H1  UNL     1      -8.523   8.081  64.808  1.00  0.00     0.000 HD 
HETATM   15  H2  UNL     1     -10.208   8.554  65.378  1.00  0.00     0.000 HD 
ENDBRANCH   7  10
TORSDOF 1
ENDMDL
MODEL       58
REMARK 921   NORMALIZED FREE ENERGY PREDICTED BY IDOCK:   -3.95 KCAL/MOL
REMARK 922        TOTAL FREE ENERGY PREDICTED BY IDOCK:   -4.23 KCAL/MOL
REMARK 923 INTER-LIGAND FREE ENERGY PREDICTED BY IDOCK:   -4.18 KCAL/MOL
REMARK 924 INTRA-LIGAND FREE ENERGY PREDICTED BY IDOCK:   -0.05 KCAL/MOL
REMARK 927      BINDING AFFINITY PREDICTED BY RF-SCORE:    0.00 PKD
ROOT
HETATM    1  N   UNL     1      -9.813  17.771  65.938  1.00  0.00    -0.550 NA 
HETATM    2  C   UNL     1     -10.281  16.479  65.673  1.00  0.00    -0.292 A  
HETATM    3  H2  UNL     1     -10.596  18.334  66.275  1.00  0.00     0.000 HD 
HETATM    4  H1  UNL     1      -9.022  17.910  66.567  1.00  0.00     0.000 HD 
HETATM    5  C   UNL     1     -11.365  16.288  64.810  1.00  0.00    -0.214 A  
HETATM    6  C   UNL     1     -11.775  15.001  64.452  1.00  0.00    -0.320 A  
HETATM    7  C   UNL     1     -11.060  13.897  64.918  1.00  0.00    -0.369 A  
HETATM    8  C   UNL     1      -9.939  14.072  65.731  1.00  0.00    -0.319 A  
HETATM    9  C   UNL     1      -9.539  15.365  66.081  1.00  0.00    -0.362 A  
ENDROOT
BRANCH   7  10
HETATM   10  S   UNL     1     -11.606  12.267  64.509  1.00  0.00    -0.358 S  
HETATM   11  O   UNL     1     -10.851  11.784  63.377  1.00  0.00    -0.391 OA 
HETATM   12  N   UNL     1     -11.077  11.378  65.831  1.00  0.00    -0.217 N  
HETATM   13  O   UNL     1     -13.049  12.221  64.554  1.00  0.00    -0.791 OA 
HETATM   14  H1  UNL     1     -11.392  10.437  65.596  1.00  0.00     0.000 HD 
HETATM   15  H2  UNL     1     -10.570  11.697  66.657  1.00  0.00     0.000 HD 
ENDBRANCH   7  10
TORSDOF 1
ENDMDL
MODEL       59
REMARK 921   NORMALIZED FREE ENERGY PREDICTED BY IDOCK:   -3.89 KCAL/MOL
REMARK 922        TOTAL FREE ENERGY PREDICTED BY IDOCK:   -4.16 KCAL/MOL
REMARK 923 INTER-LIGAND FREE ENERGY PREDICTED BY IDOCK:   -4.11 KCAL/MOL
REMARK 924 INTRA-LIGAND FREE ENERGY PREDICTED BY IDOCK:   -0.05 KCAL/MOL
REMARK 927      BINDING AFFINITY PREDICTED BY RF-SCORE:    0.00 PKD
ROOT
HETATM    1  N   UNL     1      -8.212  19.249  67.433  1.00  0.00    -0.278 NA 
HETATM    2  C   UNL     1      -8.980  18.187  66.940  1.00  0.00    -0.271 A  
HETATM    3  H2  UNL     1      -8.822  19.864  67.973  1.00  0.00     0.000 HD 
HETATM    4  H1  UNL     1      -7.374  19.062  67.984  1.00  0.00     0.000 HD 
HETATM    5  C   UNL     1     -10.129  18.443  66.185  1.00  0.00    -0.376 A  
HETATM    6  C   UNL     1     -10.845  17.397  65.597  1.00  0.00    -0.011 A  
HETATM    7  C   UNL     1     -10.376  16.089  65.721  1.00  0.00    -0.378 A  
HETATM    8  C   UNL     1      -9.198  15.822  66.420  1.00  0.00    -0.347 A  
HETATM    9  C   UNL     1      -8.492  16.877  67.003  1.00  0.00    -0.228 A  
ENDROOT
BRANCH   7  10
HETATM   10  S   UNL     1     -11.307  14.759  65.022  1.00  0.00    -0.406 S  
HETATM   11  O   UNL     1     -12.301  14.324  65.975  1.00  0.00    -0.432 OA 
HETATM   12  N   UNL     1     -12.151  15.529  63.793  1.00  0.00    -0.974 N  
HETATM   13  O   UNL     1     -10.407  13.838  64.368  1.00  0.00    -0.415 OA 
HETATM   14  H1  UNL     1     -12.689  14.762  63.390  1.00  0.00     0.000 HD 
HETATM   15  H2  UNL     1     -12.133  16.512  63.520  1.00  0.00     0.000 HD 
ENDBRANCH   7  10
TORSDOF 1
ENDMDL
MODEL       60
REMARK 921   NORMALIZED FREE ENERGY PREDICTED BY IDOCK:   -3.87 KCAL/MOL
REMARK 922        TOTAL FREE ENERGY PREDICTED BY IDOCK:   -4.15 KCAL/MOL
REMARK 923 INTER-LIGAND FREE ENERGY PREDICTED BY IDOCK:   -4.10 KCAL/MOL
REMARK 924 INTRA-LIGAND FREE ENERGY PREDICTED BY IDOCK:   -0.05 KCAL/MOL
REMARK 927      BINDING AFFINITY PREDICTED BY RF-SCORE:    0.00 PKD
ROOT
HETATM    1  N   UNL     1     -12.173  14.296  67.842  1.00  0.00    -0.595 NA 
HETATM    2  C   UNL     1     -11.319  15.393  67.682  1.00  0.00    -0.290 A  
HETATM    3  H2  UNL     1     -11.690  13.461  67.509  1.00  0.00     0.000 HD 
HETATM    4  H1  UNL     1     -12.577  14.091  68.756  1.00  0.00     0.000 HD 
HETATM    5  C   UNL     1     -10.765  15.675  66.429  1.00  0.00    -0.291 A  
HETATM    6  C   UNL     1      -9.997  16.825  66.230  1.00  0.00    -0.336 A  
HETATM    7  C   UNL     1      -9.828  17.729  67.279  1.00  0.00    -0.312 A  
HETATM    8  C   UNL     1     -10.425  17.494  68.519  1.00  0.00    -0.361 A  
HETATM    9  C   UNL     1     -11.190  16.340  68.705  1.00  0.00    -0.354 A  
ENDROOT
BRANCH   7  10
HETATM   10  S   UNL     1      -8.816  19.159  67.045  1.00  0.00    -0.305 S  
HETATM   11  O   UNL     1      -8.163  19.073  65.760  1.00  0.00    -0.449 OA 
HETATM   12  N   UNL     1      -9.961  20.379  66.901  1.00  0.00    -0.497 N  
HETATM   13  O   UNL     1      -8.093  19.437  68.264  1.00  0.00    -0.313 OA 
HETATM   14  H1  UNL     1      -9.377  21.204  66.766  1.00  0.00     0.000 HD 
HETATM   15  H2  UNL     1     -10.978  20.312  66.938  1.00  0.00     0.000 HD 
ENDBRANCH   7  10
TORSDOF 1
ENDMDL
MODEL       61
REMARK 921   NORMALIZED FREE ENERGY PREDICTED BY IDOCK:   -3.87 KCAL/MOL
REMARK 922        TOTAL FREE ENERGY PREDICTED BY IDOCK:   -4.14 KCAL/MOL
REMARK 923 INTER-LIGAND FREE ENERGY PREDICTED BY IDOCK:   -4.10 KCAL/MOL
REMARK 924 INTRA-LIGAND FREE ENERGY PREDICTED BY IDOCK:   -0.05 KCAL/MOL
REMARK 927      BINDING AFFINITY PREDICTED BY RF-SCORE:    0.00 PKD
ROOT
HETATM    1  N   UNL     1     -10.797  13.648  66.458  1.00  0.00    -0.282 NA 
HETATM    2  C   UNL     1     -11.109  12.936  67.622  1.00  0.00    -0.264 A  
HETATM    3  H2  UNL     1     -10.097  14.354  66.690  1.00  0.00     0.000 HD 
HETATM    4  H1  UNL     1     -10.488  13.151  65.622  1.00  0.00     0.000 HD 
HETATM    5  C   UNL     1     -11.532  13.617  68.769  1.00  0.00    -0.346 A  
HETATM    6  C   UNL     1     -11.948  12.915  69.903  1.00  0.00    -0.377 A  
HETATM    7  C   UNL     1     -11.992  11.521  69.871  1.00  0.00    -0.351 A  
HETATM    8  C   UNL     1     -11.631  10.828  68.715  1.00  0.00    -0.350 A  
HETATM    9  C   UNL     1     -11.217  11.541  67.587  1.00  0.00    -0.343 A  
ENDROOT
BRANCH   7  10
HETATM   10  S   UNL     1     -12.469  10.629  71.320  1.00  0.00    -0.413 S  
HETATM   11  O   UNL     1     -13.199  11.510  72.201  1.00  0.00    -0.505 OA 
HETATM   12  N   UNL     1     -13.598   9.546  70.710  1.00  0.00    -0.568 N  
HETATM   13  O   UNL     1     -11.357   9.827  71.775  1.00  0.00    -0.298 OA 
HETATM   14  H1  UNL     1     -13.873   9.031  71.547  1.00  0.00     0.000 HD 
HETATM   15  H2  UNL     1     -13.924   9.433  69.751  1.00  0.00     0.000 HD 
ENDBRANCH   7  10
TORSDOF 1
ENDMDL
MODEL       62
REMARK 921   NORMALIZED FREE ENERGY PREDICTED BY IDOCK:   -3.86 KCAL/MOL
REMARK 922        TOTAL FREE ENERGY PREDICTED BY IDOCK:   -4.14 KCAL/MOL
REMARK 923 INTER-LIGAND FREE ENERGY PREDICTED BY IDOCK:   -4.09 KCAL/MOL
REMARK 924 INTRA-LIGAND FREE ENERGY PREDICTED BY IDOCK:   -0.05 KCAL/MOL
REMARK 927      BINDING AFFINITY PREDICTED BY RF-SCORE:    0.00 PKD
ROOT
HETATM    1  N   UNL     1     -11.073   5.571  66.217  1.00  0.00    -0.770 NA 
HETATM    2  C   UNL     1     -10.815   6.478  67.251  1.00  0.00    -0.390 A  
HETATM    3  H2  UNL     1     -10.303   5.617  65.549  1.00  0.00     0.000 HD 
HETATM    4  H1  UNL     1     -11.256   4.590  66.431  1.00  0.00     0.000 HD 
HETATM    5  C   UNL     1     -10.563   7.823  66.959  1.00  0.00    -0.396 A  
HETATM    6  C   UNL     1     -10.409   8.760  67.984  1.00  0.00    -0.273 A  
HETATM    7  C   UNL     1     -10.563   8.358  69.311  1.00  0.00    -0.182 A  
HETATM    8  C   UNL     1     -10.873   7.032  69.618  1.00  0.00    -0.275 A  
HETATM    9  C   UNL     1     -11.024   6.106  68.584  1.00  0.00    -0.415 A  
ENDROOT
BRANCH   7  10
HETATM   10  S   UNL     1     -10.318   9.529  70.612  1.00  0.00    -0.304 S  
HETATM   11  O   UNL     1      -8.957   9.436  71.085  1.00  0.00    -0.267 OA 
HETATM   12  N   UNL     1     -10.422  10.991  69.792  1.00  0.00    -0.450 N  
HETATM   13  O   UNL     1     -11.452   9.495  71.505  1.00  0.00    -0.368 OA 
HETATM   14  H1  UNL     1     -10.281  11.667  70.542  1.00  0.00     0.000 HD 
HETATM   15  H2  UNL     1     -10.584  11.159  68.799  1.00  0.00     0.000 HD 
ENDBRANCH   7  10
TORSDOF 1
ENDMDL
MODEL       63
REMARK 921   NORMALIZED FREE ENERGY PREDICTED BY IDOCK:   -3.86 KCAL/MOL
REMARK 922        TOTAL FREE ENERGY PREDICTED BY IDOCK:   -4.14 KCAL/MOL
REMARK 923 INTER-LIGAND FREE ENERGY PREDICTED BY IDOCK:   -4.09 KCAL/MOL
REMARK 924 INTRA-LIGAND FREE ENERGY PREDICTED BY IDOCK:   -0.05 KCAL/MOL
REMARK 927      BINDING AFFINITY PREDICTED BY RF-SCORE:    0.00 PKD
ROOT
HETATM    1  N   UNL     1     -11.292  16.076  68.223  1.00  0.00    -0.350 NA 
HETATM    2  C   UNL     1     -11.025  15.092  67.264  1.00  0.00    -0.327 A  
HETATM    3  H2  UNL     1     -10.699  15.903  69.036  1.00  0.00     0.000 HD 
HETATM    4  H1  UNL     1     -11.221  17.063  67.977  1.00  0.00     0.000 HD 
HETATM    5  C   UNL     1     -11.122  13.738  67.601  1.00  0.00    -0.292 A  
HETATM    6  C   UNL     1     -10.962  12.747  66.629  1.00  0.00    -0.300 A  
HETATM    7  C   UNL     1     -10.758  13.115  65.299  1.00  0.00    -0.303 A  
HETATM    8  C   UNL     1     -10.719  14.462  64.936  1.00  0.00    -0.444 A  
HETATM    9  C   UNL     1     -10.880  15.443  65.917  1.00  0.00    -0.328 A  
ENDROOT
BRANCH   7  10
HETATM   10  S   UNL     1     -10.505  11.865  64.076  1.00  0.00    -0.417 S  
HETATM   11  O   UNL     1     -10.496  10.570  64.716  1.00  0.00    -0.304 OA 
HETATM   12  N   UNL     1     -11.935  11.937  63.199  1.00  0.00    -0.830 N  
HETATM   13  O   UNL     1      -9.463  12.287  63.169  1.00  0.00    -0.196 OA 
HETATM   14  H1  UNL     1     -11.789  11.215  62.494  1.00  0.00     0.000 HD 
HETATM   15  H2  UNL     1     -12.742  12.545  63.338  1.00  0.00     0.000 HD 
ENDBRANCH   7  10
TORSDOF 1
ENDMDL
MODEL       64
REMARK 921   NORMALIZED FREE ENERGY PREDICTED BY IDOCK:   -3.81 KCAL/MOL
REMARK 922        TOTAL FREE ENERGY PREDICTED BY IDOCK:   -4.08 KCAL/MOL
REMARK 923 INTER-LIGAND FREE ENERGY PREDICTED BY IDOCK:   -4.03 KCAL/MOL
REMARK 924 INTRA-LIGAND FREE ENERGY PREDICTED BY IDOCK:   -0.05 KCAL/MOL
REMARK 927      BINDING AFFINITY PREDICTED BY RF-SCORE:    0.00 PKD
ROOT
HETATM    1  N   UNL     1      -7.318  21.326  67.006  1.00  0.00    -0.795 NA 
HETATM    2  C   UNL     1      -7.890  20.052  66.911  1.00  0.00    -0.305 A  
HETATM    3  H2  UNL     1      -7.489  21.686  67.945  1.00  0.00     0.000 HD 
HETATM    4  H1  UNL     1      -6.332  21.462  66.783  1.00  0.00     0.000 HD 
HETATM    5  C   UNL     1      -9.242  19.864  67.216  1.00  0.00    -0.453 A  
HETATM    6  C   UNL     1      -9.852  18.622  67.024  1.00  0.00    -0.351 A  
HETATM    7  C   UNL     1      -9.116  17.573  66.471  1.00  0.00    -0.263 A  
HETATM    8  C   UNL     1      -7.782  17.760  66.105  1.00  0.00    -0.280 A  
HETATM    9  C   UNL     1      -7.185  19.007  66.302  1.00  0.00    -0.269 A  
ENDROOT
BRANCH   7  10
HETATM   10  S   UNL     1      -9.870  15.987  66.275  1.00  0.00    -0.333 S  
HETATM   11  O   UNL     1      -8.957  14.968  66.738  1.00  0.00    -0.233 OA 
HETATM   12  N   UNL     1     -11.110  16.045  67.405  1.00  0.00    -0.230 N  
HETATM   13  O   UNL     1     -10.514  15.920  64.984  1.00  0.00    -0.518 OA 
HETATM   14  H1  UNL     1     -11.545  15.130  67.292  1.00  0.00     0.000 HD 
HETATM   15  H2  UNL     1     -11.363  16.801  68.041  1.00  0.00     0.000 HD 
ENDBRANCH   7  10
TORSDOF 1
ENDMDL
MODEL       65
REMARK 921   NORMALIZED FREE ENERGY PREDICTED BY IDOCK:   -3.79 KCAL/MOL
REMARK 922        TOTAL FREE ENERGY PREDICTED BY IDOCK:   -4.06 KCAL/MOL
REMARK 923 INTER-LIGAND FREE ENERGY PREDICTED BY IDOCK:   -4.01 KCAL/MOL
REMARK 924 INTRA-LIGAND FREE ENERGY PREDICTED BY IDOCK:   -0.05 KCAL/MOL
REMARK 927      BINDING AFFINITY PREDICTED BY RF-SCORE:    0.00 PKD
ROOT
HETATM    1  N   UNL     1     -11.238   9.144  68.837  1.00  0.00    -0.431 NA 
HETATM    2  C   UNL     1     -11.518  10.496  69.071  1.00  0.00    -0.237 A  
HETATM    3  H2  UNL     1     -12.071   8.599  69.063  1.00  0.00     0.000 HD 
HETATM    4  H1  UNL     1     -10.895   8.843  67.925  1.00  0.00     0.000 HD 
HETATM    5  C   UNL     1     -11.990  10.908  70.322  1.00  0.00    -0.448 A  
HETATM    6  C   UNL     1     -12.172  12.264  70.604  1.00  0.00    -0.378 A  
HETATM    7  C   UNL     1     -11.828  13.218  69.646  1.00  0.00    -0.327 A  
HETATM    8  C   UNL     1     -11.299  12.826  68.415  1.00  0.00    -0.331 A  
HETATM    9  C   UNL     1     -11.122  11.467  68.146  1.00  0.00    -0.303 A  
ENDROOT
BRANCH   7  10
HETATM   10  S   UNL     1     -12.105  14.931  69.981  1.00  0.00    -0.347 S  
HETATM   11  O   UNL     1     -13.211  15.062  70.900  1.00  0.00    -0.397 OA 
HETATM   12  N   UNL     1     -10.730  15.345  70.851  1.00  0.00    -0.466 N  
HETATM   13  O   UNL     1     -12.032  15.677  68.747  1.00  0.00    -0.348 OA 
HETATM   14  H1  UNL     1     -10.890  16.334  71.044  1.00  0.00     0.000 HD 
HETATM   15  H2  UNL     1      -9.939  14.760  71.118  1.00  0.00     0.000 HD 
ENDBRANCH   7  10
TORSDOF 1
ENDMDL
MODEL       66
REMARK 921   NORMALIZED FREE ENERGY PREDICTED BY IDOCK:   -3.79 KCAL/MOL
REMARK 922        TOTAL FREE ENERGY PREDICTED BY IDOCK:   -4.06 KCAL/MOL
REMARK 923 INTER-LIGAND FREE ENERGY PREDICTED BY IDOCK:   -4.01 KCAL/MOL
REMARK 924 INTRA-LIGAND FREE ENERGY PREDICTED BY IDOCK:   -0.05 KCAL/MOL
REMARK 927      BINDING AFFINITY PREDICTED BY RF-SCORE:    0.00 PKD
ROOT
HETATM    1  N   UNL     1      -9.809  14.120  65.295  1.00  0.00    -0.579 NA 
HETATM    2  C   UNL     1      -9.609  15.397  65.833  1.00  0.00    -0.351 A  
HETATM    3  H2  UNL     1      -9.930  14.211  64.286  1.00  0.00     0.000 HD 
HETATM    4  H1  UNL     1      -9.131  13.379  65.473  1.00  0.00     0.000 HD 
HETATM    5  C   UNL     1     -10.538  16.414  65.590  1.00  0.00    -0.337 A  
HETATM    6  C   UNL     1     -10.408  17.662  66.206  1.00  0.00    -0.342 A  
HETATM    7  C   UNL     1      -9.371  17.875  67.115  1.00  0.00    -0.265 A  
HETATM    8  C   UNL     1      -8.471  16.852  67.414  1.00  0.00    -0.204 A  
HETATM    9  C   UNL     1      -8.612  15.609  66.792  1.00  0.00    -0.309 A  
ENDROOT
BRANCH   7  10
HETATM   10  S   UNL     1      -9.174  19.467  67.856  1.00  0.00    -0.337 S  
HETATM   11  O   UNL     1      -9.891  20.447  67.074  1.00  0.00    -0.439 OA 
HETATM   12  N   UNL     1     -10.037  19.297  69.286  1.00  0.00    -0.538 N  
HETATM   13  O   UNL     1      -7.795  19.646  68.245  1.00  0.00    -0.310 OA 
HETATM   14  H1  UNL     1      -9.924  20.216  69.714  1.00  0.00     0.000 HD 
HETATM   15  H2  UNL     1     -10.545  18.485  69.636  1.00  0.00     0.000 HD 
ENDBRANCH   7  10
TORSDOF 1
ENDMDL
MODEL       67
REMARK 921   NORMALIZED FREE ENERGY PREDICTED BY IDOCK:   -3.78 KCAL/MOL
REMARK 922        TOTAL FREE ENERGY PREDICTED BY IDOCK:   -4.06 KCAL/MOL
REMARK 923 INTER-LIGAND FREE ENERGY PREDICTED BY IDOCK:   -4.01 KCAL/MOL
REMARK 924 INTRA-LIGAND FREE ENERGY PREDICTED BY IDOCK:   -0.05 KCAL/MOL
REMARK 927      BINDING AFFINITY PREDICTED BY RF-SCORE:    0.00 PKD
ROOT
HETATM    1  N   UNL     1      -7.314   8.375  72.524  1.00  0.00    -0.206 NA 
HETATM    2  C   UNL     1      -8.684   8.384  72.240  1.00  0.00    -0.209 A  
HETATM    3  H2  UNL     1      -7.022   7.408  72.674  1.00  0.00     0.000 HD 
HETATM    4  H1  UNL     1      -6.655   8.813  71.880  1.00  0.00     0.000 HD 
HETATM    5  C   UNL     1      -9.588   7.783  73.122  1.00  0.00    -0.337 A  
HETATM    6  C   UNL     1     -10.965   7.875  72.907  1.00  0.00    -0.452 A  
HETATM    7  C   UNL     1     -11.444   8.622  71.830  1.00  0.00    -0.348 A  
HETATM    8  C   UNL     1     -10.558   9.279  70.975  1.00  0.00    -0.386 A  
HETATM    9  C   UNL     1      -9.183   9.178  71.201  1.00  0.00    -0.301 A  
ENDROOT
BRANCH   7  10
HETATM   10  S   UNL     1     -13.183   8.700  71.526  1.00  0.00    -0.266 S  
HETATM   11  O   UNL     1     -13.658   7.388  71.151  1.00  0.00    -0.307 OA 
HETATM   12  N   UNL     1     -13.795   8.992  73.062  1.00  0.00    -0.901 N  
HETATM   13  O   UNL     1     -13.480   9.881  70.750  1.00  0.00    -0.296 OA 
HETATM   14  H1  UNL     1     -14.799   9.036  72.886  1.00  0.00     0.000 HD 
HETATM   15  H2  UNL     1     -13.293   9.097  73.943  1.00  0.00     0.000 HD 
ENDBRANCH   7  10
TORSDOF 1
ENDMDL
MODEL       68
REMARK 921   NORMALIZED FREE ENERGY PREDICTED BY IDOCK:   -3.78 KCAL/MOL
REMARK 922        TOTAL FREE ENERGY PREDICTED BY IDOCK:   -4.05 KCAL/MOL
REMARK 923 INTER-LIGAND FREE ENERGY PREDICTED BY IDOCK:   -4.01 KCAL/MOL
REMARK 924 INTRA-LIGAND FREE ENERGY PREDICTED BY IDOCK:   -0.05 KCAL/MOL
REMARK 927      BINDING AFFINITY PREDICTED BY RF-SCORE:    0.00 PKD
ROOT
HETATM    1  N   UNL     1      -7.054  14.206  67.174  1.00  0.00    -0.382 NA 
HETATM    2  C   UNL     1      -7.847  15.353  67.048  1.00  0.00    -0.209 A  
HETATM    3  H2  UNL     1      -6.715  14.153  68.135  1.00  0.00     0.000 HD 
HETATM    4  H1  UNL     1      -7.428  13.294  66.913  1.00  0.00     0.000 HD 
HETATM    5  C   UNL     1      -7.335  16.604  67.406  1.00  0.00    -0.189 A  
HETATM    6  C   UNL     1      -8.076  17.768  67.187  1.00  0.00    -0.229 A  
HETATM    7  C   UNL     1      -9.317  17.685  66.555  1.00  0.00    -0.272 A  
HETATM    8  C   UNL     1      -9.816  16.450  66.137  1.00  0.00    -0.362 A  
HETATM    9  C   UNL     1      -9.065  15.294  66.362  1.00  0.00    -0.347 A  
ENDROOT
BRANCH   7  10
HETATM   10  S   UNL     1     -10.278  19.149  66.323  1.00  0.00    -0.475 S  
HETATM   11  O   UNL     1     -10.891  19.518  67.578  1.00  0.00    -0.468 OA 
HETATM   12  N   UNL     1      -9.095  20.303  66.029  1.00  0.00    -0.601 N  
HETATM   13  O   UNL     1     -11.033  19.036  65.097  1.00  0.00    -0.471 OA 
HETATM   14  H1  UNL     1      -9.650  21.148  65.895  1.00  0.00     0.000 HD 
HETATM   15  H2  UNL     1      -8.082  20.189  65.995  1.00  0.00     0.000 HD 
ENDBRANCH   7  10
TORSDOF 1
ENDMDL
MODEL       69
REMARK 921   NORMALIZED FREE ENERGY PREDICTED BY IDOCK:   -3.78 KCAL/MOL
REMARK 922        TOTAL FREE ENERGY PREDICTED BY IDOCK:   -4.05 KCAL/MOL
REMARK 923 INTER-LIGAND FREE ENERGY PREDICTED BY IDOCK:   -4.00 KCAL/MOL
REMARK 924 INTRA-LIGAND FREE ENERGY PREDICTED BY IDOCK:   -0.05 KCAL/MOL
REMARK 927      BINDING AFFINITY PREDICTED BY RF-SCORE:    0.00 PKD
ROOT
HETATM    1  N   UNL     1      -7.868  11.368  68.125  1.00  0.00    -0.122 NA 
HETATM    2  C   UNL     1      -8.829  11.870  67.240  1.00  0.00    -0.179 A  
HETATM    3  H2  UNL     1      -6.958  11.398  67.664  1.00  0.00     0.000 HD 
HETATM    4  H1  UNL     1      -7.771  11.771  69.057  1.00  0.00     0.000 HD 
HETATM    5  C   UNL     1      -8.962  11.317  65.962  1.00  0.00    -0.209 A  
HETATM    6  C   UNL     1      -9.985  11.735  65.106  1.00  0.00    -0.285 A  
HETATM    7  C   UNL     1     -10.915  12.674  65.554  1.00  0.00    -0.279 A  
HETATM    8  C   UNL     1     -10.832  13.191  66.847  1.00  0.00    -0.278 A  
HETATM    9  C   UNL     1      -9.804  12.765  67.693  1.00  0.00    -0.214 A  
ENDROOT
BRANCH   7  10
HETATM   10  S   UNL     1     -12.179  13.242  64.457  1.00  0.00    -0.394 S  
HETATM   11  O   UNL     1     -12.149  14.685  64.406  1.00  0.00    -0.476 OA 
HETATM   12  N   UNL     1     -11.613  12.715  62.967  1.00  0.00    -0.761 N  
HETATM   13  O   UNL     1     -13.394  12.502  64.703  1.00  0.00    -0.804 OA 
HETATM   14  H1  UNL     1     -12.342  13.043  62.334  1.00  0.00     0.000 HD 
HETATM   15  H2  UNL     1     -10.759  12.200  62.750  1.00  0.00     0.000 HD 
ENDBRANCH   7  10
TORSDOF 1
ENDMDL
MODEL       70
REMARK 921   NORMALIZED FREE ENERGY PREDICTED BY IDOCK:   -3.78 KCAL/MOL
REMARK 922        TOTAL FREE ENERGY PREDICTED BY IDOCK:   -4.05 KCAL/MOL
REMARK 923 INTER-LIGAND FREE ENERGY PREDICTED BY IDOCK:   -4.01 KCAL/MOL
REMARK 924 INTRA-LIGAND FREE ENERGY PREDICTED BY IDOCK:   -0.05 KCAL/MOL
REMARK 927      BINDING AFFINITY PREDICTED BY RF-SCORE:    0.00 PKD
ROOT
HETATM    1  N   UNL     1     -10.333  12.440  68.207  1.00  0.00    -0.222 NA 
HETATM    2  C   UNL     1     -10.801  11.537  69.168  1.00  0.00    -0.195 A  
HETATM    3  H2  UNL     1     -10.193  13.346  68.656  1.00  0.00     0.000 HD 
HETATM    4  H1  UNL     1      -9.500  12.220  67.660  1.00  0.00     0.000 HD 
HETATM    5  C   UNL     1     -11.943  11.839  69.917  1.00  0.00    -0.405 A  
HETATM    6  C   UNL     1     -12.483  10.904  70.804  1.00  0.00    -0.489 A  
HETATM    7  C   UNL     1     -11.907   9.636  70.901  1.00  0.00    -0.323 A  
HETATM    8  C   UNL     1     -10.804   9.298  70.116  1.00  0.00    -0.275 A  
HETATM    9  C   UNL     1     -10.274  10.243  69.233  1.00  0.00    -0.244 A  
ENDROOT
BRANCH   7  10
HETATM   10  S   UNL     1     -12.556   8.469  72.058  1.00  0.00    -0.385 S  
HETATM   11  O   UNL     1     -13.750   9.013  72.662  1.00  0.00    -0.470 OA 
HETATM   12  N   UNL     1     -13.072   7.228  71.052  1.00  0.00    -0.594 N  
HETATM   13  O   UNL     1     -11.474   7.919  72.840  1.00  0.00    -0.403 OA 
HETATM   14  H1  UNL     1     -13.447   6.554  71.719  1.00  0.00     0.000 HD 
HETATM   15  H2  UNL     1     -13.024   7.164  70.035  1.00  0.00     0.000 HD 
ENDBRANCH   7  10
TORSDOF 1
ENDMDL
MODEL       71
REMARK 921   NORMALIZED FREE ENERGY PREDICTED BY IDOCK:   -3.78 KCAL/MOL
REMARK 922        TOTAL FREE ENERGY PREDICTED BY IDOCK:   -4.05 KCAL/MOL
REMARK 923 INTER-LIGAND FREE ENERGY PREDICTED BY IDOCK:   -4.00 KCAL/MOL
REMARK 924 INTRA-LIGAND FREE ENERGY PREDICTED BY IDOCK:   -0.05 KCAL/MOL
REMARK 927      BINDING AFFINITY PREDICTED BY RF-SCORE:    0.00 PKD
ROOT
HETATM    1  N   UNL     1      -8.806  17.830  67.699  1.00  0.00    -0.246 NA 
HETATM    2  C   UNL     1      -9.406  16.669  67.200  1.00  0.00    -0.228 A  
HETATM    3  H2  UNL     1      -7.999  17.559  68.263  1.00  0.00     0.000 HD 
HETATM    4  H1  UNL     1      -8.518  18.572  67.061  1.00  0.00     0.000 HD 
HETATM    5  C   UNL     1      -9.801  15.651  68.075  1.00  0.00    -0.209 A  
HETATM    6  C   UNL     1     -10.497  14.535  67.605  1.00  0.00    -0.246 A  
HETATM    7  C   UNL     1     -10.848  14.462  66.256  1.00  0.00    -0.313 A  
HETATM    8  C   UNL     1     -10.515  15.497  65.381  1.00  0.00    -0.429 A  
HETATM    9  C   UNL     1      -9.819  16.608  65.865  1.00  0.00    -0.301 A  
ENDROOT
BRANCH   7  10
HETATM   10  S   UNL     1     -11.683  13.028  65.648  1.00  0.00    -0.398 S  
HETATM   11  O   UNL     1     -12.038  12.178  66.760  1.00  0.00    -0.609 OA 
HETATM   12  N   UNL     1     -13.125  13.675  65.082  1.00  0.00    -0.734 N  
HETATM   13  O   UNL     1     -10.989  12.529  64.483  1.00  0.00    -0.292 OA 
HETATM   14  H1  UNL     1     -13.607  12.848  64.731  1.00  0.00     0.000 HD 
HETATM   15  H2  UNL     1     -13.439  14.646  65.089  1.00  0.00     0.000 HD 
ENDBRANCH   7  10
TORSDOF 1
ENDMDL
MODEL       72
REMARK 921   NORMALIZED FREE ENERGY PREDICTED BY IDOCK:   -3.76 KCAL/MOL
REMARK 922        TOTAL FREE ENERGY PREDICTED BY IDOCK:   -4.03 KCAL/MOL
REMARK 923 INTER-LIGAND FREE ENERGY PREDICTED BY IDOCK:   -3.98 KCAL/MOL
REMARK 924 INTRA-LIGAND FREE ENERGY PREDICTED BY IDOCK:   -0.05 KCAL/MOL
REMARK 927      BINDING AFFINITY PREDICTED BY RF-SCORE:    0.00 PKD
ROOT
HETATM    1  N   UNL     1     -12.671  11.015  71.529  1.00  0.00    -0.421 NA 
HETATM    2  C   UNL     1     -12.392  11.721  70.353  1.00  0.00    -0.277 A  
HETATM    3  H2  UNL     1     -13.534  11.385  71.930  1.00  0.00     0.000 HD 
HETATM    4  H1  UNL     1     -12.736   9.997  71.511  1.00  0.00     0.000 HD 
HETATM    5  C   UNL     1     -12.304  13.117  70.377  1.00  0.00    -0.351 A  
HETATM    6  C   UNL     1     -11.922  13.828  69.237  1.00  0.00    -0.399 A  
HETATM    7  C   UNL     1     -11.572  13.133  68.079  1.00  0.00    -0.334 A  
HETATM    8  C   UNL     1     -11.597  11.738  68.056  1.00  0.00    -0.386 A  
HETATM    9  C   UNL     1     -11.981  11.039  69.203  1.00  0.00    -0.394 A  
ENDROOT
BRANCH   7  10
HETATM   10  S   UNL     1     -11.138  14.031  66.620  1.00  0.00    -0.316 S  
HETATM   11  O   UNL     1     -10.227  13.238  65.828  1.00  0.00    -0.284 OA 
HETATM   12  N   UNL     1     -12.589  14.049  65.774  1.00  0.00    -0.503 N  
HETATM   13  O   UNL     1     -10.866  15.406  66.967  1.00  0.00    -0.315 OA 
HETATM   14  H1  UNL     1     -12.339  14.567  64.932  1.00  0.00     0.000 HD 
HETATM   15  H2  UNL     1     -13.489  13.645  66.035  1.00  0.00     0.000 HD 
ENDBRANCH   7  10
TORSDOF 1
ENDMDL
MODEL       73
REMARK 921   NORMALIZED FREE ENERGY PREDICTED BY IDOCK:   -3.73 KCAL/MOL
REMARK 922        TOTAL FREE ENERGY PREDICTED BY IDOCK:   -4.00 KCAL/MOL
REMARK 923 INTER-LIGAND FREE ENERGY PREDICTED BY IDOCK:   -3.95 KCAL/MOL
REMARK 924 INTRA-LIGAND FREE ENERGY PREDICTED BY IDOCK:   -0.05 KCAL/MOL
REMARK 927      BINDING AFFINITY PREDICTED BY RF-SCORE:    0.00 PKD
ROOT
HETATM    1  N   UNL     1     -13.534  11.377  72.121  1.00  0.00    -0.524 NA 
HETATM    2  C   UNL     1     -12.760  10.289  71.700  1.00  0.00    -0.456 A  
HETATM    3  H2  UNL     1     -13.554  11.383  73.141  1.00  0.00     0.000 HD 
HETATM    4  H1  UNL     1     -13.312  12.319  71.798  1.00  0.00     0.000 HD 
HETATM    5  C   UNL     1     -13.065   8.998  72.143  1.00  0.00    -0.496 A  
HETATM    6  C   UNL     1     -12.369   7.891  71.649  1.00  0.00    -0.344 A  
HETATM    7  C   UNL     1     -11.398   8.073  70.664  1.00  0.00    -0.252 A  
HETATM    8  C   UNL     1     -11.123   9.348  70.168  1.00  0.00    -0.277 A  
HETATM    9  C   UNL     1     -11.826  10.447  70.670  1.00  0.00    -0.445 A  
ENDROOT
BRANCH   7  10
HETATM   10  S   UNL     1     -10.481   6.682  70.075  1.00  0.00    -0.225 S  
HETATM   11  O   UNL     1     -10.758   5.541  70.915  1.00  0.00    -0.252 OA 
HETATM   12  N   UNL     1     -11.228   6.367  68.605  1.00  0.00    -0.539 N  
HETATM   13  O   UNL     1      -9.135   7.098  69.754  1.00  0.00    -0.142 OA 
HETATM   14  H1  UNL     1     -10.698   5.564  68.265  1.00  0.00     0.000 HD 
HETATM   15  H2  UNL     1     -12.009   6.853  68.166  1.00  0.00     0.000 HD 
ENDBRANCH   7  10
TORSDOF 1
ENDMDL
MODEL       74
REMARK 921   NORMALIZED FREE ENERGY PREDICTED BY IDOCK:   -3.72 KCAL/MOL
REMARK 922        TOTAL FREE ENERGY PREDICTED BY IDOCK:   -3.99 KCAL/MOL
REMARK 923 INTER-LIGAND FREE ENERGY PREDICTED BY IDOCK:   -3.94 KCAL/MOL
REMARK 924 INTRA-LIGAND FREE ENERGY PREDICTED BY IDOCK:   -0.05 KCAL/MOL
REMARK 927      BINDING AFFINITY PREDICTED BY RF-SCORE:    0.00 PKD
ROOT
HETATM    1  N   UNL     1      -8.642  20.831  67.271  1.00  0.00    -0.504 NA 
HETATM    2  C   UNL     1      -9.111  19.526  67.460  1.00  0.00    -0.305 A  
HETATM    3  H2  UNL     1      -8.174  21.132  68.127  1.00  0.00     0.000 HD 
HETATM    4  H1  UNL     1      -8.036  21.048  66.480  1.00  0.00     0.000 HD 
HETATM    5  C   UNL     1      -9.942  19.229  68.545  1.00  0.00    -0.513 A  
HETATM    6  C   UNL     1     -10.504  17.957  68.687  1.00  0.00    -0.269 A  
HETATM    7  C   UNL     1     -10.275  16.991  67.706  1.00  0.00    -0.312 A  
HETATM    8  C   UNL     1      -9.498  17.290  66.587  1.00  0.00    -0.278 A  
HETATM    9  C   UNL     1      -8.942  18.565  66.457  1.00  0.00    -0.300 A  
ENDROOT
BRANCH   7  10
HETATM   10  S   UNL     1     -10.942  15.367  67.909  1.00  0.00    -0.318 S  
HETATM   11  O   UNL     1     -10.038  14.581  68.716  1.00  0.00    -0.233 OA 
HETATM   12  N   UNL     1     -12.287  15.657  68.871  1.00  0.00    -0.559 N  
HETATM   13  O   UNL     1     -11.454  14.899  66.642  1.00  0.00    -0.349 OA 
HETATM   14  H1  UNL     1     -12.672  14.720  68.988  1.00  0.00     0.000 HD 
HETATM   15  H2  UNL     1     -12.631  16.543  69.243  1.00  0.00     0.000 HD 
ENDBRANCH   7  10
TORSDOF 1
ENDMDL
MODEL       75
REMARK 921   NORMALIZED FREE ENERGY PREDICTED BY IDOCK:   -3.71 KCAL/MOL
REMARK 922        TOTAL FREE ENERGY PREDICTED BY IDOCK:   -3.98 KCAL/MOL
REMARK 923 INTER-LIGAND FREE ENERGY PREDICTED BY IDOCK:   -3.93 KCAL/MOL
REMARK 924 INTRA-LIGAND FREE ENERGY PREDICTED BY IDOCK:   -0.05 KCAL/MOL
REMARK 927      BINDING AFFINITY PREDICTED BY RF-SCORE:    0.00 PKD
ROOT
HETATM    1  N   UNL     1     -10.068   7.229  66.443  1.00  0.00    -0.465 NA 
HETATM    2  C   UNL     1     -10.528   7.396  67.755  1.00  0.00    -0.232 A  
HETATM    3  H2  UNL     1     -10.803   6.775  65.900  1.00  0.00     0.000 HD 
HETATM    4  H1  UNL     1      -9.725   8.031  65.915  1.00  0.00     0.000 HD 
HETATM    5  C   UNL     1     -10.997   6.296  68.479  1.00  0.00    -0.421 A  
HETATM    6  C   UNL     1     -11.359   6.427  69.823  1.00  0.00    -0.494 A  
HETATM    7  C   UNL     1     -11.198   7.657  70.461  1.00  0.00    -0.261 A  
HETATM    8  C   UNL     1     -10.674   8.750  69.768  1.00  0.00    -0.220 A  
HETATM    9  C   UNL     1     -10.316   8.605  68.426  1.00  0.00    -0.239 A  
ENDROOT
BRANCH   7  10
HETATM   10  S   UNL     1     -11.703   7.840  72.144  1.00  0.00    -0.336 S  
HETATM   11  O   UNL     1     -12.702   8.880  72.230  1.00  0.00    -0.376 OA 
HETATM   12  N   UNL     1     -12.513   6.397  72.427  1.00  0.00    -0.547 N  
HETATM   13  O   UNL     1     -10.538   7.814  72.998  1.00  0.00    -0.336 OA 
HETATM   14  H1  UNL     1     -12.804   6.502  73.398  1.00  0.00     0.000 HD 
HETATM   15  H2  UNL     1     -12.673   5.616  71.790  1.00  0.00     0.000 HD 
ENDBRANCH   7  10
TORSDOF 1
ENDMDL
MODEL       76
REMARK 921   NORMALIZED FREE ENERGY PREDICTED BY IDOCK:   -3.68 KCAL/MOL
REMARK 922        TOTAL FREE ENERGY PREDICTED BY IDOCK:   -3.95 KCAL/MOL
REMARK 923 INTER-LIGAND FREE ENERGY PREDICTED BY IDOCK:   -3.90 KCAL/MOL
REMARK 924 INTRA-LIGAND FREE ENERGY PREDICTED BY IDOCK:   -0.05 KCAL/MOL
REMARK 927      BINDING AFFINITY PREDICTED BY RF-SCORE:    0.00 PKD
ROOT
HETATM    1  N   UNL     1     -11.888   7.721  73.088  1.00  0.00    -0.634 NA 
HETATM    2  C   UNL     1     -11.431   7.619  71.769  1.00  0.00    -0.264 A  
HETATM    3  H2  UNL     1     -11.553   6.910  73.609  1.00  0.00     0.000 HD 
HETATM    4  H1  UNL     1     -11.691   8.559  73.635  1.00  0.00     0.000 HD 
HETATM    5  C   UNL     1     -11.702   6.469  71.019  1.00  0.00    -0.402 A  
HETATM    6  C   UNL     1     -11.345   6.396  69.670  1.00  0.00    -0.479 A  
HETATM    7  C   UNL     1     -10.761   7.503  69.052  1.00  0.00    -0.134 A  
HETATM    8  C   UNL     1     -10.539   8.679  69.771  1.00  0.00    -0.224 A  
HETATM    9  C   UNL     1     -10.901   8.739  71.119  1.00  0.00    -0.335 A  
ENDROOT
BRANCH   7  10
HETATM   10  S   UNL     1     -10.262   7.396  67.361  1.00  0.00    -0.276 S  
HETATM   11  O   UNL     1      -9.008   6.685  67.280  1.00  0.00    -0.115 OA 
HETATM   12  N   UNL     1     -11.421   6.365  66.718  1.00  0.00    -0.746 N  
HETATM   13  O   UNL     1     -10.470   8.674  66.720  1.00  0.00    -0.291 OA 
HETATM   14  H1  UNL     1     -11.133   6.304  65.741  1.00  0.00     0.000 HD 
HETATM   15  H2  UNL     1     -12.209   5.916  67.183  1.00  0.00     0.000 HD 
ENDBRANCH   7  10
TORSDOF 1
ENDMDL
MODEL       77
REMARK 921   NORMALIZED FREE ENERGY PREDICTED BY IDOCK:   -3.68 KCAL/MOL
REMARK 922        TOTAL FREE ENERGY PREDICTED BY IDOCK:   -3.95 KCAL/MOL
REMARK 923 INTER-LIGAND FREE ENERGY PREDICTED BY IDOCK:   -3.90 KCAL/MOL
REMARK 924 INTRA-LIGAND FREE ENERGY PREDICTED BY IDOCK:   -0.05 KCAL/MOL
REMARK 927      BINDING AFFINITY PREDICTED BY RF-SCORE:    0.00 PKD
ROOT
HETATM    1  N   UNL     1      -7.765  20.707  66.169  1.00  0.00    -0.505 NA 
HETATM    2  C   UNL     1      -8.368  19.445  66.207  1.00  0.00    -0.336 A  
HETATM    3  H2  UNL     1      -7.128  20.737  65.373  1.00  0.00     0.000 HD 
HETATM    4  H1  UNL     1      -8.342  21.549  66.151  1.00  0.00     0.000 HD 
HETATM    5  C   UNL     1      -7.578  18.291  66.232  1.00  0.00    -0.291 A  
HETATM    6  C   UNL     1      -8.161  17.029  66.376  1.00  0.00    -0.335 A  
HETATM    7  C   UNL     1      -9.541  16.926  66.552  1.00  0.00    -0.278 A  
HETATM    8  C   UNL     1     -10.337  18.071  66.590  1.00  0.00    -0.375 A  
HETATM    9  C   UNL     1      -9.742  19.327  66.444  1.00  0.00    -0.435 A  
ENDROOT
BRANCH   7  10
HETATM   10  S   UNL     1     -10.287  15.329  66.684  1.00  0.00    -0.288 S  
HETATM   11  O   UNL     1     -11.078  15.076  65.502  1.00  0.00    -0.336 OA 
HETATM   12  N   UNL     1      -8.957  14.310  66.576  1.00  0.00    -0.450 N  
HETATM   13  O   UNL     1     -10.812  15.155  68.018  1.00  0.00    -0.267 OA 
HETATM   14  H1  UNL     1      -9.388  13.389  66.652  1.00  0.00     0.000 HD 
HETATM   15  H2  UNL     1      -7.972  14.551  66.463  1.00  0.00     0.000 HD 
ENDBRANCH   7  10
TORSDOF 1
ENDMDL
MODEL       78
REMARK 921   NORMALIZED FREE ENERGY PREDICTED BY IDOCK:   -3.67 KCAL/MOL
REMARK 922        TOTAL FREE ENERGY PREDICTED BY IDOCK:   -3.93 KCAL/MOL
REMARK 923 INTER-LIGAND FREE ENERGY PREDICTED BY IDOCK:   -3.89 KCAL/MOL
REMARK 924 INTRA-LIGAND FREE ENERGY PREDICTED BY IDOCK:   -0.05 KCAL/MOL
REMARK 927      BINDING AFFINITY PREDICTED BY RF-SCORE:    0.00 PKD
ROOT
HETATM    1  N   UNL     1     -11.198   9.082  69.065  1.00  0.00    -0.421 NA 
HETATM    2  C   UNL     1     -11.159  10.197  68.220  1.00  0.00    -0.227 A  
HETATM    3  H2  UNL     1     -10.307   8.590  68.989  1.00  0.00     0.000 HD 
HETATM    4  H1  UNL     1     -11.419   9.196  70.054  1.00  0.00     0.000 HD 
HETATM    5  C   UNL     1     -10.856  10.041  66.864  1.00  0.00    -0.152 A  
HETATM    6  C   UNL     1     -10.917  11.128  65.988  1.00  0.00    -0.189 A  
HETATM    7  C   UNL     1     -11.340  12.370  66.463  1.00  0.00    -0.340 A  
HETATM    8  C   UNL     1     -11.704  12.529  67.801  1.00  0.00    -0.419 A  
HETATM    9  C   UNL     1     -11.638  11.434  68.666  1.00  0.00    -0.384 A  
ENDROOT
BRANCH   7  10
HETATM   10  S   UNL     1     -11.370  13.758  65.370  1.00  0.00    -0.317 S  
HETATM   11  O   UNL     1     -10.914  13.344  64.064  1.00  0.00    -0.358 OA 
HETATM   12  N   UNL     1     -13.017  14.047  65.216  1.00  0.00    -0.767 N  
HETATM   13  O   UNL     1     -10.828  14.913  66.048  1.00  0.00    -0.313 OA 
HETATM   14  H1  UNL     1     -13.034  14.848  64.585  1.00  0.00     0.000 HD 
HETATM   15  H2  UNL     1     -13.798  13.549  65.642  1.00  0.00     0.000 HD 
ENDBRANCH   7  10
TORSDOF 1
ENDMDL
MODEL       79
REMARK 921   NORMALIZED FREE ENERGY PREDICTED BY IDOCK:   -3.64 KCAL/MOL
REMARK 922        TOTAL FREE ENERGY PREDICTED BY IDOCK:   -3.91 KCAL/MOL
REMARK 923 INTER-LIGAND FREE ENERGY PREDICTED BY IDOCK:   -3.86 KCAL/MOL
REMARK 924 INTRA-LIGAND FREE ENERGY PREDICTED BY IDOCK:   -0.05 KCAL/MOL
REMARK 927      BINDING AFFINITY PREDICTED BY RF-SCORE:    0.00 PKD
ROOT
HETATM    1  N   UNL     1     -11.203  11.587  69.872  1.00  0.00    -0.478 NA 
HETATM    2  C   UNL     1     -11.073  11.681  68.482  1.00  0.00    -0.235 A  
HETATM    3  H2  UNL     1     -10.291  11.352  70.266  1.00  0.00     0.000 HD 
HETATM    4  H1  UNL     1     -11.592  12.366  70.404  1.00  0.00     0.000 HD 
HETATM    5  C   UNL     1     -10.539  10.612  67.754  1.00  0.00    -0.275 A  
HETATM    6  C   UNL     1     -10.500  10.649  66.357  1.00  0.00    -0.276 A  
HETATM    7  C   UNL     1     -11.051  11.739  65.682  1.00  0.00    -0.285 A  
HETATM    8  C   UNL     1     -11.641  12.786  66.392  1.00  0.00    -0.435 A  
HETATM    9  C   UNL     1     -11.673  12.737  67.788  1.00  0.00    -0.412 A  
ENDROOT
BRANCH   7  10
HETATM   10  S   UNL     1     -10.958  11.812  63.919  1.00  0.00    -0.440 S  
HETATM   11  O   UNL     1     -10.252  10.650  63.433  1.00  0.00    -0.291 OA 
HETATM   12  N   UNL     1     -12.563  11.597  63.475  1.00  0.00    -0.619 N  
HETATM   13  O   UNL     1     -10.612  13.154  63.514  1.00  0.00    -0.116 OA 
HETATM   14  H1  UNL     1     -12.510  11.639  62.457  1.00  0.00     0.000 HD 
HETATM   15  H2  UNL     1     -13.380  11.459  64.069  1.00  0.00     0.000 HD 
ENDBRANCH   7  10
TORSDOF 1
ENDMDL
MODEL       80
REMARK 921   NORMALIZED FREE ENERGY PREDICTED BY IDOCK:   -3.61 KCAL/MOL
REMARK 922        TOTAL FREE ENERGY PREDICTED BY IDOCK:   -3.87 KCAL/MOL
REMARK 923 INTER-LIGAND FREE ENERGY PREDICTED BY IDOCK:   -3.82 KCAL/MOL
REMARK 924 INTRA-LIGAND FREE ENERGY PREDICTED BY IDOCK:   -0.05 KCAL/MOL
REMARK 927      BINDING AFFINITY PREDICTED BY RF-SCORE:    0.00 PKD
ROOT
HETATM    1  N   UNL     1     -11.810   5.277  72.968  1.00  0.00    -0.515 NA 
HETATM    2  C   UNL     1     -11.631   6.423  72.185  1.00  0.00    -0.313 A  
HETATM    3  H2  UNL     1     -12.596   5.437  73.600  1.00  0.00     0.000 HD 
HETATM    4  H1  UNL     1     -11.936   4.367  72.523  1.00  0.00     0.000 HD 
HETATM    5  C   UNL     1     -11.459   7.670  72.795  1.00  0.00    -0.384 A  
HETATM    6  C   UNL     1     -11.174   8.805  72.031  1.00  0.00    -0.443 A  
HETATM    7  C   UNL     1     -11.006   8.681  70.652  1.00  0.00    -0.240 A  
HETATM    8  C   UNL     1     -11.115   7.434  70.035  1.00  0.00    -0.238 A  
HETATM    9  C   UNL     1     -11.401   6.307  70.809  1.00  0.00    -0.397 A  
ENDROOT
BRANCH   7  10
HETATM   10  S   UNL     1     -10.697  10.123  69.677  1.00  0.00    -0.281 S  
HETATM   11  O   UNL     1      -9.273  10.266  69.481  1.00  0.00    -0.208 OA 
HETATM   12  N   UNL     1     -11.326   9.679  68.185  1.00  0.00    -0.500 N  
HETATM   13  O   UNL     1     -11.526  11.207  70.150  1.00  0.00    -0.296 OA 
HETATM   14  H1  UNL     1     -11.147  10.511  67.623  1.00  0.00     0.000 HD 
HETATM   15  H2  UNL     1     -11.772   8.803  67.912  1.00  0.00     0.000 HD 
ENDBRANCH   7  10
TORSDOF 1
ENDMDL
MODEL       81
REMARK 921   NORMALIZED FREE ENERGY PREDICTED BY IDOCK:   -3.60 KCAL/MOL
REMARK 922        TOTAL FREE ENERGY PREDICTED BY IDOCK:   -3.86 KCAL/MOL
REMARK 923 INTER-LIGAND FREE ENERGY PREDICTED BY IDOCK:   -3.81 KCAL/MOL
REMARK 924 INTRA-LIGAND FREE ENERGY PREDICTED BY IDOCK:   -0.05 KCAL/MOL
REMARK 927      BINDING AFFINITY PREDICTED BY RF-SCORE:    0.00 PKD
ROOT
HETATM    1  N   UNL     1     -12.354  10.737  68.802  1.00  0.00    -0.792 NA 
HETATM    2  C   UNL     1     -11.738  11.967  68.543  1.00  0.00    -0.330 A  
HETATM    3  H2  UNL     1     -11.728   9.992  68.494  1.00  0.00     0.000 HD 
HETATM    4  H1  UNL     1     -12.679  10.515  69.743  1.00  0.00     0.000 HD 
HETATM    5  C   UNL     1     -11.292  12.271  67.253  1.00  0.00    -0.392 A  
HETATM    6  C   UNL     1     -10.772  13.533  66.956  1.00  0.00    -0.278 A  
HETATM    7  C   UNL     1     -10.750  14.517  67.945  1.00  0.00    -0.245 A  
HETATM    8  C   UNL     1     -11.247  14.249  69.221  1.00  0.00    -0.309 A  
HETATM    9  C   UNL     1     -11.764  12.983  69.505  1.00  0.00    -0.381 A  
ENDROOT
BRANCH   7  10
HETATM   10  S   UNL     1     -10.047  16.099  67.587  1.00  0.00    -0.253 S  
HETATM   11  O   UNL     1     -10.987  17.131  67.959  1.00  0.00    -0.362 OA 
HETATM   12  N   UNL     1      -8.797  16.188  68.705  1.00  0.00    -0.207 N  
HETATM   13  O   UNL     1      -9.416  16.059  66.289  1.00  0.00    -0.265 OA 
HETATM   14  H1  UNL     1      -8.391  17.100  68.498  1.00  0.00     0.000 HD 
HETATM   15  H2  UNL     1      -8.516  15.505  69.409  1.00  0.00     0.000 HD 
ENDBRANCH   7  10
TORSDOF 1
ENDMDL
MODEL       82
REMARK 921   NORMALIZED FREE ENERGY PREDICTED BY IDOCK:   -3.60 KCAL/MOL
REMARK 922        TOTAL FREE ENERGY PREDICTED BY IDOCK:   -3.86 KCAL/MOL
REMARK 923 INTER-LIGAND FREE ENERGY PREDICTED BY IDOCK:   -3.81 KCAL/MOL
REMARK 924 INTRA-LIGAND FREE ENERGY PREDICTED BY IDOCK:   -0.05 KCAL/MOL
REMARK 927      BINDING AFFINITY PREDICTED BY RF-SCORE:    0.00 PKD
ROOT
HETATM    1  N   UNL     1      -8.012  19.172  65.914  1.00  0.00    -0.458 NA 
HETATM    2  C   UNL     1      -8.826  18.094  66.279  1.00  0.00    -0.174 A  
HETATM    3  H2  UNL     1      -7.739  19.053  64.937  1.00  0.00     0.000 HD 
HETATM    4  H1  UNL     1      -8.341  20.129  66.042  1.00  0.00     0.000 HD 
HETATM    5  C   UNL     1      -8.374  16.782  66.104  1.00  0.00    -0.301 A  
HETATM    6  C   UNL     1      -9.130  15.699  66.560  1.00  0.00    -0.337 A  
HETATM    7  C   UNL     1     -10.322  15.934  67.247  1.00  0.00    -0.293 A  
HETATM    8  C   UNL     1     -10.757  17.239  67.484  1.00  0.00    -0.278 A  
HETATM    9  C   UNL     1      -9.992  18.312  67.022  1.00  0.00    -0.349 A  
ENDROOT
BRANCH   7  10
HETATM   10  S   UNL     1     -11.306  14.566  67.781  1.00  0.00    -0.332 S  
HETATM   11  O   UNL     1     -10.466  13.622  68.480  1.00  0.00    -0.237 OA 
HETATM   12  N   UNL     1     -12.281  15.272  68.952  1.00  0.00    -0.603 N  
HETATM   13  O   UNL     1     -12.194  14.170  66.713  1.00  0.00    -0.447 OA 
HETATM   14  H1  UNL     1     -12.849  14.483  69.260  1.00  0.00     0.000 HD 
HETATM   15  H2  UNL     1     -12.300  16.240  69.273  1.00  0.00     0.000 HD 
ENDBRANCH   7  10
TORSDOF 1
ENDMDL
MODEL       83
REMARK 921   NORMALIZED FREE ENERGY PREDICTED BY IDOCK:   -3.59 KCAL/MOL
REMARK 922        TOTAL FREE ENERGY PREDICTED BY IDOCK:   -3.85 KCAL/MOL
REMARK 923 INTER-LIGAND FREE ENERGY PREDICTED BY IDOCK:   -3.80 KCAL/MOL
REMARK 924 INTRA-LIGAND FREE ENERGY PREDICTED BY IDOCK:   -0.05 KCAL/MOL
REMARK 927      BINDING AFFINITY PREDICTED BY RF-SCORE:    0.00 PKD
ROOT
HETATM    1  N   UNL     1     -10.585  14.591  69.616  1.00  0.00    -0.435 NA 
HETATM    2  C   UNL     1     -10.068  15.782  69.094  1.00  0.00    -0.238 A  
HETATM    3  H2  UNL     1     -10.224  14.470  70.563  1.00  0.00     0.000 HD 
HETATM    4  H1  UNL     1     -11.594  14.435  69.633  1.00  0.00     0.000 HD 
HETATM    5  C   UNL     1      -8.685  15.995  69.070  1.00  0.00    -0.245 A  
HETATM    6  C   UNL     1      -8.148  17.130  68.457  1.00  0.00    -0.260 A  
HETATM    7  C   UNL     1      -8.998  18.031  67.815  1.00  0.00    -0.255 A  
HETATM    8  C   UNL     1     -10.374  17.803  67.778  1.00  0.00    -0.382 A  
HETATM    9  C   UNL     1     -10.898  16.664  68.395  1.00  0.00    -0.361 A  
ENDROOT
BRANCH   7  10
HETATM   10  S   UNL     1      -8.328  19.493  67.083  1.00  0.00    -0.302 S  
HETATM   11  O   UNL     1      -7.804  19.173  65.776  1.00  0.00    -0.450 OA 
HETATM   12  N   UNL     1      -9.705  20.415  66.816  1.00  0.00    -0.578 N  
HETATM   13  O   UNL     1      -7.556  20.212  68.070  1.00  0.00    -0.294 OA 
HETATM   14  H1  UNL     1      -9.318  21.259  66.394  1.00  0.00     0.000 HD 
HETATM   15  H2  UNL     1     -10.678  20.189  67.023  1.00  0.00     0.000 HD 
ENDBRANCH   7  10
TORSDOF 1
ENDMDL
MODEL       84
REMARK 921   NORMALIZED FREE ENERGY PREDICTED BY IDOCK:   -3.59 KCAL/MOL
REMARK 922        TOTAL FREE ENERGY PREDICTED BY IDOCK:   -3.85 KCAL/MOL
REMARK 923 INTER-LIGAND FREE ENERGY PREDICTED BY IDOCK:   -3.80 KCAL/MOL
REMARK 924 INTRA-LIGAND FREE ENERGY PREDICTED BY IDOCK:   -0.05 KCAL/MOL
REMARK 927      BINDING AFFINITY PREDICTED BY RF-SCORE:    0.00 PKD
ROOT
HETATM    1  N   UNL     1     -11.773   9.759  71.022  1.00  0.00    -0.340 NA 
HETATM    2  C   UNL     1     -11.585  10.647  69.956  1.00  0.00    -0.325 A  
HETATM    3  H2  UNL     1     -10.940   9.175  71.105  1.00  0.00     0.000 HD 
HETATM    4  H1  UNL     1     -12.011  10.115  71.948  1.00  0.00     0.000 HD 
HETATM    5  C   UNL     1     -11.259  10.160  68.686  1.00  0.00    -0.223 A  
HETATM    6  C   UNL     1     -11.172  11.023  67.591  1.00  0.00    -0.373 A  
HETATM    7  C   UNL     1     -11.469  12.376  67.757  1.00  0.00    -0.324 A  
HETATM    8  C   UNL     1     -11.855  12.868  69.005  1.00  0.00    -0.352 A  
HETATM    9  C   UNL     1     -11.937  11.994  70.092  1.00  0.00    -0.401 A  
ENDROOT
BRANCH   7  10
HETATM   10  S   UNL     1     -11.312  13.479  66.385  1.00  0.00    -0.326 S  
HETATM   11  O   UNL     1     -11.553  14.830  66.833  1.00  0.00    -0.359 OA 
HETATM   12  N   UNL     1      -9.669  13.389  66.050  1.00  0.00    -0.414 N  
HETATM   13  O   UNL     1     -11.981  12.913  65.237  1.00  0.00    -0.367 OA 
HETATM   14  H1  UNL     1      -9.578  14.026  65.258  1.00  0.00     0.000 HD 
HETATM   15  H2  UNL     1      -8.948  12.840  66.518  1.00  0.00     0.000 HD 
ENDBRANCH   7  10
TORSDOF 1
ENDMDL
MODEL       85
REMARK 921   NORMALIZED FREE ENERGY PREDICTED BY IDOCK:   -3.59 KCAL/MOL
REMARK 922        TOTAL FREE ENERGY PREDICTED BY IDOCK:   -3.85 KCAL/MOL
REMARK 923 INTER-LIGAND FREE ENERGY PREDICTED BY IDOCK:   -3.80 KCAL/MOL
REMARK 924 INTRA-LIGAND FREE ENERGY PREDICTED BY IDOCK:   -0.05 KCAL/MOL
REMARK 927      BINDING AFFINITY PREDICTED BY RF-SCORE:    0.00 PKD
ROOT
HETATM    1  N   UNL     1      -9.770  12.624  65.601  1.00  0.00    -0.419 NA 
HETATM    2  C   UNL     1      -9.905  14.004  65.792  1.00  0.00    -0.256 A  
HETATM    3  H2  UNL     1      -9.885  12.161  66.504  1.00  0.00     0.000 HD 
HETATM    4  H1  UNL     1     -10.353  12.142  64.916  1.00  0.00     0.000 HD 
HETATM    5  C   UNL     1      -9.105  14.663  66.732  1.00  0.00    -0.287 A  
HETATM    6  C   UNL     1      -9.153  16.054  66.859  1.00  0.00    -0.251 A  
HETATM    7  C   UNL     1      -9.966  16.795  66.001  1.00  0.00    -0.313 A  
HETATM    8  C   UNL     1     -10.725  16.157  65.018  1.00  0.00    -0.359 A  
HETATM    9  C   UNL     1     -10.668  14.766  64.902  1.00  0.00    -0.438 A  
ENDROOT
BRANCH   7  10
HETATM   10  S   UNL     1     -10.068  18.549  66.193  1.00  0.00    -0.318 S  
HETATM   11  O   UNL     1     -10.936  19.088  65.173  1.00  0.00    -0.471 OA 
HETATM   12  N   UNL     1     -10.907  18.696  67.640  1.00  0.00    -0.376 N  
HETATM   13  O   UNL     1      -8.749  19.079  66.446  1.00  0.00    -0.314 OA 
HETATM   14  H1  UNL     1     -10.966  19.708  67.750  1.00  0.00     0.000 HD 
HETATM   15  H2  UNL     1     -11.266  17.962  68.250  1.00  0.00     0.000 HD 
ENDBRANCH   7  10
TORSDOF 1
ENDMDL
MODEL       86
REMARK 921   NORMALIZED FREE ENERGY PREDICTED BY IDOCK:   -3.58 KCAL/MOL
REMARK 922        TOTAL FREE ENERGY PREDICTED BY IDOCK:   -3.84 KCAL/MOL
REMARK 923 INTER-LIGAND FREE ENERGY PREDICTED BY IDOCK:   -3.79 KCAL/MOL
REMARK 924 INTRA-LIGAND FREE ENERGY PREDICTED BY IDOCK:   -0.05 KCAL/MOL
REMARK 927      BINDING AFFINITY PREDICTED BY RF-SCORE:    0.00 PKD
ROOT
HETATM    1  N   UNL     1      -8.295  17.481  65.841  1.00  0.00    -0.549 NA 
HETATM    2  C   UNL     1      -9.061  16.414  66.326  1.00  0.00    -0.327 A  
HETATM    3  H2  UNL     1      -7.734  17.145  65.057  1.00  0.00     0.000 HD 
HETATM    4  H1  UNL     1      -8.749  18.351  65.562  1.00  0.00     0.000 HD 
HETATM    5  C   UNL     1      -8.439  15.221  66.708  1.00  0.00    -0.290 A  
HETATM    6  C   UNL     1      -9.175  14.187  67.292  1.00  0.00    -0.222 A  
HETATM    7  C   UNL     1     -10.535  14.370  67.546  1.00  0.00    -0.252 A  
HETATM    8  C   UNL     1     -11.158  15.578  67.226  1.00  0.00    -0.271 A  
HETATM    9  C   UNL     1     -10.410  16.603  66.642  1.00  0.00    -0.296 A  
ENDROOT
BRANCH   7  10
HETATM   10  S   UNL     1     -11.480  13.047  68.238  1.00  0.00    -0.336 S  
HETATM   11  O   UNL     1     -11.998  12.225  67.169  1.00  0.00    -0.564 OA 
HETATM   12  N   UNL     1     -10.296  12.129  68.995  1.00  0.00    -0.421 N  
HETATM   13  O   UNL     1     -12.319  13.560  69.295  1.00  0.00    -0.260 OA 
HETATM   14  H1  UNL     1     -10.841  11.365  69.394  1.00  0.00     0.000 HD 
HETATM   15  H2  UNL     1      -9.290  12.293  69.043  1.00  0.00     0.000 HD 
ENDBRANCH   7  10
TORSDOF 1
ENDMDL
MODEL       87
REMARK 921   NORMALIZED FREE ENERGY PREDICTED BY IDOCK:   -3.57 KCAL/MOL
REMARK 922        TOTAL FREE ENERGY PREDICTED BY IDOCK:   -3.83 KCAL/MOL
REMARK 923 INTER-LIGAND FREE ENERGY PREDICTED BY IDOCK:   -3.78 KCAL/MOL
REMARK 924 INTRA-LIGAND FREE ENERGY PREDICTED BY IDOCK:   -0.05 KCAL/MOL
REMARK 927      BINDING AFFINITY PREDICTED BY RF-SCORE:    0.00 PKD
ROOT
HETATM    1  N   UNL     1      -9.610  19.936  66.106  1.00  0.00    -0.440 NA 
HETATM    2  C   UNL     1      -9.854  18.762  66.829  1.00  0.00    -0.343 A  
HETATM    3  H2  UNL     1      -8.807  20.409  66.522  1.00  0.00     0.000 HD 
HETATM    4  H1  UNL     1      -9.472  19.896  65.096  1.00  0.00     0.000 HD 
HETATM    5  C   UNL     1     -10.043  18.817  68.214  1.00  0.00    -0.431 A  
HETATM    6  C   UNL     1     -10.392  17.671  68.933  1.00  0.00    -0.323 A  
HETATM    7  C   UNL     1     -10.608  16.472  68.253  1.00  0.00    -0.326 A  
HETATM    8  C   UNL     1     -10.482  16.414  66.864  1.00  0.00    -0.289 A  
HETATM    9  C   UNL     1     -10.132  17.567  66.157  1.00  0.00    -0.317 A  
ENDROOT
BRANCH   7  10
HETATM   10  S   UNL     1     -10.999  15.009  69.164  1.00  0.00    -0.275 S  
HETATM   11  O   UNL     1     -12.018  14.268  68.458  1.00  0.00    -0.341 OA 
HETATM   12  N   UNL     1      -9.587  14.113  69.013  1.00  0.00    -0.408 N  
HETATM   13  O   UNL     1     -11.112  15.336  70.566  1.00  0.00    -0.286 OA 
HETATM   14  H1  UNL     1      -9.813  13.269  69.539  1.00  0.00     0.000 HD 
HETATM   15  H2  UNL     1      -8.726  14.351  68.521  1.00  0.00     0.000 HD 
ENDBRANCH   7  10
TORSDOF 1
ENDMDL
MODEL       88
REMARK 921   NORMALIZED FREE ENERGY PREDICTED BY IDOCK:   -3.56 KCAL/MOL
REMARK 922        TOTAL FREE ENERGY PREDICTED BY IDOCK:   -3.82 KCAL/MOL
REMARK 923 INTER-LIGAND FREE ENERGY PREDICTED BY IDOCK:   -3.77 KCAL/MOL
REMARK 924 INTRA-LIGAND FREE ENERGY PREDICTED BY IDOCK:   -0.05 KCAL/MOL
REMARK 927      BINDING AFFINITY PREDICTED BY RF-SCORE:    0.00 PKD
ROOT
HETATM    1  N   UNL     1      -7.505   8.144  72.278  1.00  0.00    -0.107 NA 
HETATM    2  C   UNL     1      -8.880   8.398  72.212  1.00  0.00    -0.220 A  
HETATM    3  H2  UNL     1      -7.011   9.037  72.270  1.00  0.00     0.000 HD 
HETATM    4  H1  UNL     1      -7.126   7.572  73.033  1.00  0.00     0.000 HD 
HETATM    5  C   UNL     1      -9.400   9.182  71.177  1.00  0.00    -0.313 A  
HETATM    6  C   UNL     1     -10.780   9.357  71.038  1.00  0.00    -0.407 A  
HETATM    7  C   UNL     1     -11.648   8.698  71.909  1.00  0.00    -0.350 A  
HETATM    8  C   UNL     1     -11.147   7.865  72.911  1.00  0.00    -0.442 A  
HETATM    9  C   UNL     1      -9.766   7.698  73.039  1.00  0.00    -0.301 A  
ENDROOT
BRANCH   7  10
HETATM   10  S   UNL     1     -13.390   8.958  71.768  1.00  0.00    -0.406 S  
HETATM   11  O   UNL     1     -13.633  10.076  70.887  1.00  0.00    -0.297 OA 
HETATM   12  N   UNL     1     -13.881   7.591  70.926  1.00  0.00    -0.585 N  
HETATM   13  O   UNL     1     -13.996   8.856  73.075  1.00  0.00    -0.343 OA 
HETATM   14  H1  UNL     1     -14.887   7.741  70.844  1.00  0.00     0.000 HD 
HETATM   15  H2  UNL     1     -13.319   6.812  70.583  1.00  0.00     0.000 HD 
ENDBRANCH   7  10
TORSDOF 1
ENDMDL
MODEL       89
REMARK 921   NORMALIZED FREE ENERGY PREDICTED BY IDOCK:   -3.54 KCAL/MOL
REMARK 922        TOTAL FREE ENERGY PREDICTED BY IDOCK:   -3.80 KCAL/MOL
REMARK 923 INTER-LIGAND FREE ENERGY PREDICTED BY IDOCK:   -3.75 KCAL/MOL
REMARK 924 INTRA-LIGAND FREE ENERGY PREDICTED BY IDOCK:   -0.05 KCAL/MOL
REMARK 927      BINDING AFFINITY PREDICTED BY RF-SCORE:    0.00 PKD
ROOT
HETATM    1  N   UNL     1      -9.468   9.561  63.223  1.00  0.00    -0.479 NA 
HETATM    2  C   UNL     1      -9.966  10.562  64.066  1.00  0.00    -0.297 A  
HETATM    3  H2  UNL     1      -9.713   8.653  63.621  1.00  0.00     0.000 HD 
HETATM    4  H1  UNL     1      -9.715   9.556  62.233  1.00  0.00     0.000 HD 
HETATM    5  C   UNL     1      -9.627  10.568  65.423  1.00  0.00    -0.291 A  
HETATM    6  C   UNL     1     -10.029  11.617  66.254  1.00  0.00    -0.247 A  
HETATM    7  C   UNL     1     -10.727  12.696  65.711  1.00  0.00    -0.268 A  
HETATM    8  C   UNL     1     -11.021  12.734  64.347  1.00  0.00    -0.393 A  
HETATM    9  C   UNL     1     -10.614  11.678  63.527  1.00  0.00    -0.496 A  
ENDROOT
BRANCH   7  10
HETATM   10  S   UNL     1     -11.281  14.000  66.768  1.00  0.00    -0.326 S  
HETATM   11  O   UNL     1     -10.546  15.204  66.460  1.00  0.00    -0.291 OA 
HETATM   12  N   UNL     1     -12.845  14.259  66.216  1.00  0.00    -0.396 N  
HETATM   13  O   UNL     1     -11.414  13.498  68.116  1.00  0.00    -0.266 OA 
HETATM   14  H1  UNL     1     -13.164  15.011  66.826  1.00  0.00     0.000 HD 
HETATM   15  H2  UNL     1     -13.346  13.786  65.464  1.00  0.00     0.000 HD 
ENDBRANCH   7  10
TORSDOF 1
ENDMDL
MODEL       90
REMARK 921   NORMALIZED FREE ENERGY PREDICTED BY IDOCK:   -3.52 KCAL/MOL
REMARK 922        TOTAL FREE ENERGY PREDICTED BY IDOCK:   -3.77 KCAL/MOL
REMARK 923 INTER-LIGAND FREE ENERGY PREDICTED BY IDOCK:   -3.72 KCAL/MOL
REMARK 924 INTRA-LIGAND FREE ENERGY PREDICTED BY IDOCK:   -0.05 KCAL/MOL
REMARK 927      BINDING AFFINITY PREDICTED BY RF-SCORE:    0.00 PKD
ROOT
HETATM    1  N   UNL     1     -10.224  13.122  68.864  1.00  0.00    -0.431 NA 
HETATM    2  C   UNL     1     -10.236  14.488  68.563  1.00  0.00    -0.240 A  
HETATM    3  H2  UNL     1     -11.150  12.858  69.202  1.00  0.00     0.000 HD 
HETATM    4  H1  UNL     1      -9.933  12.444  68.158  1.00  0.00     0.000 HD 
HETATM    5  C   UNL     1     -10.634  15.417  69.530  1.00  0.00    -0.270 A  
HETATM    6  C   UNL     1     -10.551  16.789  69.280  1.00  0.00    -0.336 A  
HETATM    7  C   UNL     1     -10.014  17.236  68.072  1.00  0.00    -0.304 A  
HETATM    8  C   UNL     1      -9.556  16.324  67.121  1.00  0.00    -0.238 A  
HETATM    9  C   UNL     1      -9.645  14.955  67.383  1.00  0.00    -0.206 A  
ENDROOT
BRANCH   7  10
HETATM   10  S   UNL     1      -9.954  18.969  67.732  1.00  0.00    -0.380 S  
HETATM   11  O   UNL     1     -11.155  19.356  67.029  1.00  0.00    -0.420 OA 
HETATM   12  N   UNL     1     -10.084  19.633  69.268  1.00  0.00    -0.616 N  
HETATM   13  O   UNL     1      -8.635  19.319  67.260  1.00  0.00    -0.283 OA 
HETATM   14  H1  UNL     1     -10.049  20.634  69.072  1.00  0.00     0.000 HD 
HETATM   15  H2  UNL     1     -10.174  19.159  70.167  1.00  0.00     0.000 HD 
ENDBRANCH   7  10
TORSDOF 1
ENDMDL
MODEL       91
REMARK 921   NORMALIZED FREE ENERGY PREDICTED BY IDOCK:   -3.45 KCAL/MOL
REMARK 922        TOTAL FREE ENERGY PREDICTED BY IDOCK:   -3.71 KCAL/MOL
REMARK 923 INTER-LIGAND FREE ENERGY PREDICTED BY IDOCK:   -3.66 KCAL/MOL
REMARK 924 INTRA-LIGAND FREE ENERGY PREDICTED BY IDOCK:   -0.05 KCAL/MOL
REMARK 927      BINDING AFFINITY PREDICTED BY RF-SCORE:    0.00 PKD
ROOT
HETATM    1  N   UNL     1      -8.987  19.571  68.499  1.00  0.00    -0.356 NA 
HETATM    2  C   UNL     1      -9.380  18.334  67.975  1.00  0.00    -0.284 A  
HETATM    3  H2  UNL     1      -8.887  19.475  69.510  1.00  0.00     0.000 HD 
HETATM    4  H1  UNL     1      -8.158  20.041  68.136  1.00  0.00     0.000 HD 
HETATM    5  C   UNL     1     -10.517  17.690  68.472  1.00  0.00    -0.337 A  
HETATM    6  C   UNL     1     -10.981  16.508  67.889  1.00  0.00    -0.288 A  
HETATM    7  C   UNL     1     -10.334  15.997  66.763  1.00  0.00    -0.300 A  
HETATM    8  C   UNL     1      -9.234  16.660  66.218  1.00  0.00    -0.328 A  
HETATM    9  C   UNL     1      -8.780  17.841  66.811  1.00  0.00    -0.273 A  
ENDROOT
BRANCH   7  10
HETATM   10  S   UNL     1     -10.887  14.476  66.054  1.00  0.00    -0.319 S  
HETATM   11  O   UNL     1     -11.661  14.760  64.868  1.00  0.00    -0.375 OA 
HETATM   12  N   UNL     1      -9.449  13.797  65.516  1.00  0.00    -0.500 N  
HETATM   13  O   UNL     1     -11.368  13.607  67.101  1.00  0.00    -0.296 OA 
HETATM   14  H1  UNL     1      -9.768  12.919  65.106  1.00  0.00     0.000 HD 
HETATM   15  H2  UNL     1      -8.501  14.167  65.581  1.00  0.00     0.000 HD 
ENDBRANCH   7  10
TORSDOF 1
ENDMDL
MODEL       92
REMARK 921   NORMALIZED FREE ENERGY PREDICTED BY IDOCK:   -3.42 KCAL/MOL
REMARK 922        TOTAL FREE ENERGY PREDICTED BY IDOCK:   -3.67 KCAL/MOL
REMARK 923 INTER-LIGAND FREE ENERGY PREDICTED BY IDOCK:   -3.63 KCAL/MOL
REMARK 924 INTRA-LIGAND FREE ENERGY PREDICTED BY IDOCK:   -0.05 KCAL/MOL
REMARK 927      BINDING AFFINITY PREDICTED BY RF-SCORE:    0.00 PKD
ROOT
HETATM    1  N   UNL     1     -11.371  11.723  69.876  1.00  0.00    -0.491 NA 
HETATM    2  C   UNL     1     -11.297  10.444  70.439  1.00  0.00    -0.337 A  
HETATM    3  H2  UNL     1     -11.180  11.646  68.876  1.00  0.00     0.000 HD 
HETATM    4  H1  UNL     1     -12.211  12.289  70.001  1.00  0.00     0.000 HD 
HETATM    5  C   UNL     1     -10.147   9.667  70.268  1.00  0.00    -0.331 A  
HETATM    6  C   UNL     1     -10.016   8.434  70.912  1.00  0.00    -0.230 A  
HETATM    7  C   UNL     1     -11.020   8.000  71.777  1.00  0.00    -0.251 A  
HETATM    8  C   UNL     1     -12.148   8.790  72.005  1.00  0.00    -0.447 A  
HETATM    9  C   UNL     1     -12.267  10.021  71.356  1.00  0.00    -0.510 A  
ENDROOT
BRANCH   7  10
HETATM   10  S   UNL     1     -10.881   6.418  72.552  1.00  0.00    -0.250 S  
HETATM   11  O   UNL     1      -9.669   5.774  72.103  1.00  0.00    -0.153 OA 
HETATM   12  N   UNL     1     -10.615   6.836  74.156  1.00  0.00    -0.435 N  
HETATM   13  O   UNL     1     -12.165   5.757  72.524  1.00  0.00    -0.196 OA 
HETATM   14  H1  UNL     1     -10.534   5.923  74.604  1.00  0.00     0.000 HD 
HETATM   15  H2  UNL     1     -10.549   7.764  74.575  1.00  0.00     0.000 HD 
ENDBRANCH   7  10
TORSDOF 1
ENDMDL
MODEL       93
REMARK 921   NORMALIZED FREE ENERGY PREDICTED BY IDOCK:   -3.42 KCAL/MOL
REMARK 922        TOTAL FREE ENERGY PREDICTED BY IDOCK:   -3.67 KCAL/MOL
REMARK 923 INTER-LIGAND FREE ENERGY PREDICTED BY IDOCK:   -3.62 KCAL/MOL
REMARK 924 INTRA-LIGAND FREE ENERGY PREDICTED BY IDOCK:   -0.05 KCAL/MOL
REMARK 927      BINDING AFFINITY PREDICTED BY RF-SCORE:    0.00 PKD
ROOT
HETATM    1  N   UNL     1     -11.536  16.065  68.138  1.00  0.00    -0.304 NA 
HETATM    2  C   UNL     1     -10.478  16.812  67.608  1.00  0.00    -0.328 A  
HETATM    3  H2  UNL     1     -12.405  16.575  67.973  1.00  0.00     0.000 HD 
HETATM    4  H1  UNL     1     -11.672  15.095  67.849  1.00  0.00     0.000 HD 
HETATM    5  C   UNL     1     -10.291  18.141  68.003  1.00  0.00    -0.405 A  
HETATM    6  C   UNL     1      -9.179  18.866  67.566  1.00  0.00    -0.319 A  
HETATM    7  C   UNL     1      -8.219  18.240  66.771  1.00  0.00    -0.253 A  
HETATM    8  C   UNL     1      -8.359  16.897  66.418  1.00  0.00    -0.333 A  
HETATM    9  C   UNL     1      -9.475  16.183  66.862  1.00  0.00    -0.245 A  
ENDROOT
BRANCH   7  10
HETATM   10  S   UNL     1      -6.838  19.168  66.175  1.00  0.00    -0.245 S  
HETATM   11  O   UNL     1      -6.482  18.695  64.858  1.00  0.00    -0.494 OA 
HETATM   12  N   UNL     1      -7.510  20.691  65.953  1.00  0.00    -0.514 N  
HETATM   13  O   UNL     1      -5.867  19.314  67.234  1.00  0.00    -0.178 OA 
HETATM   14  H1  UNL     1      -6.713  21.227  65.608  1.00  0.00     0.000 HD 
HETATM   15  H2  UNL     1      -8.467  21.000  66.119  1.00  0.00     0.000 HD 
ENDBRANCH   7  10
TORSDOF 1
ENDMDL
MODEL       94
REMARK 921   NORMALIZED FREE ENERGY PREDICTED BY IDOCK:   -3.41 KCAL/MOL
REMARK 922        TOTAL FREE ENERGY PREDICTED BY IDOCK:   -3.66 KCAL/MOL
REMARK 923 INTER-LIGAND FREE ENERGY PREDICTED BY IDOCK:   -3.62 KCAL/MOL
REMARK 924 INTRA-LIGAND FREE ENERGY PREDICTED BY IDOCK:   -0.05 KCAL/MOL
REMARK 927      BINDING AFFINITY PREDICTED BY RF-SCORE:    0.00 PKD
ROOT
HETATM    1  N   UNL     1      -7.183  14.339  69.789  1.00  0.00    -0.371 NA 
HETATM    2  C   UNL     1      -7.799  15.542  69.426  1.00  0.00    -0.231 A  
HETATM    3  H2  UNL     1      -6.585  14.514  70.598  1.00  0.00     0.000 HD 
HETATM    4  H1  UNL     1      -7.748  13.511  69.980  1.00  0.00     0.000 HD 
HETATM    5  C   UNL     1      -7.024  16.677  69.165  1.00  0.00    -0.227 A  
HETATM    6  C   UNL     1      -7.615  17.854  68.699  1.00  0.00    -0.285 A  
HETATM    7  C   UNL     1      -8.986  17.879  68.441  1.00  0.00    -0.282 A  
HETATM    8  C   UNL     1      -9.764  16.737  68.639  1.00  0.00    -0.259 A  
HETATM    9  C   UNL     1      -9.161  15.567  69.105  1.00  0.00    -0.248 A  
ENDROOT
BRANCH   7  10
HETATM   10  S   UNL     1      -9.746  19.380  67.901  1.00  0.00    -0.375 S  
HETATM   11  O   UNL     1     -10.904  19.064  67.099  1.00  0.00    -0.462 OA 
HETATM   12  N   UNL     1     -10.338  20.011  69.340  1.00  0.00    -0.545 N  
HETATM   13  O   UNL     1      -8.725  20.300  67.457  1.00  0.00    -0.335 OA 
HETATM   14  H1  UNL     1     -10.776  20.878  69.029  1.00  0.00     0.000 HD 
HETATM   15  H2  UNL     1     -10.275  19.626  70.283  1.00  0.00     0.000 HD 
ENDBRANCH   7  10
TORSDOF 1
ENDMDL
MODEL       95
REMARK 921   NORMALIZED FREE ENERGY PREDICTED BY IDOCK:   -3.41 KCAL/MOL
REMARK 922        TOTAL FREE ENERGY PREDICTED BY IDOCK:   -3.66 KCAL/MOL
REMARK 923 INTER-LIGAND FREE ENERGY PREDICTED BY IDOCK:   -3.62 KCAL/MOL
REMARK 924 INTRA-LIGAND FREE ENERGY PREDICTED BY IDOCK:   -0.05 KCAL/MOL
REMARK 927      BINDING AFFINITY PREDICTED BY RF-SCORE:    0.00 PKD
ROOT
HETATM    1  N   UNL     1     -12.120  10.946  68.825  1.00  0.00    -0.763 NA 
HETATM    2  C   UNL     1     -11.648  10.004  69.747  1.00  0.00    -0.134 A  
HETATM    3  H2  UNL     1     -12.124  11.862  69.274  1.00  0.00     0.000 HD 
HETATM    4  H1  UNL     1     -11.674  11.037  67.912  1.00  0.00     0.000 HD 
HETATM    5  C   UNL     1     -12.260   9.879  70.998  1.00  0.00    -0.446 A  
HETATM    6  C   UNL     1     -11.870   8.874  71.887  1.00  0.00    -0.440 A  
HETATM    7  C   UNL     1     -10.897   7.952  71.498  1.00  0.00    -0.229 A  
HETATM    8  C   UNL     1     -10.320   8.026  70.229  1.00  0.00    -0.212 A  
HETATM    9  C   UNL     1     -10.719   9.036  69.351  1.00  0.00    -0.202 A  
ENDROOT
BRANCH   7  10
HETATM   10  S   UNL     1     -10.365   6.711  72.638  1.00  0.00    -0.205 S  
HETATM   11  O   UNL     1      -9.989   7.340  73.882  1.00  0.00    -0.311 OA 
HETATM   12  N   UNL     1     -11.793   5.886  72.950  1.00  0.00    -0.524 N  
HETATM   13  O   UNL     1      -9.507   5.772  71.955  1.00  0.00    -0.151 OA 
HETATM   14  H1  UNL     1     -11.486   5.170  73.608  1.00  0.00     0.000 HD 
HETATM   15  H2  UNL     1     -12.728   6.057  72.578  1.00  0.00     0.000 HD 
ENDBRANCH   7  10
TORSDOF 1
ENDMDL
MODEL       96
REMARK 921   NORMALIZED FREE ENERGY PREDICTED BY IDOCK:   -3.40 KCAL/MOL
REMARK 922        TOTAL FREE ENERGY PREDICTED BY IDOCK:   -3.65 KCAL/MOL
REMARK 923 INTER-LIGAND FREE ENERGY PREDICTED BY IDOCK:   -3.60 KCAL/MOL
REMARK 924 INTRA-LIGAND FREE ENERGY PREDICTED BY IDOCK:   -0.05 KCAL/MOL
REMARK 927      BINDING AFFINITY PREDICTED BY RF-SCORE:    0.00 PKD
ROOT
HETATM    1  N   UNL     1     -11.064  13.896  70.016  1.00  0.00    -0.465 NA 
HETATM    2  C   UNL     1     -10.575  15.094  69.481  1.00  0.00    -0.270 A  
HETATM    3  H2  UNL     1     -10.751  13.824  70.985  1.00  0.00     0.000 HD 
HETATM    4  H1  UNL     1     -12.063  13.691  69.984  1.00  0.00     0.000 HD 
HETATM    5  C   UNL     1      -9.206  15.375  69.525  1.00  0.00    -0.240 A  
HETATM    6  C   UNL     1      -8.690  16.515  68.903  1.00  0.00    -0.247 A  
HETATM    7  C   UNL     1      -9.545  17.352  68.184  1.00  0.00    -0.287 A  
HETATM    8  C   UNL     1     -10.904  17.053  68.080  1.00  0.00    -0.338 A  
HETATM    9  C   UNL     1     -11.407  15.911  68.707  1.00  0.00    -0.378 A  
ENDROOT
BRANCH   7  10
HETATM   10  S   UNL     1      -8.905  18.821  67.439  1.00  0.00    -0.271 S  
HETATM   11  O   UNL     1      -9.873  19.883  67.579  1.00  0.00    -0.357 OA 
HETATM   12  N   UNL     1      -7.638  19.213  68.469  1.00  0.00    -0.320 N  
HETATM   13  O   UNL     1      -8.298  18.489  66.172  1.00  0.00    -0.427 OA 
HETATM   14  H1  UNL     1      -7.268  20.061  68.039  1.00  0.00     0.000 HD 
HETATM   15  H2  UNL     1      -7.319  18.728  69.308  1.00  0.00     0.000 HD 
ENDBRANCH   7  10
TORSDOF 1
ENDMDL
MODEL       97
REMARK 921   NORMALIZED FREE ENERGY PREDICTED BY IDOCK:   -3.40 KCAL/MOL
REMARK 922        TOTAL FREE ENERGY PREDICTED BY IDOCK:   -3.64 KCAL/MOL
REMARK 923 INTER-LIGAND FREE ENERGY PREDICTED BY IDOCK:   -3.60 KCAL/MOL
REMARK 924 INTRA-LIGAND FREE ENERGY PREDICTED BY IDOCK:   -0.05 KCAL/MOL
REMARK 927      BINDING AFFINITY PREDICTED BY RF-SCORE:    0.00 PKD
ROOT
HETATM    1  N   UNL     1     -12.138  10.915  68.766  1.00  0.00    -0.763 NA 
HETATM    2  C   UNL     1     -11.390  10.679  67.607  1.00  0.00    -0.207 A  
HETATM    3  H2  UNL     1     -13.050  11.284  68.491  1.00  0.00     0.000 HD 
HETATM    4  H1  UNL     1     -12.284  10.166  69.442  1.00  0.00     0.000 HD 
HETATM    5  C   UNL     1     -11.190  11.706  66.679  1.00  0.00    -0.362 A  
HETATM    6  C   UNL     1     -10.359  11.516  65.571  1.00  0.00    -0.322 A  
HETATM    7  C   UNL     1      -9.680  10.307  65.421  1.00  0.00    -0.278 A  
HETATM    8  C   UNL     1      -9.822   9.293  66.370  1.00  0.00    -0.347 A  
HETATM    9  C   UNL     1     -10.656   9.495  67.472  1.00  0.00    -0.338 A  
ENDROOT
BRANCH   7  10
HETATM   10  S   UNL     1      -8.668  10.044  63.996  1.00  0.00    -0.227 S  
HETATM   11  O   UNL     1      -9.134  10.890  62.922  1.00  0.00    -0.252 OA 
HETATM   12  N   UNL     1      -7.197  10.688  64.487  1.00  0.00    -0.354 N  
HETATM   13  O   UNL     1      -8.443   8.629  63.823  1.00  0.00    -0.149 OA 
HETATM   14  H1  UNL     1      -6.614  10.537  63.664  1.00  0.00     0.000 HD 
HETATM   15  H2  UNL     1      -6.951  11.119  65.377  1.00  0.00     0.000 HD 
ENDBRANCH   7  10
TORSDOF 1
ENDMDL
MODEL       98
REMARK 921   NORMALIZED FREE ENERGY PREDICTED BY IDOCK:   -3.39 KCAL/MOL
REMARK 922        TOTAL FREE ENERGY PREDICTED BY IDOCK:   -3.64 KCAL/MOL
REMARK 923 INTER-LIGAND FREE ENERGY PREDICTED BY IDOCK:   -3.60 KCAL/MOL
REMARK 924 INTRA-LIGAND FREE ENERGY PREDICTED BY IDOCK:   -0.05 KCAL/MOL
REMARK 927      BINDING AFFINITY PREDICTED BY RF-SCORE:    0.00 PKD
ROOT
HETATM    1  N   UNL     1     -12.692  12.481  71.205  1.00  0.00    -0.324 NA 
HETATM    2  C   UNL     1     -12.145  13.123  70.089  1.00  0.00    -0.321 A  
HETATM    3  H2  UNL     1     -12.025  11.781  71.534  1.00  0.00     0.000 HD 
HETATM    4  H1  UNL     1     -13.007  13.027  72.007  1.00  0.00     0.000 HD 
HETATM    5  C   UNL     1     -11.714  12.373  68.989  1.00  0.00    -0.372 A  
HETATM    6  C   UNL     1     -11.264  13.004  67.826  1.00  0.00    -0.313 A  
HETATM    7  C   UNL     1     -11.298  14.397  67.743  1.00  0.00    -0.312 A  
HETATM    8  C   UNL     1     -11.782  15.158  68.809  1.00  0.00    -0.366 A  
HETATM    9  C   UNL     1     -12.228  14.514  69.965  1.00  0.00    -0.396 A  
ENDROOT
BRANCH   7  10
HETATM   10  S   UNL     1     -10.683  15.200  66.294  1.00  0.00    -0.325 S  
HETATM   11  O   UNL     1      -9.475  14.537  65.861  1.00  0.00    -0.274 OA 
HETATM   12  N   UNL     1     -11.855  14.815  65.156  1.00  0.00    -0.343 N  
HETATM   13  O   UNL     1     -10.758  16.631  66.473  1.00  0.00    -0.250 OA 
HETATM   14  H1  UNL     1     -11.500  15.279  64.319  1.00  0.00     0.000 HD 
HETATM   15  H2  UNL     1     -12.704  14.261  65.270  1.00  0.00     0.000 HD 
ENDBRANCH   7  10
TORSDOF 1
ENDMDL
MODEL       99
REMARK 921   NORMALIZED FREE ENERGY PREDICTED BY IDOCK:   -3.39 KCAL/MOL
REMARK 922        TOTAL FREE ENERGY PREDICTED BY IDOCK:   -3.64 KCAL/MOL
REMARK 923 INTER-LIGAND FREE ENERGY PREDICTED BY IDOCK:   -3.59 KCAL/MOL
REMARK 924 INTRA-LIGAND FREE ENERGY PREDICTED BY IDOCK:   -0.05 KCAL/MOL
REMARK 927      BINDING AFFINITY PREDICTED BY RF-SCORE:    0.00 PKD
ROOT
HETATM    1  N   UNL     1     -10.957   9.404  67.701  1.00  0.00    -0.475 NA 
HETATM    2  C   UNL     1     -10.876  10.699  68.227  1.00  0.00    -0.241 A  
HETATM    3  H2  UNL     1     -10.046   8.956  67.807  1.00  0.00     0.000 HD 
HETATM    4  H1  UNL     1     -11.673   8.760  68.036  1.00  0.00     0.000 HD 
HETATM    5  C   UNL     1      -9.893  11.582  67.767  1.00  0.00    -0.186 A  
HETATM    6  C   UNL     1      -9.866  12.910  68.204  1.00  0.00    -0.227 A  
HETATM    7  C   UNL     1     -10.863  13.371  69.064  1.00  0.00    -0.183 A  
HETATM    8  C   UNL     1     -11.885  12.518  69.485  1.00  0.00    -0.375 A  
HETATM    9  C   UNL     1     -11.900  11.194  69.041  1.00  0.00    -0.418 A  
ENDROOT
BRANCH   7  10
HETATM   10  S   UNL     1     -10.802  15.034  69.658  1.00  0.00    -0.263 S  
HETATM   11  O   UNL     1     -11.844  15.804  69.020  1.00  0.00    -0.391 OA 
HETATM   12  N   UNL     1     -11.277  14.852  71.259  1.00  0.00    -0.559 N  
HETATM   13  O   UNL     1      -9.428  15.477  69.701  1.00  0.00    -0.273 OA 
HETATM   14  H1  UNL     1     -11.242  15.812  71.602  1.00  0.00     0.000 HD 
HETATM   15  H2  UNL     1     -11.534  14.001  71.759  1.00  0.00     0.000 HD 
ENDBRANCH   7  10
TORSDOF 1
ENDMDL
MODEL      100
REMARK 921   NORMALIZED FREE ENERGY PREDICTED BY IDOCK:   -3.36 KCAL/MOL
REMARK 922        TOTAL FREE ENERGY PREDICTED BY IDOCK:   -3.61 KCAL/MOL
REMARK 923 INTER-LIGAND FREE ENERGY PREDICTED BY IDOCK:   -3.56 KCAL/MOL
REMARK 924 INTRA-LIGAND FREE ENERGY PREDICTED BY IDOCK:   -0.05 KCAL/MOL
REMARK 927      BINDING AFFINITY PREDICTED BY RF-SCORE:    0.00 PKD
ROOT
HETATM    1  N   UNL     1     -12.206  11.987  70.696  1.00  0.00    -0.393 NA 
HETATM    2  C   UNL     1     -11.629  11.723  69.448  1.00  0.00    -0.322 A  
HETATM    3  H2  UNL     1     -11.568  11.658  71.422  1.00  0.00     0.000 HD 
HETATM    4  H1  UNL     1     -12.501  12.935  70.932  1.00  0.00     0.000 HD 
HETATM    5  C   UNL     1     -11.224  10.424  69.123  1.00  0.00    -0.301 A  
HETATM    6  C   UNL     1     -10.746  10.123  67.846  1.00  0.00    -0.317 A  
HETATM    7  C   UNL     1     -10.724  11.119  66.868  1.00  0.00    -0.274 A  
HETATM    8  C   UNL     1     -11.181  12.405  67.158  1.00  0.00    -0.353 A  
HETATM    9  C   UNL     1     -11.656  12.693  68.440  1.00  0.00    -0.370 A  
ENDROOT
BRANCH   7  10
HETATM   10  S   UNL     1     -10.072  10.755  65.266  1.00  0.00    -0.295 S  
HETATM   11  O   UNL     1     -10.866  11.429  64.266  1.00  0.00    -0.342 OA 
HETATM   12  N   UNL     1      -8.595  11.554  65.299  1.00  0.00    -0.365 N  
HETATM   13  O   UNL     1      -9.758   9.348  65.186  1.00  0.00    -0.229 OA 
HETATM   14  H1  UNL     1      -8.219  11.345  64.375  1.00  0.00     0.000 HD 
HETATM   15  H2  UNL     1      -8.182  12.108  66.050  1.00  0.00     0.000 HD 
ENDBRANCH   7  10
TORSDOF 1
ENDMDL
MODEL      101
REMARK 921   NORMALIZED FREE ENERGY PREDICTED BY IDOCK:   -3.35 KCAL/MOL
REMARK 922        TOTAL FREE ENERGY PREDICTED BY IDOCK:   -3.60 KCAL/MOL
REMARK 923 INTER-LIGAND FREE ENERGY PREDICTED BY IDOCK:   -3.55 KCAL/MOL
REMARK 924 INTRA-LIGAND FREE ENERGY PREDICTED BY IDOCK:   -0.05 KCAL/MOL
REMARK 927      BINDING AFFINITY PREDICTED BY RF-SCORE:    0.00 PKD
ROOT
HETATM    1  N   UNL     1      -5.126  19.023  64.834  1.00  0.00    -0.154 NA 
HETATM    2  C   UNL     1      -6.400  18.943  65.409  1.00  0.00    -0.283 A  
HETATM    3  H2  UNL     1      -5.070  18.340  64.078  1.00  0.00     0.000 HD 
HETATM    4  H1  UNL     1      -4.776  19.916  64.488  1.00  0.00     0.000 HD 
HETATM    5  C   UNL     1      -6.879  17.718  65.884  1.00  0.00    -0.290 A  
HETATM    6  C   UNL     1      -8.103  17.641  66.555  1.00  0.00    -0.306 A  
HETATM    7  C   UNL     1      -8.826  18.809  66.801  1.00  0.00    -0.305 A  
HETATM    8  C   UNL     1      -8.332  20.047  66.387  1.00  0.00    -0.338 A  
HETATM    9  C   UNL     1      -7.108  20.109  65.717  1.00  0.00    -0.311 A  
ENDROOT
BRANCH   7  10
HETATM   10  S   UNL     1     -10.397  18.710  67.604  1.00  0.00    -0.426 S  
HETATM   11  O   UNL     1     -10.717  17.324  67.851  1.00  0.00    -0.372 OA 
HETATM   12  N   UNL     1     -10.066  19.384  69.106  1.00  0.00    -0.586 N  
HETATM   13  O   UNL     1     -11.320  19.614  66.959  1.00  0.00    -0.181 OA 
HETATM   14  H1  UNL     1     -10.973  19.327  69.569  1.00  0.00     0.000 HD 
HETATM   15  H2  UNL     1      -9.185  19.754  69.463  1.00  0.00     0.000 HD 
ENDBRANCH   7  10
TORSDOF 1
ENDMDL
MODEL      102
REMARK 921   NORMALIZED FREE ENERGY PREDICTED BY IDOCK:   -3.35 KCAL/MOL
REMARK 922        TOTAL FREE ENERGY PREDICTED BY IDOCK:   -3.60 KCAL/MOL
REMARK 923 INTER-LIGAND FREE ENERGY PREDICTED BY IDOCK:   -3.55 KCAL/MOL
REMARK 924 INTRA-LIGAND FREE ENERGY PREDICTED BY IDOCK:   -0.05 KCAL/MOL
REMARK 927      BINDING AFFINITY PREDICTED BY RF-SCORE:    0.00 PKD
ROOT
HETATM    1  N   UNL     1      -7.890   7.627  65.520  1.00  0.00    -0.105 NA 
HETATM    2  C   UNL     1      -8.775   8.679  65.260  1.00  0.00    -0.165 A  
HETATM    3  H2  UNL     1      -8.424   6.841  65.892  1.00  0.00     0.000 HD 
HETATM    4  H1  UNL     1      -7.278   7.279  64.781  1.00  0.00     0.000 HD 
HETATM    5  C   UNL     1      -9.614   9.156  66.273  1.00  0.00    -0.321 A  
HETATM    6  C   UNL     1     -10.426  10.274  66.060  1.00  0.00    -0.181 A  
HETATM    7  C   UNL     1     -10.356  10.952  64.843  1.00  0.00    -0.304 A  
HETATM    8  C   UNL     1      -9.480  10.525  63.844  1.00  0.00    -0.338 A  
HETATM    9  C   UNL     1      -8.674   9.407  64.069  1.00  0.00    -0.225 A  
ENDROOT
BRANCH   7  10
HETATM   10  S   UNL     1     -11.418  12.335  64.552  1.00  0.00    -0.354 S  
HETATM   11  O   UNL     1     -12.378  12.430  65.626  1.00  0.00    -0.639 OA 
HETATM   12  N   UNL     1     -10.369  13.630  64.753  1.00  0.00    -0.512 N  
HETATM   13  O   UNL     1     -11.808  12.354  63.161  1.00  0.00    -0.410 OA 
HETATM   14  H1  UNL     1     -10.982  14.429  64.585  1.00  0.00     0.000 HD 
HETATM   15  H2  UNL     1      -9.376  13.622  64.984  1.00  0.00     0.000 HD 
ENDBRANCH   7  10
TORSDOF 1
ENDMDL
MODEL      103
REMARK 921   NORMALIZED FREE ENERGY PREDICTED BY IDOCK:   -3.30 KCAL/MOL
REMARK 922        TOTAL FREE ENERGY PREDICTED BY IDOCK:   -3.54 KCAL/MOL
REMARK 923 INTER-LIGAND FREE ENERGY PREDICTED BY IDOCK:   -3.50 KCAL/MOL
REMARK 924 INTRA-LIGAND FREE ENERGY PREDICTED BY IDOCK:   -0.05 KCAL/MOL
REMARK 927      BINDING AFFINITY PREDICTED BY RF-SCORE:    0.00 PKD
ROOT
HETATM    1  N   UNL     1     -10.088  10.253  67.015  1.00  0.00    -0.208 NA 
HETATM    2  C   UNL     1     -10.559   9.661  68.193  1.00  0.00    -0.226 A  
HETATM    3  H2  UNL     1     -10.499   9.761  66.220  1.00  0.00     0.000 HD 
HETATM    4  H1  UNL     1     -10.201  11.256  66.865  1.00  0.00     0.000 HD 
HETATM    5  C   UNL     1     -10.404   8.286  68.398  1.00  0.00    -0.237 A  
HETATM    6  C   UNL     1     -10.772   7.699  69.611  1.00  0.00    -0.230 A  
HETATM    7  C   UNL     1     -11.247   8.504  70.648  1.00  0.00    -0.252 A  
HETATM    8  C   UNL     1     -11.351   9.886  70.480  1.00  0.00    -0.399 A  
HETATM    9  C   UNL     1     -10.980  10.460  69.262  1.00  0.00    -0.287 A  
ENDROOT
BRANCH   7  10
HETATM   10  S   UNL     1     -11.761   7.759  72.165  1.00  0.00    -0.336 S  
HETATM   11  O   UNL     1     -10.731   7.948  73.160  1.00  0.00    -0.368 OA 
HETATM   12  N   UNL     1     -13.037   8.748  72.627  1.00  0.00    -0.608 N  
HETATM   13  O   UNL     1     -12.343   6.466  71.890  1.00  0.00    -0.345 OA 
HETATM   14  H1  UNL     1     -13.333   8.319  73.503  1.00  0.00     0.000 HD 
HETATM   15  H2  UNL     1     -13.416   9.568  72.154  1.00  0.00     0.000 HD 
ENDBRANCH   7  10
TORSDOF 1
ENDMDL
MODEL      104
REMARK 921   NORMALIZED FREE ENERGY PREDICTED BY IDOCK:   -3.29 KCAL/MOL
REMARK 922        TOTAL FREE ENERGY PREDICTED BY IDOCK:   -3.54 KCAL/MOL
REMARK 923 INTER-LIGAND FREE ENERGY PREDICTED BY IDOCK:   -3.49 KCAL/MOL
REMARK 924 INTRA-LIGAND FREE ENERGY PREDICTED BY IDOCK:   -0.05 KCAL/MOL
REMARK 927      BINDING AFFINITY PREDICTED BY RF-SCORE:    0.00 PKD
ROOT
HETATM    1  N   UNL     1     -12.199  12.022  70.548  1.00  0.00    -0.361 NA 
HETATM    2  C   UNL     1     -11.831  12.996  69.613  1.00  0.00    -0.319 A  
HETATM    3  H2  UNL     1     -13.185  12.152  70.779  1.00  0.00     0.000 HD 
HETATM    4  H1  UNL     1     -12.044  11.033  70.346  1.00  0.00     0.000 HD 
HETATM    5  C   UNL     1     -12.043  14.350  69.890  1.00  0.00    -0.398 A  
HETATM    6  C   UNL     1     -11.586  15.338  69.014  1.00  0.00    -0.360 A  
HETATM    7  C   UNL     1     -10.862  14.970  67.880  1.00  0.00    -0.280 A  
HETATM    8  C   UNL     1     -10.589  13.626  67.620  1.00  0.00    -0.245 A  
HETATM    9  C   UNL     1     -11.052  12.648  68.503  1.00  0.00    -0.300 A  
ENDROOT
BRANCH   7  10
HETATM   10  S   UNL     1     -10.326  16.213  66.744  1.00  0.00    -0.290 S  
HETATM   11  O   UNL     1     -10.377  17.503  67.393  1.00  0.00    -0.329 OA 
HETATM   12  N   UNL     1      -8.696  15.849  66.569  1.00  0.00    -0.287 N  
HETATM   13  O   UNL     1     -10.926  15.972  65.453  1.00  0.00    -0.321 OA 
HETATM   14  H1  UNL     1      -8.387  16.567  65.914  1.00  0.00     0.000 HD 
HETATM   15  H2  UNL     1      -8.155  15.103  67.006  1.00  0.00     0.000 HD 
ENDBRANCH   7  10
TORSDOF 1
ENDMDL
MODEL      105
REMARK 921   NORMALIZED FREE ENERGY PREDICTED BY IDOCK:   -3.25 KCAL/MOL
REMARK 922        TOTAL FREE ENERGY PREDICTED BY IDOCK:   -3.49 KCAL/MOL
REMARK 923 INTER-LIGAND FREE ENERGY PREDICTED BY IDOCK:   -3.44 KCAL/MOL
REMARK 924 INTRA-LIGAND FREE ENERGY PREDICTED BY IDOCK:   -0.05 KCAL/MOL
REMARK 927      BINDING AFFINITY PREDICTED BY RF-SCORE:    0.00 PKD
ROOT
HETATM    1  N   UNL     1     -10.058  13.921  64.929  1.00  0.00    -0.606 NA 
HETATM    2  C   UNL     1     -10.091  13.022  66.002  1.00  0.00    -0.284 A  
HETATM    3  H2  UNL     1      -9.082  14.126  64.711  1.00  0.00     0.000 HD 
HETATM    4  H1  UNL     1     -10.543  13.698  64.059  1.00  0.00     0.000 HD 
HETATM    5  C   UNL     1      -9.427  13.328  67.194  1.00  0.00    -0.240 A  
HETATM    6  C   UNL     1      -9.538  12.492  68.308  1.00  0.00    -0.209 A  
HETATM    7  C   UNL     1     -10.365  11.370  68.245  1.00  0.00    -0.194 A  
HETATM    8  C   UNL     1     -11.082  11.083  67.083  1.00  0.00    -0.333 A  
HETATM    9  C   UNL     1     -10.962  11.927  65.976  1.00  0.00    -0.355 A  
ENDROOT
BRANCH   7  10
HETATM   10  S   UNL     1     -10.468  10.283  69.635  1.00  0.00    -0.252 S  
HETATM   11  O   UNL     1     -11.468  10.778  70.551  1.00  0.00    -0.313 OA 
HETATM   12  N   UNL     1     -11.117   8.895  68.947  1.00  0.00    -0.433 N  
HETATM   13  O   UNL     1      -9.136   9.926  70.062  1.00  0.00    -0.225 OA 
HETATM   14  H1  UNL     1     -11.177   8.268  69.749  1.00  0.00     0.000 HD 
HETATM   15  H2  UNL     1     -11.384   8.724  67.978  1.00  0.00     0.000 HD 
ENDBRANCH   7  10
TORSDOF 1
ENDMDL
MODEL      106
REMARK 921   NORMALIZED FREE ENERGY PREDICTED BY IDOCK:   -3.24 KCAL/MOL
REMARK 922        TOTAL FREE ENERGY PREDICTED BY IDOCK:   -3.48 KCAL/MOL
REMARK 923 INTER-LIGAND FREE ENERGY PREDICTED BY IDOCK:   -3.43 KCAL/MOL
REMARK 924 INTRA-LIGAND FREE ENERGY PREDICTED BY IDOCK:   -0.05 KCAL/MOL
REMARK 927      BINDING AFFINITY PREDICTED BY RF-SCORE:    0.00 PKD
ROOT
HETATM    1  N   UNL     1     -12.972   9.257  72.744  1.00  0.00    -0.438 NA 
HETATM    2  C   UNL     1     -12.367   9.890  71.652  1.00  0.00    -0.406 A  
HETATM    3  H2  UNL     1     -12.253   9.061  73.442  1.00  0.00     0.000 HD 
HETATM    4  H1  UNL     1     -13.766   9.694  73.213  1.00  0.00     0.000 HD 
HETATM    5  C   UNL     1     -11.278   9.291  71.009  1.00  0.00    -0.392 A  
HETATM    6  C   UNL     1     -10.732   9.857  69.854  1.00  0.00    -0.318 A  
HETATM    7  C   UNL     1     -11.313  11.001  69.308  1.00  0.00    -0.282 A  
HETATM    8  C   UNL     1     -12.437  11.577  69.903  1.00  0.00    -0.159 A  
HETATM    9  C   UNL     1     -12.973  11.001  71.057  1.00  0.00    -0.369 A  
ENDROOT
BRANCH   7  10
HETATM   10  S   UNL     1     -10.594  11.749  67.877  1.00  0.00    -0.210 S  
HETATM   11  O   UNL     1      -9.889  12.946  68.271  1.00  0.00    -0.225 OA 
HETATM   12  N   UNL     1      -9.411  10.634  67.457  1.00  0.00    -0.146 N  
HETATM   13  O   UNL     1     -11.552  11.735  66.797  1.00  0.00    -0.489 OA 
HETATM   14  H1  UNL     1      -8.995  11.065  66.631  1.00  0.00     0.000 HD 
HETATM   15  H2  UNL     1      -9.170   9.752  67.910  1.00  0.00     0.000 HD 
ENDBRANCH   7  10
TORSDOF 1
ENDMDL
MODEL      107
REMARK 921   NORMALIZED FREE ENERGY PREDICTED BY IDOCK:   -3.22 KCAL/MOL
REMARK 922        TOTAL FREE ENERGY PREDICTED BY IDOCK:   -3.46 KCAL/MOL
REMARK 923 INTER-LIGAND FREE ENERGY PREDICTED BY IDOCK:   -3.41 KCAL/MOL
REMARK 924 INTRA-LIGAND FREE ENERGY PREDICTED BY IDOCK:   -0.05 KCAL/MOL
REMARK 927      BINDING AFFINITY PREDICTED BY RF-SCORE:    0.00 PKD
ROOT
HETATM    1  N   UNL     1      -9.713  10.812  67.477  1.00  0.00    -0.165 NA 
HETATM    2  C   UNL     1     -10.335  10.204  68.573  1.00  0.00    -0.180 A  
HETATM    3  H2  UNL     1      -9.305  11.695  67.787  1.00  0.00     0.000 HD 
HETATM    4  H1  UNL     1      -9.010  10.304  66.939  1.00  0.00     0.000 HD 
HETATM    5  C   UNL     1     -11.298  10.900  69.310  1.00  0.00    -0.345 A  
HETATM    6  C   UNL     1     -12.003  10.271  70.340  1.00  0.00    -0.391 A  
HETATM    7  C   UNL     1     -11.780   8.918  70.598  1.00  0.00    -0.179 A  
HETATM    8  C   UNL     1     -10.866   8.193  69.833  1.00  0.00    -0.215 A  
HETATM    9  C   UNL     1     -10.168   8.834  68.806  1.00  0.00    -0.224 A  
ENDROOT
BRANCH   7  10
HETATM   10  S   UNL     1     -12.632   8.133  71.932  1.00  0.00    -0.340 S  
HETATM   11  O   UNL     1     -13.188   6.883  71.470  1.00  0.00    -0.345 OA 
HETATM   12  N   UNL     1     -11.370   7.725  72.962  1.00  0.00    -0.567 N  
HETATM   13  O   UNL     1     -13.419   9.114  72.641  1.00  0.00    -0.463 OA 
HETATM   14  H1  UNL     1     -11.861   7.271  73.732  1.00  0.00     0.000 HD 
HETATM   15  H2  UNL     1     -10.369   7.888  72.847  1.00  0.00     0.000 HD 
ENDBRANCH   7  10
TORSDOF 1
ENDMDL
MODEL      108
REMARK 921   NORMALIZED FREE ENERGY PREDICTED BY IDOCK:   -3.22 KCAL/MOL
REMARK 922        TOTAL FREE ENERGY PREDICTED BY IDOCK:   -3.46 KCAL/MOL
REMARK 923 INTER-LIGAND FREE ENERGY PREDICTED BY IDOCK:   -3.41 KCAL/MOL
REMARK 924 INTRA-LIGAND FREE ENERGY PREDICTED BY IDOCK:   -0.05 KCAL/MOL
REMARK 927      BINDING AFFINITY PREDICTED BY RF-SCORE:    0.00 PKD
ROOT
HETATM    1  N   UNL     1     -11.127   9.765  67.859  1.00  0.00    -0.504 NA 
HETATM    2  C   UNL     1     -11.087  11.032  67.267  1.00  0.00    -0.294 A  
HETATM    3  H2  UNL     1     -12.096   9.552  68.100  1.00  0.00     0.000 HD 
HETATM    4  H1  UNL     1     -10.732   8.959  67.373  1.00  0.00     0.000 HD 
HETATM    5  C   UNL     1     -11.629  12.136  67.934  1.00  0.00    -0.413 A  
HETATM    6  C   UNL     1     -11.503  13.423  67.404  1.00  0.00    -0.368 A  
HETATM    7  C   UNL     1     -10.781  13.613  66.225  1.00  0.00    -0.285 A  
HETATM    8  C   UNL     1     -10.183  12.530  65.579  1.00  0.00    -0.295 A  
HETATM    9  C   UNL     1     -10.317  11.248  66.119  1.00  0.00    -0.300 A  
ENDROOT
BRANCH   7  10
HETATM   10  S   UNL     1     -10.663  15.231  65.525  1.00  0.00    -0.397 S  
HETATM   11  O   UNL     1      -9.343  15.412  64.969  1.00  0.00     0.139 OA 
HETATM   12  N   UNL     1     -11.706  15.124  64.214  1.00  0.00    -0.686 N  
HETATM   13  O   UNL     1     -11.260  16.187  66.428  1.00  0.00    -0.008 OA 
HETATM   14  H1  UNL     1     -11.638  16.058  63.810  1.00  0.00     0.000 HD 
HETATM   15  H2  UNL     1     -12.264  14.329  63.902  1.00  0.00     0.000 HD 
ENDBRANCH   7  10
TORSDOF 1
ENDMDL
MODEL      109
REMARK 921   NORMALIZED FREE ENERGY PREDICTED BY IDOCK:   -3.21 KCAL/MOL
REMARK 922        TOTAL FREE ENERGY PREDICTED BY IDOCK:   -3.44 KCAL/MOL
REMARK 923 INTER-LIGAND FREE ENERGY PREDICTED BY IDOCK:   -3.40 KCAL/MOL
REMARK 924 INTRA-LIGAND FREE ENERGY PREDICTED BY IDOCK:   -0.05 KCAL/MOL
REMARK 927      BINDING AFFINITY PREDICTED BY RF-SCORE:    0.00 PKD
ROOT
HETATM    1  N   UNL     1      -9.907   9.355  65.427  1.00  0.00    -0.445 NA 
HETATM    2  C   UNL     1     -10.387   9.352  66.741  1.00  0.00    -0.233 A  
HETATM    3  H2  UNL     1     -10.409   8.640  64.899  1.00  0.00     0.000 HD 
HETATM    4  H1  UNL     1      -9.909  10.218  64.883  1.00  0.00     0.000 HD 
HETATM    5  C   UNL     1     -10.384   8.169  67.487  1.00  0.00    -0.330 A  
HETATM    6  C   UNL     1     -10.760   8.172  68.833  1.00  0.00    -0.090 A  
HETATM    7  C   UNL     1     -11.090   9.378  69.452  1.00  0.00    -0.076 A  
HETATM    8  C   UNL     1     -11.041  10.576  68.738  1.00  0.00    -0.315 A  
HETATM    9  C   UNL     1     -10.663  10.559  67.393  1.00  0.00    -0.334 A  
ENDROOT
BRANCH   7  10
HETATM   10  S   UNL     1     -11.616   9.379  71.139  1.00  0.00    -0.375 S  
HETATM   11  O   UNL     1     -12.361  10.587  71.403  1.00  0.00    -0.365 OA 
HETATM   12  N   UNL     1     -12.739   8.130  71.157  1.00  0.00    -0.494 N  
HETATM   13  O   UNL     1     -10.526   8.942  71.979  1.00  0.00    -0.338 OA 
HETATM   14  H1  UNL     1     -13.042   8.131  72.131  1.00  0.00     0.000 HD 
HETATM   15  H2  UNL     1     -13.040   7.527  70.391  1.00  0.00     0.000 HD 
ENDBRANCH   7  10
TORSDOF 1
ENDMDL
MODEL      110
REMARK 921   NORMALIZED FREE ENERGY PREDICTED BY IDOCK:   -3.20 KCAL/MOL
REMARK 922        TOTAL FREE ENERGY PREDICTED BY IDOCK:   -3.44 KCAL/MOL
REMARK 923 INTER-LIGAND FREE ENERGY PREDICTED BY IDOCK:   -3.39 KCAL/MOL
REMARK 924 INTRA-LIGAND FREE ENERGY PREDICTED BY IDOCK:   -0.05 KCAL/MOL
REMARK 927      BINDING AFFINITY PREDICTED BY RF-SCORE:    0.00 PKD
ROOT
HETATM    1  N   UNL     1     -11.535  15.828  67.781  1.00  0.00    -0.241 NA 
HETATM    2  C   UNL     1     -11.139  14.722  67.019  1.00  0.00    -0.333 A  
HETATM    3  H2  UNL     1     -11.101  16.663  67.387  1.00  0.00     0.000 HD 
HETATM    4  H1  UNL     1     -12.527  16.019  67.928  1.00  0.00     0.000 HD 
HETATM    5  C   UNL     1      -9.780  14.460  66.818  1.00  0.00    -0.278 A  
HETATM    6  C   UNL     1      -9.368  13.303  66.150  1.00  0.00    -0.081 A  
HETATM    7  C   UNL     1     -10.321  12.375  65.730  1.00  0.00    -0.263 A  
HETATM    8  C   UNL     1     -11.677  12.593  65.977  1.00  0.00    -0.470 A  
HETATM    9  C   UNL     1     -12.076  13.753  66.645  1.00  0.00    -0.471 A  
ENDROOT
BRANCH   7  10
HETATM   10  S   UNL     1      -9.807  10.937  64.841  1.00  0.00    -0.310 S  
HETATM   11  O   UNL     1     -10.096  11.118  63.438  1.00  0.00    -0.326 OA 
HETATM   12  N   UNL     1      -8.136  11.016  64.983  1.00  0.00    -0.361 N  
HETATM   13  O   UNL     1     -10.210   9.756  65.568  1.00  0.00    -0.256 OA 
HETATM   14  H1  UNL     1      -7.839  10.186  64.470  1.00  0.00     0.000 HD 
HETATM   15  H2  UNL     1      -7.565  11.714  65.459  1.00  0.00     0.000 HD 
ENDBRANCH   7  10
TORSDOF 1
ENDMDL
MODEL      111
REMARK 921   NORMALIZED FREE ENERGY PREDICTED BY IDOCK:   -3.20 KCAL/MOL
REMARK 922        TOTAL FREE ENERGY PREDICTED BY IDOCK:   -3.44 KCAL/MOL
REMARK 923 INTER-LIGAND FREE ENERGY PREDICTED BY IDOCK:   -3.39 KCAL/MOL
REMARK 924 INTRA-LIGAND FREE ENERGY PREDICTED BY IDOCK:   -0.05 KCAL/MOL
REMARK 927      BINDING AFFINITY PREDICTED BY RF-SCORE:    0.00 PKD
ROOT
HETATM    1  N   UNL     1      -8.404  13.085  68.654  1.00  0.00    -0.342 NA 
HETATM    2  C   UNL     1      -8.785  14.374  68.266  1.00  0.00    -0.180 A  
HETATM    3  H2  UNL     1      -8.901  12.847  69.514  1.00  0.00     0.000 HD 
HETATM    4  H1  UNL     1      -8.498  12.305  68.002  1.00  0.00     0.000 HD 
HETATM    5  C   UNL     1      -8.656  15.443  69.160  1.00  0.00    -0.242 A  
HETATM    6  C   UNL     1      -8.931  16.751  68.753  1.00  0.00    -0.254 A  
HETATM    7  C   UNL     1      -9.284  16.999  67.426  1.00  0.00    -0.234 A  
HETATM    8  C   UNL     1      -9.359  15.951  66.507  1.00  0.00    -0.306 A  
HETATM    9  C   UNL     1      -9.081  14.648  66.926  1.00  0.00    -0.272 A  
ENDROOT
BRANCH   7  10
HETATM   10  S   UNL     1      -9.682  18.645  66.921  1.00  0.00    -0.331 S  
HETATM   11  O   UNL     1     -10.189  19.380  68.056  1.00  0.00    -0.379 OA 
HETATM   12  N   UNL     1      -8.166  19.287  66.594  1.00  0.00    -0.279 N  
HETATM   13  O   UNL     1     -10.375  18.602  65.655  1.00  0.00    -0.572 OA 
HETATM   14  H1  UNL     1      -8.395  20.237  66.303  1.00  0.00     0.000 HD 
HETATM   15  H2  UNL     1      -7.251  18.842  66.668  1.00  0.00     0.000 HD 
ENDBRANCH   7  10
TORSDOF 1
ENDMDL
MODEL      112
REMARK 921   NORMALIZED FREE ENERGY PREDICTED BY IDOCK:   -3.18 KCAL/MOL
REMARK 922        TOTAL FREE ENERGY PREDICTED BY IDOCK:   -3.42 KCAL/MOL
REMARK 923 INTER-LIGAND FREE ENERGY PREDICTED BY IDOCK:   -3.37 KCAL/MOL
REMARK 924 INTRA-LIGAND FREE ENERGY PREDICTED BY IDOCK:   -0.05 KCAL/MOL
REMARK 927      BINDING AFFINITY PREDICTED BY RF-SCORE:    0.00 PKD
ROOT
HETATM    1  N   UNL     1     -10.735  18.260  68.797  1.00  0.00    -0.249 NA 
HETATM    2  C   UNL     1     -10.644  16.888  68.537  1.00  0.00    -0.367 A  
HETATM    3  H2  UNL     1     -10.950  18.387  69.786  1.00  0.00     0.000 HD 
HETATM    4  H1  UNL     1      -9.961  18.880  68.554  1.00  0.00     0.000 HD 
HETATM    5  C   UNL     1     -11.704  16.039  68.870  1.00  0.00    -0.322 A  
HETATM    6  C   UNL     1     -11.673  14.686  68.522  1.00  0.00    -0.348 A  
HETATM    7  C   UNL     1     -10.596  14.191  67.786  1.00  0.00    -0.243 A  
HETATM    8  C   UNL     1      -9.558  15.038  67.393  1.00  0.00    -0.205 A  
HETATM    9  C   UNL     1      -9.602  16.388  67.748  1.00  0.00    -0.231 A  
ENDROOT
BRANCH   7  10
HETATM   10  S   UNL     1     -10.528  12.471  67.387  1.00  0.00    -0.221 S  
HETATM   11  O   UNL     1      -9.430  12.237  66.478  1.00  0.00    -0.226 OA 
HETATM   12  N   UNL     1     -10.068  11.790  68.851  1.00  0.00    -0.394 N  
HETATM   13  O   UNL     1     -11.864  11.987  67.128  1.00  0.00    -0.565 OA 
HETATM   14  H1  UNL     1     -10.029  10.797  68.622  1.00  0.00     0.000 HD 
HETATM   15  H2  UNL     1      -9.876  12.250  69.741  1.00  0.00     0.000 HD 
ENDBRANCH   7  10
TORSDOF 1
ENDMDL
MODEL      113
REMARK 921   NORMALIZED FREE ENERGY PREDICTED BY IDOCK:   -3.17 KCAL/MOL
REMARK 922        TOTAL FREE ENERGY PREDICTED BY IDOCK:   -3.41 KCAL/MOL
REMARK 923 INTER-LIGAND FREE ENERGY PREDICTED BY IDOCK:   -3.36 KCAL/MOL
REMARK 924 INTRA-LIGAND FREE ENERGY PREDICTED BY IDOCK:   -0.05 KCAL/MOL
REMARK 927      BINDING AFFINITY PREDICTED BY RF-SCORE:    0.00 PKD
ROOT
HETATM    1  N   UNL     1      -8.757   4.232  70.240  1.00  0.00    -0.076 NA 
HETATM    2  C   UNL     1      -9.703   5.202  70.589  1.00  0.00    -0.192 A  
HETATM    3  H2  UNL     1      -8.129   4.631  69.541  1.00  0.00     0.000 HD 
HETATM    4  H1  UNL     1      -8.192   3.784  70.962  1.00  0.00     0.000 HD 
HETATM    5  C   UNL     1     -10.477   5.816  69.599  1.00  0.00    -0.363 A  
HETATM    6  C   UNL     1     -11.497   6.708  69.941  1.00  0.00    -0.414 A  
HETATM    7  C   UNL     1     -11.781   6.945  71.286  1.00  0.00    -0.328 A  
HETATM    8  C   UNL     1     -11.057   6.295  72.287  1.00  0.00    -0.311 A  
HETATM    9  C   UNL     1     -10.040   5.406  71.932  1.00  0.00    -0.246 A  
ENDROOT
BRANCH   7  10
HETATM   10  S   UNL     1     -13.036   8.110  71.722  1.00  0.00    -0.340 S  
HETATM   11  O   UNL     1     -12.651   8.790  72.937  1.00  0.00    -0.288 OA 
HETATM   12  N   UNL     1     -12.901   9.247  70.493  1.00  0.00    -0.360 N  
HETATM   13  O   UNL     1     -14.334   7.500  71.555  1.00  0.00    -0.443 OA 
HETATM   14  H1  UNL     1     -13.625   9.919  70.745  1.00  0.00     0.000 HD 
HETATM   15  H2  UNL     1     -12.259   9.261  69.701  1.00  0.00     0.000 HD 
ENDBRANCH   7  10
TORSDOF 1
ENDMDL
MODEL      114
REMARK 921   NORMALIZED FREE ENERGY PREDICTED BY IDOCK:   -3.16 KCAL/MOL
REMARK 922        TOTAL FREE ENERGY PREDICTED BY IDOCK:   -3.40 KCAL/MOL
REMARK 923 INTER-LIGAND FREE ENERGY PREDICTED BY IDOCK:   -3.35 KCAL/MOL
REMARK 924 INTRA-LIGAND FREE ENERGY PREDICTED BY IDOCK:   -0.05 KCAL/MOL
REMARK 927      BINDING AFFINITY PREDICTED BY RF-SCORE:    0.00 PKD
ROOT
HETATM    1  N   UNL     1     -11.150  17.563  64.943  1.00  0.00    -0.773 NA 
HETATM    2  C   UNL     1     -10.339  16.804  65.795  1.00  0.00    -0.305 A  
HETATM    3  H2  UNL     1     -12.040  17.077  64.829  1.00  0.00     0.000 HD 
HETATM    4  H1  UNL     1     -11.343  18.542  65.158  1.00  0.00     0.000 HD 
HETATM    5  C   UNL     1     -10.075  15.463  65.501  1.00  0.00    -0.405 A  
HETATM    6  C   UNL     1      -9.183  14.723  66.282  1.00  0.00    -0.278 A  
HETATM    7  C   UNL     1      -8.509  15.346  67.332  1.00  0.00    -0.181 A  
HETATM    8  C   UNL     1      -8.715  16.700  67.602  1.00  0.00    -0.206 A  
HETATM    9  C   UNL     1      -9.610  17.428  66.813  1.00  0.00    -0.283 A  
ENDROOT
BRANCH   7  10
HETATM   10  S   UNL     1      -7.419  14.401  68.354  1.00  0.00    -0.130 S  
HETATM   11  O   UNL     1      -7.131  15.145  69.557  1.00  0.00    -0.168 OA 
HETATM   12  N   UNL     1      -8.401  13.123  68.825  1.00  0.00    -0.358 N  
HETATM   13  O   UNL     1      -6.380  13.821  67.535  1.00  0.00    -0.264 OA 
HETATM   14  H1  UNL     1      -7.772  12.577  69.414  1.00  0.00     0.000 HD 
HETATM   15  H2  UNL     1      -9.375  12.940  68.584  1.00  0.00     0.000 HD 
ENDBRANCH   7  10
TORSDOF 1
ENDMDL
MODEL      115
REMARK 921   NORMALIZED FREE ENERGY PREDICTED BY IDOCK:   -3.14 KCAL/MOL
REMARK 922        TOTAL FREE ENERGY PREDICTED BY IDOCK:   -3.37 KCAL/MOL
REMARK 923 INTER-LIGAND FREE ENERGY PREDICTED BY IDOCK:   -3.32 KCAL/MOL
REMARK 924 INTRA-LIGAND FREE ENERGY PREDICTED BY IDOCK:   -0.05 KCAL/MOL
REMARK 927      BINDING AFFINITY PREDICTED BY RF-SCORE:    0.00 PKD
ROOT
HETATM    1  N   UNL     1      -9.127   2.332  72.134  1.00  0.00    -0.077 NA 
HETATM    2  C   UNL     1      -9.910   3.484  72.005  1.00  0.00    -0.168 A  
HETATM    3  H2  UNL     1      -9.714   1.582  72.502  1.00  0.00     0.000 HD 
HETATM    4  H1  UNL     1      -8.610   1.971  71.332  1.00  0.00     0.000 HD 
HETATM    5  C   UNL     1     -10.619   3.978  73.105  1.00  0.00    -0.265 A  
HETATM    6  C   UNL     1     -11.319   5.184  73.020  1.00  0.00    -0.381 A  
HETATM    7  C   UNL     1     -11.265   5.929  71.842  1.00  0.00    -0.264 A  
HETATM    8  C   UNL     1     -10.513   5.480  70.755  1.00  0.00    -0.330 A  
HETATM    9  C   UNL     1      -9.818   4.273  70.853  1.00  0.00    -0.259 A  
ENDROOT
BRANCH   7  10
HETATM   10  S   UNL     1     -12.190   7.429  71.714  1.00  0.00    -0.337 S  
HETATM   11  O   UNL     1     -11.708   8.370  72.698  1.00  0.00    -0.386 OA 
HETATM   12  N   UNL     1     -11.692   8.023  70.224  1.00  0.00    -0.474 N  
HETATM   13  O   UNL     1     -13.592   7.115  71.566  1.00  0.00    -0.380 OA 
HETATM   14  H1  UNL     1     -12.226   8.888  70.150  1.00  0.00     0.000 HD 
HETATM   15  H2  UNL     1     -11.027   7.621  69.564  1.00  0.00     0.000 HD 
ENDBRANCH   7  10
TORSDOF 1
ENDMDL
MODEL      116
REMARK 921   NORMALIZED FREE ENERGY PREDICTED BY IDOCK:   -3.12 KCAL/MOL
REMARK 922        TOTAL FREE ENERGY PREDICTED BY IDOCK:   -3.36 KCAL/MOL
REMARK 923 INTER-LIGAND FREE ENERGY PREDICTED BY IDOCK:   -3.31 KCAL/MOL
REMARK 924 INTRA-LIGAND FREE ENERGY PREDICTED BY IDOCK:   -0.05 KCAL/MOL
REMARK 927      BINDING AFFINITY PREDICTED BY RF-SCORE:    0.00 PKD
ROOT
HETATM    1  N   UNL     1     -12.501  14.098  68.915  1.00  0.00    -0.490 NA 
HETATM    2  C   UNL     1     -11.373  14.711  68.357  1.00  0.00    -0.292 A  
HETATM    3  H2  UNL     1     -13.326  14.415  68.404  1.00  0.00     0.000 HD 
HETATM    4  H1  UNL     1     -12.543  13.082  68.996  1.00  0.00     0.000 HD 
HETATM    5  C   UNL     1     -11.315  16.105  68.246  1.00  0.00    -0.316 A  
HETATM    6  C   UNL     1     -10.155  16.737  67.791  1.00  0.00    -0.281 A  
HETATM    7  C   UNL     1      -9.025  15.972  67.497  1.00  0.00    -0.194 A  
HETATM    8  C   UNL     1      -9.047  14.586  67.660  1.00  0.00    -0.195 A  
HETATM    9  C   UNL     1     -10.213  13.966  68.115  1.00  0.00    -0.249 A  
ENDROOT
BRANCH   7  10
HETATM   10  S   UNL     1      -7.574  16.763  66.872  1.00  0.00    -0.245 S  
HETATM   11  O   UNL     1      -7.927  17.566  65.725  1.00  0.00    -0.548 OA 
HETATM   12  N   UNL     1      -7.210  17.848  68.101  1.00  0.00    -0.223 N  
HETATM   13  O   UNL     1      -6.486  15.815  66.847  1.00  0.00    -0.278 OA 
HETATM   14  H1  UNL     1      -6.372  18.305  67.741  1.00  0.00     0.000 HD 
HETATM   15  H2  UNL     1      -7.701  18.010  68.981  1.00  0.00     0.000 HD 
ENDBRANCH   7  10
TORSDOF 1
ENDMDL
MODEL      117
REMARK 921   NORMALIZED FREE ENERGY PREDICTED BY IDOCK:   -3.08 KCAL/MOL
REMARK 922        TOTAL FREE ENERGY PREDICTED BY IDOCK:   -3.31 KCAL/MOL
REMARK 923 INTER-LIGAND FREE ENERGY PREDICTED BY IDOCK:   -3.26 KCAL/MOL
REMARK 924 INTRA-LIGAND FREE ENERGY PREDICTED BY IDOCK:   -0.05 KCAL/MOL
REMARK 927      BINDING AFFINITY PREDICTED BY RF-SCORE:    0.00 PKD
ROOT
HETATM    1  N   UNL     1      -6.942   8.558  73.356  1.00  0.00    -0.290 NA 
HETATM    2  C   UNL     1      -8.215   8.216  72.884  1.00  0.00    -0.175 A  
HETATM    3  H2  UNL     1      -6.522   7.730  73.779  1.00  0.00     0.000 HD 
HETATM    4  H1  UNL     1      -6.260   8.981  72.727  1.00  0.00     0.000 HD 
HETATM    5  C   UNL     1      -9.151   7.636  73.747  1.00  0.00    -0.332 A  
HETATM    6  C   UNL     1     -10.457   7.386  73.319  1.00  0.00    -0.424 A  
HETATM    7  C   UNL     1     -10.845   7.770  72.034  1.00  0.00    -0.245 A  
HETATM    8  C   UNL     1      -9.940   8.404  71.182  1.00  0.00    -0.245 A  
HETATM    9  C   UNL     1      -8.637   8.648  71.622  1.00  0.00    -0.254 A  
ENDROOT
BRANCH   7  10
HETATM   10  S   UNL     1     -12.481   7.410  71.472  1.00  0.00    -0.373 S  
HETATM   11  O   UNL     1     -13.179   8.648  71.218  1.00  0.00    -0.264 OA 
HETATM   12  N   UNL     1     -12.192   6.725  69.967  1.00  0.00    -0.589 N  
HETATM   13  O   UNL     1     -13.045   6.357  72.284  1.00  0.00    -0.066 OA 
HETATM   14  H1  UNL     1     -13.136   6.517  69.642  1.00  0.00     0.000 HD 
HETATM   15  H2  UNL     1     -11.302   6.560  69.498  1.00  0.00     0.000 HD 
ENDBRANCH   7  10
TORSDOF 1
ENDMDL
MODEL      118
REMARK 921   NORMALIZED FREE ENERGY PREDICTED BY IDOCK:   -3.07 KCAL/MOL
REMARK 922        TOTAL FREE ENERGY PREDICTED BY IDOCK:   -3.30 KCAL/MOL
REMARK 923 INTER-LIGAND FREE ENERGY PREDICTED BY IDOCK:   -3.26 KCAL/MOL
REMARK 924 INTRA-LIGAND FREE ENERGY PREDICTED BY IDOCK:   -0.05 KCAL/MOL
REMARK 927      BINDING AFFINITY PREDICTED BY RF-SCORE:    0.00 PKD
ROOT
HETATM    1  N   UNL     1      -6.893  15.213  69.842  1.00  0.00    -0.177 NA 
HETATM    2  C   UNL     1      -7.226  16.473  69.330  1.00  0.00    -0.213 A  
HETATM    3  H2  UNL     1      -6.384  15.346  70.717  1.00  0.00     0.000 HD 
HETATM    4  H1  UNL     1      -7.620  14.514  69.994  1.00  0.00     0.000 HD 
HETATM    5  C   UNL     1      -6.229  17.431  69.121  1.00  0.00    -0.228 A  
HETATM    6  C   UNL     1      -6.529  18.653  68.512  1.00  0.00    -0.240 A  
HETATM    7  C   UNL     1      -7.827  18.895  68.060  1.00  0.00    -0.277 A  
HETATM    8  C   UNL     1      -8.820  17.925  68.207  1.00  0.00    -0.277 A  
HETATM    9  C   UNL     1      -8.506  16.708  68.817  1.00  0.00    -0.255 A  
ENDROOT
BRANCH   7  10
HETATM   10  S   UNL     1      -8.222  20.458  67.337  1.00  0.00    -0.278 S  
HETATM   11  O   UNL     1      -7.131  21.376  67.565  1.00  0.00    -0.522 OA 
HETATM   12  N   UNL     1      -8.192  20.103  65.696  1.00  0.00    -0.429 N  
HETATM   13  O   UNL     1      -9.593  20.794  67.644  1.00  0.00    -0.362 OA 
HETATM   14  H1  UNL     1      -8.420  21.006  65.279  1.00  0.00     0.000 HD 
HETATM   15  H2  UNL     1      -7.995  19.215  65.236  1.00  0.00     0.000 HD 
ENDBRANCH   7  10
TORSDOF 1
ENDMDL
MODEL      119
REMARK 921   NORMALIZED FREE ENERGY PREDICTED BY IDOCK:   -3.05 KCAL/MOL
REMARK 922        TOTAL FREE ENERGY PREDICTED BY IDOCK:   -3.28 KCAL/MOL
REMARK 923 INTER-LIGAND FREE ENERGY PREDICTED BY IDOCK:   -3.23 KCAL/MOL
REMARK 924 INTRA-LIGAND FREE ENERGY PREDICTED BY IDOCK:   -0.05 KCAL/MOL
REMARK 927      BINDING AFFINITY PREDICTED BY RF-SCORE:    0.00 PKD
ROOT
HETATM    1  N   UNL     1     -10.028  18.436  66.809  1.00  0.00    -0.339 NA 
HETATM    2  C   UNL     1     -10.047  17.039  66.727  1.00  0.00    -0.300 A  
HETATM    3  H2  UNL     1     -10.905  18.793  66.428  1.00  0.00     0.000 HD 
HETATM    4  H1  UNL     1      -9.855  18.894  67.704  1.00  0.00     0.000 HD 
HETATM    5  C   UNL     1     -10.284  16.411  65.500  1.00  0.00    -0.296 A  
HETATM    6  C   UNL     1     -10.202  15.021  65.382  1.00  0.00    -0.411 A  
HETATM    7  C   UNL     1      -9.826  14.258  66.488  1.00  0.00    -0.288 A  
HETATM    8  C   UNL     1      -9.528  14.874  67.704  1.00  0.00    -0.199 A  
HETATM    9  C   UNL     1      -9.614  16.265  67.809  1.00  0.00    -0.223 A  
ENDROOT
BRANCH   7  10
HETATM   10  S   UNL     1      -9.770  12.497  66.355  1.00  0.00    -0.251 S  
HETATM   11  O   UNL     1     -11.046  11.950  66.754  1.00  0.00    -0.276 OA 
HETATM   12  N   UNL     1      -9.670  12.273  64.694  1.00  0.00    -0.470 N  
HETATM   13  O   UNL     1      -8.520  12.016  66.895  1.00  0.00    -0.174 OA 
HETATM   14  H1  UNL     1      -9.638  11.256  64.617  1.00  0.00     0.000 HD 
HETATM   15  H2  UNL     1      -9.648  12.973  63.953  1.00  0.00     0.000 HD 
ENDBRANCH   7  10
TORSDOF 1
ENDMDL
MODEL      120
REMARK 921   NORMALIZED FREE ENERGY PREDICTED BY IDOCK:   -3.02 KCAL/MOL
REMARK 922        TOTAL FREE ENERGY PREDICTED BY IDOCK:   -3.25 KCAL/MOL
REMARK 923 INTER-LIGAND FREE ENERGY PREDICTED BY IDOCK:   -3.20 KCAL/MOL
REMARK 924 INTRA-LIGAND FREE ENERGY PREDICTED BY IDOCK:   -0.05 KCAL/MOL
REMARK 927      BINDING AFFINITY PREDICTED BY RF-SCORE:    0.00 PKD
ROOT
HETATM    1  N   UNL     1     -12.189  14.427  66.838  1.00  0.00    -0.545 NA 
HETATM    2  C   UNL     1     -11.087  15.270  67.024  1.00  0.00    -0.305 A  
HETATM    3  H2  UNL     1     -13.036  14.951  67.061  1.00  0.00     0.000 HD 
HETATM    4  H1  UNL     1     -12.328  13.956  65.944  1.00  0.00     0.000 HD 
HETATM    5  C   UNL     1     -10.897  15.916  68.250  1.00  0.00    -0.315 A  
HETATM    6  C   UNL     1      -9.748  16.675  68.487  1.00  0.00    -0.244 A  
HETATM    7  C   UNL     1      -8.756  16.743  67.509  1.00  0.00    -0.199 A  
HETATM    8  C   UNL     1      -8.902  16.055  66.303  1.00  0.00    -0.379 A  
HETATM    9  C   UNL     1     -10.056  15.300  66.079  1.00  0.00    -0.340 A  
ENDROOT
BRANCH   7  10
HETATM   10  S   UNL     1      -7.325  17.743  67.784  1.00  0.00    -0.205 S  
HETATM   11  O   UNL     1      -6.811  17.481  69.108  1.00  0.00    -0.244 OA 
HETATM   12  N   UNL     1      -6.216  17.071  66.717  1.00  0.00    -0.198 N  
HETATM   13  O   UNL     1      -7.577  19.081  67.302  1.00  0.00    -0.228 OA 
HETATM   14  H1  UNL     1      -5.391  17.648  66.876  1.00  0.00     0.000 HD 
HETATM   15  H2  UNL     1      -6.337  16.287  66.076  1.00  0.00     0.000 HD 
ENDBRANCH   7  10
TORSDOF 1
ENDMDL
MODEL      121
REMARK 921   NORMALIZED FREE ENERGY PREDICTED BY IDOCK:   -3.00 KCAL/MOL
REMARK 922        TOTAL FREE ENERGY PREDICTED BY IDOCK:   -3.22 KCAL/MOL
REMARK 923 INTER-LIGAND FREE ENERGY PREDICTED BY IDOCK:   -3.17 KCAL/MOL
REMARK 924 INTRA-LIGAND FREE ENERGY PREDICTED BY IDOCK:   -0.05 KCAL/MOL
REMARK 927      BINDING AFFINITY PREDICTED BY RF-SCORE:    0.00 PKD
ROOT
HETATM    1  N   UNL     1      -8.587   6.592  65.406  1.00  0.00    -0.300 NA 
HETATM    2  C   UNL     1      -9.273   7.574  66.131  1.00  0.00    -0.105 A  
HETATM    3  H2  UNL     1      -9.246   5.852  65.161  1.00  0.00     0.000 HD 
HETATM    4  H1  UNL     1      -8.063   6.847  64.568  1.00  0.00     0.000 HD 
HETATM    5  C   UNL     1      -9.990   7.224  67.279  1.00  0.00    -0.251 A  
HETATM    6  C   UNL     1     -10.592   8.206  68.072  1.00  0.00    -0.188 A  
HETATM    7  C   UNL     1     -10.427   9.551  67.742  1.00  0.00    -0.254 A  
HETATM    8  C   UNL     1      -9.664   9.920  66.633  1.00  0.00    -0.252 A  
HETATM    9  C   UNL     1      -9.068   8.929  65.849  1.00  0.00    -0.271 A  
ENDROOT
BRANCH   7  10
HETATM   10  S   UNL     1     -11.228  10.792  68.712  1.00  0.00    -0.292 S  
HETATM   11  O   UNL     1     -11.526  10.254  70.019  1.00  0.00    -0.260 OA 
HETATM   12  N   UNL     1      -9.995  11.908  68.943  1.00  0.00    -0.409 N  
HETATM   13  O   UNL     1     -12.222  11.462  67.906  1.00  0.00    -0.592 OA 
HETATM   14  H1  UNL     1     -10.457  12.624  69.503  1.00  0.00     0.000 HD 
HETATM   15  H2  UNL     1      -9.031  11.877  68.609  1.00  0.00     0.000 HD 
ENDBRANCH   7  10
TORSDOF 1
ENDMDL
MODEL      122
REMARK 921   NORMALIZED FREE ENERGY PREDICTED BY IDOCK:   -2.96 KCAL/MOL
REMARK 922        TOTAL FREE ENERGY PREDICTED BY IDOCK:   -3.18 KCAL/MOL
REMARK 923 INTER-LIGAND FREE ENERGY PREDICTED BY IDOCK:   -3.13 KCAL/MOL
REMARK 924 INTRA-LIGAND FREE ENERGY PREDICTED BY IDOCK:   -0.05 KCAL/MOL
REMARK 927      BINDING AFFINITY PREDICTED BY RF-SCORE:    0.00 PKD
ROOT
HETATM    1  N   UNL     1     -10.815  17.400  68.201  1.00  0.00    -0.341 NA 
HETATM    2  C   UNL     1     -10.800  16.087  67.718  1.00  0.00    -0.324 A  
HETATM    3  H2  UNL     1     -11.011  18.028  67.421  1.00  0.00     0.000 HD 
HETATM    4  H1  UNL     1     -11.426  17.652  68.979  1.00  0.00     0.000 HD 
HETATM    5  C   UNL     1      -9.963  15.741  66.652  1.00  0.00    -0.268 A  
HETATM    6  C   UNL     1      -9.858  14.413  66.228  1.00  0.00    -0.321 A  
HETATM    7  C   UNL     1     -10.555  13.416  66.911  1.00  0.00    -0.273 A  
HETATM    8  C   UNL     1     -11.348  13.737  68.015  1.00  0.00    -0.318 A  
HETATM    9  C   UNL     1     -11.444  15.068  68.428  1.00  0.00    -0.340 A  
ENDROOT
BRANCH   7  10
HETATM   10  S   UNL     1     -10.465  11.744  66.347  1.00  0.00    -0.244 S  
HETATM   11  O   UNL     1      -9.089  11.308  66.373  1.00  0.00    -0.179 OA 
HETATM   12  N   UNL     1     -11.237  10.914  67.585  1.00  0.00    -0.313 N  
HETATM   13  O   UNL     1     -11.304  11.587  65.182  1.00  0.00    -0.208 OA 
HETATM   14  H1  UNL     1     -11.185   9.949  67.259  1.00  0.00     0.000 HD 
HETATM   15  H2  UNL     1     -11.651  11.280  68.442  1.00  0.00     0.000 HD 
ENDBRANCH   7  10
TORSDOF 1
ENDMDL
MODEL      123
REMARK 921   NORMALIZED FREE ENERGY PREDICTED BY IDOCK:   -2.93 KCAL/MOL
REMARK 922        TOTAL FREE ENERGY PREDICTED BY IDOCK:   -3.15 KCAL/MOL
REMARK 923 INTER-LIGAND FREE ENERGY PREDICTED BY IDOCK:   -3.10 KCAL/MOL
REMARK 924 INTRA-LIGAND FREE ENERGY PREDICTED BY IDOCK:   -0.05 KCAL/MOL
REMARK 927      BINDING AFFINITY PREDICTED BY RF-SCORE:    0.00 PKD
ROOT
HETATM    1  N   UNL     1      -9.731  21.141  67.186  1.00  0.00    -0.542 NA 
HETATM    2  C   UNL     1      -9.099  19.961  67.596  1.00  0.00    -0.340 A  
HETATM    3  H2  UNL     1     -10.498  21.337  67.831  1.00  0.00     0.000 HD 
HETATM    4  H1  UNL     1      -9.187  21.996  67.063  1.00  0.00     0.000 HD 
HETATM    5  C   UNL     1      -9.844  18.789  67.766  1.00  0.00    -0.375 A  
HETATM    6  C   UNL     1      -9.213  17.580  68.071  1.00  0.00    -0.275 A  
HETATM    7  C   UNL     1      -7.821  17.533  68.154  1.00  0.00    -0.244 A  
HETATM    8  C   UNL     1      -7.059  18.681  67.929  1.00  0.00    -0.245 A  
HETATM    9  C   UNL     1      -7.702  19.883  67.624  1.00  0.00    -0.326 A  
ENDROOT
BRANCH   7  10
HETATM   10  S   UNL     1      -7.023  16.018  68.590  1.00  0.00    -0.142 S  
HETATM   11  O   UNL     1      -6.315  15.506  67.441  1.00  0.00    -0.231 OA 
HETATM   12  N   UNL     1      -5.844  16.539  69.666  1.00  0.00    -0.179 N  
HETATM   13  O   UNL     1      -7.932  15.204  69.364  1.00  0.00    -0.202 OA 
HETATM   14  H1  UNL     1      -5.383  15.665  69.918  1.00  0.00     0.000 HD 
HETATM   15  H2  UNL     1      -5.640  17.486  69.984  1.00  0.00     0.000 HD 
ENDBRANCH   7  10
TORSDOF 1
ENDMDL
MODEL      124
REMARK 921   NORMALIZED FREE ENERGY PREDICTED BY IDOCK:   -2.92 KCAL/MOL
REMARK 922        TOTAL FREE ENERGY PREDICTED BY IDOCK:   -3.14 KCAL/MOL
REMARK 923 INTER-LIGAND FREE ENERGY PREDICTED BY IDOCK:   -3.10 KCAL/MOL
REMARK 924 INTRA-LIGAND FREE ENERGY PREDICTED BY IDOCK:   -0.05 KCAL/MOL
REMARK 927      BINDING AFFINITY PREDICTED BY RF-SCORE:    0.00 PKD
ROOT
HETATM    1  N   UNL     1      -9.299   2.051  70.846  1.00  0.00    -0.118 NA 
HETATM    2  C   UNL     1      -9.698   3.382  71.021  1.00  0.00    -0.146 A  
HETATM    3  H2  UNL     1      -8.428   2.044  70.314  1.00  0.00     0.000 HD 
HETATM    4  H1  UNL     1      -9.188   1.439  71.654  1.00  0.00     0.000 HD 
HETATM    5  C   UNL     1      -9.850   4.221  69.912  1.00  0.00    -0.267 A  
HETATM    6  C   UNL     1     -10.349   5.517  70.061  1.00  0.00    -0.358 A  
HETATM    7  C   UNL     1     -10.751   5.959  71.323  1.00  0.00    -0.264 A  
HETATM    8  C   UNL     1     -10.661   5.113  72.430  1.00  0.00    -0.276 A  
HETATM    9  C   UNL     1     -10.161   3.819  72.267  1.00  0.00    -0.228 A  
ENDROOT
BRANCH   7  10
HETATM   10  S   UNL     1     -11.334   7.615  71.523  1.00  0.00    -0.262 S  
HETATM   11  O   UNL     1     -10.581   8.491  70.657  1.00  0.00    -0.200 OA 
HETATM   12  N   UNL     1     -12.876   7.525  70.864  1.00  0.00    -0.576 N  
HETATM   13  O   UNL     1     -11.520   7.889  72.929  1.00  0.00    -0.403 OA 
HETATM   14  H1  UNL     1     -13.213   8.481  70.980  1.00  0.00     0.000 HD 
HETATM   15  H2  UNL     1     -13.352   6.723  70.453  1.00  0.00     0.000 HD 
ENDBRANCH   7  10
TORSDOF 1
ENDMDL
MODEL      125
REMARK 921   NORMALIZED FREE ENERGY PREDICTED BY IDOCK:   -2.92 KCAL/MOL
REMARK 922        TOTAL FREE ENERGY PREDICTED BY IDOCK:   -3.14 KCAL/MOL
REMARK 923 INTER-LIGAND FREE ENERGY PREDICTED BY IDOCK:   -3.10 KCAL/MOL
REMARK 924 INTRA-LIGAND FREE ENERGY PREDICTED BY IDOCK:   -0.05 KCAL/MOL
REMARK 927      BINDING AFFINITY PREDICTED BY RF-SCORE:    0.00 PKD
ROOT
HETATM    1  N   UNL     1      -6.333  17.130  67.325  1.00  0.00    -0.145 NA 
HETATM    2  C   UNL     1      -7.488  16.397  67.620  1.00  0.00    -0.133 A  
HETATM    3  H2  UNL     1      -5.621  16.903  68.020  1.00  0.00     0.000 HD 
HETATM    4  H1  UNL     1      -5.910  17.067  66.398  1.00  0.00     0.000 HD 
HETATM    5  C   UNL     1      -8.068  16.483  68.890  1.00  0.00    -0.240 A  
HETATM    6  C   UNL     1      -9.278  15.842  69.168  1.00  0.00    -0.256 A  
HETATM    7  C   UNL     1      -9.941  15.155  68.150  1.00  0.00    -0.221 A  
HETATM    8  C   UNL     1      -9.406  15.110  66.862  1.00  0.00    -0.251 A  
HETATM    9  C   UNL     1      -8.195  15.755  66.598  1.00  0.00    -0.305 A  
ENDROOT
BRANCH   7  10
HETATM   10  S   UNL     1     -11.445  14.300  68.510  1.00  0.00    -0.319 S  
HETATM   11  O   UNL     1     -11.211  13.355  69.577  1.00  0.00    -0.214 OA 
HETATM   12  N   UNL     1     -12.391  15.519  69.172  1.00  0.00    -0.609 N  
HETATM   13  O   UNL     1     -12.090  13.926  67.273  1.00  0.00    -0.401 OA 
HETATM   14  H1  UNL     1     -13.259  15.026  69.380  1.00  0.00     0.000 HD 
HETATM   15  H2  UNL     1     -12.157  16.500  69.327  1.00  0.00     0.000 HD 
ENDBRANCH   7  10
TORSDOF 1
ENDMDL
MODEL      126
REMARK 921   NORMALIZED FREE ENERGY PREDICTED BY IDOCK:   -2.90 KCAL/MOL
REMARK 922        TOTAL FREE ENERGY PREDICTED BY IDOCK:   -3.12 KCAL/MOL
REMARK 923 INTER-LIGAND FREE ENERGY PREDICTED BY IDOCK:   -3.07 KCAL/MOL
REMARK 924 INTRA-LIGAND FREE ENERGY PREDICTED BY IDOCK:   -0.05 KCAL/MOL
REMARK 927      BINDING AFFINITY PREDICTED BY RF-SCORE:    0.00 PKD
ROOT
HETATM    1  N   UNL     1      -5.593  19.417  63.069  1.00  0.00    -0.353 NA 
HETATM    2  C   UNL     1      -5.828  19.391  64.448  1.00  0.00    -0.284 A  
HETATM    3  H2  UNL     1      -5.267  20.350  62.815  1.00  0.00     0.000 HD 
HETATM    4  H1  UNL     1      -4.970  18.731  62.642  1.00  0.00     0.000 HD 
HETATM    5  C   UNL     1      -6.682  20.331  65.033  1.00  0.00    -0.321 A  
HETATM    6  C   UNL     1      -7.009  20.253  66.389  1.00  0.00    -0.296 A  
HETATM    7  C   UNL     1      -6.521  19.193  67.154  1.00  0.00    -0.188 A  
HETATM    8  C   UNL     1      -5.715  18.213  66.572  1.00  0.00    -0.188 A  
HETATM    9  C   UNL     1      -5.396  18.303  65.215  1.00  0.00    -0.195 A  
ENDROOT
BRANCH   7  10
HETATM   10  S   UNL     1      -6.891  19.120  68.881  1.00  0.00    -0.334 S  
HETATM   11  O   UNL     1      -6.341  20.284  69.534  1.00  0.00    -0.323 OA 
HETATM   12  N   UNL     1      -8.557  19.327  68.891  1.00  0.00    -0.341 N  
HETATM   13  O   UNL     1      -6.655  17.779  69.363  1.00  0.00    -0.252 OA 
HETATM   14  H1  UNL     1      -8.770  19.284  69.888  1.00  0.00     0.000 HD 
HETATM   15  H2  UNL     1      -9.192  19.461  68.105  1.00  0.00     0.000 HD 
ENDBRANCH   7  10
TORSDOF 1
ENDMDL
MODEL      127
REMARK 921   NORMALIZED FREE ENERGY PREDICTED BY IDOCK:   -2.89 KCAL/MOL
REMARK 922        TOTAL FREE ENERGY PREDICTED BY IDOCK:   -3.10 KCAL/MOL
REMARK 923 INTER-LIGAND FREE ENERGY PREDICTED BY IDOCK:   -3.06 KCAL/MOL
REMARK 924 INTRA-LIGAND FREE ENERGY PREDICTED BY IDOCK:   -0.05 KCAL/MOL
REMARK 927      BINDING AFFINITY PREDICTED BY RF-SCORE:    0.00 PKD
ROOT
HETATM    1  N   UNL     1      -6.670  20.524  68.144  1.00  0.00    -0.291 NA 
HETATM    2  C   UNL     1      -7.339  19.297  68.064  1.00  0.00    -0.262 A  
HETATM    3  H2  UNL     1      -6.700  20.845  69.113  1.00  0.00     0.000 HD 
HETATM    4  H1  UNL     1      -5.710  20.606  67.807  1.00  0.00     0.000 HD 
HETATM    5  C   UNL     1      -8.655  19.185  68.526  1.00  0.00    -0.398 A  
HETATM    6  C   UNL     1      -9.372  17.998  68.357  1.00  0.00    -0.306 A  
HETATM    7  C   UNL     1      -8.787  16.933  67.670  1.00  0.00    -0.214 A  
HETATM    8  C   UNL     1      -7.497  17.050  67.150  1.00  0.00    -0.205 A  
HETATM    9  C   UNL     1      -6.791  18.242  67.327  1.00  0.00    -0.209 A  
ENDROOT
BRANCH   7  10
HETATM   10  S   UNL     1      -9.672  15.413  67.499  1.00  0.00    -0.207 S  
HETATM   11  O   UNL     1     -11.087  15.672  67.619  1.00  0.00    -0.324 OA 
HETATM   12  N   UNL     1      -9.407  15.033  65.885  1.00  0.00    -0.467 N  
HETATM   13  O   UNL     1      -9.006  14.383  68.262  1.00  0.00    -0.175 OA 
HETATM   14  H1  UNL     1      -9.918  14.156  65.786  1.00  0.00     0.000 HD 
HETATM   15  H2  UNL     1      -8.873  15.548  65.184  1.00  0.00     0.000 HD 
ENDBRANCH   7  10
TORSDOF 1
ENDMDL
MODEL      128
REMARK 921   NORMALIZED FREE ENERGY PREDICTED BY IDOCK:   -2.86 KCAL/MOL
REMARK 922        TOTAL FREE ENERGY PREDICTED BY IDOCK:   -3.08 KCAL/MOL
REMARK 923 INTER-LIGAND FREE ENERGY PREDICTED BY IDOCK:   -3.03 KCAL/MOL
REMARK 924 INTRA-LIGAND FREE ENERGY PREDICTED BY IDOCK:   -0.05 KCAL/MOL
REMARK 927      BINDING AFFINITY PREDICTED BY RF-SCORE:    0.00 PKD
ROOT
HETATM    1  N   UNL     1      -5.388  19.585  63.149  1.00  0.00    -0.283 NA 
HETATM    2  C   UNL     1      -6.025  19.374  64.377  1.00  0.00    -0.260 A  
HETATM    3  H2  UNL     1      -5.671  18.843  62.508  1.00  0.00     0.000 HD 
HETATM    4  H1  UNL     1      -5.484  20.480  62.669  1.00  0.00     0.000 HD 
HETATM    5  C   UNL     1      -5.892  18.147  65.035  1.00  0.00    -0.058 A  
HETATM    6  C   UNL     1      -6.434  17.958  66.310  1.00  0.00    -0.279 A  
HETATM    7  C   UNL     1      -7.065  19.023  66.954  1.00  0.00    -0.205 A  
HETATM    8  C   UNL     1      -7.152  20.272  66.336  1.00  0.00    -0.300 A  
HETATM    9  C   UNL     1      -6.607  20.447  65.061  1.00  0.00    -0.335 A  
ENDROOT
BRANCH   7  10
HETATM   10  S   UNL     1      -7.795  18.773  68.543  1.00  0.00    -0.341 S  
HETATM   11  O   UNL     1      -7.644  17.388  68.923  1.00  0.00    -0.258 OA 
HETATM   12  N   UNL     1      -6.762  19.641  69.543  1.00  0.00    -0.351 N  
HETATM   13  O   UNL     1      -9.066  19.457  68.598  1.00  0.00    -0.361 OA 
HETATM   14  H1  UNL     1      -7.184  19.497  70.461  1.00  0.00     0.000 HD 
HETATM   15  H2  UNL     1      -5.929  20.175  69.297  1.00  0.00     0.000 HD 
ENDBRANCH   7  10
TORSDOF 1
ENDMDL
MODEL      129
REMARK 921   NORMALIZED FREE ENERGY PREDICTED BY IDOCK:   -2.86 KCAL/MOL
REMARK 922        TOTAL FREE ENERGY PREDICTED BY IDOCK:   -3.07 KCAL/MOL
REMARK 923 INTER-LIGAND FREE ENERGY PREDICTED BY IDOCK:   -3.02 KCAL/MOL
REMARK 924 INTRA-LIGAND FREE ENERGY PREDICTED BY IDOCK:   -0.05 KCAL/MOL
REMARK 927      BINDING AFFINITY PREDICTED BY RF-SCORE:    0.00 PKD
ROOT
HETATM    1  N   UNL     1     -12.801  13.900  65.735  1.00  0.00    -0.504 NA 
HETATM    2  C   UNL     1     -11.646  14.345  66.387  1.00  0.00    -0.375 A  
HETATM    3  H2  UNL     1     -13.567  14.532  65.969  1.00  0.00     0.000 HD 
HETATM    4  H1  UNL     1     -12.797  13.759  64.724  1.00  0.00     0.000 HD 
HETATM    5  C   UNL     1     -11.651  14.538  67.772  1.00  0.00    -0.390 A  
HETATM    6  C   UNL     1     -10.479  14.880  68.450  1.00  0.00    -0.243 A  
HETATM    7  C   UNL     1      -9.279  14.976  67.744  1.00  0.00    -0.181 A  
HETATM    8  C   UNL     1      -9.245  14.727  66.371  1.00  0.00    -0.301 A  
HETATM    9  C   UNL     1     -10.424  14.386  65.705  1.00  0.00    -0.347 A  
ENDROOT
BRANCH   7  10
HETATM   10  S   UNL     1      -7.804  15.458  68.590  1.00  0.00    -0.154 S  
HETATM   11  O   UNL     1      -7.285  14.326  69.321  1.00  0.00    -0.125 OA 
HETATM   12  N   UNL     1      -6.738  15.714  67.318  1.00  0.00    -0.177 N  
HETATM   13  O   UNL     1      -8.005  16.749  69.203  1.00  0.00    -0.223 OA 
HETATM   14  H1  UNL     1      -5.887  15.992  67.805  1.00  0.00     0.000 HD 
HETATM   15  H2  UNL     1      -6.900  15.616  66.315  1.00  0.00     0.000 HD 
ENDBRANCH   7  10
TORSDOF 1
ENDMDL
MODEL      130
REMARK 921   NORMALIZED FREE ENERGY PREDICTED BY IDOCK:   -2.85 KCAL/MOL
REMARK 922        TOTAL FREE ENERGY PREDICTED BY IDOCK:   -3.07 KCAL/MOL
REMARK 923 INTER-LIGAND FREE ENERGY PREDICTED BY IDOCK:   -3.02 KCAL/MOL
REMARK 924 INTRA-LIGAND FREE ENERGY PREDICTED BY IDOCK:   -0.05 KCAL/MOL
REMARK 927      BINDING AFFINITY PREDICTED BY RF-SCORE:    0.00 PKD
ROOT
HETATM    1  N   UNL     1     -11.085   9.690  69.098  1.00  0.00    -0.413 NA 
HETATM    2  C   UNL     1     -10.822   8.725  70.076  1.00  0.00    -0.223 A  
HETATM    3  H2  UNL     1     -10.249  10.264  68.979  1.00  0.00     0.000 HD 
HETATM    4  H1  UNL     1     -11.415   9.407  68.175  1.00  0.00     0.000 HD 
HETATM    5  C   UNL     1     -10.368   9.113  71.341  1.00  0.00    -0.409 A  
HETATM    6  C   UNL     1     -10.203   8.171  72.360  1.00  0.00    -0.368 A  
HETATM    7  C   UNL     1     -10.546   6.839  72.128  1.00  0.00    -0.211 A  
HETATM    8  C   UNL     1     -11.057   6.446  70.890  1.00  0.00    -0.354 A  
HETATM    9  C   UNL     1     -11.217   7.397  69.879  1.00  0.00    -0.155 A  
ENDROOT
BRANCH   7  10
HETATM   10  S   UNL     1     -10.290   5.637  73.397  1.00  0.00    -0.240 S  
HETATM   11  O   UNL     1     -11.480   4.829  73.533  1.00  0.00    -0.320 OA 
HETATM   12  N   UNL     1      -9.131   4.638  72.706  1.00  0.00    -0.122 N  
HETATM   13  O   UNL     1      -9.648   6.265  74.528  1.00  0.00    -0.206 OA 
HETATM   14  H1  UNL     1      -8.983   3.944  73.439  1.00  0.00     0.000 HD 
HETATM   15  H2  UNL     1      -8.688   4.707  71.790  1.00  0.00     0.000 HD 
ENDBRANCH   7  10
TORSDOF 1
ENDMDL
MODEL      131
REMARK 921   NORMALIZED FREE ENERGY PREDICTED BY IDOCK:   -2.79 KCAL/MOL
REMARK 922        TOTAL FREE ENERGY PREDICTED BY IDOCK:   -3.00 KCAL/MOL
REMARK 923 INTER-LIGAND FREE ENERGY PREDICTED BY IDOCK:   -2.96 KCAL/MOL
REMARK 924 INTRA-LIGAND FREE ENERGY PREDICTED BY IDOCK:   -0.05 KCAL/MOL
REMARK 927      BINDING AFFINITY PREDICTED BY RF-SCORE:    0.00 PKD
ROOT
HETATM    1  N   UNL     1     -10.979   9.798  68.173  1.00  0.00    -0.455 NA 
HETATM    2  C   UNL     1     -10.737  11.166  68.342  1.00  0.00    -0.198 A  
HETATM    3  H2  UNL     1     -10.386   9.282  68.824  1.00  0.00     0.000 HD 
HETATM    4  H1  UNL     1     -11.929   9.433  68.245  1.00  0.00     0.000 HD 
HETATM    5  C   UNL     1      -9.434  11.665  68.242  1.00  0.00    -0.191 A  
HETATM    6  C   UNL     1      -9.190  13.040  68.303  1.00  0.00    -0.191 A  
HETATM    7  C   UNL     1     -10.263  13.925  68.409  1.00  0.00    -0.243 A  
HETATM    8  C   UNL     1     -11.574  13.446  68.448  1.00  0.00    -0.368 A  
HETATM    9  C   UNL     1     -11.804  12.069  68.387  1.00  0.00    -0.360 A  
ENDROOT
BRANCH   7  10
HETATM   10  S   UNL     1      -9.955  15.660  68.537  1.00  0.00    -0.216 S  
HETATM   11  O   UNL     1      -8.563  15.872  68.860  1.00  0.00    -0.191 OA 
HETATM   12  N   UNL     1     -10.143  16.168  66.947  1.00  0.00    -0.265 N  
HETATM   13  O   UNL     1     -11.025  16.282  69.280  1.00  0.00    -0.281 OA 
HETATM   14  H1  UNL     1      -9.965  17.169  67.021  1.00  0.00     0.000 HD 
HETATM   15  H2  UNL     1     -10.375  15.617  66.121  1.00  0.00     0.000 HD 
ENDBRANCH   7  10
TORSDOF 1
ENDMDL
MODEL      132
REMARK 921   NORMALIZED FREE ENERGY PREDICTED BY IDOCK:   -2.79 KCAL/MOL
REMARK 922        TOTAL FREE ENERGY PREDICTED BY IDOCK:   -3.00 KCAL/MOL
REMARK 923 INTER-LIGAND FREE ENERGY PREDICTED BY IDOCK:   -2.95 KCAL/MOL
REMARK 924 INTRA-LIGAND FREE ENERGY PREDICTED BY IDOCK:   -0.05 KCAL/MOL
REMARK 927      BINDING AFFINITY PREDICTED BY RF-SCORE:    0.00 PKD
ROOT
HETATM    1  N   UNL     1      -6.611  21.156  64.394  1.00  0.00    -0.532 NA 
HETATM    2  C   UNL     1      -6.727  19.917  65.036  1.00  0.00    -0.227 A  
HETATM    3  H2  UNL     1      -6.441  20.989  63.401  1.00  0.00     0.000 HD 
HETATM    4  H1  UNL     1      -7.355  21.848  64.480  1.00  0.00     0.000 HD 
HETATM    5  C   UNL     1      -5.707  18.968  64.918  1.00  0.00    -0.291 A  
HETATM    6  C   UNL     1      -5.758  17.771  65.638  1.00  0.00    -0.123 A  
HETATM    7  C   UNL     1      -6.811  17.548  66.525  1.00  0.00    -0.247 A  
HETATM    8  C   UNL     1      -7.805  18.511  66.701  1.00  0.00    -0.270 A  
HETATM    9  C   UNL     1      -7.742  19.703  65.975  1.00  0.00    -0.335 A  
ENDROOT
BRANCH   7  10
HETATM   10  S   UNL     1      -6.906  16.014  67.399  1.00  0.00    -0.201 S  
HETATM   11  O   UNL     1      -5.620  15.359  67.347  1.00  0.00    -0.330 OA 
HETATM   12  N   UNL     1      -7.100  16.527  68.986  1.00  0.00    -0.202 N  
HETATM   13  O   UNL     1      -8.133  15.340  67.048  1.00  0.00    -0.197 OA 
HETATM   14  H1  UNL     1      -7.154  15.642  69.491  1.00  0.00     0.000 HD 
HETATM   15  H2  UNL     1      -7.149  17.478  69.352  1.00  0.00     0.000 HD 
ENDBRANCH   7  10
TORSDOF 1
ENDMDL
MODEL      133
REMARK 921   NORMALIZED FREE ENERGY PREDICTED BY IDOCK:   -2.78 KCAL/MOL
REMARK 922        TOTAL FREE ENERGY PREDICTED BY IDOCK:   -3.00 KCAL/MOL
REMARK 923 INTER-LIGAND FREE ENERGY PREDICTED BY IDOCK:   -2.95 KCAL/MOL
REMARK 924 INTRA-LIGAND FREE ENERGY PREDICTED BY IDOCK:   -0.05 KCAL/MOL
REMARK 927      BINDING AFFINITY PREDICTED BY RF-SCORE:    0.00 PKD
ROOT
HETATM    1  N   UNL     1     -10.193   6.600  73.017  1.00  0.00    -0.192 NA 
HETATM    2  C   UNL     1     -10.256   6.712  71.623  1.00  0.00    -0.192 A  
HETATM    3  H2  UNL     1     -10.790   7.320  73.426  1.00  0.00     0.000 HD 
HETATM    4  H1  UNL     1     -10.405   5.710  73.469  1.00  0.00     0.000 HD 
HETATM    5  C   UNL     1      -9.965   7.931  71.003  1.00  0.00    -0.200 A  
HETATM    6  C   UNL     1      -9.921   8.032  69.610  1.00  0.00    -0.188 A  
HETATM    7  C   UNL     1     -10.116   6.890  68.832  1.00  0.00    -0.170 A  
HETATM    8  C   UNL     1     -10.348   5.653  69.436  1.00  0.00    -0.343 A  
HETATM    9  C   UNL     1     -10.390   5.567  70.830  1.00  0.00    -0.310 A  
ENDROOT
BRANCH   7  10
HETATM   10  S   UNL     1     -10.111   7.023  67.070  1.00  0.00    -0.247 S  
HETATM   11  O   UNL     1      -8.853   6.529  66.560  1.00  0.00    -0.128 OA 
HETATM   12  N   UNL     1     -11.266   5.887  66.630  1.00  0.00    -0.706 N  
HETATM   13  O   UNL     1     -10.652   8.306  66.686  1.00  0.00    -0.268 OA 
HETATM   14  H1  UNL     1     -11.264   5.963  65.613  1.00  0.00     0.000 HD 
HETATM   15  H2  UNL     1     -11.826   5.276  67.226  1.00  0.00     0.000 HD 
ENDBRANCH   7  10
TORSDOF 1
ENDMDL
MODEL      134
REMARK 921   NORMALIZED FREE ENERGY PREDICTED BY IDOCK:   -2.77 KCAL/MOL
REMARK 922        TOTAL FREE ENERGY PREDICTED BY IDOCK:   -2.99 KCAL/MOL
REMARK 923 INTER-LIGAND FREE ENERGY PREDICTED BY IDOCK:   -2.94 KCAL/MOL
REMARK 924 INTRA-LIGAND FREE ENERGY PREDICTED BY IDOCK:   -0.05 KCAL/MOL
REMARK 927      BINDING AFFINITY PREDICTED BY RF-SCORE:    0.00 PKD
ROOT
HETATM    1  N   UNL     1      -8.178   4.419  72.511  1.00  0.00    -0.103 NA 
HETATM    2  C   UNL     1      -9.219   5.346  72.384  1.00  0.00    -0.141 A  
HETATM    3  H2  UNL     1      -8.274   3.949  73.412  1.00  0.00     0.000 HD 
HETATM    4  H1  UNL     1      -8.033   3.710  71.792  1.00  0.00     0.000 HD 
HETATM    5  C   UNL     1      -9.418   6.318  73.370  1.00  0.00    -0.146 A  
HETATM    6  C   UNL     1     -10.384   7.314  73.206  1.00  0.00    -0.389 A  
HETATM    7  C   UNL     1     -11.118   7.371  72.021  1.00  0.00    -0.242 A  
HETATM    8  C   UNL     1     -10.890   6.445  71.002  1.00  0.00    -0.314 A  
HETATM    9  C   UNL     1      -9.922   5.454  71.179  1.00  0.00    -0.257 A  
ENDROOT
BRANCH   7  10
HETATM   10  S   UNL     1     -12.375   8.599  71.831  1.00  0.00    -0.381 S  
HETATM   11  O   UNL     1     -11.988   9.517  70.786  1.00  0.00    -0.279 OA 
HETATM   12  N   UNL     1     -13.651   7.701  71.210  1.00  0.00    -0.580 N  
HETATM   13  O   UNL     1     -12.806   9.048  73.135  1.00  0.00    -0.108 OA 
HETATM   14  H1  UNL     1     -14.376   8.410  71.100  1.00  0.00     0.000 HD 
HETATM   15  H2  UNL     1     -13.690   6.705  70.996  1.00  0.00     0.000 HD 
ENDBRANCH   7  10
TORSDOF 1
ENDMDL
MODEL      135
REMARK 921   NORMALIZED FREE ENERGY PREDICTED BY IDOCK:   -2.77 KCAL/MOL
REMARK 922        TOTAL FREE ENERGY PREDICTED BY IDOCK:   -2.98 KCAL/MOL
REMARK 923 INTER-LIGAND FREE ENERGY PREDICTED BY IDOCK:   -2.94 KCAL/MOL
REMARK 924 INTRA-LIGAND FREE ENERGY PREDICTED BY IDOCK:   -0.05 KCAL/MOL
REMARK 927      BINDING AFFINITY PREDICTED BY RF-SCORE:    0.00 PKD
ROOT
HETATM    1  N   UNL     1      -6.480  15.193  67.834  1.00  0.00    -0.146 NA 
HETATM    2  C   UNL     1      -7.559  14.344  67.561  1.00  0.00    -0.193 A  
HETATM    3  H2  UNL     1      -6.774  15.871  68.538  1.00  0.00     0.000 HD 
HETATM    4  H1  UNL     1      -5.581  14.803  68.119  1.00  0.00     0.000 HD 
HETATM    5  C   UNL     1      -8.791  14.879  67.171  1.00  0.00    -0.235 A  
HETATM    6  C   UNL     1      -9.845  14.043  66.793  1.00  0.00    -0.275 A  
HETATM    7  C   UNL     1      -9.646  12.662  66.751  1.00  0.00    -0.241 A  
HETATM    8  C   UNL     1      -8.404  12.116  67.079  1.00  0.00    -0.173 A  
HETATM    9  C   UNL     1      -7.359  12.963  67.456  1.00  0.00    -0.154 A  
ENDROOT
BRANCH   7  10
HETATM   10  S   UNL     1     -10.991  11.599  66.323  1.00  0.00    -0.271 S  
HETATM   11  O   UNL     1     -12.168  12.398  66.077  1.00  0.00    -0.636 OA 
HETATM   12  N   UNL     1     -10.510  11.013  64.825  1.00  0.00    -0.325 N  
HETATM   13  O   UNL     1     -11.000  10.459  67.209  1.00  0.00    -0.288 OA 
HETATM   14  H1  UNL     1     -11.286  10.399  64.577  1.00  0.00     0.000 HD 
HETATM   15  H2  UNL     1      -9.661  11.218  64.298  1.00  0.00     0.000 HD 
ENDBRANCH   7  10
TORSDOF 1
ENDMDL
MODEL      136
REMARK 921   NORMALIZED FREE ENERGY PREDICTED BY IDOCK:   -2.76 KCAL/MOL
REMARK 922        TOTAL FREE ENERGY PREDICTED BY IDOCK:   -2.97 KCAL/MOL
REMARK 923 INTER-LIGAND FREE ENERGY PREDICTED BY IDOCK:   -2.92 KCAL/MOL
REMARK 924 INTRA-LIGAND FREE ENERGY PREDICTED BY IDOCK:   -0.05 KCAL/MOL
REMARK 927      BINDING AFFINITY PREDICTED BY RF-SCORE:    0.00 PKD
ROOT
HETATM    1  N   UNL     1      -7.526   9.788  68.184  1.00  0.00    -0.081 NA 
HETATM    2  C   UNL     1      -8.582   9.392  69.013  1.00  0.00    -0.135 A  
HETATM    3  H2  UNL     1      -7.155  10.671  68.534  1.00  0.00     0.000 HD 
HETATM    4  H1  UNL     1      -6.744   9.155  68.013  1.00  0.00     0.000 HD 
HETATM    5  C   UNL     1      -9.654  10.259  69.247  1.00  0.00    -0.239 A  
HETATM    6  C   UNL     1     -10.764   9.840  69.985  1.00  0.00    -0.326 A  
HETATM    7  C   UNL     1     -10.825   8.525  70.447  1.00  0.00    -0.234 A  
HETATM    8  C   UNL     1      -9.791   7.629  70.171  1.00  0.00    -0.184 A  
HETATM    9  C   UNL     1      -8.687   8.061  69.431  1.00  0.00    -0.137 A  
ENDROOT
BRANCH   7  10
HETATM   10  S   UNL     1     -12.203   8.006  71.424  1.00  0.00    -0.299 S  
HETATM   11  O   UNL     1     -11.925   8.273  72.815  1.00  0.00    -0.377 OA 
HETATM   12  N   UNL     1     -13.388   9.106  70.970  1.00  0.00    -0.559 N  
HETATM   13  O   UNL     1     -12.661   6.718  70.959  1.00  0.00    -0.347 OA 
HETATM   14  H1  UNL     1     -14.184   8.807  71.534  1.00  0.00     0.000 HD 
HETATM   15  H2  UNL     1     -13.328   9.875  70.303  1.00  0.00     0.000 HD 
ENDBRANCH   7  10
TORSDOF 1
ENDMDL
MODEL      137
REMARK 921   NORMALIZED FREE ENERGY PREDICTED BY IDOCK:   -2.75 KCAL/MOL
REMARK 922        TOTAL FREE ENERGY PREDICTED BY IDOCK:   -2.96 KCAL/MOL
REMARK 923 INTER-LIGAND FREE ENERGY PREDICTED BY IDOCK:   -2.92 KCAL/MOL
REMARK 924 INTRA-LIGAND FREE ENERGY PREDICTED BY IDOCK:   -0.05 KCAL/MOL
REMARK 927      BINDING AFFINITY PREDICTED BY RF-SCORE:    0.00 PKD
ROOT
HETATM    1  N   UNL     1     -12.068  14.888  67.584  1.00  0.00    -0.499 NA 
HETATM    2  C   UNL     1     -11.324  13.733  67.316  1.00  0.00    -0.321 A  
HETATM    3  H2  UNL     1     -12.988  14.607  67.925  1.00  0.00     0.000 HD 
HETATM    4  H1  UNL     1     -11.696  15.603  68.210  1.00  0.00     0.000 HD 
HETATM    5  C   UNL     1     -11.834  12.754  66.457  1.00  0.00    -0.471 A  
HETATM    6  C   UNL     1     -11.060  11.647  66.097  1.00  0.00    -0.335 A  
HETATM    7  C   UNL     1      -9.747  11.548  66.557  1.00  0.00    -0.203 A  
HETATM    8  C   UNL     1      -9.203  12.547  67.366  1.00  0.00    -0.186 A  
HETATM    9  C   UNL     1      -9.987  13.648  67.719  1.00  0.00    -0.235 A  
ENDROOT
BRANCH   7  10
HETATM   10  S   UNL     1      -8.783  10.125  66.145  1.00  0.00    -0.146 S  
HETATM   11  O   UNL     1      -7.731  10.512  65.234  1.00  0.00    -0.145 OA 
HETATM   12  N   UNL     1      -8.026   9.780  67.604  1.00  0.00    -0.105 N  
HETATM   13  O   UNL     1      -9.663   9.011  65.883  1.00  0.00    -0.271 OA 
HETATM   14  H1  UNL     1      -7.470   8.959  67.367  1.00  0.00     0.000 HD 
HETATM   15  H2  UNL     1      -8.103  10.267  68.497  1.00  0.00     0.000 HD 
ENDBRANCH   7  10
TORSDOF 1
ENDMDL
MODEL      138
REMARK 921   NORMALIZED FREE ENERGY PREDICTED BY IDOCK:   -2.73 KCAL/MOL
REMARK 922        TOTAL FREE ENERGY PREDICTED BY IDOCK:   -2.94 KCAL/MOL
REMARK 923 INTER-LIGAND FREE ENERGY PREDICTED BY IDOCK:   -2.90 KCAL/MOL
REMARK 924 INTRA-LIGAND FREE ENERGY PREDICTED BY IDOCK:   -0.05 KCAL/MOL
REMARK 927      BINDING AFFINITY PREDICTED BY RF-SCORE:    0.00 PKD
ROOT
HETATM    1  N   UNL     1      -9.863   3.661  72.581  1.00  0.00    -0.144 NA 
HETATM    2  C   UNL     1      -9.794   4.122  71.261  1.00  0.00    -0.179 A  
HETATM    3  H2  UNL     1      -8.958   3.262  72.831  1.00  0.00     0.000 HD 
HETATM    4  H1  UNL     1     -10.154   4.292  73.329  1.00  0.00     0.000 HD 
HETATM    5  C   UNL     1      -9.395   3.258  70.236  1.00  0.00    -0.242 A  
HETATM    6  C   UNL     1      -9.422   3.673  68.902  1.00  0.00    -0.218 A  
HETATM    7  C   UNL     1      -9.905   4.943  68.586  1.00  0.00    -0.152 A  
HETATM    8  C   UNL     1     -10.363   5.796  69.592  1.00  0.00    -0.330 A  
HETATM    9  C   UNL     1     -10.330   5.369  70.922  1.00  0.00    -0.312 A  
ENDROOT
BRANCH   7  10
HETATM   10  S   UNL     1      -9.893   5.489  66.906  1.00  0.00    -0.181 S  
HETATM   11  O   UNL     1     -10.232   4.381  66.044  1.00  0.00    -0.244 OA 
HETATM   12  N   UNL     1     -11.213   6.526  66.865  1.00  0.00    -0.776 N  
HETATM   13  O   UNL     1      -8.732   6.318  66.680  1.00  0.00    -0.119 OA 
HETATM   14  H1  UNL     1     -11.206   6.842  65.895  1.00  0.00     0.000 HD 
HETATM   15  H2  UNL     1     -11.856   6.776  67.616  1.00  0.00     0.000 HD 
ENDBRANCH   7  10
TORSDOF 1
ENDMDL
MODEL      139
REMARK 921   NORMALIZED FREE ENERGY PREDICTED BY IDOCK:   -2.70 KCAL/MOL
REMARK 922        TOTAL FREE ENERGY PREDICTED BY IDOCK:   -2.91 KCAL/MOL
REMARK 923 INTER-LIGAND FREE ENERGY PREDICTED BY IDOCK:   -2.86 KCAL/MOL
REMARK 924 INTRA-LIGAND FREE ENERGY PREDICTED BY IDOCK:   -0.05 KCAL/MOL
REMARK 927      BINDING AFFINITY PREDICTED BY RF-SCORE:    0.00 PKD
ROOT
HETATM    1  N   UNL     1      -7.744   8.748  68.453  1.00  0.00    -0.095 NA 
HETATM    2  C   UNL     1      -8.579   9.651  67.784  1.00  0.00    -0.125 A  
HETATM    3  H2  UNL     1      -7.489   9.152  69.355  1.00  0.00     0.000 HD 
HETATM    4  H1  UNL     1      -8.048   7.786  68.605  1.00  0.00     0.000 HD 
HETATM    5  C   UNL     1      -8.162  10.970  67.576  1.00  0.00    -0.117 A  
HETATM    6  C   UNL     1      -8.937  11.852  66.819  1.00  0.00    -0.196 A  
HETATM    7  C   UNL     1     -10.111  11.395  66.220  1.00  0.00    -0.224 A  
HETATM    8  C   UNL     1     -10.510  10.066  66.368  1.00  0.00    -0.199 A  
HETATM    9  C   UNL     1      -9.727   9.194  67.128  1.00  0.00    -0.236 A  
ENDROOT
BRANCH   7  10
HETATM   10  S   UNL     1     -11.120  12.521  65.304  1.00  0.00    -0.308 S  
HETATM   11  O   UNL     1     -10.429  13.783  65.180  1.00  0.00    -0.340 OA 
HETATM   12  N   UNL     1     -11.108  11.836  63.772  1.00  0.00    -0.406 N  
HETATM   13  O   UNL     1     -12.484  12.428  65.769  1.00  0.00    -0.615 OA 
HETATM   14  H1  UNL     1     -11.690  12.485  63.243  1.00  0.00     0.000 HD 
HETATM   15  H2  UNL     1     -10.640  10.988  63.451  1.00  0.00     0.000 HD 
ENDBRANCH   7  10
TORSDOF 1
ENDMDL
MODEL      140
REMARK 921   NORMALIZED FREE ENERGY PREDICTED BY IDOCK:   -2.66 KCAL/MOL
REMARK 922        TOTAL FREE ENERGY PREDICTED BY IDOCK:   -2.86 KCAL/MOL
REMARK 923 INTER-LIGAND FREE ENERGY PREDICTED BY IDOCK:   -2.82 KCAL/MOL
REMARK 924 INTRA-LIGAND FREE ENERGY PREDICTED BY IDOCK:   -0.05 KCAL/MOL
REMARK 927      BINDING AFFINITY PREDICTED BY RF-SCORE:    0.00 PKD
ROOT
HETATM    1  N   UNL     1     -12.284  12.043  69.998  1.00  0.00    -0.245 NA 
HETATM    2  C   UNL     1     -11.617  10.814  69.931  1.00  0.00    -0.331 A  
HETATM    3  H2  UNL     1     -12.018  12.506  70.868  1.00  0.00     0.000 HD 
HETATM    4  H1  UNL     1     -12.196  12.715  69.236  1.00  0.00     0.000 HD 
HETATM    5  C   UNL     1     -11.737   9.892  70.976  1.00  0.00    -0.466 A  
HETATM    6  C   UNL     1     -11.165   8.621  70.876  1.00  0.00    -0.311 A  
HETATM    7  C   UNL     1     -10.515   8.250  69.698  1.00  0.00    -0.221 A  
HETATM    8  C   UNL     1     -10.439   9.137  68.623  1.00  0.00    -0.235 A  
HETATM    9  C   UNL     1     -11.015  10.405  68.736  1.00  0.00    -0.287 A  
ENDROOT
BRANCH   7  10
HETATM   10  S   UNL     1      -9.747   6.662  69.588  1.00  0.00    -0.154 S  
HETATM   11  O   UNL     1      -8.948   6.605  68.387  1.00  0.00    -0.124 OA 
HETATM   12  N   UNL     1      -8.659   6.710  70.865  1.00  0.00    -0.134 N  
HETATM   13  O   UNL     1     -10.710   5.641  69.926  1.00  0.00    -0.308 OA 
HETATM   14  H1  UNL     1      -8.215   5.793  70.802  1.00  0.00     0.000 HD 
HETATM   15  H2  UNL     1      -8.485   7.461  71.533  1.00  0.00     0.000 HD 
ENDBRANCH   7  10
TORSDOF 1
ENDMDL
MODEL      141
REMARK 921   NORMALIZED FREE ENERGY PREDICTED BY IDOCK:   -2.63 KCAL/MOL
REMARK 922        TOTAL FREE ENERGY PREDICTED BY IDOCK:   -2.83 KCAL/MOL
REMARK 923 INTER-LIGAND FREE ENERGY PREDICTED BY IDOCK:   -2.79 KCAL/MOL
REMARK 924 INTRA-LIGAND FREE ENERGY PREDICTED BY IDOCK:   -0.05 KCAL/MOL
REMARK 927      BINDING AFFINITY PREDICTED BY RF-SCORE:    0.00 PKD
ROOT
HETATM    1  N   UNL     1     -10.311   3.943  73.582  1.00  0.00    -0.151 NA 
HETATM    2  C   UNL     1     -10.366   4.692  72.401  1.00  0.00    -0.199 A  
HETATM    3  H2  UNL     1     -11.199   4.051  74.073  1.00  0.00     0.000 HD 
HETATM    4  H1  UNL     1     -10.081   2.950  73.547  1.00  0.00     0.000 HD 
HETATM    5  C   UNL     1     -10.682   6.054  72.448  1.00  0.00    -0.267 A  
HETATM    6  C   UNL     1     -10.637   6.838  71.292  1.00  0.00    -0.246 A  
HETATM    7  C   UNL     1     -10.219   6.267  70.090  1.00  0.00    -0.189 A  
HETATM    8  C   UNL     1      -9.843   4.924  70.038  1.00  0.00    -0.304 A  
HETATM    9  C   UNL     1      -9.893   4.151  71.201  1.00  0.00    -0.244 A  
ENDROOT
BRANCH   7  10
HETATM   10  S   UNL     1     -10.210   7.242  68.616  1.00  0.00    -0.185 S  
HETATM   11  O   UNL     1      -8.997   6.976  67.879  1.00  0.00    -0.123 OA 
HETATM   12  N   UNL     1     -11.453   6.546  67.727  1.00  0.00    -0.663 N  
HETATM   13  O   UNL     1     -10.649   8.582  68.927  1.00  0.00    -0.213 OA 
HETATM   14  H1  UNL     1     -11.448   7.109  66.877  1.00  0.00     0.000 HD 
HETATM   15  H2  UNL     1     -12.057   5.762  67.974  1.00  0.00     0.000 HD 
ENDBRANCH   7  10
TORSDOF 1
ENDMDL
MODEL      142
REMARK 921   NORMALIZED FREE ENERGY PREDICTED BY IDOCK:   -2.61 KCAL/MOL
REMARK 922        TOTAL FREE ENERGY PREDICTED BY IDOCK:   -2.81 KCAL/MOL
REMARK 923 INTER-LIGAND FREE ENERGY PREDICTED BY IDOCK:   -2.77 KCAL/MOL
REMARK 924 INTRA-LIGAND FREE ENERGY PREDICTED BY IDOCK:   -0.05 KCAL/MOL
REMARK 927      BINDING AFFINITY PREDICTED BY RF-SCORE:    0.00 PKD
ROOT
HETATM    1  N   UNL     1      -6.107  16.310  68.730  1.00  0.00    -0.114 NA 
HETATM    2  C   UNL     1      -7.252  15.989  67.992  1.00  0.00    -0.130 A  
HETATM    3  H2  UNL     1      -5.979  17.323  68.703  1.00  0.00     0.000 HD 
HETATM    4  H1  UNL     1      -6.018  16.001  69.699  1.00  0.00     0.000 HD 
HETATM    5  C   UNL     1      -7.373  16.414  66.665  1.00  0.00    -0.241 A  
HETATM    6  C   UNL     1      -8.459  16.012  65.883  1.00  0.00     0.136 A  
HETATM    7  C   UNL     1      -9.403  15.135  66.417  1.00  0.00    -0.301 A  
HETATM    8  C   UNL     1      -9.265  14.654  67.720  1.00  0.00    -0.196 A  
HETATM    9  C   UNL     1      -8.174  15.063  68.491  1.00  0.00    -0.151 A  
ENDROOT
BRANCH   7  10
HETATM   10  S   UNL     1     -10.805  14.665  65.448  1.00  0.00    -0.383 S  
HETATM   11  O   UNL     1     -11.125  15.732  64.529  1.00  0.00    -0.415 OA 
HETATM   12  N   UNL     1     -10.182  13.419  64.511  1.00  0.00    -0.600 N  
HETATM   13  O   UNL     1     -11.796  14.058  66.305  1.00  0.00    -0.372 OA 
HETATM   14  H1  UNL     1     -10.991  13.148  63.952  1.00  0.00     0.000 HD 
HETATM   15  H2  UNL     1      -9.238  13.033  64.502  1.00  0.00     0.000 HD 
ENDBRANCH   7  10
TORSDOF 1
ENDMDL
MODEL      143
REMARK 921   NORMALIZED FREE ENERGY PREDICTED BY IDOCK:   -2.58 KCAL/MOL
REMARK 922        TOTAL FREE ENERGY PREDICTED BY IDOCK:   -2.78 KCAL/MOL
REMARK 923 INTER-LIGAND FREE ENERGY PREDICTED BY IDOCK:   -2.73 KCAL/MOL
REMARK 924 INTRA-LIGAND FREE ENERGY PREDICTED BY IDOCK:   -0.05 KCAL/MOL
REMARK 927      BINDING AFFINITY PREDICTED BY RF-SCORE:    0.00 PKD
ROOT
HETATM    1  N   UNL     1      -6.286   8.872  69.738  1.00  0.00    -0.035 NA 
HETATM    2  C   UNL     1      -7.601   8.614  70.141  1.00  0.00    -0.069 A  
HETATM    3  H2  UNL     1      -5.655   8.330  70.331  1.00  0.00     0.000 HD 
HETATM    4  H1  UNL     1      -6.012   8.733  68.765  1.00  0.00     0.000 HD 
HETATM    5  C   UNL     1      -7.977   8.804  71.475  1.00  0.00    -0.160 A  
HETATM    6  C   UNL     1      -9.308   8.653  71.871  1.00  0.00    -0.357 A  
HETATM    7  C   UNL     1     -10.281   8.363  70.913  1.00  0.00    -0.194 A  
HETATM    8  C   UNL     1      -9.933   8.230  69.568  1.00  0.00    -0.187 A  
HETATM    9  C   UNL     1      -8.598   8.383  69.186  1.00  0.00    -0.134 A  
ENDROOT
BRANCH   7  10
HETATM   10  S   UNL     1     -11.958   8.122  71.417  1.00  0.00    -0.303 S  
HETATM   11  O   UNL     1     -12.458   6.900  70.832  1.00  0.00    -0.378 OA 
HETATM   12  N   UNL     1     -11.789   7.813  73.059  1.00  0.00    -0.601 N  
HETATM   13  O   UNL     1     -12.671   9.374  71.321  1.00  0.00    -0.318 OA 
HETATM   14  H1  UNL     1     -12.757   7.674  73.350  1.00  0.00     0.000 HD 
HETATM   15  H2  UNL     1     -10.938   7.774  73.620  1.00  0.00     0.000 HD 
ENDBRANCH   7  10
TORSDOF 1
ENDMDL
MODEL      144
REMARK 921   NORMALIZED FREE ENERGY PREDICTED BY IDOCK:   -2.56 KCAL/MOL
REMARK 922        TOTAL FREE ENERGY PREDICTED BY IDOCK:   -2.76 KCAL/MOL
REMARK 923 INTER-LIGAND FREE ENERGY PREDICTED BY IDOCK:   -2.71 KCAL/MOL
REMARK 924 INTRA-LIGAND FREE ENERGY PREDICTED BY IDOCK:   -0.05 KCAL/MOL
REMARK 927      BINDING AFFINITY PREDICTED BY RF-SCORE:    0.00 PKD
ROOT
HETATM    1  N   UNL     1      -9.446  14.052  66.177  1.00  0.00    -0.470 NA 
HETATM    2  C   UNL     1      -9.608  12.929  66.997  1.00  0.00    -0.231 A  
HETATM    3  H2  UNL     1      -8.901  13.778  65.359  1.00  0.00     0.000 HD 
HETATM    4  H1  UNL     1     -10.262  14.576  65.860  1.00  0.00     0.000 HD 
HETATM    5  C   UNL     1      -8.489  12.211  67.431  1.00  0.00    -0.173 A  
HETATM    6  C   UNL     1      -8.625  11.154  68.334  1.00  0.00    -0.152 A  
HETATM    7  C   UNL     1      -9.886  10.847  68.848  1.00  0.00    -0.192 A  
HETATM    8  C   UNL     1     -11.004  11.592  68.471  1.00  0.00    -0.264 A  
HETATM    9  C   UNL     1     -10.854  12.647  67.567  1.00  0.00    -0.267 A  
ENDROOT
BRANCH   7  10
HETATM   10  S   UNL     1     -10.070   9.478  69.950  1.00  0.00    -0.250 S  
HETATM   11  O   UNL     1      -8.828   9.267  70.657  1.00  0.00    -0.213 OA 
HETATM   12  N   UNL     1     -11.150  10.084  71.084  1.00  0.00    -0.289 N  
HETATM   13  O   UNL     1     -10.766   8.409  69.273  1.00  0.00    -0.209 OA 
HETATM   14  H1  UNL     1     -11.256   9.294  71.721  1.00  0.00     0.000 HD 
HETATM   15  H2  UNL     1     -11.586  11.005  71.127  1.00  0.00     0.000 HD 
ENDBRANCH   7  10
TORSDOF 1
ENDMDL
MODEL      145
REMARK 921   NORMALIZED FREE ENERGY PREDICTED BY IDOCK:   -2.51 KCAL/MOL
REMARK 922        TOTAL FREE ENERGY PREDICTED BY IDOCK:   -2.71 KCAL/MOL
REMARK 923 INTER-LIGAND FREE ENERGY PREDICTED BY IDOCK:   -2.66 KCAL/MOL
REMARK 924 INTRA-LIGAND FREE ENERGY PREDICTED BY IDOCK:   -0.05 KCAL/MOL
REMARK 927      BINDING AFFINITY PREDICTED BY RF-SCORE:    0.00 PKD
ROOT
HETATM    1  N   UNL     1      -8.795  11.934  68.801  1.00  0.00    -0.378 NA 
HETATM    2  C   UNL     1      -9.118  10.601  68.521  1.00  0.00    -0.159 A  
HETATM    3  H2  UNL     1      -9.657  12.435  69.019  1.00  0.00     0.000 HD 
HETATM    4  H1  UNL     1      -8.104  12.153  69.518  1.00  0.00     0.000 HD 
HETATM    5  C   UNL     1     -10.065  10.300  67.537  1.00  0.00    -0.239 A  
HETATM    6  C   UNL     1     -10.321   8.975  67.173  1.00  0.00    -0.342 A  
HETATM    7  C   UNL     1      -9.583   7.947  67.759  1.00  0.00    -0.147 A  
HETATM    8  C   UNL     1      -8.592   8.234  68.699  1.00  0.00    -0.133 A  
HETATM    9  C   UNL     1      -8.346   9.563  69.054  1.00  0.00    -0.126 A  
ENDROOT
BRANCH   7  10
HETATM   10  S   UNL     1      -9.938   6.268  67.339  1.00  0.00    -0.155 S  
HETATM   11  O   UNL     1     -10.116   5.503  68.551  1.00  0.00    -0.156 OA 
HETATM   12  N   UNL     1     -11.462   6.395  66.645  1.00  0.00    -0.683 N  
HETATM   13  O   UNL     1      -9.055   5.843  66.278  1.00  0.00    -0.143 OA 
HETATM   14  H1  UNL     1     -11.667   5.426  66.402  1.00  0.00     0.000 HD 
HETATM   15  H2  UNL     1     -12.035   7.227  66.503  1.00  0.00     0.000 HD 
ENDBRANCH   7  10
TORSDOF 1
ENDMDL
MODEL      146
REMARK 921   NORMALIZED FREE ENERGY PREDICTED BY IDOCK:   -2.51 KCAL/MOL
REMARK 922        TOTAL FREE ENERGY PREDICTED BY IDOCK:   -2.71 KCAL/MOL
REMARK 923 INTER-LIGAND FREE ENERGY PREDICTED BY IDOCK:   -2.66 KCAL/MOL
REMARK 924 INTRA-LIGAND FREE ENERGY PREDICTED BY IDOCK:   -0.05 KCAL/MOL
REMARK 927      BINDING AFFINITY PREDICTED BY RF-SCORE:    0.00 PKD
ROOT
HETATM    1  N   UNL     1      -9.193   7.542  73.813  1.00  0.00    -0.257 NA 
HETATM    2  C   UNL     1      -9.519   7.587  72.452  1.00  0.00    -0.157 A  
HETATM    3  H2  UNL     1      -9.810   8.182  74.314  1.00  0.00     0.000 HD 
HETATM    4  H1  UNL     1      -9.185   6.649  74.307  1.00  0.00     0.000 HD 
HETATM    5  C   UNL     1      -9.530   8.811  71.774  1.00  0.00    -0.363 A  
HETATM    6  C   UNL     1      -9.749   8.861  70.395  1.00  0.00    -0.226 A  
HETATM    7  C   UNL     1      -9.904   7.672  69.680  1.00  0.00    -0.181 A  
HETATM    8  C   UNL     1      -9.836   6.440  70.332  1.00  0.00    -0.193 A  
HETATM    9  C   UNL     1      -9.616   6.404  71.711  1.00  0.00    -0.162 A  
ENDROOT
BRANCH   7  10
HETATM   10  S   UNL     1     -10.232   7.734  67.945  1.00  0.00    -0.214 S  
HETATM   11  O   UNL     1     -11.157   6.680  67.599  1.00  0.00    -0.305 OA 
HETATM   12  N   UNL     1     -11.093   9.168  67.801  1.00  0.00    -0.474 N  
HETATM   13  O   UNL     1      -8.994   7.942  67.231  1.00  0.00    -0.125 OA 
HETATM   14  H1  UNL     1     -11.282   9.204  66.800  1.00  0.00     0.000 HD 
HETATM   15  H2  UNL     1     -11.358   9.833  68.528  1.00  0.00     0.000 HD 
ENDBRANCH   7  10
TORSDOF 1
ENDMDL
MODEL      147
REMARK 921   NORMALIZED FREE ENERGY PREDICTED BY IDOCK:   -2.50 KCAL/MOL
REMARK 922        TOTAL FREE ENERGY PREDICTED BY IDOCK:   -2.70 KCAL/MOL
REMARK 923 INTER-LIGAND FREE ENERGY PREDICTED BY IDOCK:   -2.65 KCAL/MOL
REMARK 924 INTRA-LIGAND FREE ENERGY PREDICTED BY IDOCK:   -0.05 KCAL/MOL
REMARK 927      BINDING AFFINITY PREDICTED BY RF-SCORE:    0.00 PKD
ROOT
HETATM    1  N   UNL     1      -7.055  10.952  66.849  1.00  0.00    -0.112 NA 
HETATM    2  C   UNL     1      -7.969  12.011  66.887  1.00  0.00    -0.112 A  
HETATM    3  H2  UNL     1      -6.969  10.635  65.883  1.00  0.00     0.000 HD 
HETATM    4  H1  UNL     1      -6.117  11.072  67.233  1.00  0.00     0.000 HD 
HETATM    5  C   UNL     1      -9.255  11.847  66.360  1.00  0.00    -0.218 A  
HETATM    6  C   UNL     1     -10.212  12.857  66.485  1.00  0.00    -0.264 A  
HETATM    7  C   UNL     1      -9.897  14.019  67.191  1.00  0.00    -0.240 A  
HETATM    8  C   UNL     1      -8.638  14.174  67.774  1.00  0.00    -0.184 A  
HETATM    9  C   UNL     1      -7.690  13.156  67.642  1.00  0.00    -0.168 A  
ENDROOT
BRANCH   7  10
HETATM   10  S   UNL     1     -11.087  15.320  67.307  1.00  0.00    -0.299 S  
HETATM   11  O   UNL     1     -10.776  16.337  66.330  1.00  0.00    -0.278 OA 
HETATM   12  N   UNL     1     -12.484  14.566  66.759  1.00  0.00    -0.457 N  
HETATM   13  O   UNL     1     -11.324  15.629  68.697  1.00  0.00    -0.315 OA 
HETATM   14  H1  UNL     1     -13.172  15.317  66.826  1.00  0.00     0.000 HD 
HETATM   15  H2  UNL     1     -12.613  13.606  66.441  1.00  0.00     0.000 HD 
ENDBRANCH   7  10
TORSDOF 1
ENDMDL
MODEL      148
REMARK 921   NORMALIZED FREE ENERGY PREDICTED BY IDOCK:   -2.49 KCAL/MOL
REMARK 922        TOTAL FREE ENERGY PREDICTED BY IDOCK:   -2.69 KCAL/MOL
REMARK 923 INTER-LIGAND FREE ENERGY PREDICTED BY IDOCK:   -2.64 KCAL/MOL
REMARK 924 INTRA-LIGAND FREE ENERGY PREDICTED BY IDOCK:   -0.05 KCAL/MOL
REMARK 927      BINDING AFFINITY PREDICTED BY RF-SCORE:    0.00 PKD
ROOT
HETATM    1  N   UNL     1     -12.419  10.012  71.489  1.00  0.00    -0.389 NA 
HETATM    2  C   UNL     1     -11.603  10.026  70.352  1.00  0.00    -0.302 A  
HETATM    3  H2  UNL     1     -11.820  10.020  72.315  1.00  0.00     0.000 HD 
HETATM    4  H1  UNL     1     -13.142  10.722  71.609  1.00  0.00     0.000 HD 
HETATM    5  C   UNL     1     -10.612   9.053  70.187  1.00  0.00    -0.250 A  
HETATM    6  C   UNL     1      -9.861   8.991  69.010  1.00  0.00    -0.178 A  
HETATM    7  C   UNL     1     -10.143   9.874  67.967  1.00  0.00    -0.171 A  
HETATM    8  C   UNL     1     -11.169  10.812  68.092  1.00  0.00    -0.365 A  
HETATM    9  C   UNL     1     -11.912  10.864  69.274  1.00  0.00    -0.382 A  
ENDROOT
BRANCH   7  10
HETATM   10  S   UNL     1      -9.162   9.831  66.498  1.00  0.00    -0.163 S  
HETATM   11  O   UNL     1      -8.724  11.170  66.181  1.00  0.00    -0.180 OA 
HETATM   12  N   UNL     1      -7.794   9.006  67.013  1.00  0.00    -0.098 N  
HETATM   13  O   UNL     1      -9.798   8.974  65.524  1.00  0.00    -0.159 OA 
HETATM   14  H1  UNL     1      -7.228   8.982  66.165  1.00  0.00     0.000 HD 
HETATM   15  H2  UNL     1      -7.583   8.628  67.937  1.00  0.00     0.000 HD 
ENDBRANCH   7  10
TORSDOF 1
ENDMDL
MODEL      149
REMARK 921   NORMALIZED FREE ENERGY PREDICTED BY IDOCK:   -2.44 KCAL/MOL
REMARK 922        TOTAL FREE ENERGY PREDICTED BY IDOCK:   -2.63 KCAL/MOL
REMARK 923 INTER-LIGAND FREE ENERGY PREDICTED BY IDOCK:   -2.59 KCAL/MOL
REMARK 924 INTRA-LIGAND FREE ENERGY PREDICTED BY IDOCK:   -0.05 KCAL/MOL
REMARK 927      BINDING AFFINITY PREDICTED BY RF-SCORE:    0.00 PKD
ROOT
HETATM    1  N   UNL     1     -10.492  20.603  70.036  1.00  0.00    -0.309 NA 
HETATM    2  C   UNL     1      -9.889  19.639  69.219  1.00  0.00    -0.261 A  
HETATM    3  H2  UNL     1     -11.292  20.175  70.504  1.00  0.00     0.000 HD 
HETATM    4  H1  UNL     1      -9.939  21.101  70.734  1.00  0.00     0.000 HD 
HETATM    5  C   UNL     1     -10.648  18.957  68.262  1.00  0.00    -0.224 A  
HETATM    6  C   UNL     1     -10.040  18.070  67.369  1.00  0.00    -0.354 A  
HETATM    7  C   UNL     1      -8.655  17.906  67.399  1.00  0.00    -0.239 A  
HETATM    8  C   UNL     1      -7.877  18.624  68.308  1.00  0.00    -0.331 A  
HETATM    9  C   UNL     1      -8.497  19.508  69.196  1.00  0.00    -0.117 A  
ENDROOT
BRANCH   7  10
HETATM   10  S   UNL     1      -7.889  16.748  66.306  1.00  0.00    -0.216 S  
HETATM   11  O   UNL     1      -7.100  17.464  65.332  1.00  0.00    -0.046 OA 
HETATM   12  N   UNL     1      -6.790  15.983  67.320  1.00  0.00    -0.189 N  
HETATM   13  O   UNL     1      -8.850  15.737  65.931  1.00  0.00    -0.302 OA 
HETATM   14  H1  UNL     1      -6.348  15.314  66.689  1.00  0.00     0.000 HD 
HETATM   15  H2  UNL     1      -6.611  16.146  68.311  1.00  0.00     0.000 HD 
ENDBRANCH   7  10
TORSDOF 1
ENDMDL
MODEL      150
REMARK 921   NORMALIZED FREE ENERGY PREDICTED BY IDOCK:   -2.43 KCAL/MOL
REMARK 922        TOTAL FREE ENERGY PREDICTED BY IDOCK:   -2.62 KCAL/MOL
REMARK 923 INTER-LIGAND FREE ENERGY PREDICTED BY IDOCK:   -2.57 KCAL/MOL
REMARK 924 INTRA-LIGAND FREE ENERGY PREDICTED BY IDOCK:   -0.05 KCAL/MOL
REMARK 927      BINDING AFFINITY PREDICTED BY RF-SCORE:    0.00 PKD
ROOT
HETATM    1  N   UNL     1      -9.647   2.994  70.132  1.00  0.00    -0.134 NA 
HETATM    2  C   UNL     1      -9.901   4.359  69.957  1.00  0.00    -0.223 A  
HETATM    3  H2  UNL     1     -10.380   2.603  70.725  1.00  0.00     0.000 HD 
HETATM    4  H1  UNL     1      -9.531   2.386  69.320  1.00  0.00     0.000 HD 
HETATM    5  C   UNL     1     -10.059   5.192  71.069  1.00  0.00    -0.297 A  
HETATM    6  C   UNL     1     -10.207   6.572  70.913  1.00  0.00    -0.220 A  
HETATM    7  C   UNL     1     -10.141   7.130  69.636  1.00  0.00    -0.192 A  
HETATM    8  C   UNL     1      -9.923   6.320  68.520  1.00  0.00    -0.163 A  
HETATM    9  C   UNL     1      -9.777   4.941  68.690  1.00  0.00    -0.225 A  
ENDROOT
BRANCH   7  10
HETATM   10  S   UNL     1     -10.378   8.869  69.429  1.00  0.00    -0.215 S  
HETATM   11  O   UNL     1     -10.664   9.148  68.041  1.00  0.00    -0.218 OA 
HETATM   12  N   UNL     1     -11.815   9.128  70.258  1.00  0.00    -0.468 N  
HETATM   13  O   UNL     1      -9.362   9.581  70.168  1.00  0.00    -0.215 OA 
HETATM   14  H1  UNL     1     -11.953  10.131  70.139  1.00  0.00     0.000 HD 
HETATM   15  H2  UNL     1     -12.401   8.454  70.753  1.00  0.00     0.000 HD 
ENDBRANCH   7  10
TORSDOF 1
ENDMDL
MODEL      151
REMARK 921   NORMALIZED FREE ENERGY PREDICTED BY IDOCK:   -2.41 KCAL/MOL
REMARK 922        TOTAL FREE ENERGY PREDICTED BY IDOCK:   -2.60 KCAL/MOL
REMARK 923 INTER-LIGAND FREE ENERGY PREDICTED BY IDOCK:   -2.55 KCAL/MOL
REMARK 924 INTRA-LIGAND FREE ENERGY PREDICTED BY IDOCK:   -0.05 KCAL/MOL
REMARK 927      BINDING AFFINITY PREDICTED BY RF-SCORE:    0.00 PKD
ROOT
HETATM    1  N   UNL     1      -6.949   9.680  67.238  1.00  0.00    -0.084 NA 
HETATM    2  C   UNL     1      -7.886  10.680  66.955  1.00  0.00    -0.117 A  
HETATM    3  H2  UNL     1      -6.845   9.092  66.410  1.00  0.00     0.000 HD 
HETATM    4  H1  UNL     1      -6.019   9.930  67.575  1.00  0.00     0.000 HD 
HETATM    5  C   UNL     1      -9.161  10.337  66.493  1.00  0.00    -0.179 A  
HETATM    6  C   UNL     1     -10.141  11.316  66.307  1.00  0.00    -0.271 A  
HETATM    7  C   UNL     1      -9.860  12.642  66.639  1.00  0.00    -0.244 A  
HETATM    8  C   UNL     1      -8.612  12.992  67.158  1.00  0.00    -0.195 A  
HETATM    9  C   UNL     1      -7.641  12.003  67.338  1.00  0.00    -0.151 A  
ENDROOT
BRANCH   7  10
HETATM   10  S   UNL     1     -11.079  13.890  66.357  1.00  0.00    -0.315 S  
HETATM   11  O   UNL     1     -12.387  13.278  66.331  1.00  0.00    -0.375 OA 
HETATM   12  N   UNL     1     -11.010  14.774  67.783  1.00  0.00    -0.282 N  
HETATM   13  O   UNL     1     -10.620  14.780  65.317  1.00  0.00    -0.338 OA 
HETATM   14  H1  UNL     1     -11.714  15.495  67.621  1.00  0.00     0.000 HD 
HETATM   15  H2  UNL     1     -10.418  14.628  68.601  1.00  0.00     0.000 HD 
ENDBRANCH   7  10
TORSDOF 1
ENDMDL
MODEL      152
REMARK 921   NORMALIZED FREE ENERGY PREDICTED BY IDOCK:   -2.33 KCAL/MOL
REMARK 922        TOTAL FREE ENERGY PREDICTED BY IDOCK:   -2.52 KCAL/MOL
REMARK 923 INTER-LIGAND FREE ENERGY PREDICTED BY IDOCK:   -2.47 KCAL/MOL
REMARK 924 INTRA-LIGAND FREE ENERGY PREDICTED BY IDOCK:   -0.05 KCAL/MOL
REMARK 927      BINDING AFFINITY PREDICTED BY RF-SCORE:    0.00 PKD
ROOT
HETATM    1  N   UNL     1     -11.399   8.197  70.153  1.00  0.00    -0.446 NA 
HETATM    2  C   UNL     1     -10.772   7.019  69.730  1.00  0.00    -0.241 A  
HETATM    3  H2  UNL     1     -10.780   8.672  70.812  1.00  0.00     0.000 HD 
HETATM    4  H1  UNL     1     -11.724   8.878  69.468  1.00  0.00     0.000 HD 
HETATM    5  C   UNL     1     -10.326   6.084  70.670  1.00  0.00    -0.280 A  
HETATM    6  C   UNL     1      -9.796   4.858  70.262  1.00  0.00    -0.306 A  
HETATM    7  C   UNL     1      -9.762   4.542  68.903  1.00  0.00    -0.154 A  
HETATM    8  C   UNL     1     -10.258   5.438  67.956  1.00  0.00    -0.221 A  
HETATM    9  C   UNL     1     -10.786   6.661  68.377  1.00  0.00    -0.314 A  
ENDROOT
BRANCH   7  10
HETATM   10  S   UNL     1      -9.045   3.014  68.380  1.00  0.00    -0.178 S  
HETATM   11  O   UNL     1      -9.212   2.875  66.952  1.00  0.00    -0.166 OA 
HETATM   12  N   UNL     1      -7.408   3.291  68.629  1.00  0.00    -0.049 N  
HETATM   13  O   UNL     1      -9.415   1.970  69.307  1.00  0.00    -0.120 OA 
HETATM   14  H1  UNL     1      -6.994   2.409  68.327  1.00  0.00     0.000 HD 
HETATM   15  H2  UNL     1      -6.946   4.126  68.989  1.00  0.00     0.000 HD 
ENDBRANCH   7  10
TORSDOF 1
ENDMDL
MODEL      153
REMARK 921   NORMALIZED FREE ENERGY PREDICTED BY IDOCK:   -2.30 KCAL/MOL
REMARK 922        TOTAL FREE ENERGY PREDICTED BY IDOCK:   -2.48 KCAL/MOL
REMARK 923 INTER-LIGAND FREE ENERGY PREDICTED BY IDOCK:   -2.44 KCAL/MOL
REMARK 924 INTRA-LIGAND FREE ENERGY PREDICTED BY IDOCK:   -0.05 KCAL/MOL
REMARK 927      BINDING AFFINITY PREDICTED BY RF-SCORE:    0.00 PKD
ROOT
HETATM    1  N   UNL     1      -8.622   6.467  64.927  1.00  0.00    -0.345 NA 
HETATM    2  C   UNL     1      -9.034   6.604  66.258  1.00  0.00    -0.152 A  
HETATM    3  H2  UNL     1      -7.740   5.953  64.914  1.00  0.00     0.000 HD 
HETATM    4  H1  UNL     1      -9.248   6.049  64.238  1.00  0.00     0.000 HD 
HETATM    5  C   UNL     1      -8.175   7.177  67.202  1.00  0.00    -0.118 A  
HETATM    6  C   UNL     1      -8.609   7.418  68.508  1.00  0.00    -0.128 A  
HETATM    7  C   UNL     1      -9.930   7.134  68.857  1.00  0.00    -0.163 A  
HETATM    8  C   UNL     1     -10.816   6.618  67.911  1.00  0.00    -0.353 A  
HETATM    9  C   UNL     1     -10.370   6.381  66.608  1.00  0.00    -0.223 A  
ENDROOT
BRANCH   7  10
HETATM   10  S   UNL     1     -10.467   7.389  70.521  1.00  0.00    -0.222 S  
HETATM   11  O   UNL     1      -9.391   7.056  71.424  1.00  0.00    -0.156 OA 
HETATM   12  N   UNL     1     -10.625   9.059  70.586  1.00  0.00    -0.219 N  
HETATM   13  O   UNL     1     -11.801   6.859  70.679  1.00  0.00    -0.358 OA 
HETATM   14  H1  UNL     1     -10.935   9.207  71.546  1.00  0.00     0.000 HD 
HETATM   15  H2  UNL     1     -10.454   9.749  69.854  1.00  0.00     0.000 HD 
ENDBRANCH   7  10
TORSDOF 1
ENDMDL
MODEL      154
REMARK 921   NORMALIZED FREE ENERGY PREDICTED BY IDOCK:   -2.27 KCAL/MOL
REMARK 922        TOTAL FREE ENERGY PREDICTED BY IDOCK:   -2.45 KCAL/MOL
REMARK 923 INTER-LIGAND FREE ENERGY PREDICTED BY IDOCK:   -2.40 KCAL/MOL
REMARK 924 INTRA-LIGAND FREE ENERGY PREDICTED BY IDOCK:   -0.05 KCAL/MOL
REMARK 927      BINDING AFFINITY PREDICTED BY RF-SCORE:    0.00 PKD
ROOT
HETATM    1  N   UNL     1      -6.672   9.011  74.108  1.00  0.00    -0.362 NA 
HETATM    2  C   UNL     1      -7.641   8.157  73.568  1.00  0.00    -0.155 A  
HETATM    3  H2  UNL     1      -5.853   8.454  74.353  1.00  0.00     0.000 HD 
HETATM    4  H1  UNL     1      -6.361   9.828  73.582  1.00  0.00     0.000 HD 
HETATM    5  C   UNL     1      -8.068   7.036  74.289  1.00  0.00    -0.154 A  
HETATM    6  C   UNL     1      -9.109   6.235  73.812  1.00  0.00    -0.136 A  
HETATM    7  C   UNL     1      -9.764   6.589  72.633  1.00  0.00    -0.160 A  
HETATM    8  C   UNL     1      -9.391   7.738  71.933  1.00  0.00    -0.195 A  
HETATM    9  C   UNL     1      -8.348   8.530  72.420  1.00  0.00    -0.177 A  
ENDROOT
BRANCH   7  10
HETATM   10  S   UNL     1     -11.047   5.550  72.000  1.00  0.00    -0.134 S  
HETATM   11  O   UNL     1     -11.117   4.346  72.795  1.00  0.00    -0.138 OA 
HETATM   12  N   UNL     1     -12.427   6.431  72.373  1.00  0.00    -0.547 N  
HETATM   13  O   UNL     1     -10.972   5.523  70.558  1.00  0.00    -0.244 OA 
HETATM   14  H1  UNL     1     -13.167   5.831  72.008  1.00  0.00     0.000 HD 
HETATM   15  H2  UNL     1     -12.505   7.332  72.843  1.00  0.00     0.000 HD 
ENDBRANCH   7  10
TORSDOF 1
ENDMDL
MODEL      155
REMARK 921   NORMALIZED FREE ENERGY PREDICTED BY IDOCK:   -2.20 KCAL/MOL
REMARK 922        TOTAL FREE ENERGY PREDICTED BY IDOCK:   -2.38 KCAL/MOL
REMARK 923 INTER-LIGAND FREE ENERGY PREDICTED BY IDOCK:   -2.34 KCAL/MOL
REMARK 924 INTRA-LIGAND FREE ENERGY PREDICTED BY IDOCK:   -0.05 KCAL/MOL
REMARK 927      BINDING AFFINITY PREDICTED BY RF-SCORE:    0.00 PKD
ROOT
HETATM    1  N   UNL     1      -9.273   9.466  65.460  1.00  0.00    -0.217 NA 
HETATM    2  C   UNL     1      -9.664   8.680  66.550  1.00  0.00    -0.255 A  
HETATM    3  H2  UNL     1      -9.277   8.880  64.623  1.00  0.00     0.000 HD 
HETATM    4  H1  UNL     1      -9.769  10.332  65.249  1.00  0.00     0.000 HD 
HETATM    5  C   UNL     1      -8.984   7.492  66.839  1.00  0.00    -0.152 A  
HETATM    6  C   UNL     1      -9.294   6.753  67.984  1.00  0.00    -0.118 A  
HETATM    7  C   UNL     1     -10.253   7.235  68.875  1.00  0.00    -0.193 A  
HETATM    8  C   UNL     1     -10.898   8.448  68.632  1.00  0.00     0.027 A  
HETATM    9  C   UNL     1     -10.580   9.178  67.484  1.00  0.00    -0.317 A  
ENDROOT
BRANCH   7  10
HETATM   10  S   UNL     1     -10.683   6.277  70.297  1.00  0.00    -0.308 S  
HETATM   11  O   UNL     1     -10.252   4.913  70.099  1.00  0.00    -0.260 OA 
HETATM   12  N   UNL     1      -9.667   6.917  71.471  1.00  0.00    -0.163 N  
HETATM   13  O   UNL     1     -12.025   6.612  70.710  1.00  0.00    -0.382 OA 
HETATM   14  H1  UNL     1      -9.915   6.365  72.291  1.00  0.00     0.000 HD 
HETATM   15  H2  UNL     1      -8.979   7.665  71.385  1.00  0.00     0.000 HD 
ENDBRANCH   7  10
TORSDOF 1
ENDMDL
MODEL      156
REMARK 921   NORMALIZED FREE ENERGY PREDICTED BY IDOCK:   -2.19 KCAL/MOL
REMARK 922        TOTAL FREE ENERGY PREDICTED BY IDOCK:   -2.37 KCAL/MOL
REMARK 923 INTER-LIGAND FREE ENERGY PREDICTED BY IDOCK:   -2.32 KCAL/MOL
REMARK 924 INTRA-LIGAND FREE ENERGY PREDICTED BY IDOCK:   -0.05 KCAL/MOL
REMARK 927      BINDING AFFINITY PREDICTED BY RF-SCORE:    0.00 PKD
ROOT
HETATM    1  N   UNL     1      -8.958  10.360  69.374  1.00  0.00    -0.323 NA 
HETATM    2  C   UNL     1      -8.773  10.166  68.000  1.00  0.00    -0.122 A  
HETATM    3  H2  UNL     1      -8.696   9.501  69.859  1.00  0.00     0.000 HD 
HETATM    4  H1  UNL     1      -8.508  11.145  69.845  1.00  0.00     0.000 HD 
HETATM    5  C   UNL     1      -9.389   9.089  67.355  1.00  0.00    -0.167 A  
HETATM    6  C   UNL     1      -9.301   8.942  65.968  1.00  0.00    -0.306 A  
HETATM    7  C   UNL     1      -8.637   9.911  65.215  1.00  0.00    -0.156 A  
HETATM    8  C   UNL     1      -8.068  11.024  65.837  1.00  0.00    -0.075 A  
HETATM    9  C   UNL     1      -8.164  11.158  67.225  1.00  0.00    -0.136 A  
ENDROOT
BRANCH   7  10
HETATM   10  S   UNL     1      -8.480   9.703  63.467  1.00  0.00    -0.205 S  
HETATM   11  O   UNL     1      -7.141  10.066  63.065  1.00  0.00    -0.122 OA 
HETATM   12  N   UNL     1      -8.575   8.035  63.303  1.00  0.00    -0.393 N  
HETATM   13  O   UNL     1      -9.654  10.233  62.815  1.00  0.00    -0.315 OA 
HETATM   14  H1  UNL     1      -8.484   7.915  62.294  1.00  0.00     0.000 HD 
HETATM   15  H2  UNL     1      -8.693   7.325  64.026  1.00  0.00     0.000 HD 
ENDBRANCH   7  10
TORSDOF 1
ENDMDL
MODEL      157
REMARK 921   NORMALIZED FREE ENERGY PREDICTED BY IDOCK:   -2.18 KCAL/MOL
REMARK 922        TOTAL FREE ENERGY PREDICTED BY IDOCK:   -2.35 KCAL/MOL
REMARK 923 INTER-LIGAND FREE ENERGY PREDICTED BY IDOCK:   -2.31 KCAL/MOL
REMARK 924 INTRA-LIGAND FREE ENERGY PREDICTED BY IDOCK:   -0.05 KCAL/MOL
REMARK 927      BINDING AFFINITY PREDICTED BY RF-SCORE:    0.00 PKD
ROOT
HETATM    1  N   UNL     1      -8.904   5.751  71.264  1.00  0.00    -0.135 NA 
HETATM    2  C   UNL     1      -9.135   5.320  69.953  1.00  0.00    -0.130 A  
HETATM    3  H2  UNL     1      -9.531   6.533  71.461  1.00  0.00     0.000 HD 
HETATM    4  H1  UNL     1      -8.962   5.089  72.038  1.00  0.00     0.000 HD 
HETATM    5  C   UNL     1      -9.056   6.227  68.891  1.00  0.00    -0.124 A  
HETATM    6  C   UNL     1      -9.179   5.792  67.569  1.00  0.00    -0.108 A  
HETATM    7  C   UNL     1      -9.326   4.430  67.305  1.00  0.00    -0.155 A  
HETATM    8  C   UNL     1      -9.347   3.505  68.349  1.00  0.00    -0.228 A  
HETATM    9  C   UNL     1      -9.223   3.953  69.667  1.00  0.00    -0.221 A  
ENDROOT
BRANCH   7  10
HETATM   10  S   UNL     1      -9.533   3.882  65.637  1.00  0.00    -0.180 S  
HETATM   11  O   UNL     1      -9.660   2.443  65.623  1.00  0.00     0.048 OA 
HETATM   12  N   UNL     1     -11.053   4.484  65.256  1.00  0.00    -0.949 N  
HETATM   13  O   UNL     1      -8.604   4.585  64.784  1.00  0.00    -0.125 OA 
HETATM   14  H1  UNL     1     -11.173   4.167  64.294  1.00  0.00     0.000 HD 
HETATM   15  H2  UNL     1     -11.693   5.026  65.837  1.00  0.00     0.000 HD 
ENDBRANCH   7  10
TORSDOF 1
ENDMDL
MODEL      158
REMARK 921   NORMALIZED FREE ENERGY PREDICTED BY IDOCK:   -2.17 KCAL/MOL
REMARK 922        TOTAL FREE ENERGY PREDICTED BY IDOCK:   -2.34 KCAL/MOL
REMARK 923 INTER-LIGAND FREE ENERGY PREDICTED BY IDOCK:   -2.29 KCAL/MOL
REMARK 924 INTRA-LIGAND FREE ENERGY PREDICTED BY IDOCK:   -0.05 KCAL/MOL
REMARK 927      BINDING AFFINITY PREDICTED BY RF-SCORE:    0.00 PKD
ROOT
HETATM    1  N   UNL     1      -6.438   3.833  70.403  1.00  0.00    -0.031 NA 
HETATM    2  C   UNL     1      -7.591   4.585  70.659  1.00  0.00    -0.053 A  
HETATM    3  H2  UNL     1      -6.050   4.132  69.508  1.00  0.00     0.000 HD 
HETATM    4  H1  UNL     1      -5.683   3.804  71.089  1.00  0.00     0.000 HD 
HETATM    5  C   UNL     1      -8.626   4.624  69.719  1.00  0.00    -0.096 A  
HETATM    6  C   UNL     1      -9.825   5.283  70.004  1.00  0.00    -0.288 A  
HETATM    7  C   UNL     1     -10.010   5.861  71.261  1.00  0.00    -0.187 A  
HETATM    8  C   UNL     1      -9.010   5.779  72.231  1.00  0.00    -0.139 A  
HETATM    9  C   UNL     1      -7.816   5.117  71.933  1.00  0.00    -0.110 A  
ENDROOT
BRANCH   7  10
HETATM   10  S   UNL     1     -11.504   6.739  71.607  1.00  0.00    -0.299 S  
HETATM   11  O   UNL     1     -11.180   8.093  71.990  1.00  0.00    -0.269 OA 
HETATM   12  N   UNL     1     -12.208   6.845  70.086  1.00  0.00    -0.623 N  
HETATM   13  O   UNL     1     -12.380   5.901  72.391  1.00  0.00    -0.198 OA 
HETATM   14  H1  UNL     1     -13.070   7.352  70.286  1.00  0.00     0.000 HD 
HETATM   15  H2  UNL     1     -11.863   6.494  69.193  1.00  0.00     0.000 HD 
ENDBRANCH   7  10
TORSDOF 1
ENDMDL
MODEL      159
REMARK 921   NORMALIZED FREE ENERGY PREDICTED BY IDOCK:   -2.13 KCAL/MOL
REMARK 922        TOTAL FREE ENERGY PREDICTED BY IDOCK:   -2.30 KCAL/MOL
REMARK 923 INTER-LIGAND FREE ENERGY PREDICTED BY IDOCK:   -2.26 KCAL/MOL
REMARK 924 INTRA-LIGAND FREE ENERGY PREDICTED BY IDOCK:   -0.05 KCAL/MOL
REMARK 927      BINDING AFFINITY PREDICTED BY RF-SCORE:    0.00 PKD
ROOT
HETATM    1  N   UNL     1      -8.022  11.253  67.807  1.00  0.00    -0.113 NA 
HETATM    2  C   UNL     1      -8.664  10.137  68.356  1.00  0.00    -0.123 A  
HETATM    3  H2  UNL     1      -7.141  11.394  68.302  1.00  0.00     0.000 HD 
HETATM    4  H1  UNL     1      -7.838  11.295  66.804  1.00  0.00     0.000 HD 
HETATM    5  C   UNL     1      -8.917  10.078  69.730  1.00  0.00    -0.209 A  
HETATM    6  C   UNL     1      -9.649   9.021  70.277  1.00  0.00    -0.230 A  
HETATM    7  C   UNL     1     -10.180   8.044  69.434  1.00  0.00    -0.210 A  
HETATM    8  C   UNL     1      -9.988   8.120  68.054  1.00  0.00    -0.222 A  
HETATM    9  C   UNL     1      -9.254   9.182  67.520  1.00  0.00    -0.144 A  
ENDROOT
BRANCH   7  10
HETATM   10  S   UNL     1     -11.063   6.680  70.128  1.00  0.00    -0.359 S  
HETATM   11  O   UNL     1     -11.406   5.752  69.075  1.00  0.00    -0.137 OA 
HETATM   12  N   UNL     1      -9.876   5.922  71.043  1.00  0.00    -0.178 N  
HETATM   13  O   UNL     1     -12.038   7.172  71.073  1.00  0.00    -0.333 OA 
HETATM   14  H1  UNL     1     -10.386   5.134  71.443  1.00  0.00     0.000 HD 
HETATM   15  H2  UNL     1      -8.898   6.182  71.166  1.00  0.00     0.000 HD 
ENDBRANCH   7  10
TORSDOF 1
ENDMDL
MODEL      160
REMARK 921   NORMALIZED FREE ENERGY PREDICTED BY IDOCK:   -2.06 KCAL/MOL
REMARK 922        TOTAL FREE ENERGY PREDICTED BY IDOCK:   -2.24 KCAL/MOL
REMARK 923 INTER-LIGAND FREE ENERGY PREDICTED BY IDOCK:   -2.19 KCAL/MOL
REMARK 924 INTRA-LIGAND FREE ENERGY PREDICTED BY IDOCK:   -0.05 KCAL/MOL
REMARK 927      BINDING AFFINITY PREDICTED BY RF-SCORE:    0.00 PKD
ROOT
HETATM    1  N   UNL     1     -13.012  10.773  70.358  1.00  0.00    -0.285 NA 
HETATM    2  C   UNL     1     -12.339  11.176  69.199  1.00  0.00    -0.039 A  
HETATM    3  H2  UNL     1     -13.985  11.070  70.285  1.00  0.00     0.000 HD 
HETATM    4  H1  UNL     1     -12.995   9.794  70.645  1.00  0.00     0.000 HD 
HETATM    5  C   UNL     1     -12.362  12.518  68.805  1.00  0.00     0.244 A  
HETATM    6  C   UNL     1     -11.609  12.955  67.712  1.00  0.00    -0.391 A  
HETATM    7  C   UNL     1     -10.784  12.052  67.041  1.00  0.00    -0.242 A  
HETATM    8  C   UNL     1     -10.703  10.723  67.458  1.00  0.00    -0.312 A  
HETATM    9  C   UNL     1     -11.461  10.299  68.553  1.00  0.00    -0.169 A  
ENDROOT
BRANCH   7  10
HETATM   10  S   UNL     1      -9.870  12.589  65.627  1.00  0.00    -0.167 S  
HETATM   11  O   UNL     1     -10.761  13.268  64.716  1.00  0.00    -0.333 OA 
HETATM   12  N   UNL     1      -8.881  13.779  66.280  1.00  0.00    -0.438 N  
HETATM   13  O   UNL     1      -8.986  11.530  65.199  1.00  0.00    -0.059 OA 
HETATM   14  H1  UNL     1      -8.354  14.089  65.464  1.00  0.00     0.000 HD 
HETATM   15  H2  UNL     1      -8.823  14.107  67.244  1.00  0.00     0.000 HD 
ENDBRANCH   7  10
TORSDOF 1
ENDMDL
MODEL      161
REMARK 921   NORMALIZED FREE ENERGY PREDICTED BY IDOCK:   -2.00 KCAL/MOL
REMARK 922        TOTAL FREE ENERGY PREDICTED BY IDOCK:   -2.16 KCAL/MOL
REMARK 923 INTER-LIGAND FREE ENERGY PREDICTED BY IDOCK:   -2.11 KCAL/MOL
REMARK 924 INTRA-LIGAND FREE ENERGY PREDICTED BY IDOCK:   -0.05 KCAL/MOL
REMARK 927      BINDING AFFINITY PREDICTED BY RF-SCORE:    0.00 PKD
ROOT
HETATM    1  N   UNL     1      -5.898   7.516  73.140  1.00  0.00    -0.048 NA 
HETATM    2  C   UNL     1      -7.118   7.829  72.530  1.00  0.00    -0.082 A  
HETATM    3  H2  UNL     1      -5.871   6.510  73.309  1.00  0.00     0.000 HD 
HETATM    4  H1  UNL     1      -5.020   7.792  72.700  1.00  0.00     0.000 HD 
HETATM    5  C   UNL     1      -8.322   7.450  73.134  1.00  0.00    -0.155 A  
HETATM    6  C   UNL     1      -9.548   7.847  72.593  1.00  0.00    -0.290 A  
HETATM    7  C   UNL     1      -9.568   8.675  71.470  1.00  0.00    -0.257 A  
HETATM    8  C   UNL     1      -8.375   9.112  70.891  1.00  0.00    -0.231 A  
HETATM    9  C   UNL     1      -7.156   8.708  71.442  1.00  0.00    -0.092 A  
ENDROOT
BRANCH   7  10
HETATM   10  S   UNL     1     -11.116   9.137  70.753  1.00  0.00    -0.297 S  
HETATM   11  O   UNL     1     -11.642  10.282  71.458  1.00  0.00    -0.273 OA 
HETATM   12  N   UNL     1     -10.648   9.699  69.242  1.00  0.00    -0.213 N  
HETATM   13  O   UNL     1     -11.902   7.950  70.509  1.00  0.00    -0.176 OA 
HETATM   14  H1  UNL     1     -11.542   9.966  68.828  1.00  0.00     0.000 HD 
HETATM   15  H2  UNL     1      -9.712   9.759  68.841  1.00  0.00     0.000 HD 
ENDBRANCH   7  10
TORSDOF 1
ENDMDL
MODEL      162
REMARK 921   NORMALIZED FREE ENERGY PREDICTED BY IDOCK:   -1.99 KCAL/MOL
REMARK 922        TOTAL FREE ENERGY PREDICTED BY IDOCK:   -2.16 KCAL/MOL
REMARK 923 INTER-LIGAND FREE ENERGY PREDICTED BY IDOCK:   -2.11 KCAL/MOL
REMARK 924 INTRA-LIGAND FREE ENERGY PREDICTED BY IDOCK:   -0.05 KCAL/MOL
REMARK 927      BINDING AFFINITY PREDICTED BY RF-SCORE:    0.00 PKD
ROOT
HETATM    1  N   UNL     1      -8.528   3.671  62.597  1.00  0.00    -0.080 NA 
HETATM    2  C   UNL     1      -8.801   4.230  63.851  1.00  0.00    -0.135 A  
HETATM    3  H2  UNL     1      -7.552   3.373  62.582  1.00  0.00     0.000 HD 
HETATM    4  H1  UNL     1      -9.104   2.908  62.240  1.00  0.00     0.000 HD 
HETATM    5  C   UNL     1      -8.011   5.276  64.340  1.00  0.00    -0.114 A  
HETATM    6  C   UNL     1      -8.335   5.914  65.540  1.00  0.00    -0.145 A  
HETATM    7  C   UNL     1      -9.488   5.538  66.229  1.00  0.00    -0.157 A  
HETATM    8  C   UNL     1     -10.320   4.537  65.724  1.00  0.00    -0.287 A  
HETATM    9  C   UNL     1      -9.985   3.907  64.523  1.00  0.00    -0.205 A  
ENDROOT
BRANCH   7  10
HETATM   10  S   UNL     1      -9.873   6.307  67.773  1.00  0.00    -0.128 S  
HETATM   11  O   UNL     1      -8.777   7.164  68.162  1.00  0.00    -0.128 OA 
HETATM   12  N   UNL     1     -11.133   7.333  67.349  1.00  0.00    -0.575 N  
HETATM   13  O   UNL     1     -10.444   5.327  68.666  1.00  0.00    -0.158 OA 
HETATM   14  H1  UNL     1     -11.355   7.777  68.240  1.00  0.00     0.000 HD 
HETATM   15  H2  UNL     1     -11.565   7.476  66.436  1.00  0.00     0.000 HD 
ENDBRANCH   7  10
TORSDOF 1
ENDMDL
MODEL      163
REMARK 921   NORMALIZED FREE ENERGY PREDICTED BY IDOCK:   -1.96 KCAL/MOL
REMARK 922        TOTAL FREE ENERGY PREDICTED BY IDOCK:   -2.13 KCAL/MOL
REMARK 923 INTER-LIGAND FREE ENERGY PREDICTED BY IDOCK:   -2.08 KCAL/MOL
REMARK 924 INTRA-LIGAND FREE ENERGY PREDICTED BY IDOCK:   -0.05 KCAL/MOL
REMARK 927      BINDING AFFINITY PREDICTED BY RF-SCORE:    0.00 PKD
ROOT
HETATM    1  N   UNL     1      -6.514   9.091  69.340  1.00  0.00    -0.044 NA 
HETATM    2  C   UNL     1      -7.448   9.775  68.554  1.00  0.00    -0.079 A  
HETATM    3  H2  UNL     1      -7.003   8.360  69.859  1.00  0.00     0.000 HD 
HETATM    4  H1  UNL     1      -5.685   8.680  68.909  1.00  0.00     0.000 HD 
HETATM    5  C   UNL     1      -8.584  10.338  69.145  1.00  0.00    -0.167 A  
HETATM    6  C   UNL     1      -9.470  11.114  68.392  1.00  0.00    -0.189 A  
HETATM    7  C   UNL     1      -9.187  11.374  67.051  1.00  0.00    -0.169 A  
HETATM    8  C   UNL     1      -8.027  10.869  66.462  1.00  0.00    -0.152 A  
HETATM    9  C   UNL     1      -7.150  10.095  67.225  1.00  0.00    -0.088 A  
ENDROOT
BRANCH   7  10
HETATM   10  S   UNL     1     -10.331  12.311  66.084  1.00  0.00    -0.249 S  
HETATM   11  O   UNL     1     -10.730  11.533  64.934  1.00  0.00    -0.287 OA 
HETATM   12  N   UNL     1     -11.674  12.372  67.090  1.00  0.00    -0.361 N  
HETATM   13  O   UNL     1      -9.859  13.671  65.971  1.00  0.00    -0.295 OA 
HETATM   14  H1  UNL     1     -12.334  12.913  66.531  1.00  0.00     0.000 HD 
HETATM   15  H2  UNL     1     -11.798  11.971  68.019  1.00  0.00     0.000 HD 
ENDBRANCH   7  10
TORSDOF 1
ENDMDL
MODEL      164
REMARK 921   NORMALIZED FREE ENERGY PREDICTED BY IDOCK:   -1.93 KCAL/MOL
REMARK 922        TOTAL FREE ENERGY PREDICTED BY IDOCK:   -2.10 KCAL/MOL
REMARK 923 INTER-LIGAND FREE ENERGY PREDICTED BY IDOCK:   -2.05 KCAL/MOL
REMARK 924 INTRA-LIGAND FREE ENERGY PREDICTED BY IDOCK:   -0.05 KCAL/MOL
REMARK 927      BINDING AFFINITY PREDICTED BY RF-SCORE:    0.00 PKD
ROOT
HETATM    1  N   UNL     1      -5.283   4.827  65.495  1.00  0.00    -0.012 NA 
HETATM    2  C   UNL     1      -6.437   5.457  65.974  1.00  0.00    -0.044 A  
HETATM    3  H2  UNL     1      -4.530   4.980  66.168  1.00  0.00     0.000 HD 
HETATM    4  H1  UNL     1      -5.304   3.836  65.254  1.00  0.00     0.000 HD 
HETATM    5  C   UNL     1      -6.409   6.816  66.305  1.00  0.00    -0.046 A  
HETATM    6  C   UNL     1      -7.577   7.483  66.683  1.00  0.00    -0.097 A  
HETATM    7  C   UNL     1      -8.793   6.799  66.677  1.00  0.00    -0.137 A  
HETATM    8  C   UNL     1      -8.848   5.458  66.291  1.00  0.00    -0.131 A  
HETATM    9  C   UNL     1      -7.673   4.803  65.916  1.00  0.00    -0.091 A  
ENDROOT
BRANCH   7  10
HETATM   10  S   UNL     1     -10.264   7.625  67.203  1.00  0.00    -0.318 S  
HETATM   11  O   UNL     1     -10.457   8.808  66.397  1.00  0.00    -0.216 OA 
HETATM   12  N   UNL     1     -11.460   6.545  66.733  1.00  0.00    -0.760 N  
HETATM   13  O   UNL     1     -10.304   7.657  68.646  1.00  0.00    -0.197 OA 
HETATM   14  H1  UNL     1     -12.309   7.022  67.037  1.00  0.00     0.000 HD 
HETATM   15  H2  UNL     1     -11.363   5.644  66.265  1.00  0.00     0.000 HD 
ENDBRANCH   7  10
TORSDOF 1
ENDMDL
MODEL      165
REMARK 921   NORMALIZED FREE ENERGY PREDICTED BY IDOCK:   -1.93 KCAL/MOL
REMARK 922        TOTAL FREE ENERGY PREDICTED BY IDOCK:   -2.09 KCAL/MOL
REMARK 923 INTER-LIGAND FREE ENERGY PREDICTED BY IDOCK:   -2.05 KCAL/MOL
REMARK 924 INTRA-LIGAND FREE ENERGY PREDICTED BY IDOCK:   -0.05 KCAL/MOL
REMARK 927      BINDING AFFINITY PREDICTED BY RF-SCORE:    0.00 PKD
ROOT
HETATM    1  N   UNL     1      -8.756   4.246  64.634  1.00  0.00    -0.131 NA 
HETATM    2  C   UNL     1      -8.916   5.361  65.466  1.00  0.00    -0.144 A  
HETATM    3  H2  UNL     1      -7.804   3.894  64.747  1.00  0.00     0.000 HD 
HETATM    4  H1  UNL     1      -9.400   3.458  64.704  1.00  0.00     0.000 HD 
HETATM    5  C   UNL     1      -8.033   6.441  65.370  1.00  0.00    -0.116 A  
HETATM    6  C   UNL     1      -8.242   7.603  66.117  1.00  0.00    -0.124 A  
HETATM    7  C   UNL     1      -9.375   7.706  66.924  1.00  0.00    -0.161 A  
HETATM    8  C   UNL     1     -10.298   6.661  66.985  1.00  0.00    -0.330 A  
HETATM    9  C   UNL     1     -10.077   5.505  66.233  1.00  0.00    -0.185 A  
ENDROOT
BRANCH   7  10
HETATM   10  S   UNL     1      -9.616   9.154  67.909  1.00  0.00    -0.150 S  
HETATM   11  O   UNL     1      -8.844  10.240  67.353  1.00  0.00    -0.131 OA 
HETATM   12  N   UNL     1     -11.224   9.524  67.599  1.00  0.00    -0.413 N  
HETATM   13  O   UNL     1      -9.554   8.797  69.307  1.00  0.00    -0.160 OA 
HETATM   14  H1  UNL     1     -11.364  10.360  68.168  1.00  0.00     0.000 HD 
HETATM   15  H2  UNL     1     -11.890   9.040  66.998  1.00  0.00     0.000 HD 
ENDBRANCH   7  10
TORSDOF 1
ENDMDL
MODEL      166
REMARK 921   NORMALIZED FREE ENERGY PREDICTED BY IDOCK:   -1.82 KCAL/MOL
REMARK 922        TOTAL FREE ENERGY PREDICTED BY IDOCK:   -1.98 KCAL/MOL
REMARK 923 INTER-LIGAND FREE ENERGY PREDICTED BY IDOCK:   -1.93 KCAL/MOL
REMARK 924 INTRA-LIGAND FREE ENERGY PREDICTED BY IDOCK:   -0.05 KCAL/MOL
REMARK 927      BINDING AFFINITY PREDICTED BY RF-SCORE:    0.00 PKD
ROOT
HETATM    1  N   UNL     1      -7.878   8.769  72.633  1.00  0.00    -0.375 NA 
HETATM    2  C   UNL     1      -8.100   8.781  71.251  1.00  0.00    -0.154 A  
HETATM    3  H2  UNL     1      -7.672   7.811  72.918  1.00  0.00     0.000 HD 
HETATM    4  H1  UNL     1      -7.176   9.385  73.043  1.00  0.00     0.000 HD 
HETATM    5  C   UNL     1      -9.062   7.936  70.688  1.00  0.00    -0.153 A  
HETATM    6  C   UNL     1      -9.370   8.011  69.327  1.00  0.00    -0.151 A  
HETATM    7  C   UNL     1      -8.748   8.977  68.534  1.00  0.00    -0.133 A  
HETATM    8  C   UNL     1      -7.830   9.867  69.093  1.00  0.00    -0.105 A  
HETATM    9  C   UNL     1      -7.531   9.781  70.455  1.00  0.00    -0.161 A  
ENDROOT
BRANCH   7  10
HETATM   10  S   UNL     1      -9.097   9.041  66.803  1.00  0.00    -0.152 S  
HETATM   11  O   UNL     1     -10.410   8.489  66.562  1.00  0.00    -0.283 OA 
HETATM   12  N   UNL     1      -9.233  10.693  66.534  1.00  0.00    -0.163 N  
HETATM   13  O   UNL     1      -7.931   8.615  66.064  1.00  0.00    -0.101 OA 
HETATM   14  H1  UNL     1      -9.435  10.730  65.535  1.00  0.00     0.000 HD 
HETATM   15  H2  UNL     1      -9.140  11.461  67.198  1.00  0.00     0.000 HD 
ENDBRANCH   7  10
TORSDOF 1
ENDMDL
MODEL      167
REMARK 921   NORMALIZED FREE ENERGY PREDICTED BY IDOCK:   -1.69 KCAL/MOL
REMARK 922        TOTAL FREE ENERGY PREDICTED BY IDOCK:   -1.83 KCAL/MOL
REMARK 923 INTER-LIGAND FREE ENERGY PREDICTED BY IDOCK:   -1.79 KCAL/MOL
REMARK 924 INTRA-LIGAND FREE ENERGY PREDICTED BY IDOCK:   -0.05 KCAL/MOL
REMARK 927      BINDING AFFINITY PREDICTED BY RF-SCORE:    0.00 PKD
ROOT
HETATM    1  N   UNL     1      -9.017   2.248  70.074  1.00  0.00    -0.083 NA 
HETATM    2  C   UNL     1      -9.192   2.623  68.737  1.00  0.00    -0.166 A  
HETATM    3  H2  UNL     1      -9.855   2.513  70.594  1.00  0.00     0.000 HD 
HETATM    4  H1  UNL     1      -8.784   1.284  70.309  1.00  0.00     0.000 HD 
HETATM    5  C   UNL     1      -9.512   3.946  68.415  1.00  0.00    -0.210 A  
HETATM    6  C   UNL     1      -9.585   4.359  67.082  1.00  0.00    -0.221 A  
HETATM    7  C   UNL     1      -9.280   3.454  66.064  1.00  0.00    -0.161 A  
HETATM    8  C   UNL     1      -8.900   2.147  66.371  1.00  0.00    -0.124 A  
HETATM    9  C   UNL     1      -8.831   1.746  67.707  1.00  0.00    -0.149 A  
ENDROOT
BRANCH   7  10
HETATM   10  S   UNL     1      -9.421   3.958  64.376  1.00  0.00    -0.173 S  
HETATM   11  O   UNL     1      -8.663   5.172  64.179  1.00  0.00    -0.134 OA 
HETATM   12  N   UNL     1      -8.572   2.750  63.578  1.00  0.00    -0.086 N  
HETATM   13  O   UNL     1     -10.794   3.825  63.950  1.00  0.00    -0.279 OA 
HETATM   14  H1  UNL     1      -8.653   3.041  62.603  1.00  0.00     0.000 HD 
HETATM   15  H2  UNL     1      -8.098   1.935  63.966  1.00  0.00     0.000 HD 
ENDBRANCH   7  10
TORSDOF 1
ENDMDL
MODEL      168
REMARK 921   NORMALIZED FREE ENERGY PREDICTED BY IDOCK:   -1.52 KCAL/MOL
REMARK 922        TOTAL FREE ENERGY PREDICTED BY IDOCK:   -1.65 KCAL/MOL
REMARK 923 INTER-LIGAND FREE ENERGY PREDICTED BY IDOCK:   -1.61 KCAL/MOL
REMARK 924 INTRA-LIGAND FREE ENERGY PREDICTED BY IDOCK:   -0.05 KCAL/MOL
REMARK 927      BINDING AFFINITY PREDICTED BY RF-SCORE:    0.00 PKD
ROOT
HETATM    1  N   UNL     1     -10.207  11.768  65.506  1.00  0.00    -0.242 NA 
HETATM    2  C   UNL     1      -9.559  10.854  66.345  1.00  0.00    -0.197 A  
HETATM    3  H2  UNL     1      -9.535  12.100  64.812  1.00  0.00     0.000 HD 
HETATM    4  H1  UNL     1     -11.064  11.501  65.022  1.00  0.00     0.000 HD 
HETATM    5  C   UNL     1      -8.383  11.220  67.008  1.00  0.00    -0.153 A  
HETATM    6  C   UNL     1      -7.784  10.357  67.929  1.00  0.00    -0.089 A  
HETATM    7  C   UNL     1      -8.397   9.140  68.230  1.00  0.00    -0.120 A  
HETATM    8  C   UNL     1      -9.603   8.785  67.622  1.00  0.00    -0.179 A  
HETATM    9  C   UNL     1     -10.191   9.657  66.703  1.00  0.00    -0.302 A  
ENDROOT
BRANCH   7  10
HETATM   10  S   UNL     1      -7.616   8.024  69.356  1.00  0.00    -0.104 S  
HETATM   11  O   UNL     1      -8.599   7.092  69.858  1.00  0.00    -0.139 OA 
HETATM   12  N   UNL     1      -6.617   7.140  68.337  1.00  0.00    -0.047 N  
HETATM   13  O   UNL     1      -6.736   8.765  70.229  1.00  0.00    -0.038 OA 
HETATM   14  H1  UNL     1      -6.166   6.496  68.987  1.00  0.00     0.000 HD 
HETATM   15  H2  UNL     1      -6.493   7.225  67.328  1.00  0.00     0.000 HD 
ENDBRANCH   7  10
TORSDOF 1
ENDMDL
MODEL      169
REMARK 921   NORMALIZED FREE ENERGY PREDICTED BY IDOCK:   -1.37 KCAL/MOL
REMARK 922        TOTAL FREE ENERGY PREDICTED BY IDOCK:   -1.50 KCAL/MOL
REMARK 923 INTER-LIGAND FREE ENERGY PREDICTED BY IDOCK:   -1.45 KCAL/MOL
REMARK 924 INTRA-LIGAND FREE ENERGY PREDICTED BY IDOCK:   -0.05 KCAL/MOL
REMARK 927      BINDING AFFINITY PREDICTED BY RF-SCORE:    0.00 PKD
ROOT
HETATM    1  N   UNL     1      -5.400   7.320  73.271  1.00  0.00    -0.041 NA 
HETATM    2  C   UNL     1      -6.483   7.106  72.411  1.00  0.00    -0.052 A  
HETATM    3  H2  UNL     1      -5.192   6.444  73.752  1.00  0.00     0.000 HD 
HETATM    4  H1  UNL     1      -4.527   7.704  72.909  1.00  0.00     0.000 HD 
HETATM    5  C   UNL     1      -7.680   6.580  72.908  1.00  0.00    -0.101 A  
HETATM    6  C   UNL     1      -8.804   6.460  72.086  1.00  0.00    -0.136 A  
HETATM    7  C   UNL     1      -8.745   6.921  70.770  1.00  0.00    -0.145 A  
HETATM    8  C   UNL     1      -7.576   7.504  70.276  1.00  0.00    -0.090 A  
HETATM    9  C   UNL     1      -6.461   7.618  71.109  1.00  0.00    -0.038 A  
ENDROOT
BRANCH   7  10
HETATM   10  S   UNL     1     -10.146   6.724  69.712  1.00  0.00    -0.187 S  
HETATM   11  O   UNL     1     -10.781   8.007  69.522  1.00  0.00    -0.230 OA 
HETATM   12  N   UNL     1      -9.427   6.342  68.244  1.00  0.00    -0.122 N  
HETATM   13  O   UNL     1     -10.883   5.547  70.110  1.00  0.00    -0.306 OA 
HETATM   14  H1  UNL     1     -10.236   6.228  67.633  1.00  0.00     0.000 HD 
HETATM   15  H2  UNL     1      -8.436   6.249  68.020  1.00  0.00     0.000 HD 
ENDBRANCH   7  10
TORSDOF 1
ENDMDL
MODEL      170
REMARK 921   NORMALIZED FREE ENERGY PREDICTED BY IDOCK:   -1.29 KCAL/MOL
REMARK 922        TOTAL FREE ENERGY PREDICTED BY IDOCK:   -1.41 KCAL/MOL
REMARK 923 INTER-LIGAND FREE ENERGY PREDICTED BY IDOCK:   -1.37 KCAL/MOL
REMARK 924 INTRA-LIGAND FREE ENERGY PREDICTED BY IDOCK:   -0.05 KCAL/MOL
REMARK 927      BINDING AFFINITY PREDICTED BY RF-SCORE:    0.00 PKD
ROOT
HETATM    1  N   UNL     1      -5.769   3.192  70.222  1.00  0.00    -0.017 NA 
HETATM    2  C   UNL     1      -6.581   4.295  69.937  1.00  0.00    -0.033 A  
HETATM    3  H2  UNL     1      -4.984   3.193  69.570  1.00  0.00     0.000 HD 
HETATM    4  H1  UNL     1      -5.404   3.055  71.165  1.00  0.00     0.000 HD 
HETATM    5  C   UNL     1      -7.082   4.483  68.644  1.00  0.00    -0.052 A  
HETATM    6  C   UNL     1      -7.978   5.518  68.368  1.00  0.00    -0.096 A  
HETATM    7  C   UNL     1      -8.421   6.339  69.406  1.00  0.00    -0.125 A  
HETATM    8  C   UNL     1      -7.978   6.128  70.713  1.00  0.00    -0.115 A  
HETATM    9  C   UNL     1      -7.081   5.089  70.975  1.00  0.00    -0.055 A  
ENDROOT
BRANCH   7  10
HETATM   10  S   UNL     1      -9.515   7.681  69.052  1.00  0.00    -0.150 S  
HETATM   11  O   UNL     1      -9.176   8.243  67.766  1.00  0.00    -0.134 OA 
HETATM   12  N   UNL     1     -10.981   6.891  68.840  1.00  0.00    -0.422 N  
HETATM   13  O   UNL     1      -9.671   8.495  70.235  1.00  0.00    -0.167 OA 
HETATM   14  H1  UNL     1     -11.613   7.665  68.636  1.00  0.00     0.000 HD 
HETATM   15  H2  UNL     1     -11.187   5.894  68.900  1.00  0.00     0.000 HD 
ENDBRANCH   7  10
TORSDOF 1
ENDMDL
MODEL      171
REMARK 921   NORMALIZED FREE ENERGY PREDICTED BY IDOCK:   -1.14 KCAL/MOL
REMARK 922        TOTAL FREE ENERGY PREDICTED BY IDOCK:   -1.26 KCAL/MOL
REMARK 923 INTER-LIGAND FREE ENERGY PREDICTED BY IDOCK:   -1.21 KCAL/MOL
REMARK 924 INTRA-LIGAND FREE ENERGY PREDICTED BY IDOCK:   -0.05 KCAL/MOL
REMARK 927      BINDING AFFINITY PREDICTED BY RF-SCORE:    0.00 PKD
ROOT
HETATM    1  N   UNL     1      -8.715  18.404  66.396  1.00  0.00    -0.381 NA 
HETATM    2  C   UNL     1      -9.354  17.667  67.400  1.00  0.00    -0.247 A  
HETATM    3  H2  UNL     1      -9.196  18.230  65.513  1.00  0.00     0.000 HD 
HETATM    4  H1  UNL     1      -8.588  19.411  66.502  1.00  0.00     0.000 HD 
HETATM    5  C   UNL     1      -9.527  16.287  67.255  1.00  0.00    -0.231 A  
HETATM    6  C   UNL     1     -10.068  15.522  68.293  1.00  0.00    -0.218 A  
HETATM    7  C   UNL     1     -10.386  16.136  69.505  1.00  0.00    -0.282 A  
HETATM    8  C   UNL     1     -10.163  17.501  69.687  1.00  0.00     0.173 A  
HETATM    9  C   UNL     1      -9.623  18.254  68.641  1.00  0.00    -0.351 A  
ENDROOT
BRANCH   7  10
HETATM   10  S   UNL     1     -11.116  15.182  70.801  1.00  0.00    -0.209 S  
HETATM   11  O   UNL     1     -10.108  14.868  71.785  1.00  0.00     1.461 OA 
HETATM   12  N   UNL     1     -12.138  16.300  71.526  1.00  0.00    -0.633 N  
HETATM   13  O   UNL     1     -11.977  14.174  70.226  1.00  0.00    -0.295 OA 
HETATM   14  H1  UNL     1     -12.560  15.749  72.274  1.00  0.00     0.000 HD 
HETATM   15  H2  UNL     1     -12.296  17.277  71.282  1.00  0.00     0.000 HD 
ENDBRANCH   7  10
TORSDOF 1
ENDMDL
MODEL      172
REMARK 921   NORMALIZED FREE ENERGY PREDICTED BY IDOCK:    3.65 KCAL/MOL
REMARK 922        TOTAL FREE ENERGY PREDICTED BY IDOCK:    3.81 KCAL/MOL
REMARK 923 INTER-LIGAND FREE ENERGY PREDICTED BY IDOCK:    3.86 KCAL/MOL
REMARK 924 INTRA-LIGAND FREE ENERGY PREDICTED BY IDOCK:   -0.05 KCAL/MOL
REMARK 927      BINDING AFFINITY PREDICTED BY RF-SCORE:    0.00 PKD
ROOT
HETATM    1  N   UNL     1      -6.878  15.775  68.831  1.00  0.00    -0.123 NA 
HETATM    2  C   UNL     1      -6.716  14.431  69.186  1.00  0.00    -0.117 A  
HETATM    3  H2  UNL     1      -6.839  15.846  67.813  1.00  0.00     0.000 HD 
HETATM    4  H1  UNL     1      -7.690  16.297  69.160  1.00  0.00     0.000 HD 
HETATM    5  C   UNL     1      -5.602  13.715  68.735  1.00  0.00    -0.083 A  
HETATM    6  C   UNL     1      -5.371  12.406  69.166  1.00  0.00    -0.068 A  
HETATM    7  C   UNL     1      -6.233  11.828  70.099  1.00  0.00    -0.104 A  
HETATM    8  C   UNL     1      -7.315  12.550  70.605  1.00  0.00     3.547 A  
HETATM    9  C   UNL     1      -7.535  13.858  70.165  1.00  0.00     0.977 A  
ENDROOT
BRANCH   7  10
HETATM   10  S   UNL     1      -5.974  10.156  70.608  1.00  0.00    -0.101 S  
HETATM   11  O   UNL     1      -5.179  10.144  71.813  1.00  0.00    -0.090 OA 
HETATM   12  N   UNL     1      -7.519   9.686  71.069  1.00  0.00     0.054 N  
HETATM   13  O   UNL     1      -5.643   9.351  69.455  1.00  0.00    -0.034 OA 
HETATM   14  H1  UNL     1      -7.369   8.721  71.363  1.00  0.00     0.000 HD 
HETATM   15  H2  UNL     1      -8.383  10.227  71.058  1.00  0.00     0.000 HD 
ENDBRANCH   7  10
TORSDOF 1
ENDMDL
