MODEL        1
REMARK 921   NORMALIZED FREE ENERGY PREDICTED BY IDOCK:   -6.66 KCAL/MOL
REMARK 922        TOTAL FREE ENERGY PREDICTED BY IDOCK:   -9.12 KCAL/MOL
REMARK 923 INTER-LIGAND FREE ENERGY PREDICTED BY IDOCK:   -8.61 KCAL/MOL
REMARK 924 INTRA-LIGAND FREE ENERGY PREDICTED BY IDOCK:   -0.51 KCAL/MOL
REMARK 927      BINDING AFFINITY PREDICTED BY RF-SCORE:    0.00 PKD
ROOT
HETATM    1  C   UNL     1     -13.569  15.842  72.712  1.00  0.00    -0.580 C  
HETATM    2  O   UNL     1     -13.759  15.335  71.394  1.00  0.00    -0.462 OA 
ENDROOT
BRANCH   2   3
HETATM    3  C   UNL     1     -13.120  14.139  71.141  1.00  0.00    -0.328 A  
HETATM    4  N   UNL     1     -13.498  13.072  71.880  1.00  0.00    -0.443 NA 
HETATM    5  C   UNL     1     -12.859  11.921  71.640  1.00  0.00    -0.312 A  
HETATM    6  N   UNL     1     -11.901  11.733  70.733  1.00  0.00    -0.124 NA 
HETATM    7  C   UNL     1     -11.547  12.830  70.047  1.00  0.00    -0.120 A  
HETATM    8  C   UNL     1     -12.113  14.094  70.189  1.00  0.00    -0.346 A  
BRANCH   7   9
HETATM    9  N   UNL     1     -10.493  12.577  69.130  1.00  0.00    -0.434 N  
HETATM   10  H   UNL     1      -9.522  12.802  69.348  1.00  0.00     0.000 HD 
BRANCH   9  11
HETATM   11  S   UNL     1     -10.939  11.887  67.660  1.00  0.00    -0.251 S  
HETATM   12  O   UNL     1     -12.284  11.380  67.847  1.00  0.00    -0.592 OA 
HETATM   13  O   UNL     1      -9.879  11.021  67.192  1.00  0.00    -0.179 OA 
BRANCH  11  14
HETATM   14  C   UNL     1     -11.066  13.277  66.560  1.00  0.00    -0.294 A  
HETATM   15  C   UNL     1      -9.979  14.137  66.390  1.00  0.00    -0.302 A  
HETATM   16  C   UNL     1     -10.086  15.215  65.505  1.00  0.00    -0.402 A  
HETATM   17  C   UNL     1     -11.279  15.464  64.820  1.00  0.00    -0.395 A  
HETATM   18  C   UNL     1     -12.328  14.546  64.938  1.00  0.00    -0.378 A  
HETATM   19  N   UNL     1     -11.339  16.480  63.858  1.00  0.00    -1.559 NA 
HETATM   20  H2  UNL     1     -10.602  16.316  63.172  1.00  0.00     0.000 HD 
HETATM   21  H1  UNL     1     -12.209  16.662  63.358  1.00  0.00     0.000 HD 
HETATM   22  C   UNL     1     -12.234  13.463  65.818  1.00  0.00    -0.507 A  
ENDBRANCH  11  14
ENDBRANCH   9  11
ENDBRANCH   7   9
BRANCH   8  23
HETATM   23  O   UNL     1     -11.591  15.095  69.420  1.00  0.00    -0.285 OA 
HETATM   24  C   UNL     1     -10.587  15.927  69.991  1.00  0.00    -0.316 C  
ENDBRANCH   8  23
ENDBRANCH   2   3
TORSDOF 5
ENDMDL
MODEL        2
REMARK 921   NORMALIZED FREE ENERGY PREDICTED BY IDOCK:   -6.37 KCAL/MOL
REMARK 922        TOTAL FREE ENERGY PREDICTED BY IDOCK:   -8.74 KCAL/MOL
REMARK 923 INTER-LIGAND FREE ENERGY PREDICTED BY IDOCK:   -8.12 KCAL/MOL
REMARK 924 INTRA-LIGAND FREE ENERGY PREDICTED BY IDOCK:   -0.61 KCAL/MOL
REMARK 927      BINDING AFFINITY PREDICTED BY RF-SCORE:    0.00 PKD
ROOT
HETATM    1  C   UNL     1     -12.741  11.806  63.530  1.00  0.00    -0.306 C  
HETATM    2  O   UNL     1     -13.068  12.501  64.730  1.00  0.00    -0.853 OA 
ENDROOT
BRANCH   2   3
HETATM    3  C   UNL     1     -12.318  13.636  64.958  1.00  0.00    -0.427 A  
HETATM    4  N   UNL     1     -12.509  14.679  64.119  1.00  0.00    -0.796 NA 
HETATM    5  C   UNL     1     -11.763  15.768  64.338  1.00  0.00    -0.201 A  
HETATM    6  N   UNL     1     -10.865  15.918  65.311  1.00  0.00    -0.397 NA 
HETATM    7  C   UNL     1     -10.697  14.845  66.098  1.00  0.00    -0.317 A  
HETATM    8  C   UNL     1     -11.391  13.643  65.990  1.00  0.00    -0.312 A  
BRANCH   7   9
HETATM    9  N   UNL     1      -9.697  15.050  67.085  1.00  0.00    -0.223 N  
HETATM   10  H   UNL     1      -8.761  14.654  66.996  1.00  0.00     0.000 HD 
BRANCH   9  11
HETATM   11  S   UNL     1     -10.147  15.983  68.412  1.00  0.00    -0.235 S  
HETATM   12  O   UNL     1      -9.406  15.459  69.542  1.00  0.00    -0.265 OA 
HETATM   13  O   UNL     1     -11.589  16.094  68.458  1.00  0.00    -0.377 OA 
BRANCH  11  14
HETATM   14  C   UNL     1      -9.465  17.585  68.055  1.00  0.00    -0.280 A  
HETATM   15  C   UNL     1      -8.095  17.812  68.203  1.00  0.00    -0.265 A  
HETATM   16  C   UNL     1      -7.569  19.071  67.899  1.00  0.00    -0.291 A  
HETATM   17  C   UNL     1      -8.402  20.116  67.488  1.00  0.00    -0.332 A  
HETATM   18  C   UNL     1      -9.757  19.849  67.265  1.00  0.00    -0.517 A  
HETATM   19  N   UNL     1      -7.851  21.338  67.084  1.00  0.00    -0.704 NA 
HETATM   20  H2  UNL     1      -7.174  21.156  66.343  1.00  0.00     0.000 HD 
HETATM   21  H1  UNL     1      -8.458  22.101  66.784  1.00  0.00     0.000 HD 
HETATM   22  C   UNL     1     -10.297  18.594  67.563  1.00  0.00    -0.453 A  
ENDBRANCH  11  14
ENDBRANCH   9  11
ENDBRANCH   7   9
BRANCH   8  23
HETATM   23  O   UNL     1     -11.052  12.653  66.867  1.00  0.00    -0.254 OA 
HETATM   24  C   UNL     1     -11.872  12.463  68.015  1.00  0.00    -0.316 C  
ENDBRANCH   8  23
ENDBRANCH   2   3
TORSDOF 5
ENDMDL
MODEL        3
REMARK 921   NORMALIZED FREE ENERGY PREDICTED BY IDOCK:   -6.09 KCAL/MOL
REMARK 922        TOTAL FREE ENERGY PREDICTED BY IDOCK:   -8.38 KCAL/MOL
REMARK 923 INTER-LIGAND FREE ENERGY PREDICTED BY IDOCK:   -7.85 KCAL/MOL
REMARK 924 INTRA-LIGAND FREE ENERGY PREDICTED BY IDOCK:   -0.53 KCAL/MOL
REMARK 927      BINDING AFFINITY PREDICTED BY RF-SCORE:    0.00 PKD
ROOT
HETATM    1  C   UNL     1     -13.937   9.063  72.174  1.00  0.00    -0.435 C  
HETATM    2  O   UNL     1     -13.241  10.300  72.059  1.00  0.00    -0.450 OA 
ENDROOT
BRANCH   2   3
HETATM    3  C   UNL     1     -12.100  10.248  71.286  1.00  0.00    -0.382 A  
HETATM    4  N   UNL     1     -11.247   9.224  71.517  1.00  0.00    -0.364 NA 
HETATM    5  C   UNL     1     -10.134   9.193  70.774  1.00  0.00    -0.268 A  
HETATM    6  N   UNL     1      -9.804  10.068  69.824  1.00  0.00    -0.238 NA 
HETATM    7  C   UNL     1     -10.672  11.076  69.654  1.00  0.00    -0.139 A  
HETATM    8  C   UNL     1     -11.863  11.247  70.354  1.00  0.00    -0.350 A  
BRANCH   7   9
HETATM    9  N   UNL     1     -10.243  11.997  68.663  1.00  0.00    -0.301 N  
HETATM   10  H   UNL     1      -9.894  12.926  68.903  1.00  0.00     0.000 HD 
BRANCH   9  11
HETATM   11  S   UNL     1     -10.344  11.469  67.068  1.00  0.00    -0.228 S  
HETATM   12  O   UNL     1     -11.518  10.620  66.999  1.00  0.00    -0.304 OA 
HETATM   13  O   UNL     1      -9.052  10.983  66.637  1.00  0.00    -0.159 OA 
BRANCH  11  14
HETATM   14  C   UNL     1     -10.730  12.944  66.155  1.00  0.00    -0.272 A  
HETATM   15  C   UNL     1      -9.859  14.035  66.187  1.00  0.00    -0.319 A  
HETATM   16  C   UNL     1     -10.165  15.183  65.448  1.00  0.00    -0.402 A  
HETATM   17  C   UNL     1     -11.350  15.266  64.712  1.00  0.00    -0.391 A  
HETATM   18  C   UNL     1     -12.169  14.135  64.624  1.00  0.00    -0.465 A  
HETATM   19  N   UNL     1     -11.593  16.374  63.892  1.00  0.00    -1.602 NA 
HETATM   20  H2  UNL     1     -10.807  16.477  63.250  1.00  0.00     0.000 HD 
HETATM   21  H1  UNL     1     -12.458  16.435  63.354  1.00  0.00     0.000 HD 
HETATM   22  C   UNL     1     -11.874  12.980  65.356  1.00  0.00    -0.428 A  
ENDBRANCH  11  14
ENDBRANCH   9  11
ENDBRANCH   7   9
BRANCH   8  23
HETATM   23  O   UNL     1     -12.598  12.360  70.059  1.00  0.00    -0.012 OA 
HETATM   24  C   UNL     1     -12.539  13.461  70.958  1.00  0.00    -0.343 C  
ENDBRANCH   8  23
ENDBRANCH   2   3
TORSDOF 5
ENDMDL
MODEL        4
REMARK 921   NORMALIZED FREE ENERGY PREDICTED BY IDOCK:   -6.07 KCAL/MOL
REMARK 922        TOTAL FREE ENERGY PREDICTED BY IDOCK:   -8.35 KCAL/MOL
REMARK 923 INTER-LIGAND FREE ENERGY PREDICTED BY IDOCK:   -8.18 KCAL/MOL
REMARK 924 INTRA-LIGAND FREE ENERGY PREDICTED BY IDOCK:   -0.17 KCAL/MOL
REMARK 927      BINDING AFFINITY PREDICTED BY RF-SCORE:    0.00 PKD
ROOT
HETATM    1  C   UNL     1     -13.904   8.883  72.211  1.00  0.00    -0.474 C  
HETATM    2  O   UNL     1     -12.550   9.325  72.163  1.00  0.00    -0.374 OA 
ENDROOT
BRANCH   2   3
HETATM    3  C   UNL     1     -12.366  10.545  71.547  1.00  0.00    -0.341 A  
HETATM    4  N   UNL     1     -13.172  11.559  71.936  1.00  0.00    -0.456 NA 
HETATM    5  C   UNL     1     -12.997  12.734  71.319  1.00  0.00    -0.220 A  
HETATM    6  N   UNL     1     -12.096  12.993  70.372  1.00  0.00    -0.355 NA 
HETATM    7  C   UNL     1     -11.341  11.946  70.006  1.00  0.00    -0.012 A  
HETATM    8  C   UNL     1     -11.411  10.666  70.549  1.00  0.00    -0.317 A  
BRANCH   7   9
HETATM    9  N   UNL     1     -10.434  12.273  68.964  1.00  0.00    -0.419 N  
HETATM   10  H   UNL     1      -9.608  12.850  69.128  1.00  0.00     0.000 HD 
BRANCH   9  11
HETATM   11  S   UNL     1     -10.799  11.653  67.442  1.00  0.00    -0.266 S  
HETATM   12  O   UNL     1     -12.113  11.051  67.559  1.00  0.00    -0.344 OA 
HETATM   13  O   UNL     1      -9.675  10.888  66.950  1.00  0.00    -0.176 OA 
BRANCH  11  14
HETATM   14  C   UNL     1     -10.990  13.100  66.429  1.00  0.00    -0.288 A  
HETATM   15  C   UNL     1      -9.934  14.004  66.293  1.00  0.00    -0.317 A  
HETATM   16  C   UNL     1     -10.091  15.128  65.475  1.00  0.00    -0.402 A  
HETATM   17  C   UNL     1     -11.303  15.379  64.827  1.00  0.00    -0.376 A  
HETATM   18  C   UNL     1     -12.321  14.422  64.907  1.00  0.00    -0.414 A  
HETATM   19  N   UNL     1     -11.413  16.447  63.928  1.00  0.00    -1.618 NA 
HETATM   20  H2  UNL     1     -10.684  16.348  63.221  1.00  0.00     0.000 HD 
HETATM   21  H1  UNL     1     -12.298  16.630  63.455  1.00  0.00     0.000 HD 
HETATM   22  C   UNL     1     -12.177  13.292  65.719  1.00  0.00    -0.510 A  
ENDBRANCH  11  14
ENDBRANCH   9  11
ENDBRANCH   7   9
BRANCH   8  23
HETATM   23  O   UNL     1     -10.578   9.724  70.017  1.00  0.00    -0.235 OA 
HETATM   24  C   UNL     1      -9.495   9.259  70.814  1.00  0.00    -0.271 C  
ENDBRANCH   8  23
ENDBRANCH   2   3
TORSDOF 5
ENDMDL
MODEL        5
REMARK 921   NORMALIZED FREE ENERGY PREDICTED BY IDOCK:   -6.04 KCAL/MOL
REMARK 922        TOTAL FREE ENERGY PREDICTED BY IDOCK:   -8.32 KCAL/MOL
REMARK 923 INTER-LIGAND FREE ENERGY PREDICTED BY IDOCK:   -7.74 KCAL/MOL
REMARK 924 INTRA-LIGAND FREE ENERGY PREDICTED BY IDOCK:   -0.58 KCAL/MOL
REMARK 927      BINDING AFFINITY PREDICTED BY RF-SCORE:    0.00 PKD
ROOT
HETATM    1  C   UNL     1     -10.727   9.632  67.629  1.00  0.00    -0.262 C  
HETATM    2  O   UNL     1     -11.528  10.739  67.227  1.00  0.00    -0.436 OA 
ENDROOT
BRANCH   2   3
HETATM    3  C   UNL     1     -11.765  11.666  68.221  1.00  0.00    -0.304 A  
HETATM    4  N   UNL     1     -12.034  11.187  69.457  1.00  0.00    -0.337 NA 
HETATM    5  C   UNL     1     -12.281  12.094  70.410  1.00  0.00    -0.294 A  
HETATM    6  N   UNL     1     -12.272  13.417  70.250  1.00  0.00    -0.346 NA 
HETATM    7  C   UNL     1     -12.026  13.837  69.001  1.00  0.00    -0.360 A  
HETATM    8  C   UNL     1     -11.759  13.017  67.908  1.00  0.00    -0.357 A  
BRANCH   7   9
HETATM    9  N   UNL     1     -12.075  15.251  68.885  1.00  0.00    -0.579 N  
HETATM   10  H   UNL     1     -12.828  15.727  68.387  1.00  0.00     0.000 HD 
BRANCH   9  11
HETATM   11  S   UNL     1     -10.818  16.097  69.618  1.00  0.00    -0.359 S  
HETATM   12  O   UNL     1      -9.673  15.208  69.605  1.00  0.00    -0.213 OA 
HETATM   13  O   UNL     1     -11.287  16.683  70.855  1.00  0.00    -0.226 OA 
BRANCH  11  14
HETATM   14  C   UNL     1     -10.459  17.405  68.469  1.00  0.00    -0.370 A  
HETATM   15  C   UNL     1     -10.553  17.175  67.095  1.00  0.00    -0.244 A  
HETATM   16  C   UNL     1     -10.288  18.219  66.202  1.00  0.00    -0.414 A  
HETATM   17  C   UNL     1      -9.893  19.476  66.667  1.00  0.00    -0.394 A  
HETATM   18  C   UNL     1      -9.885  19.712  68.047  1.00  0.00    -0.524 A  
HETATM   19  N   UNL     1      -9.735  20.540  65.771  1.00  0.00    -0.569 NA 
HETATM   20  H2  UNL     1     -10.603  20.650  65.247  1.00  0.00     0.000 HD 
HETATM   21  H1  UNL     1      -9.446  21.458  66.110  1.00  0.00     0.000 HD 
HETATM   22  C   UNL     1     -10.149  18.679  68.950  1.00  0.00    -0.357 A  
ENDBRANCH  11  14
ENDBRANCH   9  11
ENDBRANCH   7   9
BRANCH   8  23
HETATM   23  O   UNL     1     -11.566  13.634  66.705  1.00  0.00    -0.332 OA 
HETATM   24  C   UNL     1     -12.653  13.671  65.787  1.00  0.00    -0.461 C  
ENDBRANCH   8  23
ENDBRANCH   2   3
TORSDOF 5
ENDMDL
MODEL        6
REMARK 921   NORMALIZED FREE ENERGY PREDICTED BY IDOCK:   -6.02 KCAL/MOL
REMARK 922        TOTAL FREE ENERGY PREDICTED BY IDOCK:   -8.29 KCAL/MOL
REMARK 923 INTER-LIGAND FREE ENERGY PREDICTED BY IDOCK:   -7.55 KCAL/MOL
REMARK 924 INTRA-LIGAND FREE ENERGY PREDICTED BY IDOCK:   -0.75 KCAL/MOL
REMARK 927      BINDING AFFINITY PREDICTED BY RF-SCORE:    0.00 PKD
ROOT
HETATM    1  C   UNL     1     -11.602  12.557  63.495  1.00  0.00    -0.508 C  
HETATM    2  O   UNL     1     -10.390  12.864  64.179  1.00  0.00    -0.410 OA 
ENDROOT
BRANCH   2   3
HETATM    3  C   UNL     1     -10.152  12.094  65.298  1.00  0.00    -0.265 A  
HETATM    4  N   UNL     1      -9.725  10.827  65.094  1.00  0.00    -0.243 NA 
HETATM    5  C   UNL     1      -9.515  10.083  66.186  1.00  0.00    -0.190 A  
HETATM    6  N   UNL     1      -9.675  10.483  67.447  1.00  0.00    -0.162 NA 
HETATM    7  C   UNL     1     -10.124  11.739  67.591  1.00  0.00    -0.193 A  
HETATM    8  C   UNL     1     -10.394  12.628  66.555  1.00  0.00    -0.242 A  
BRANCH   7   9
HETATM    9  N   UNL     1     -10.317  12.091  68.953  1.00  0.00    -0.391 N  
HETATM   10  H   UNL     1      -9.678  12.716  69.446  1.00  0.00     0.000 HD 
BRANCH   9  11
HETATM   11  S   UNL     1     -11.662  11.417  69.709  1.00  0.00    -0.367 S  
HETATM   12  O   UNL     1     -11.148  10.440  70.648  1.00  0.00    -0.313 OA 
HETATM   13  O   UNL     1     -12.640  11.043  68.710  1.00  0.00    -0.350 OA 
BRANCH  11  14
HETATM   14  C   UNL     1     -12.320  12.755  70.676  1.00  0.00    -0.297 A  
HETATM   15  C   UNL     1     -13.189  12.491  71.737  1.00  0.00    -0.444 A  
HETATM   16  C   UNL     1     -13.683  13.552  72.503  1.00  0.00    -0.664 A  
HETATM   17  C   UNL     1     -13.351  14.874  72.194  1.00  0.00    -0.375 A  
HETATM   18  C   UNL     1     -12.416  15.115  71.182  1.00  0.00    -0.416 A  
HETATM   19  N   UNL     1     -13.765  15.917  73.032  1.00  0.00    -0.642 NA 
HETATM   20  H2  UNL     1     -13.441  15.717  73.978  1.00  0.00     0.000 HD 
HETATM   21  H1  UNL     1     -13.523  16.882  72.806  1.00  0.00     0.000 HD 
HETATM   22  C   UNL     1     -11.912  14.064  70.410  1.00  0.00    -0.398 A  
ENDBRANCH  11  14
ENDBRANCH   9  11
ENDBRANCH   7   9
BRANCH   8  23
HETATM   23  O   UNL     1     -10.878  13.856  66.905  1.00  0.00    -0.283 OA 
HETATM   24  C   UNL     1     -12.273  14.095  66.757  1.00  0.00    -0.394 C  
ENDBRANCH   8  23
ENDBRANCH   2   3
TORSDOF 5
ENDMDL
MODEL        7
REMARK 921   NORMALIZED FREE ENERGY PREDICTED BY IDOCK:   -6.01 KCAL/MOL
REMARK 922        TOTAL FREE ENERGY PREDICTED BY IDOCK:   -8.28 KCAL/MOL
REMARK 923 INTER-LIGAND FREE ENERGY PREDICTED BY IDOCK:   -7.76 KCAL/MOL
REMARK 924 INTRA-LIGAND FREE ENERGY PREDICTED BY IDOCK:   -0.52 KCAL/MOL
REMARK 927      BINDING AFFINITY PREDICTED BY RF-SCORE:    0.00 PKD
ROOT
HETATM    1  C   UNL     1      -9.459  19.430  68.605  1.00  0.00    -0.405 C  
HETATM    2  O   UNL     1     -10.208  18.310  69.069  1.00  0.00    -0.376 OA 
ENDROOT
BRANCH   2   3
HETATM    3  C   UNL     1     -10.443  17.342  68.116  1.00  0.00    -0.382 A  
HETATM    4  N   UNL     1      -9.916  17.547  66.887  1.00  0.00    -0.300 NA 
HETATM    5  C   UNL     1     -10.166  16.611  65.964  1.00  0.00    -0.351 A  
HETATM    6  N   UNL     1     -10.870  15.496  66.153  1.00  0.00    -0.317 NA 
HETATM    7  C   UNL     1     -11.390  15.354  67.381  1.00  0.00    -0.243 A  
HETATM    8  C   UNL     1     -11.225  16.243  68.440  1.00  0.00    -0.349 A  
BRANCH   7   9
HETATM    9  N   UNL     1     -12.166  14.172  67.507  1.00  0.00    -0.578 N  
HETATM   10  H   UNL     1     -13.182  14.180  67.413  1.00  0.00     0.000 HD 
BRANCH   9  11
HETATM   11  S   UNL     1     -11.311  12.756  67.821  1.00  0.00    -0.315 S  
HETATM   12  O   UNL     1     -12.256  11.844  68.436  1.00  0.00    -0.425 OA 
HETATM   13  O   UNL     1     -10.062  13.080  68.473  1.00  0.00    -0.234 OA 
BRANCH  11  14
HETATM   14  C   UNL     1     -10.957  12.107  66.204  1.00  0.00    -0.298 A  
HETATM   15  C   UNL     1     -11.843  12.335  65.149  1.00  0.00    -0.404 A  
HETATM   16  C   UNL     1     -11.541  11.836  63.877  1.00  0.00    -0.469 A  
HETATM   17  C   UNL     1     -10.387  11.078  63.660  1.00  0.00    -0.352 A  
HETATM   18  C   UNL     1      -9.472  10.930  64.707  1.00  0.00    -0.279 A  
HETATM   19  N   UNL     1     -10.043  10.677  62.363  1.00  0.00    -0.744 NA 
HETATM   20  H2  UNL     1      -9.999  11.506  61.771  1.00  0.00     0.000 HD 
HETATM   21  H1  UNL     1      -9.201  10.124  62.204  1.00  0.00     0.000 HD 
HETATM   22  C   UNL     1      -9.759  11.425  65.983  1.00  0.00    -0.253 A  
ENDBRANCH  11  14
ENDBRANCH   9  11
ENDBRANCH   7   9
BRANCH   8  23
HETATM   23  O   UNL     1     -11.864  15.939  69.608  1.00  0.00    -0.333 OA 
HETATM   24  C   UNL     1     -11.071  15.565  70.729  1.00  0.00    -0.351 C  
ENDBRANCH   8  23
ENDBRANCH   2   3
TORSDOF 5
ENDMDL
MODEL        8
REMARK 921   NORMALIZED FREE ENERGY PREDICTED BY IDOCK:   -6.01 KCAL/MOL
REMARK 922        TOTAL FREE ENERGY PREDICTED BY IDOCK:   -8.28 KCAL/MOL
REMARK 923 INTER-LIGAND FREE ENERGY PREDICTED BY IDOCK:   -8.20 KCAL/MOL
REMARK 924 INTRA-LIGAND FREE ENERGY PREDICTED BY IDOCK:   -0.07 KCAL/MOL
REMARK 927      BINDING AFFINITY PREDICTED BY RF-SCORE:    0.00 PKD
ROOT
HETATM    1  C   UNL     1     -12.633  11.803  63.236  1.00  0.00    -0.254 C  
HETATM    2  O   UNL     1     -13.232  12.367  64.398  1.00  0.00    -0.816 OA 
ENDROOT
BRANCH   2   3
HETATM    3  C   UNL     1     -12.463  13.316  65.039  1.00  0.00    -0.443 A  
HETATM    4  N   UNL     1     -12.257  14.483  64.387  1.00  0.00    -0.563 NA 
HETATM    5  C   UNL     1     -11.493  15.389  65.008  1.00  0.00    -0.263 A  
HETATM    6  N   UNL     1     -10.935  15.249  66.210  1.00  0.00    -0.320 NA 
HETATM    7  C   UNL     1     -11.151  14.064  66.801  1.00  0.00    -0.306 A  
HETATM    8  C   UNL     1     -11.913  13.024  66.278  1.00  0.00    -0.414 A  
BRANCH   7   9
HETATM    9  N   UNL     1     -10.495  13.958  68.055  1.00  0.00    -0.238 N  
HETATM   10  H   UNL     1      -9.621  13.442  68.167  1.00  0.00     0.000 HD 
BRANCH   9  11
HETATM   11  S   UNL     1     -11.242  14.734  69.349  1.00  0.00    -0.298 S  
HETATM   12  O   UNL     1     -12.352  15.476  68.786  1.00  0.00    -0.116 OA 
HETATM   13  O   UNL     1     -10.242  15.395  70.159  1.00  0.00    -0.292 OA 
BRANCH  11  14
HETATM   14  C   UNL     1     -11.947  13.402  70.292  1.00  0.00    -0.308 A  
HETATM   15  C   UNL     1     -12.830  13.677  71.339  1.00  0.00    -0.442 A  
HETATM   16  C   UNL     1     -13.394  12.619  72.059  1.00  0.00    -0.555 A  
HETATM   17  C   UNL     1     -13.053  11.294  71.772  1.00  0.00    -0.422 A  
HETATM   18  C   UNL     1     -12.233  11.034  70.668  1.00  0.00    -0.481 A  
HETATM   19  N   UNL     1     -13.704  10.242  72.427  1.00  0.00    -0.500 NA 
HETATM   20  H2  UNL     1     -14.709  10.351  72.291  1.00  0.00     0.000 HD 
HETATM   21  H1  UNL     1     -13.455   9.275  72.217  1.00  0.00     0.000 HD 
HETATM   22  C   UNL     1     -11.664  12.082  69.938  1.00  0.00    -0.374 A  
ENDBRANCH  11  14
ENDBRANCH   9  11
ENDBRANCH   7   9
BRANCH   8  23
HETATM   23  O   UNL     1     -11.986  11.878  67.018  1.00  0.00    -0.615 OA 
HETATM   24  C   UNL     1     -11.031  10.854  66.767  1.00  0.00    -0.185 C  
ENDBRANCH   8  23
ENDBRANCH   2   3
TORSDOF 5
ENDMDL
MODEL        9
REMARK 921   NORMALIZED FREE ENERGY PREDICTED BY IDOCK:   -6.00 KCAL/MOL
REMARK 922        TOTAL FREE ENERGY PREDICTED BY IDOCK:   -8.27 KCAL/MOL
REMARK 923 INTER-LIGAND FREE ENERGY PREDICTED BY IDOCK:   -8.17 KCAL/MOL
REMARK 924 INTRA-LIGAND FREE ENERGY PREDICTED BY IDOCK:   -0.10 KCAL/MOL
REMARK 927      BINDING AFFINITY PREDICTED BY RF-SCORE:    0.00 PKD
ROOT
HETATM    1  C   UNL     1     -13.811   8.892  72.323  1.00  0.00    -0.474 C  
HETATM    2  O   UNL     1     -12.464   9.222  71.998  1.00  0.00    -0.365 OA 
ENDROOT
BRANCH   2   3
HETATM    3  C   UNL     1     -12.308  10.437  71.362  1.00  0.00    -0.397 A  
HETATM    4  N   UNL     1     -13.152  11.431  71.719  1.00  0.00    -0.471 NA 
HETATM    5  C   UNL     1     -13.004  12.599  71.084  1.00  0.00    -0.151 A  
HETATM    6  N   UNL     1     -12.096  12.870  70.147  1.00  0.00    -0.337 NA 
HETATM    7  C   UNL     1     -11.302  11.841  69.813  1.00  0.00    -0.170 A  
HETATM    8  C   UNL     1     -11.341  10.570  70.378  1.00  0.00    -0.328 A  
BRANCH   7   9
HETATM    9  N   UNL     1     -10.387  12.178  68.780  1.00  0.00    -0.363 N  
HETATM   10  H   UNL     1      -9.585  12.787  68.946  1.00  0.00     0.000 HD 
BRANCH   9  11
HETATM   11  S   UNL     1     -10.703  11.513  67.266  1.00  0.00    -0.259 S  
HETATM   12  O   UNL     1     -11.996  10.866  67.373  1.00  0.00    -0.343 OA 
HETATM   13  O   UNL     1      -9.543  10.781  66.808  1.00  0.00    -0.167 OA 
BRANCH  11  14
HETATM   14  C   UNL     1     -10.930  12.931  66.219  1.00  0.00    -0.281 A  
HETATM   15  C   UNL     1     -12.083  13.049  65.440  1.00  0.00    -0.490 A  
HETATM   16  C   UNL     1     -12.259  14.181  64.636  1.00  0.00    -0.465 A  
HETATM   17  C   UNL     1     -11.276  15.173  64.572  1.00  0.00    -0.272 A  
HETATM   18  C   UNL     1     -10.167  15.079  65.420  1.00  0.00    -0.411 A  
HETATM   19  N   UNL     1     -11.510  16.349  63.848  1.00  0.00    -1.618 NA 
HETATM   20  H2  UNL     1     -12.372  16.771  64.193  1.00  0.00     0.000 HD 
HETATM   21  H1  UNL     1     -10.793  17.073  63.801  1.00  0.00     0.000 HD 
HETATM   22  C   UNL     1      -9.981  13.955  66.230  1.00  0.00    -0.315 A  
ENDBRANCH  11  14
ENDBRANCH   9  11
ENDBRANCH   7   9
BRANCH   8  23
HETATM   23  O   UNL     1     -10.469   9.645  69.877  1.00  0.00    -0.217 OA 
HETATM   24  C   UNL     1      -9.461   9.135  70.743  1.00  0.00    -0.272 C  
ENDBRANCH   8  23
ENDBRANCH   2   3
TORSDOF 5
ENDMDL
MODEL       10
REMARK 921   NORMALIZED FREE ENERGY PREDICTED BY IDOCK:   -5.99 KCAL/MOL
REMARK 922        TOTAL FREE ENERGY PREDICTED BY IDOCK:   -8.25 KCAL/MOL
REMARK 923 INTER-LIGAND FREE ENERGY PREDICTED BY IDOCK:   -7.86 KCAL/MOL
REMARK 924 INTRA-LIGAND FREE ENERGY PREDICTED BY IDOCK:   -0.39 KCAL/MOL
REMARK 927      BINDING AFFINITY PREDICTED BY RF-SCORE:    0.00 PKD
ROOT
HETATM    1  C   UNL     1     -10.500  18.229  65.967  1.00  0.00    -0.361 C  
HETATM    2  O   UNL     1      -9.845  16.986  65.734  1.00  0.00    -0.525 OA 
ENDROOT
BRANCH   2   3
HETATM    3  C   UNL     1     -10.665  15.880  65.816  1.00  0.00    -0.316 A  
HETATM    4  N   UNL     1     -11.356  15.544  64.703  1.00  0.00    -0.406 NA 
HETATM    5  C   UNL     1     -12.164  14.481  64.799  1.00  0.00    -0.431 A  
HETATM    6  N   UNL     1     -12.334  13.723  65.882  1.00  0.00    -0.462 NA 
HETATM    7  C   UNL     1     -11.645  14.117  66.963  1.00  0.00    -0.382 A  
HETATM    8  C   UNL     1     -10.775  15.202  67.020  1.00  0.00    -0.307 A  
BRANCH   7   9
HETATM    9  N   UNL     1     -11.903  13.300  68.095  1.00  0.00    -0.353 N  
HETATM   10  H   UNL     1     -12.606  13.547  68.792  1.00  0.00     0.000 HD 
BRANCH   9  11
HETATM   11  S   UNL     1     -10.979  11.897  68.221  1.00  0.00    -0.249 S  
HETATM   12  O   UNL     1      -9.642  12.328  68.577  1.00  0.00    -0.197 OA 
HETATM   13  O   UNL     1     -11.206  11.064  67.061  1.00  0.00    -0.308 OA 
BRANCH  11  14
HETATM   14  C   UNL     1     -11.647  11.076  69.650  1.00  0.00    -0.318 A  
HETATM   15  C   UNL     1     -12.500  11.763  70.517  1.00  0.00    -0.317 A  
HETATM   16  C   UNL     1     -13.034  11.099  71.625  1.00  0.00    -0.548 A  
HETATM   17  C   UNL     1     -12.693   9.771  71.898  1.00  0.00    -0.410 A  
HETATM   18  C   UNL     1     -11.904   9.075  70.976  1.00  0.00    -0.339 A  
HETATM   19  N   UNL     1     -13.316   9.086  72.948  1.00  0.00    -0.844 NA 
HETATM   20  H2  UNL     1     -14.326   9.136  72.810  1.00  0.00     0.000 HD 
HETATM   21  H1  UNL     1     -13.067   8.117  73.147  1.00  0.00     0.000 HD 
HETATM   22  C   UNL     1     -11.365   9.725  69.861  1.00  0.00    -0.238 A  
ENDBRANCH  11  14
ENDBRANCH   9  11
ENDBRANCH   7   9
BRANCH   8  23
HETATM   23  O   UNL     1     -10.191  15.463  68.227  1.00  0.00    -0.224 OA 
HETATM   24  C   UNL     1     -10.830  16.391  69.096  1.00  0.00    -0.329 C  
ENDBRANCH   8  23
ENDBRANCH   2   3
TORSDOF 5
ENDMDL
MODEL       11
REMARK 921   NORMALIZED FREE ENERGY PREDICTED BY IDOCK:   -5.97 KCAL/MOL
REMARK 922        TOTAL FREE ENERGY PREDICTED BY IDOCK:   -8.22 KCAL/MOL
REMARK 923 INTER-LIGAND FREE ENERGY PREDICTED BY IDOCK:   -7.64 KCAL/MOL
REMARK 924 INTRA-LIGAND FREE ENERGY PREDICTED BY IDOCK:   -0.59 KCAL/MOL
REMARK 927      BINDING AFFINITY PREDICTED BY RF-SCORE:    0.00 PKD
ROOT
HETATM    1  C   UNL     1     -13.858   8.817  72.106  1.00  0.00    -0.457 C  
HETATM    2  O   UNL     1     -13.018   9.967  72.089  1.00  0.00    -0.418 OA 
ENDROOT
BRANCH   2   3
HETATM    3  C   UNL     1     -11.820   9.794  71.428  1.00  0.00    -0.408 A  
HETATM    4  N   UNL     1     -10.957   8.890  71.946  1.00  0.00    -0.359 NA 
HETATM    5  C   UNL     1      -9.790   8.743  71.307  1.00  0.00    -0.266 A  
HETATM    6  N   UNL     1      -9.413   9.393  70.207  1.00  0.00    -0.233 NA 
HETATM    7  C   UNL     1     -10.295  10.295  69.751  1.00  0.00    -0.246 A  
HETATM    8  C   UNL     1     -11.542  10.565  70.310  1.00  0.00    -0.332 A  
BRANCH   7   9
HETATM    9  N   UNL     1      -9.819  10.986  68.606  1.00  0.00    -0.188 N  
HETATM   10  H   UNL     1      -9.470  11.944  68.659  1.00  0.00     0.000 HD 
BRANCH   9  11
HETATM   11  S   UNL     1      -9.865  10.134  67.155  1.00  0.00    -0.195 S  
HETATM   12  O   UNL     1     -10.835   9.073  67.342  1.00  0.00    -0.230 OA 
HETATM   13  O   UNL     1      -8.515   9.838  66.726  1.00  0.00    -0.123 OA 
BRANCH  11  14
HETATM   14  C   UNL     1     -10.585  11.286  66.008  1.00  0.00    -0.258 A  
HETATM   15  C   UNL     1     -10.320  11.172  64.642  1.00  0.00    -0.393 A  
HETATM   16  C   UNL     1     -10.910  12.072  63.749  1.00  0.00    -0.481 A  
HETATM   17  C   UNL     1     -11.728  13.107  64.211  1.00  0.00    -0.395 A  
HETATM   18  C   UNL     1     -12.049  13.156  65.572  1.00  0.00    -0.490 A  
HETATM   19  N   UNL     1     -12.397  13.934  63.301  1.00  0.00    -1.148 NA 
HETATM   20  H2  UNL     1     -12.947  13.346  62.675  1.00  0.00     0.000 HD 
HETATM   21  H1  UNL     1     -12.994  14.690  63.638  1.00  0.00     0.000 HD 
HETATM   22  C   UNL     1     -11.469  12.261  66.475  1.00  0.00    -0.438 A  
ENDBRANCH  11  14
ENDBRANCH   9  11
ENDBRANCH   7   9
BRANCH   8  23
HETATM   23  O   UNL     1     -12.285  11.546  69.718  1.00  0.00    -0.288 OA 
HETATM   24  C   UNL     1     -12.250  12.850  70.287  1.00  0.00    -0.289 C  
ENDBRANCH   8  23
ENDBRANCH   2   3
TORSDOF 5
ENDMDL
MODEL       12
REMARK 921   NORMALIZED FREE ENERGY PREDICTED BY IDOCK:   -5.95 KCAL/MOL
REMARK 922        TOTAL FREE ENERGY PREDICTED BY IDOCK:   -8.20 KCAL/MOL
REMARK 923 INTER-LIGAND FREE ENERGY PREDICTED BY IDOCK:   -8.14 KCAL/MOL
REMARK 924 INTRA-LIGAND FREE ENERGY PREDICTED BY IDOCK:   -0.06 KCAL/MOL
REMARK 927      BINDING AFFINITY PREDICTED BY RF-SCORE:    0.00 PKD
ROOT
HETATM    1  C   UNL     1     -10.603  19.575  66.398  1.00  0.00    -0.472 C  
HETATM    2  O   UNL     1      -9.578  18.657  66.029  1.00  0.00    -0.487 OA 
ENDROOT
BRANCH   2   3
HETATM    3  C   UNL     1      -9.920  17.328  66.165  1.00  0.00    -0.275 A  
HETATM    4  N   UNL     1     -10.417  16.706  65.072  1.00  0.00    -0.662 NA 
HETATM    5  C   UNL     1     -10.763  15.422  65.221  1.00  0.00    -0.421 A  
HETATM    6  N   UNL     1     -10.650  14.705  66.339  1.00  0.00    -0.295 NA 
HETATM    7  C   UNL     1     -10.177  15.379  67.398  1.00  0.00    -0.249 A  
HETATM    8  C   UNL     1      -9.782  16.713  67.400  1.00  0.00    -0.251 A  
BRANCH   7   9
HETATM    9  N   UNL     1     -10.122  14.576  68.568  1.00  0.00    -0.236 N  
HETATM   10  H   UNL     1      -9.275  14.501  69.132  1.00  0.00     0.000 HD 
BRANCH   9  11
HETATM   11  S   UNL     1     -11.535  13.755  68.969  1.00  0.00    -0.327 S  
HETATM   12  O   UNL     1     -11.152  12.371  69.173  1.00  0.00    -0.244 OA 
HETATM   13  O   UNL     1     -12.580  14.105  68.032  1.00  0.00     0.077 OA 
BRANCH  11  14
HETATM   14  C   UNL     1     -11.964  14.404  70.568  1.00  0.00    -0.325 A  
HETATM   15  C   UNL     1     -11.445  15.630  70.987  1.00  0.00    -0.439 A  
HETATM   16  C   UNL     1     -11.807  16.139  72.239  1.00  0.00    -0.631 A  
HETATM   17  C   UNL     1     -12.648  15.417  73.090  1.00  0.00    -0.465 A  
HETATM   18  C   UNL     1     -13.224  14.231  72.620  1.00  0.00    -0.601 A  
HETATM   19  N   UNL     1     -13.088  15.984  74.292  1.00  0.00    -0.893 NA 
HETATM   20  H2  UNL     1     -13.533  16.877  74.082  1.00  0.00     0.000 HD 
HETATM   21  H1  UNL     1     -13.702  15.457  74.913  1.00  0.00     0.000 HD 
HETATM   22  C   UNL     1     -12.873  13.712  71.370  1.00  0.00    -0.442 A  
ENDBRANCH  11  14
ENDBRANCH   9  11
ENDBRANCH   7   9
BRANCH   8  23
HETATM   23  O   UNL     1      -9.357  17.230  68.591  1.00  0.00    -0.261 OA 
HETATM   24  C   UNL     1      -7.963  17.457  68.765  1.00  0.00    -0.244 C  
ENDBRANCH   8  23
ENDBRANCH   2   3
TORSDOF 5
ENDMDL
MODEL       13
REMARK 921   NORMALIZED FREE ENERGY PREDICTED BY IDOCK:   -5.95 KCAL/MOL
REMARK 922        TOTAL FREE ENERGY PREDICTED BY IDOCK:   -8.20 KCAL/MOL
REMARK 923 INTER-LIGAND FREE ENERGY PREDICTED BY IDOCK:   -7.65 KCAL/MOL
REMARK 924 INTRA-LIGAND FREE ENERGY PREDICTED BY IDOCK:   -0.55 KCAL/MOL
REMARK 927      BINDING AFFINITY PREDICTED BY RF-SCORE:    0.00 PKD
ROOT
HETATM    1  C   UNL     1     -10.391  19.271  67.984  1.00  0.00    -0.405 C  
HETATM    2  O   UNL     1     -10.494  18.087  68.770  1.00  0.00    -0.326 OA 
ENDROOT
BRANCH   2   3
HETATM    3  C   UNL     1     -10.741  16.939  68.047  1.00  0.00    -0.364 A  
HETATM    4  N   UNL     1     -10.350  16.930  66.753  1.00  0.00    -0.308 NA 
HETATM    5  C   UNL     1     -10.612  15.818  66.056  1.00  0.00    -0.326 A  
HETATM    6  N   UNL     1     -11.207  14.722  66.526  1.00  0.00    -0.340 NA 
HETATM    7  C   UNL     1     -11.597  14.795  67.807  1.00  0.00    -0.357 A  
HETATM    8  C   UNL     1     -11.402  15.882  68.655  1.00  0.00    -0.376 A  
BRANCH   7   9
HETATM    9  N   UNL     1     -12.264  13.617  68.237  1.00  0.00    -0.384 N  
HETATM   10  H   UNL     1     -13.242  13.625  68.529  1.00  0.00     0.000 HD 
BRANCH   9  11
HETATM   11  S   UNL     1     -11.347  12.205  68.237  1.00  0.00    -0.316 S  
HETATM   12  O   UNL     1      -9.980  12.614  68.492  1.00  0.00    -0.219 OA 
HETATM   13  O   UNL     1     -11.679  11.414  67.072  1.00  0.00    -0.535 OA 
BRANCH  11  14
HETATM   14  C   UNL     1     -11.899  11.340  69.688  1.00  0.00    -0.360 A  
HETATM   15  C   UNL     1     -12.707  11.988  70.624  1.00  0.00    -0.163 A  
HETATM   16  C   UNL     1     -13.151  11.289  71.751  1.00  0.00    -0.527 A  
HETATM   17  C   UNL     1     -12.763   9.965  71.972  1.00  0.00    -0.366 A  
HETATM   18  C   UNL     1     -12.022   9.307  70.985  1.00  0.00    -0.369 A  
HETATM   19  N   UNL     1     -13.299   9.244  73.046  1.00  0.00    -0.762 NA 
HETATM   20  H2  UNL     1     -14.316   9.273  72.976  1.00  0.00     0.000 HD 
HETATM   21  H1  UNL     1     -13.016   8.277  73.208  1.00  0.00     0.000 HD 
HETATM   22  C   UNL     1     -11.573   9.992  69.852  1.00  0.00    -0.237 A  
ENDBRANCH  11  14
ENDBRANCH   9  11
ENDBRANCH   7   9
BRANCH   8  23
HETATM   23  O   UNL     1     -11.904  15.776  69.921  1.00  0.00    -0.342 OA 
HETATM   24  C   UNL     1     -11.000  15.471  70.977  1.00  0.00    -0.266 C  
ENDBRANCH   8  23
ENDBRANCH   2   3
TORSDOF 5
ENDMDL
MODEL       14
REMARK 921   NORMALIZED FREE ENERGY PREDICTED BY IDOCK:   -5.95 KCAL/MOL
REMARK 922        TOTAL FREE ENERGY PREDICTED BY IDOCK:   -8.20 KCAL/MOL
REMARK 923 INTER-LIGAND FREE ENERGY PREDICTED BY IDOCK:   -7.59 KCAL/MOL
REMARK 924 INTRA-LIGAND FREE ENERGY PREDICTED BY IDOCK:   -0.61 KCAL/MOL
REMARK 927      BINDING AFFINITY PREDICTED BY RF-SCORE:    0.00 PKD
ROOT
HETATM    1  C   UNL     1      -9.343   9.880  64.920  1.00  0.00    -0.268 C  
HETATM    2  O   UNL     1     -10.617  10.278  65.420  1.00  0.00    -0.152 OA 
ENDROOT
BRANCH   2   3
HETATM    3  C   UNL     1     -10.808  11.642  65.484  1.00  0.00    -0.279 A  
HETATM    4  N   UNL     1     -10.363  12.376  64.439  1.00  0.00    -0.330 NA 
HETATM    5  C   UNL     1     -10.537  13.700  64.520  1.00  0.00    -0.411 A  
HETATM    6  N   UNL     1     -11.117  14.352  65.527  1.00  0.00    -0.314 NA 
HETATM    7  C   UNL     1     -11.516  13.580  66.548  1.00  0.00    -0.339 A  
HETATM    8  C   UNL     1     -11.398  12.194  66.612  1.00  0.00    -0.350 A  
BRANCH   7   9
HETATM    9  N   UNL     1     -12.084  14.335  67.607  1.00  0.00    -0.576 N  
HETATM   10  H   UNL     1     -13.085  14.315  67.809  1.00  0.00     0.000 HD 
BRANCH   9  11
HETATM   11  S   UNL     1     -11.012  15.266  68.511  1.00  0.00    -0.281 S  
HETATM   12  O   UNL     1     -11.019  16.585  67.909  1.00  0.00    -0.343 OA 
HETATM   13  O   UNL     1      -9.774  14.540  68.690  1.00  0.00    -0.215 OA 
BRANCH  11  14
HETATM   14  C   UNL     1     -11.813  15.424  70.090  1.00  0.00    -0.335 A  
HETATM   15  C   UNL     1     -11.274  16.263  71.068  1.00  0.00    -0.227 A  
HETATM   16  C   UNL     1     -11.926  16.394  72.298  1.00  0.00    -0.521 A  
HETATM   17  C   UNL     1     -13.085  15.663  72.576  1.00  0.00    -0.472 A  
HETATM   18  C   UNL     1     -13.655  14.892  71.558  1.00  0.00    -0.511 A  
HETATM   19  N   UNL     1     -13.786  15.883  73.768  1.00  0.00    -0.695 NA 
HETATM   20  H2  UNL     1     -14.009  16.876  73.832  1.00  0.00     0.000 HD 
HETATM   21  H1  UNL     1     -14.632  15.350  73.971  1.00  0.00     0.000 HD 
HETATM   22  C   UNL     1     -13.016  14.755  70.322  1.00  0.00    -0.179 A  
ENDBRANCH  11  14
ENDBRANCH   9  11
ENDBRANCH   7   9
BRANCH   8  23
HETATM   23  O   UNL     1     -11.834  11.589  67.755  1.00  0.00    -0.584 OA 
HETATM   24  C   UNL     1     -10.860  11.103  68.672  1.00  0.00    -0.209 C  
ENDBRANCH   8  23
ENDBRANCH   2   3
TORSDOF 5
ENDMDL
MODEL       15
REMARK 921   NORMALIZED FREE ENERGY PREDICTED BY IDOCK:   -5.94 KCAL/MOL
REMARK 922        TOTAL FREE ENERGY PREDICTED BY IDOCK:   -8.18 KCAL/MOL
REMARK 923 INTER-LIGAND FREE ENERGY PREDICTED BY IDOCK:   -7.69 KCAL/MOL
REMARK 924 INTRA-LIGAND FREE ENERGY PREDICTED BY IDOCK:   -0.49 KCAL/MOL
REMARK 927      BINDING AFFINITY PREDICTED BY RF-SCORE:    0.00 PKD
ROOT
HETATM    1  C   UNL     1      -9.585  11.043  63.296  1.00  0.00    -0.345 C  
HETATM    2  O   UNL     1      -9.942  12.309  63.843  1.00  0.00    -0.338 OA 
ENDROOT
BRANCH   2   3
HETATM    3  C   UNL     1     -10.518  12.252  65.095  1.00  0.00    -0.288 A  
HETATM    4  N   UNL     1     -10.594  11.036  65.682  1.00  0.00    -0.231 NA 
HETATM    5  C   UNL     1     -11.171  10.989  66.888  1.00  0.00    -0.136 A  
HETATM    6  N   UNL     1     -11.661  12.029  67.562  1.00  0.00    -0.517 NA 
HETATM    7  C   UNL     1     -11.584  13.205  66.923  1.00  0.00    -0.368 A  
HETATM    8  C   UNL     1     -11.020  13.411  65.667  1.00  0.00    -0.281 A  
BRANCH   7   9
HETATM    9  N   UNL     1     -12.162  14.265  67.670  1.00  0.00    -0.597 N  
HETATM   10  H   UNL     1     -13.170  14.419  67.700  1.00  0.00     0.000 HD 
BRANCH   9  11
HETATM   11  S   UNL     1     -11.086  15.256  68.505  1.00  0.00    -0.298 S  
HETATM   12  O   UNL     1     -11.111  16.537  67.827  1.00  0.00    -0.289 OA 
HETATM   13  O   UNL     1      -9.840  14.550  68.710  1.00  0.00    -0.224 OA 
BRANCH  11  14
HETATM   14  C   UNL     1     -11.868  15.499  70.082  1.00  0.00    -0.356 A  
HETATM   15  C   UNL     1     -13.126  14.946  70.332  1.00  0.00    -0.206 A  
HETATM   16  C   UNL     1     -13.721  15.128  71.585  1.00  0.00    -0.578 A  
HETATM   17  C   UNL     1     -13.092  15.889  72.573  1.00  0.00    -0.456 A  
HETATM   18  C   UNL     1     -11.798  16.365  72.335  1.00  0.00    -0.548 A  
HETATM   19  N   UNL     1     -13.647  15.974  73.856  1.00  0.00    -0.740 NA 
HETATM   20  H2  UNL     1     -13.776  15.028  74.213  1.00  0.00     0.000 HD 
HETATM   21  H1  UNL     1     -13.187  16.530  74.578  1.00  0.00     0.000 HD 
HETATM   22  C   UNL     1     -11.189  16.189  71.088  1.00  0.00    -0.257 A  
ENDBRANCH  11  14
ENDBRANCH   9  11
ENDBRANCH   7   9
BRANCH   8  23
HETATM   23  O   UNL     1     -11.067  14.682  65.170  1.00  0.00    -0.336 OA 
HETATM   24  C   UNL     1     -12.109  15.008  64.257  1.00  0.00    -0.306 C  
ENDBRANCH   8  23
ENDBRANCH   2   3
TORSDOF 5
ENDMDL
MODEL       16
REMARK 921   NORMALIZED FREE ENERGY PREDICTED BY IDOCK:   -5.87 KCAL/MOL
REMARK 922        TOTAL FREE ENERGY PREDICTED BY IDOCK:   -8.10 KCAL/MOL
REMARK 923 INTER-LIGAND FREE ENERGY PREDICTED BY IDOCK:   -7.66 KCAL/MOL
REMARK 924 INTRA-LIGAND FREE ENERGY PREDICTED BY IDOCK:   -0.44 KCAL/MOL
REMARK 927      BINDING AFFINITY PREDICTED BY RF-SCORE:    0.00 PKD
ROOT
HETATM    1  C   UNL     1     -11.388  11.761  65.920  1.00  0.00    -0.263 C  
HETATM    2  O   UNL     1     -12.176  12.876  66.324  1.00  0.00    -0.454 OA 
ENDROOT
BRANCH   2   3
HETATM    3  C   UNL     1     -11.835  14.069  65.722  1.00  0.00    -0.383 A  
HETATM    4  N   UNL     1     -12.484  14.389  64.579  1.00  0.00    -0.660 NA 
HETATM    5  C   UNL     1     -12.132  15.540  63.993  1.00  0.00     0.074 A  
HETATM    6  N   UNL     1     -11.215  16.397  64.441  1.00  0.00    -0.873 NA 
HETATM    7  C   UNL     1     -10.585  16.018  65.563  1.00  0.00    -0.398 A  
HETATM    8  C   UNL     1     -10.835  14.852  66.279  1.00  0.00    -0.331 A  
BRANCH   7   9
HETATM    9  N   UNL     1      -9.591  16.949  65.964  1.00  0.00    -0.245 N  
HETATM   10  H   UNL     1      -8.595  16.733  65.909  1.00  0.00     0.000 HD 
BRANCH   9  11
HETATM   11  S   UNL     1     -10.150  18.429  66.539  1.00  0.00    -0.406 S  
HETATM   12  O   UNL     1     -11.022  18.123  67.656  1.00  0.00    -0.324 OA 
HETATM   13  O   UNL     1     -10.620  19.231  65.430  1.00  0.00    -0.492 OA 
BRANCH  11  14
HETATM   14  C   UNL     1      -8.699  19.196  67.221  1.00  0.00    -0.286 A  
HETATM   15  C   UNL     1      -8.047  20.210  66.516  1.00  0.00    -0.315 A  
HETATM   16  C   UNL     1      -6.918  20.819  67.074  1.00  0.00    -0.386 A  
HETATM   17  C   UNL     1      -6.412  20.398  68.307  1.00  0.00    -0.309 A  
HETATM   18  C   UNL     1      -7.125  19.440  69.036  1.00  0.00    -0.397 A  
HETATM   19  N   UNL     1      -5.348  21.086  68.903  1.00  0.00    -0.348 NA 
HETATM   20  H2  UNL     1      -5.605  22.070  68.980  1.00  0.00     0.000 HD 
HETATM   21  H1  UNL     1      -4.979  20.779  69.803  1.00  0.00     0.000 HD 
HETATM   22  C   UNL     1      -8.256  18.824  68.492  1.00  0.00    -0.379 A  
ENDBRANCH  11  14
ENDBRANCH   9  11
ENDBRANCH   7   9
BRANCH   8  23
HETATM   23  O   UNL     1     -10.062  14.626  67.383  1.00  0.00    -0.231 OA 
HETATM   24  C   UNL     1     -10.671  14.740  68.664  1.00  0.00    -0.253 C  
ENDBRANCH   8  23
ENDBRANCH   2   3
TORSDOF 5
ENDMDL
MODEL       17
REMARK 921   NORMALIZED FREE ENERGY PREDICTED BY IDOCK:   -5.86 KCAL/MOL
REMARK 922        TOTAL FREE ENERGY PREDICTED BY IDOCK:   -8.09 KCAL/MOL
REMARK 923 INTER-LIGAND FREE ENERGY PREDICTED BY IDOCK:   -7.67 KCAL/MOL
REMARK 924 INTRA-LIGAND FREE ENERGY PREDICTED BY IDOCK:   -0.42 KCAL/MOL
REMARK 927      BINDING AFFINITY PREDICTED BY RF-SCORE:    0.00 PKD
ROOT
HETATM    1  C   UNL     1     -12.280  12.380  63.782  1.00  0.00    -0.533 C  
HETATM    2  O   UNL     1     -11.136  12.392  64.629  1.00  0.00    -0.286 OA 
ENDROOT
BRANCH   2   3
HETATM    3  C   UNL     1     -11.400  12.705  65.946  1.00  0.00    -0.334 A  
HETATM    4  N   UNL     1     -11.596  11.672  66.797  1.00  0.00    -0.526 NA 
HETATM    5  C   UNL     1     -11.870  11.987  68.068  1.00  0.00    -0.269 A  
HETATM    6  N   UNL     1     -11.952  13.220  68.568  1.00  0.00    -0.340 NA 
HETATM    7  C   UNL     1     -11.774  14.206  67.677  1.00  0.00    -0.387 A  
HETATM    8  C   UNL     1     -11.491  14.036  66.325  1.00  0.00    -0.351 A  
BRANCH   7   9
HETATM    9  N   UNL     1     -11.918  15.493  68.259  1.00  0.00    -0.463 N  
HETATM   10  H   UNL     1     -12.715  16.095  68.049  1.00  0.00     0.000 HD 
BRANCH   9  11
HETATM   11  S   UNL     1     -10.696  15.968  69.316  1.00  0.00    -0.301 S  
HETATM   12  O   UNL     1      -9.706  14.910  69.287  1.00  0.00    -0.203 OA 
HETATM   13  O   UNL     1     -11.281  16.402  70.566  1.00  0.00    -0.369 OA 
BRANCH  11  14
HETATM   14  C   UNL     1      -9.963  17.373  68.512  1.00  0.00    -0.331 A  
HETATM   15  C   UNL     1     -10.766  18.282  67.819  1.00  0.00    -0.358 A  
HETATM   16  C   UNL     1     -10.178  19.395  67.209  1.00  0.00    -0.525 A  
HETATM   17  C   UNL     1      -8.794  19.586  67.250  1.00  0.00    -0.303 A  
HETATM   18  C   UNL     1      -8.015  18.713  68.017  1.00  0.00    -0.294 A  
HETATM   19  N   UNL     1      -8.230  20.757  66.729  1.00  0.00    -0.563 NA 
HETATM   20  H2  UNL     1      -8.678  21.556  67.176  1.00  0.00     0.000 HD 
HETATM   21  H1  UNL     1      -7.220  20.897  66.758  1.00  0.00     0.000 HD 
HETATM   22  C   UNL     1      -8.590  17.598  68.635  1.00  0.00    -0.264 A  
ENDBRANCH  11  14
ENDBRANCH   9  11
ENDBRANCH   7   9
BRANCH   8  23
HETATM   23  O   UNL     1     -11.378  15.169  65.570  1.00  0.00    -0.338 OA 
HETATM   24  C   UNL     1     -10.078  15.710  65.362  1.00  0.00    -0.335 C  
ENDBRANCH   8  23
ENDBRANCH   2   3
TORSDOF 5
ENDMDL
MODEL       18
REMARK 921   NORMALIZED FREE ENERGY PREDICTED BY IDOCK:   -5.85 KCAL/MOL
REMARK 922        TOTAL FREE ENERGY PREDICTED BY IDOCK:   -8.07 KCAL/MOL
REMARK 923 INTER-LIGAND FREE ENERGY PREDICTED BY IDOCK:   -7.35 KCAL/MOL
REMARK 924 INTRA-LIGAND FREE ENERGY PREDICTED BY IDOCK:   -0.71 KCAL/MOL
REMARK 927      BINDING AFFINITY PREDICTED BY RF-SCORE:    0.00 PKD
ROOT
HETATM    1  C   UNL     1      -6.140  19.247  69.007  1.00  0.00    -0.249 C  
HETATM    2  O   UNL     1      -7.527  19.365  69.308  1.00  0.00    -0.337 OA 
ENDROOT
BRANCH   2   3
HETATM    3  C   UNL     1      -8.362  19.269  68.214  1.00  0.00    -0.338 A  
HETATM    4  N   UNL     1      -8.358  20.305  67.345  1.00  0.00    -0.341 NA 
HETATM    5  C   UNL     1      -9.186  20.210  66.297  1.00  0.00    -0.284 A  
HETATM    6  N   UNL     1      -9.995  19.186  66.030  1.00  0.00    -0.470 NA 
HETATM    7  C   UNL     1      -9.978  18.198  66.938  1.00  0.00    -0.342 A  
HETATM    8  C   UNL     1      -9.180  18.158  68.078  1.00  0.00    -0.279 A  
BRANCH   7   9
HETATM    9  N   UNL     1     -10.892  17.159  66.623  1.00  0.00    -0.054 N  
HETATM   10  H   UNL     1     -11.809  17.093  67.066  1.00  0.00     0.000 HD 
BRANCH   9  11
HETATM   11  S   UNL     1     -10.376  16.040  65.476  1.00  0.00    -0.360 S  
HETATM   12  O   UNL     1      -8.927  16.104  65.476  1.00  0.00    -0.304 OA 
HETATM   13  O   UNL     1     -11.126  16.221  64.253  1.00  0.00    -0.762 OA 
BRANCH  11  14
HETATM   14  C   UNL     1     -10.815  14.471  66.186  1.00  0.00    -0.317 A  
HETATM   15  C   UNL     1     -10.246  13.295  65.692  1.00  0.00    -0.295 A  
HETATM   16  C   UNL     1     -10.585  12.069  66.274  1.00  0.00    -0.287 A  
HETATM   17  C   UNL     1     -11.516  12.002  67.314  1.00  0.00    -0.335 A  
HETATM   18  C   UNL     1     -12.013  13.195  67.850  1.00  0.00    -0.347 A  
HETATM   19  N   UNL     1     -11.766  10.784  67.958  1.00  0.00    -0.729 NA 
HETATM   20  H2  UNL     1     -10.879  10.412  68.296  1.00  0.00     0.000 HD 
HETATM   21  H1  UNL     1     -12.445  10.736  68.717  1.00  0.00     0.000 HD 
HETATM   22  C   UNL     1     -11.680  14.428  67.281  1.00  0.00    -0.429 A  
ENDBRANCH  11  14
ENDBRANCH   9  11
ENDBRANCH   7   9
BRANCH   8  23
HETATM   23  O   UNL     1      -9.331  17.077  68.900  1.00  0.00    -0.265 OA 
HETATM   24  C   UNL     1      -8.313  16.083  68.895  1.00  0.00    -0.231 C  
ENDBRANCH   8  23
ENDBRANCH   2   3
TORSDOF 5
ENDMDL
MODEL       19
REMARK 921   NORMALIZED FREE ENERGY PREDICTED BY IDOCK:   -5.85 KCAL/MOL
REMARK 922        TOTAL FREE ENERGY PREDICTED BY IDOCK:   -8.07 KCAL/MOL
REMARK 923 INTER-LIGAND FREE ENERGY PREDICTED BY IDOCK:   -7.57 KCAL/MOL
REMARK 924 INTRA-LIGAND FREE ENERGY PREDICTED BY IDOCK:   -0.49 KCAL/MOL
REMARK 927      BINDING AFFINITY PREDICTED BY RF-SCORE:    0.00 PKD
ROOT
HETATM    1  C   UNL     1      -9.950  18.772  66.130  1.00  0.00    -0.345 C  
HETATM    2  O   UNL     1     -10.112  17.369  65.945  1.00  0.00    -0.500 OA 
ENDROOT
BRANCH   2   3
HETATM    3  C   UNL     1     -10.491  16.680  67.078  1.00  0.00    -0.283 A  
HETATM    4  N   UNL     1     -10.127  17.207  68.269  1.00  0.00    -0.295 NA 
HETATM    5  C   UNL     1     -10.483  16.522  69.362  1.00  0.00    -0.320 A  
HETATM    6  N   UNL     1     -11.173  15.381  69.379  1.00  0.00    -0.274 NA 
HETATM    7  C   UNL     1     -11.485  14.890  68.171  1.00  0.00    -0.330 A  
HETATM    8  C   UNL     1     -11.178  15.483  66.949  1.00  0.00    -0.159 A  
BRANCH   7   9
HETATM    9  N   UNL     1     -12.178  13.654  68.253  1.00  0.00    -0.384 N  
HETATM   10  H   UNL     1     -13.198  13.605  68.265  1.00  0.00     0.000 HD 
BRANCH   9  11
HETATM   11  S   UNL     1     -11.220  12.272  68.330  1.00  0.00    -0.291 S  
HETATM   12  O   UNL     1      -9.886  12.726  68.672  1.00  0.00    -0.173 OA 
HETATM   13  O   UNL     1     -11.448  11.459  67.155  1.00  0.00    -0.450 OA 
BRANCH  11  14
HETATM   14  C   UNL     1     -11.841  11.403  69.751  1.00  0.00    -0.364 A  
HETATM   15  C   UNL     1     -12.574  12.086  70.724  1.00  0.00    -0.312 A  
HETATM   16  C   UNL     1     -13.075  11.386  71.826  1.00  0.00    -0.523 A  
HETATM   17  C   UNL     1     -12.816  10.022  71.987  1.00  0.00    -0.389 A  
HETATM   18  C   UNL     1     -12.152   9.338  70.963  1.00  0.00    -0.349 A  
HETATM   19  N   UNL     1     -13.411   9.312  73.036  1.00  0.00    -0.814 NA 
HETATM   20  H2  UNL     1     -14.421   9.443  72.981  1.00  0.00     0.000 HD 
HETATM   21  H1  UNL     1     -13.222   8.316  73.154  1.00  0.00     0.000 HD 
HETATM   22  C   UNL     1     -11.648  10.024  69.854  1.00  0.00    -0.237 A  
ENDBRANCH  11  14
ENDBRANCH   9  11
ENDBRANCH   7   9
BRANCH   8  23
HETATM   23  O   UNL     1     -11.555  14.808  65.823  1.00  0.00    -0.347 OA 
HETATM   24  C   UNL     1     -10.536  14.242  65.007  1.00  0.00    -0.435 C  
ENDBRANCH   8  23
ENDBRANCH   2   3
TORSDOF 5
ENDMDL
MODEL       20
REMARK 921   NORMALIZED FREE ENERGY PREDICTED BY IDOCK:   -5.82 KCAL/MOL
REMARK 922        TOTAL FREE ENERGY PREDICTED BY IDOCK:   -8.03 KCAL/MOL
REMARK 923 INTER-LIGAND FREE ENERGY PREDICTED BY IDOCK:   -7.53 KCAL/MOL
REMARK 924 INTRA-LIGAND FREE ENERGY PREDICTED BY IDOCK:   -0.51 KCAL/MOL
REMARK 927      BINDING AFFINITY PREDICTED BY RF-SCORE:    0.00 PKD
ROOT
HETATM    1  C   UNL     1     -12.199  12.862  63.371  1.00  0.00    -0.490 C  
HETATM    2  O   UNL     1     -11.082  13.042  64.236  1.00  0.00    -0.347 OA 
ENDROOT
BRANCH   2   3
HETATM    3  C   UNL     1     -10.571  11.874  64.763  1.00  0.00    -0.299 A  
HETATM    4  N   UNL     1      -9.583  11.265  64.068  1.00  0.00    -0.239 NA 
HETATM    5  C   UNL     1      -9.108  10.124  64.579  1.00  0.00    -0.240 A  
HETATM    6  N   UNL     1      -9.509   9.547  65.711  1.00  0.00    -0.231 NA 
HETATM    7  C   UNL     1     -10.507  10.178  66.347  1.00  0.00    -0.140 A  
HETATM    8  C   UNL     1     -11.108  11.365  65.936  1.00  0.00    -0.162 A  
BRANCH   7   9
HETATM    9  N   UNL     1     -10.921   9.493  67.519  1.00  0.00    -0.433 N  
HETATM   10  H   UNL     1     -11.729   8.869  67.524  1.00  0.00     0.000 HD 
BRANCH   9  11
HETATM   11  S   UNL     1     -10.002   9.770  68.902  1.00  0.00    -0.185 S  
HETATM   12  O   UNL     1      -9.644  11.175  68.872  1.00  0.00    -0.198 OA 
HETATM   13  O   UNL     1      -8.985   8.748  69.019  1.00  0.00    -0.136 OA 
BRANCH  11  14
HETATM   14  C   UNL     1     -11.165   9.570  70.232  1.00  0.00    -0.261 A  
HETATM   15  C   UNL     1     -12.007  10.625  70.590  1.00  0.00    -0.466 A  
HETATM   16  C   UNL     1     -12.932  10.448  71.624  1.00  0.00    -0.581 A  
HETATM   17  C   UNL     1     -12.994   9.243  72.330  1.00  0.00    -0.412 A  
HETATM   18  C   UNL     1     -12.202   8.171  71.904  1.00  0.00    -0.373 A  
HETATM   19  N   UNL     1     -13.994   9.041  73.289  1.00  0.00    -1.199 NA 
HETATM   20  H2  UNL     1     -14.900   9.203  72.848  1.00  0.00     0.000 HD 
HETATM   21  H1  UNL     1     -14.040   8.161  73.804  1.00  0.00     0.000 HD 
HETATM   22  C   UNL     1     -11.275   8.334  70.870  1.00  0.00    -0.292 A  
ENDBRANCH  11  14
ENDBRANCH   9  11
ENDBRANCH   7   9
BRANCH   8  23
HETATM   23  O   UNL     1     -12.135  11.836  66.704  1.00  0.00    -0.527 OA 
HETATM   24  C   UNL     1     -11.950  13.068  67.391  1.00  0.00    -0.316 C  
ENDBRANCH   8  23
ENDBRANCH   2   3
TORSDOF 5
ENDMDL
MODEL       21
REMARK 921   NORMALIZED FREE ENERGY PREDICTED BY IDOCK:   -5.80 KCAL/MOL
REMARK 922        TOTAL FREE ENERGY PREDICTED BY IDOCK:   -8.00 KCAL/MOL
REMARK 923 INTER-LIGAND FREE ENERGY PREDICTED BY IDOCK:   -7.73 KCAL/MOL
REMARK 924 INTRA-LIGAND FREE ENERGY PREDICTED BY IDOCK:   -0.27 KCAL/MOL
REMARK 927      BINDING AFFINITY PREDICTED BY RF-SCORE:    0.00 PKD
ROOT
HETATM    1  C   UNL     1     -10.095  17.721  66.083  1.00  0.00    -0.304 C  
HETATM    2  O   UNL     1     -10.094  16.351  65.690  1.00  0.00    -0.453 OA 
ENDROOT
BRANCH   2   3
HETATM    3  C   UNL     1      -9.633  15.479  66.654  1.00  0.00    -0.253 A  
HETATM    4  N   UNL     1      -8.292  15.354  66.779  1.00  0.00    -0.253 NA 
HETATM    5  C   UNL     1      -7.855  14.490  67.704  1.00  0.00    -0.180 A  
HETATM    6  N   UNL     1      -8.620  13.760  68.514  1.00  0.00    -0.156 NA 
HETATM    7  C   UNL     1      -9.941  13.903  68.330  1.00  0.00    -0.238 A  
HETATM    8  C   UNL     1     -10.543  14.753  67.407  1.00  0.00    -0.268 A  
BRANCH   7   9
HETATM    9  N   UNL     1     -10.701  13.067  69.190  1.00  0.00    -0.438 N  
HETATM   10  H   UNL     1     -11.139  13.422  70.040  1.00  0.00     0.000 HD 
BRANCH   9  11
HETATM   11  S   UNL     1     -10.836  11.454  68.725  1.00  0.00    -0.221 S  
HETATM   12  O   UNL     1      -9.489  10.919  68.735  1.00  0.00    -0.183 OA 
HETATM   13  O   UNL     1     -11.662  11.361  67.541  1.00  0.00    -0.568 OA 
BRANCH  11  14
HETATM   14  C   UNL     1     -11.696  10.692  70.081  1.00  0.00    -0.332 A  
HETATM   15  C   UNL     1     -12.597  11.437  70.845  1.00  0.00    -0.453 A  
HETATM   16  C   UNL     1     -13.283  10.820  71.896  1.00  0.00    -0.524 A  
HETATM   17  C   UNL     1     -13.047   9.479  72.216  1.00  0.00    -0.408 A  
HETATM   18  C   UNL     1     -12.205   8.728  71.389  1.00  0.00    -0.359 A  
HETATM   19  N   UNL     1     -13.816   8.845  73.199  1.00  0.00    -1.176 NA 
HETATM   20  H2  UNL     1     -14.801   8.948  72.953  1.00  0.00     0.000 HD 
HETATM   21  H1  UNL     1     -13.644   7.867  73.432  1.00  0.00     0.000 HD 
HETATM   22  C   UNL     1     -11.515   9.331  70.334  1.00  0.00    -0.255 A  
ENDBRANCH  11  14
ENDBRANCH   9  11
ENDBRANCH   7   9
BRANCH   8  23
HETATM   23  O   UNL     1     -11.908  14.732  67.347  1.00  0.00    -0.377 OA 
HETATM   24  C   UNL     1     -12.520  14.272  66.147  1.00  0.00    -0.336 C  
ENDBRANCH   8  23
ENDBRANCH   2   3
TORSDOF 5
ENDMDL
MODEL       22
REMARK 921   NORMALIZED FREE ENERGY PREDICTED BY IDOCK:   -5.78 KCAL/MOL
REMARK 922        TOTAL FREE ENERGY PREDICTED BY IDOCK:   -7.98 KCAL/MOL
REMARK 923 INTER-LIGAND FREE ENERGY PREDICTED BY IDOCK:   -7.38 KCAL/MOL
REMARK 924 INTRA-LIGAND FREE ENERGY PREDICTED BY IDOCK:   -0.61 KCAL/MOL
REMARK 927      BINDING AFFINITY PREDICTED BY RF-SCORE:    0.00 PKD
ROOT
HETATM    1  C   UNL     1     -11.640  12.677  63.475  1.00  0.00    -0.514 C  
HETATM    2  O   UNL     1     -10.417  12.808  64.194  1.00  0.00    -0.385 OA 
ENDROOT
BRANCH   2   3
HETATM    3  C   UNL     1     -10.258  11.907  65.225  1.00  0.00    -0.272 A  
HETATM    4  N   UNL     1     -10.098  10.607  64.887  1.00  0.00    -0.318 NA 
HETATM    5  C   UNL     1      -9.963   9.738  65.896  1.00  0.00    -0.275 A  
HETATM    6  N   UNL     1      -9.959  10.042  67.194  1.00  0.00    -0.191 NA 
HETATM    7  C   UNL     1     -10.147  11.340  67.473  1.00  0.00    -0.183 A  
HETATM    8  C   UNL     1     -10.309  12.356  66.536  1.00  0.00    -0.228 A  
BRANCH   7   9
HETATM    9  N   UNL     1     -10.178  11.593  68.870  1.00  0.00    -0.361 N  
HETATM   10  H   UNL     1      -9.336  11.834  69.394  1.00  0.00     0.000 HD 
BRANCH   9  11
HETATM   11  S   UNL     1     -11.684  11.472  69.611  1.00  0.00    -0.376 S  
HETATM   12  O   UNL     1     -12.601  11.015  68.586  1.00  0.00    -0.304 OA 
HETATM   13  O   UNL     1     -11.952  12.680  70.360  1.00  0.00    -0.338 OA 
BRANCH  11  14
HETATM   14  C   UNL     1     -11.488  10.126  70.755  1.00  0.00    -0.357 A  
HETATM   15  C   UNL     1     -10.230   9.550  70.949  1.00  0.00    -0.356 A  
HETATM   16  C   UNL     1     -10.086   8.505  71.867  1.00  0.00    -0.367 A  
HETATM   17  C   UNL     1     -11.191   8.004  72.562  1.00  0.00    -0.388 A  
HETATM   18  C   UNL     1     -12.425   8.646  72.418  1.00  0.00    -0.428 A  
HETATM   19  N   UNL     1     -11.016   7.032  73.555  1.00  0.00    -0.556 NA 
HETATM   20  H2  UNL     1     -10.342   7.385  74.234  1.00  0.00     0.000 HD 
HETATM   21  H1  UNL     1     -11.822   6.666  74.062  1.00  0.00     0.000 HD 
HETATM   22  C   UNL     1     -12.583   9.694  71.505  1.00  0.00    -0.483 A  
ENDBRANCH  11  14
ENDBRANCH   9  11
ENDBRANCH   7   9
BRANCH   8  23
HETATM   23  O   UNL     1     -10.522  13.615  67.021  1.00  0.00    -0.266 OA 
HETATM   24  C   UNL     1     -11.850  14.127  66.999  1.00  0.00    -0.429 C  
ENDBRANCH   8  23
ENDBRANCH   2   3
TORSDOF 5
ENDMDL
MODEL       23
REMARK 921   NORMALIZED FREE ENERGY PREDICTED BY IDOCK:   -5.78 KCAL/MOL
REMARK 922        TOTAL FREE ENERGY PREDICTED BY IDOCK:   -7.98 KCAL/MOL
REMARK 923 INTER-LIGAND FREE ENERGY PREDICTED BY IDOCK:   -7.48 KCAL/MOL
REMARK 924 INTRA-LIGAND FREE ENERGY PREDICTED BY IDOCK:   -0.50 KCAL/MOL
REMARK 927      BINDING AFFINITY PREDICTED BY RF-SCORE:    0.00 PKD
ROOT
HETATM    1  C   UNL     1     -10.836   7.145  73.269  1.00  0.00    -0.338 C  
HETATM    2  O   UNL     1     -10.181   8.348  72.879  1.00  0.00    -0.264 OA 
ENDROOT
BRANCH   2   3
HETATM    3  C   UNL     1     -10.190   8.593  71.522  1.00  0.00    -0.274 A  
HETATM    4  N   UNL     1      -9.271   7.941  70.773  1.00  0.00    -0.156 NA 
HETATM    5  C   UNL     1      -9.276   8.200  69.460  1.00  0.00    -0.158 A  
HETATM    6  N   UNL     1     -10.109   9.027  68.830  1.00  0.00    -0.193 NA 
HETATM    7  C   UNL     1     -10.982   9.666  69.623  1.00  0.00    -0.229 A  
HETATM    8  C   UNL     1     -11.093   9.507  71.001  1.00  0.00    -0.363 A  
BRANCH   7   9
HETATM    9  N   UNL     1     -11.811  10.564  68.900  1.00  0.00    -0.521 N  
HETATM   10  H   UNL     1     -12.695  10.269  68.484  1.00  0.00     0.000 HD 
BRANCH   9  11
HETATM   11  S   UNL     1     -11.250  12.146  68.770  1.00  0.00    -0.286 S  
HETATM   12  O   UNL     1      -9.807  12.072  68.885  1.00  0.00    -0.095 OA 
HETATM   13  O   UNL     1     -12.021  13.005  69.642  1.00  0.00    -0.315 OA 
BRANCH  11  14
HETATM   14  C   UNL     1     -11.604  12.584  67.084  1.00  0.00    -0.368 A  
HETATM   15  C   UNL     1     -12.189  13.818  66.789  1.00  0.00    -0.440 A  
HETATM   16  C   UNL     1     -12.443  14.158  65.456  1.00  0.00    -0.495 A  
HETATM   17  C   UNL     1     -12.157  13.264  64.421  1.00  0.00    -0.415 A  
HETATM   18  C   UNL     1     -11.495  12.069  64.727  1.00  0.00    -0.357 A  
HETATM   19  N   UNL     1     -12.315  13.657  63.087  1.00  0.00    -1.076 NA 
HETATM   20  H2  UNL     1     -11.773  14.508  62.936  1.00  0.00     0.000 HD 
HETATM   21  H1  UNL     1     -12.106  13.005  62.331  1.00  0.00     0.000 HD 
HETATM   22  C   UNL     1     -11.233  11.717  66.055  1.00  0.00    -0.352 A  
ENDBRANCH  11  14
ENDBRANCH   9  11
ENDBRANCH   7   9
BRANCH   8  23
HETATM   23  O   UNL     1     -12.025  10.275  71.638  1.00  0.00    -0.332 OA 
HETATM   24  C   UNL     1     -13.260   9.668  72.002  1.00  0.00    -0.453 C  
ENDBRANCH   8  23
ENDBRANCH   2   3
TORSDOF 5
ENDMDL
MODEL       24
REMARK 921   NORMALIZED FREE ENERGY PREDICTED BY IDOCK:   -5.76 KCAL/MOL
REMARK 922        TOTAL FREE ENERGY PREDICTED BY IDOCK:   -7.95 KCAL/MOL
REMARK 923 INTER-LIGAND FREE ENERGY PREDICTED BY IDOCK:   -7.29 KCAL/MOL
REMARK 924 INTRA-LIGAND FREE ENERGY PREDICTED BY IDOCK:   -0.66 KCAL/MOL
REMARK 927      BINDING AFFINITY PREDICTED BY RF-SCORE:    0.00 PKD
ROOT
HETATM    1  C   UNL     1     -13.434  13.195  72.325  1.00  0.00    -0.568 C  
HETATM    2  O   UNL     1     -12.436  13.886  71.579  1.00  0.00    -0.339 OA 
ENDROOT
BRANCH   2   3
HETATM    3  C   UNL     1     -12.251  13.417  70.295  1.00  0.00    -0.335 A  
HETATM    4  N   UNL     1     -12.210  12.076  70.131  1.00  0.00    -0.267 NA 
HETATM    5  C   UNL     1     -12.010  11.631  68.884  1.00  0.00    -0.292 A  
HETATM    6  N   UNL     1     -11.864  12.389  67.798  1.00  0.00    -0.436 NA 
HETATM    7  C   UNL     1     -11.887  13.711  68.022  1.00  0.00    -0.362 A  
HETATM    8  C   UNL     1     -12.077  14.322  69.259  1.00  0.00    -0.313 A  
BRANCH   7   9
HETATM    9  N   UNL     1     -11.681  14.464  66.836  1.00  0.00    -0.389 N  
HETATM   10  H   UNL     1     -12.449  14.927  66.349  1.00  0.00     0.000 HD 
BRANCH   9  11
HETATM   11  S   UNL     1     -10.094  14.548  66.278  1.00  0.00    -0.309 S  
HETATM   12  O   UNL     1     -10.136  14.143  64.887  1.00  0.00    -0.385 OA 
HETATM   13  O   UNL     1      -9.217  13.886  67.218  1.00  0.00    -0.215 OA 
BRANCH  11  14
HETATM   14  C   UNL     1      -9.732  16.288  66.291  1.00  0.00    -0.304 A  
HETATM   15  C   UNL     1      -8.408  16.727  66.367  1.00  0.00    -0.344 A  
HETATM   16  C   UNL     1      -8.135  18.098  66.355  1.00  0.00    -0.291 A  
HETATM   17  C   UNL     1      -9.172  19.034  66.309  1.00  0.00    -0.292 A  
HETATM   18  C   UNL     1     -10.485  18.578  66.150  1.00  0.00    -0.447 A  
HETATM   19  N   UNL     1      -8.883  20.399  66.189  1.00  0.00    -0.583 NA 
HETATM   20  H2  UNL     1      -8.294  20.532  65.368  1.00  0.00     0.000 HD 
HETATM   21  H1  UNL     1      -9.640  21.083  66.156  1.00  0.00     0.000 HD 
HETATM   22  C   UNL     1     -10.772  17.210  66.158  1.00  0.00    -0.094 A  
ENDBRANCH  11  14
ENDBRANCH   9  11
ENDBRANCH   7   9
BRANCH   8  23
HETATM   23  O   UNL     1     -12.035  15.687  69.287  1.00  0.00    -0.365 OA 
HETATM   24  C   UNL     1     -10.853  16.311  69.776  1.00  0.00    -0.356 C  
ENDBRANCH   8  23
ENDBRANCH   2   3
TORSDOF 5
ENDMDL
MODEL       25
REMARK 921   NORMALIZED FREE ENERGY PREDICTED BY IDOCK:   -5.75 KCAL/MOL
REMARK 922        TOTAL FREE ENERGY PREDICTED BY IDOCK:   -7.94 KCAL/MOL
REMARK 923 INTER-LIGAND FREE ENERGY PREDICTED BY IDOCK:   -7.43 KCAL/MOL
REMARK 924 INTRA-LIGAND FREE ENERGY PREDICTED BY IDOCK:   -0.51 KCAL/MOL
REMARK 927      BINDING AFFINITY PREDICTED BY RF-SCORE:    0.00 PKD
ROOT
HETATM    1  C   UNL     1     -13.674  15.434  72.516  1.00  0.00    -0.552 C  
HETATM    2  O   UNL     1     -13.217  15.770  71.210  1.00  0.00    -0.496 OA 
ENDROOT
BRANCH   2   3
HETATM    3  C   UNL     1     -12.605  14.737  70.532  1.00  0.00    -0.359 A  
HETATM    4  N   UNL     1     -12.690  13.505  71.082  1.00  0.00    -0.354 NA 
HETATM    5  C   UNL     1     -12.077  12.512  70.426  1.00  0.00    -0.297 A  
HETATM    6  N   UNL     1     -11.407  12.629  69.280  1.00  0.00    -0.260 NA 
HETATM    7  C   UNL     1     -11.331  13.876  68.793  1.00  0.00    -0.277 A  
HETATM    8  C   UNL     1     -11.909  15.007  69.363  1.00  0.00    -0.329 A  
BRANCH   7   9
HETATM    9  N   UNL     1     -10.568  13.944  67.597  1.00  0.00    -0.244 N  
HETATM   10  H   UNL     1      -9.548  13.969  67.608  1.00  0.00     0.000 HD 
BRANCH   9  11
HETATM   11  S   UNL     1     -11.445  13.981  66.160  1.00  0.00    -0.358 S  
HETATM   12  O   UNL     1     -11.037  15.190  65.472  1.00  0.00    -0.336 OA 
HETATM   13  O   UNL     1     -12.840  13.721  66.439  1.00  0.00    -0.238 OA 
BRANCH  11  14
HETATM   14  C   UNL     1     -10.788  12.619  65.227  1.00  0.00    -0.288 A  
HETATM   15  C   UNL     1     -10.431  11.434  65.874  1.00  0.00    -0.309 A  
HETATM   16  C   UNL     1      -9.935  10.362  65.125  1.00  0.00    -0.390 A  
HETATM   17  C   UNL     1      -9.753  10.477  63.744  1.00  0.00    -0.326 A  
HETATM   18  C   UNL     1     -10.193  11.640  63.101  1.00  0.00    -0.396 A  
HETATM   19  N   UNL     1      -9.358   9.365  62.991  1.00  0.00    -0.511 NA 
HETATM   20  H2  UNL     1     -10.018   8.607  63.167  1.00  0.00     0.000 HD 
HETATM   21  H1  UNL     1      -9.225   9.448  61.983  1.00  0.00     0.000 HD 
HETATM   22  C   UNL     1     -10.693  12.718  63.837  1.00  0.00    -0.443 A  
ENDBRANCH  11  14
ENDBRANCH   9  11
ENDBRANCH   7   9
BRANCH   8  23
HETATM   23  O   UNL     1     -11.690  16.198  68.731  1.00  0.00    -0.364 OA 
HETATM   24  C   UNL     1     -10.583  16.987  69.151  1.00  0.00    -0.303 C  
ENDBRANCH   8  23
ENDBRANCH   2   3
TORSDOF 5
ENDMDL
MODEL       26
REMARK 921   NORMALIZED FREE ENERGY PREDICTED BY IDOCK:   -5.74 KCAL/MOL
REMARK 922        TOTAL FREE ENERGY PREDICTED BY IDOCK:   -7.92 KCAL/MOL
REMARK 923 INTER-LIGAND FREE ENERGY PREDICTED BY IDOCK:   -7.41 KCAL/MOL
REMARK 924 INTRA-LIGAND FREE ENERGY PREDICTED BY IDOCK:   -0.52 KCAL/MOL
REMARK 927      BINDING AFFINITY PREDICTED BY RF-SCORE:    0.00 PKD
ROOT
HETATM    1  C   UNL     1     -11.327   6.741  72.454  1.00  0.00    -0.268 C  
HETATM    2  O   UNL     1     -10.927   8.081  72.724  1.00  0.00    -0.363 OA 
ENDROOT
BRANCH   2   3
HETATM    3  C   UNL     1     -11.364   9.008  71.801  1.00  0.00    -0.377 A  
HETATM    4  N   UNL     1     -12.686   9.294  71.795  1.00  0.00    -0.353 NA 
HETATM    5  C   UNL     1     -13.103  10.180  70.884  1.00  0.00    -0.335 A  
HETATM    6  N   UNL     1     -12.333  10.811  69.997  1.00  0.00    -0.325 NA 
HETATM    7  C   UNL     1     -11.036  10.471  70.029  1.00  0.00    -0.308 A  
HETATM    8  C   UNL     1     -10.457   9.564  70.911  1.00  0.00    -0.312 A  
BRANCH   7   9
HETATM    9  N   UNL     1     -10.277  11.141  69.034  1.00  0.00    -0.302 N  
HETATM   10  H   UNL     1      -9.909  12.083  69.177  1.00  0.00     0.000 HD 
BRANCH   9  11
HETATM   11  S   UNL     1     -10.019  10.292  67.603  1.00  0.00    -0.188 S  
HETATM   12  O   UNL     1     -10.841   9.101  67.689  1.00  0.00    -0.234 OA 
HETATM   13  O   UNL     1      -8.598  10.197  67.348  1.00  0.00    -0.122 OA 
BRANCH  11  14
HETATM   14  C   UNL     1     -10.752  11.327  66.358  1.00  0.00    -0.267 A  
HETATM   15  C   UNL     1     -11.630  12.349  66.724  1.00  0.00    -0.444 A  
HETATM   16  C   UNL     1     -12.183  13.169  65.735  1.00  0.00    -0.514 A  
HETATM   17  C   UNL     1     -11.901  12.952  64.384  1.00  0.00    -0.383 A  
HETATM   18  C   UNL     1     -10.956  11.978  64.041  1.00  0.00    -0.442 A  
HETATM   19  N   UNL     1     -12.374  13.844  63.414  1.00  0.00    -1.139 NA 
HETATM   20  H2  UNL     1     -12.062  14.783  63.661  1.00  0.00     0.000 HD 
HETATM   21  H1  UNL     1     -12.168  13.685  62.427  1.00  0.00     0.000 HD 
HETATM   22  C   UNL     1     -10.393  11.153  65.020  1.00  0.00    -0.362 A  
ENDBRANCH  11  14
ENDBRANCH   9  11
ENDBRANCH   7   9
BRANCH   8  23
HETATM   23  O   UNL     1      -9.120   9.326  70.764  1.00  0.00    -0.236 OA 
HETATM   24  C   UNL     1      -8.716   8.058  70.260  1.00  0.00    -0.134 C  
ENDBRANCH   8  23
ENDBRANCH   2   3
TORSDOF 5
ENDMDL
MODEL       27
REMARK 921   NORMALIZED FREE ENERGY PREDICTED BY IDOCK:   -5.73 KCAL/MOL
REMARK 922        TOTAL FREE ENERGY PREDICTED BY IDOCK:   -7.91 KCAL/MOL
REMARK 923 INTER-LIGAND FREE ENERGY PREDICTED BY IDOCK:   -7.56 KCAL/MOL
REMARK 924 INTRA-LIGAND FREE ENERGY PREDICTED BY IDOCK:   -0.35 KCAL/MOL
REMARK 927      BINDING AFFINITY PREDICTED BY RF-SCORE:    0.00 PKD
ROOT
HETATM    1  C   UNL     1     -10.487  19.289  66.057  1.00  0.00    -0.487 C  
HETATM    2  O   UNL     1      -9.625  18.231  65.648  1.00  0.00    -0.399 OA 
ENDROOT
BRANCH   2   3
HETATM    3  C   UNL     1     -10.078  16.967  65.962  1.00  0.00    -0.319 A  
HETATM    4  N   UNL     1     -10.673  16.263  64.972  1.00  0.00    -0.656 NA 
HETATM    5  C   UNL     1     -11.126  15.045  65.292  1.00  0.00    -0.386 A  
HETATM    6  N   UNL     1     -11.031  14.465  66.488  1.00  0.00    -0.310 NA 
HETATM    7  C   UNL     1     -10.457  15.217  67.439  1.00  0.00    -0.270 A  
HETATM    8  C   UNL     1      -9.945  16.499  67.261  1.00  0.00    -0.264 A  
BRANCH   7   9
HETATM    9  N   UNL     1     -10.426  14.564  68.699  1.00  0.00    -0.241 N  
HETATM   10  H   UNL     1      -9.762  13.816  68.904  1.00  0.00     0.000 HD 
BRANCH   9  11
HETATM   11  S   UNL     1     -11.548  15.094  69.836  1.00  0.00    -0.325 S  
HETATM   12  O   UNL     1     -12.643  15.671  69.081  1.00  0.00    -0.003 OA 
HETATM   13  O   UNL     1     -10.873  15.858  70.863  1.00  0.00    -0.251 OA 
BRANCH  11  14
HETATM   14  C   UNL     1     -12.164  13.591  70.558  1.00  0.00    -0.361 A  
HETATM   15  C   UNL     1     -11.755  12.354  70.055  1.00  0.00    -0.307 A  
HETATM   16  C   UNL     1     -12.231  11.179  70.646  1.00  0.00    -0.492 A  
HETATM   17  C   UNL     1     -13.142  11.228  71.705  1.00  0.00    -0.422 A  
HETATM   18  C   UNL     1     -13.477  12.473  72.249  1.00  0.00    -0.490 A  
HETATM   19  N   UNL     1     -13.527  10.050  72.356  1.00  0.00    -0.610 NA 
HETATM   20  H2  UNL     1     -12.687   9.571  72.678  1.00  0.00     0.000 HD 
HETATM   21  H1  UNL     1     -14.192  10.086  73.129  1.00  0.00     0.000 HD 
HETATM   22  C   UNL     1     -13.006  13.656  71.670  1.00  0.00    -0.448 A  
ENDBRANCH  11  14
ENDBRANCH   9  11
ENDBRANCH   7   9
BRANCH   8  23
HETATM   23  O   UNL     1      -9.428  17.117  68.364  1.00  0.00    -0.258 OA 
HETATM   24  C   UNL     1      -8.013  17.155  68.510  1.00  0.00    -0.259 C  
ENDBRANCH   8  23
ENDBRANCH   2   3
TORSDOF 5
ENDMDL
MODEL       28
REMARK 921   NORMALIZED FREE ENERGY PREDICTED BY IDOCK:   -5.69 KCAL/MOL
REMARK 922        TOTAL FREE ENERGY PREDICTED BY IDOCK:   -7.86 KCAL/MOL
REMARK 923 INTER-LIGAND FREE ENERGY PREDICTED BY IDOCK:   -7.39 KCAL/MOL
REMARK 924 INTRA-LIGAND FREE ENERGY PREDICTED BY IDOCK:   -0.48 KCAL/MOL
REMARK 927      BINDING AFFINITY PREDICTED BY RF-SCORE:    0.00 PKD
ROOT
HETATM    1  C   UNL     1     -10.276   4.987  69.983  1.00  0.00    -0.269 C  
HETATM    2  O   UNL     1     -10.934   6.026  69.265  1.00  0.00    -0.324 OA 
ENDROOT
BRANCH   2   3
HETATM    3  C   UNL     1     -11.272   7.125  70.027  1.00  0.00    -0.238 A  
HETATM    4  N   UNL     1     -12.195   6.940  70.999  1.00  0.00    -0.387 NA 
HETATM    5  C   UNL     1     -12.529   8.016  71.720  1.00  0.00    -0.324 A  
HETATM    6  N   UNL     1     -12.026   9.242  71.575  1.00  0.00    -0.342 NA 
HETATM    7  C   UNL     1     -11.136   9.375  70.581  1.00  0.00    -0.289 A  
HETATM    8  C   UNL     1     -10.695   8.354  69.744  1.00  0.00    -0.211 A  
BRANCH   7   9
HETATM    9  N   UNL     1     -10.671  10.710  70.447  1.00  0.00    -0.416 N  
HETATM   10  H   UNL     1      -9.860  11.054  70.962  1.00  0.00     0.000 HD 
BRANCH   9  11
HETATM   11  S   UNL     1     -11.536  11.692  69.389  1.00  0.00    -0.353 S  
HETATM   12  O   UNL     1     -12.624  10.878  68.883  1.00  0.00    -0.338 OA 
HETATM   13  O   UNL     1     -10.620  12.351  68.483  1.00  0.00    -0.223 OA 
BRANCH  11  14
HETATM   14  C   UNL     1     -12.268  12.917  70.448  1.00  0.00    -0.304 A  
HETATM   15  C   UNL     1     -12.109  14.275  70.163  1.00  0.00    -0.403 A  
HETATM   16  C   UNL     1     -12.707  15.228  70.993  1.00  0.00    -0.487 A  
HETATM   17  C   UNL     1     -13.427  14.840  72.127  1.00  0.00    -0.391 A  
HETATM   18  C   UNL     1     -13.645  13.476  72.351  1.00  0.00    -0.709 A  
HETATM   19  N   UNL     1     -14.110  15.796  72.889  1.00  0.00    -0.578 NA 
HETATM   20  H2  UNL     1     -14.737  16.311  72.271  1.00  0.00     0.000 HD 
HETATM   21  H1  UNL     1     -14.635  15.512  73.716  1.00  0.00     0.000 HD 
HETATM   22  C   UNL     1     -13.055  12.512  71.528  1.00  0.00    -0.373 A  
ENDBRANCH  11  14
ENDBRANCH   9  11
ENDBRANCH   7   9
BRANCH   8  23
HETATM   23  O   UNL     1      -9.806   8.697  68.766  1.00  0.00    -0.164 OA 
HETATM   24  C   UNL     1     -10.251   8.672  67.415  1.00  0.00    -0.262 C  
ENDBRANCH   8  23
ENDBRANCH   2   3
TORSDOF 5
ENDMDL
MODEL       29
REMARK 921   NORMALIZED FREE ENERGY PREDICTED BY IDOCK:   -5.68 KCAL/MOL
REMARK 922        TOTAL FREE ENERGY PREDICTED BY IDOCK:   -7.85 KCAL/MOL
REMARK 923 INTER-LIGAND FREE ENERGY PREDICTED BY IDOCK:   -7.36 KCAL/MOL
REMARK 924 INTRA-LIGAND FREE ENERGY PREDICTED BY IDOCK:   -0.49 KCAL/MOL
REMARK 927      BINDING AFFINITY PREDICTED BY RF-SCORE:    0.00 PKD
ROOT
HETATM    1  C   UNL     1      -9.458   8.988  66.188  1.00  0.00    -0.253 C  
HETATM    2  O   UNL     1     -10.252  10.123  65.856  1.00  0.00    -0.254 OA 
ENDROOT
BRANCH   2   3
HETATM    3  C   UNL     1     -10.744  10.817  66.942  1.00  0.00    -0.252 A  
HETATM    4  N   UNL     1     -10.759  10.170  68.130  1.00  0.00    -0.226 NA 
HETATM    5  C   UNL     1     -11.255  10.845  69.173  1.00  0.00    -0.256 A  
HETATM    6  N   UNL     1     -11.720  12.094  69.146  1.00  0.00    -0.311 NA 
HETATM    7  C   UNL     1     -11.706  12.679  67.939  1.00  0.00    -0.358 A  
HETATM    8  C   UNL     1     -11.229  12.104  66.765  1.00  0.00    -0.322 A  
BRANCH   7   9
HETATM    9  N   UNL     1     -12.254  13.988  67.967  1.00  0.00    -0.528 N  
HETATM   10  H   UNL     1     -13.174  14.197  67.579  1.00  0.00     0.000 HD 
BRANCH   9  11
HETATM   11  S   UNL     1     -11.295  15.177  68.675  1.00  0.00    -0.327 S  
HETATM   12  O   UNL     1     -11.524  16.387  67.910  1.00  0.00    -0.177 OA 
HETATM   13  O   UNL     1      -9.957  14.666  68.871  1.00  0.00    -0.232 OA 
BRANCH  11  14
HETATM   14  C   UNL     1     -12.044  15.433  70.267  1.00  0.00    -0.369 A  
HETATM   15  C   UNL     1     -13.360  15.024  70.496  1.00  0.00    -0.177 A  
HETATM   16  C   UNL     1     -13.930  15.212  71.759  1.00  0.00    -0.627 A  
HETATM   17  C   UNL     1     -13.214  15.842  72.781  1.00  0.00    -0.518 A  
HETATM   18  C   UNL     1     -11.872  16.170  72.560  1.00  0.00    -0.630 A  
HETATM   19  N   UNL     1     -13.755  15.928  74.069  1.00  0.00    -0.379 NA 
HETATM   20  H2  UNL     1     -13.998  14.987  74.380  1.00  0.00     0.000 HD 
HETATM   21  H1  UNL     1     -13.233  16.387  74.816  1.00  0.00     0.000 HD 
HETATM   22  C   UNL     1     -11.288  15.985  71.303  1.00  0.00    -0.397 A  
ENDBRANCH  11  14
ENDBRANCH   9  11
ENDBRANCH   7   9
BRANCH   8  23
HETATM   23  O   UNL     1     -11.332  12.850  65.625  1.00  0.00    -0.295 OA 
HETATM   24  C   UNL     1     -12.404  12.569  64.733  1.00  0.00    -0.474 C  
ENDBRANCH   8  23
ENDBRANCH   2   3
TORSDOF 5
ENDMDL
MODEL       30
REMARK 921   NORMALIZED FREE ENERGY PREDICTED BY IDOCK:   -5.66 KCAL/MOL
REMARK 922        TOTAL FREE ENERGY PREDICTED BY IDOCK:   -7.82 KCAL/MOL
REMARK 923 INTER-LIGAND FREE ENERGY PREDICTED BY IDOCK:   -7.42 KCAL/MOL
REMARK 924 INTRA-LIGAND FREE ENERGY PREDICTED BY IDOCK:   -0.40 KCAL/MOL
REMARK 927      BINDING AFFINITY PREDICTED BY RF-SCORE:    0.00 PKD
ROOT
HETATM    1  C   UNL     1     -11.380  15.792  64.665  1.00  0.00    -0.337 C  
HETATM    2  O   UNL     1     -10.208  16.423  65.173  1.00  0.00    -0.582 OA 
ENDROOT
BRANCH   2   3
HETATM    3  C   UNL     1     -10.279  16.781  66.503  1.00  0.00    -0.316 A  
HETATM    4  N   UNL     1     -10.212  18.100  66.790  1.00  0.00    -0.354 NA 
HETATM    5  C   UNL     1     -10.263  18.435  68.085  1.00  0.00    -0.384 A  
HETATM    6  N   UNL     1     -10.386  17.589  69.107  1.00  0.00    -0.319 NA 
HETATM    7  C   UNL     1     -10.421  16.292  68.768  1.00  0.00    -0.282 A  
HETATM    8  C   UNL     1     -10.372  15.791  67.470  1.00  0.00    -0.280 A  
BRANCH   7   9
HETATM    9  N   UNL     1     -10.508  15.439  69.900  1.00  0.00    -0.300 N  
HETATM   10  H   UNL     1      -9.711  14.891  70.225  1.00  0.00     0.000 HD 
BRANCH   9  11
HETATM   11  S   UNL     1     -12.002  15.385  70.674  1.00  0.00    -0.394 S  
HETATM   12  O   UNL     1     -12.965  15.908  69.725  1.00  0.00     0.007 OA 
HETATM   13  O   UNL     1     -11.881  15.954  71.998  1.00  0.00    -0.428 OA 
BRANCH  11  14
HETATM   14  C   UNL     1     -12.336  13.646  70.830  1.00  0.00    -0.371 A  
HETATM   15  C   UNL     1     -13.134  13.178  71.876  1.00  0.00    -0.482 A  
HETATM   16  C   UNL     1     -13.406  11.809  71.975  1.00  0.00    -0.417 A  
HETATM   17  C   UNL     1     -12.856  10.902  71.066  1.00  0.00    -0.376 A  
HETATM   18  C   UNL     1     -12.128  11.396  69.978  1.00  0.00    -0.417 A  
HETATM   19  N   UNL     1     -13.221   9.551  71.111  1.00  0.00    -0.523 NA 
HETATM   20  H2  UNL     1     -14.238   9.491  71.051  1.00  0.00     0.000 HD 
HETATM   21  H1  UNL     1     -12.820   8.888  70.448  1.00  0.00     0.000 HD 
HETATM   22  C   UNL     1     -11.851  12.762  69.865  1.00  0.00    -0.371 A  
ENDBRANCH  11  14
ENDBRANCH   9  11
ENDBRANCH   7   9
BRANCH   8  23
HETATM   23  O   UNL     1     -10.387  14.432  67.331  1.00  0.00    -0.250 OA 
HETATM   24  C   UNL     1      -9.156  13.771  67.059  1.00  0.00    -0.246 C  
ENDBRANCH   8  23
ENDBRANCH   2   3
TORSDOF 5
ENDMDL
MODEL       31
REMARK 921   NORMALIZED FREE ENERGY PREDICTED BY IDOCK:   -5.65 KCAL/MOL
REMARK 922        TOTAL FREE ENERGY PREDICTED BY IDOCK:   -7.81 KCAL/MOL
REMARK 923 INTER-LIGAND FREE ENERGY PREDICTED BY IDOCK:   -7.38 KCAL/MOL
REMARK 924 INTRA-LIGAND FREE ENERGY PREDICTED BY IDOCK:   -0.43 KCAL/MOL
REMARK 927      BINDING AFFINITY PREDICTED BY RF-SCORE:    0.00 PKD
ROOT
HETATM    1  C   UNL     1     -13.998  13.773  72.385  1.00  0.00    -0.548 C  
HETATM    2  O   UNL     1     -13.516  13.382  71.103  1.00  0.00    -0.118 OA 
ENDROOT
BRANCH   2   3
HETATM    3  C   UNL     1     -12.432  14.106  70.652  1.00  0.00    -0.362 A  
HETATM    4  N   UNL     1     -12.134  15.246  71.316  1.00  0.00    -0.315 NA 
HETATM    5  C   UNL     1     -11.093  15.950  70.858  1.00  0.00    -0.279 A  
HETATM    6  N   UNL     1     -10.321  15.622  69.822  1.00  0.00    -0.290 NA 
HETATM    7  C   UNL     1     -10.677  14.497  69.185  1.00  0.00    -0.252 A  
HETATM    8  C   UNL     1     -11.736  13.665  69.536  1.00  0.00    -0.322 A  
BRANCH   7   9
HETATM    9  N   UNL     1      -9.847  14.225  68.065  1.00  0.00    -0.218 N  
HETATM   10  H   UNL     1      -9.133  13.496  68.086  1.00  0.00     0.000 HD 
BRANCH   9  11
HETATM   11  S   UNL     1     -10.108  15.176  66.701  1.00  0.00    -0.274 S  
HETATM   12  O   UNL     1      -8.796  15.472  66.160  1.00  0.00    -0.320 OA 
HETATM   13  O   UNL     1     -11.035  16.240  67.024  1.00  0.00    -0.231 OA 
BRANCH  11  14
HETATM   14  C   UNL     1     -10.893  14.068  65.554  1.00  0.00    -0.309 A  
HETATM   15  C   UNL     1     -10.128  13.383  64.608  1.00  0.00    -0.256 A  
HETATM   16  C   UNL     1     -10.756  12.498  63.725  1.00  0.00    -0.483 A  
HETATM   17  C   UNL     1     -12.142  12.322  63.752  1.00  0.00    -0.532 A  
HETATM   18  C   UNL     1     -12.881  12.952  64.759  1.00  0.00    -0.359 A  
HETATM   19  N   UNL     1     -12.744  11.356  62.938  1.00  0.00    -0.796 NA 
HETATM   20  H2  UNL     1     -12.303  10.456  63.126  1.00  0.00     0.000 HD 
HETATM   21  H1  UNL     1     -13.756  11.227  62.957  1.00  0.00     0.000 HD 
HETATM   22  C   UNL     1     -12.267  13.837  65.650  1.00  0.00    -0.484 A  
ENDBRANCH  11  14
ENDBRANCH   9  11
ENDBRANCH   7   9
BRANCH   8  23
HETATM   23  O   UNL     1     -11.959  12.578  68.739  1.00  0.00    -0.310 OA 
HETATM   24  C   UNL     1     -11.574  11.298  69.227  1.00  0.00    -0.322 C  
ENDBRANCH   8  23
ENDBRANCH   2   3
TORSDOF 5
ENDMDL
MODEL       32
REMARK 921   NORMALIZED FREE ENERGY PREDICTED BY IDOCK:   -5.64 KCAL/MOL
REMARK 922        TOTAL FREE ENERGY PREDICTED BY IDOCK:   -7.80 KCAL/MOL
REMARK 923 INTER-LIGAND FREE ENERGY PREDICTED BY IDOCK:   -7.26 KCAL/MOL
REMARK 924 INTRA-LIGAND FREE ENERGY PREDICTED BY IDOCK:   -0.54 KCAL/MOL
REMARK 927      BINDING AFFINITY PREDICTED BY RF-SCORE:    0.00 PKD
ROOT
HETATM    1  C   UNL     1      -8.508  18.711  67.792  1.00  0.00    -0.275 C  
HETATM    2  O   UNL     1      -9.262  17.786  67.014  1.00  0.00    -0.244 OA 
ENDROOT
BRANCH   2   3
HETATM    3  C   UNL     1     -10.025  16.904  67.751  1.00  0.00    -0.278 A  
HETATM    4  N   UNL     1     -10.142  17.151  69.076  1.00  0.00    -0.305 NA 
HETATM    5  C   UNL     1     -10.869  16.279  69.785  1.00  0.00    -0.356 A  
HETATM    6  N   UNL     1     -11.494  15.206  69.301  1.00  0.00    -0.290 NA 
HETATM    7  C   UNL     1     -11.323  14.995  67.987  1.00  0.00    -0.327 A  
HETATM    8  C   UNL     1     -10.592  15.806  67.124  1.00  0.00    -0.313 A  
BRANCH   7   9
HETATM    9  N   UNL     1     -11.974  13.815  67.541  1.00  0.00    -0.383 N  
HETATM   10  H   UNL     1     -12.878  13.842  67.067  1.00  0.00     0.000 HD 
BRANCH   9  11
HETATM   11  S   UNL     1     -11.168  12.367  67.838  1.00  0.00    -0.287 S  
HETATM   12  O   UNL     1     -12.163  11.455  68.369  1.00  0.00    -0.571 OA 
HETATM   13  O   UNL     1      -9.946  12.635  68.564  1.00  0.00    -0.219 OA 
BRANCH  11  14
HETATM   14  C   UNL     1     -10.748  11.774  66.216  1.00  0.00    -0.270 A  
HETATM   15  C   UNL     1      -9.685  10.883  66.050  1.00  0.00    -0.268 A  
HETATM   16  C   UNL     1      -9.379  10.408  64.771  1.00  0.00    -0.301 A  
HETATM   17  C   UNL     1     -10.096  10.845  63.653  1.00  0.00    -0.355 A  
HETATM   18  C   UNL     1     -11.208  11.671  63.848  1.00  0.00    -0.479 A  
HETATM   19  N   UNL     1      -9.850  10.282  62.395  1.00  0.00    -0.732 NA 
HETATM   20  H2  UNL     1      -9.956   9.270  62.470  1.00  0.00     0.000 HD 
HETATM   21  H1  UNL     1     -10.373  10.601  61.579  1.00  0.00     0.000 HD 
HETATM   22  C   UNL     1     -11.528  12.152  65.121  1.00  0.00    -0.376 A  
ENDBRANCH  11  14
ENDBRANCH   9  11
ENDBRANCH   7   9
BRANCH   8  23
HETATM   23  O   UNL     1     -10.508  15.403  65.821  1.00  0.00    -0.309 OA 
HETATM   24  C   UNL     1     -11.152  16.196  64.830  1.00  0.00    -0.325 C  
ENDBRANCH   8  23
ENDBRANCH   2   3
TORSDOF 5
ENDMDL
MODEL       33
REMARK 921   NORMALIZED FREE ENERGY PREDICTED BY IDOCK:   -5.64 KCAL/MOL
REMARK 922        TOTAL FREE ENERGY PREDICTED BY IDOCK:   -7.80 KCAL/MOL
REMARK 923 INTER-LIGAND FREE ENERGY PREDICTED BY IDOCK:   -7.41 KCAL/MOL
REMARK 924 INTRA-LIGAND FREE ENERGY PREDICTED BY IDOCK:   -0.39 KCAL/MOL
REMARK 927      BINDING AFFINITY PREDICTED BY RF-SCORE:    0.00 PKD
ROOT
HETATM    1  C   UNL     1      -9.653   7.822  73.247  1.00  0.00    -0.283 C  
HETATM    2  O   UNL     1     -10.619   7.399  72.288  1.00  0.00    -0.215 OA 
ENDROOT
BRANCH   2   3
HETATM    3  C   UNL     1     -11.399   8.414  71.774  1.00  0.00    -0.300 A  
HETATM    4  N   UNL     1     -12.389   8.889  72.564  1.00  0.00    -0.313 NA 
HETATM    5  C   UNL     1     -13.152   9.860  72.048  1.00  0.00    -0.448 A  
HETATM    6  N   UNL     1     -13.014  10.404  70.840  1.00  0.00    -0.394 NA 
HETATM    7  C   UNL     1     -12.034   9.878  70.089  1.00  0.00    -0.077 A  
HETATM    8  C   UNL     1     -11.166   8.864  70.483  1.00  0.00    -0.252 A  
BRANCH   7   9
HETATM    9  N   UNL     1     -11.966  10.467  68.799  1.00  0.00    -0.474 N  
HETATM   10  H   UNL     1     -12.405  10.036  67.985  1.00  0.00     0.000 HD 
BRANCH   9  11
HETATM   11  S   UNL     1     -11.119  11.918  68.691  1.00  0.00    -0.267 S  
HETATM   12  O   UNL     1      -9.714  11.564  68.706  1.00  0.00    -0.196 OA 
HETATM   13  O   UNL     1     -11.656  12.863  69.646  1.00  0.00    -0.283 OA 
BRANCH  11  14
HETATM   14  C   UNL     1     -11.481  12.499  67.051  1.00  0.00    -0.356 A  
HETATM   15  C   UNL     1     -11.031  11.783  65.939  1.00  0.00    -0.354 A  
HETATM   16  C   UNL     1     -11.341  12.241  64.654  1.00  0.00    -0.375 A  
HETATM   17  C   UNL     1     -12.057  13.426  64.470  1.00  0.00    -0.409 A  
HETATM   18  C   UNL     1     -12.570  14.086  65.592  1.00  0.00    -0.542 A  
HETATM   19  N   UNL     1     -12.452  13.817  63.184  1.00  0.00    -1.074 NA 
HETATM   20  H2  UNL     1     -12.981  13.052  62.765  1.00  0.00     0.000 HD 
HETATM   21  H1  UNL     1     -12.976  14.682  63.049  1.00  0.00     0.000 HD 
HETATM   22  C   UNL     1     -12.271  13.638  66.882  1.00  0.00    -0.398 A  
ENDBRANCH  11  14
ENDBRANCH   9  11
ENDBRANCH   7   9
BRANCH   8  23
HETATM   23  O   UNL     1     -10.253   8.439  69.561  1.00  0.00    -0.197 OA 
HETATM   24  C   UNL     1     -10.494   7.204  68.896  1.00  0.00    -0.207 C  
ENDBRANCH   8  23
ENDBRANCH   2   3
TORSDOF 5
ENDMDL
MODEL       34
REMARK 921   NORMALIZED FREE ENERGY PREDICTED BY IDOCK:   -5.64 KCAL/MOL
REMARK 922        TOTAL FREE ENERGY PREDICTED BY IDOCK:   -7.79 KCAL/MOL
REMARK 923 INTER-LIGAND FREE ENERGY PREDICTED BY IDOCK:   -7.22 KCAL/MOL
REMARK 924 INTRA-LIGAND FREE ENERGY PREDICTED BY IDOCK:   -0.57 KCAL/MOL
REMARK 927      BINDING AFFINITY PREDICTED BY RF-SCORE:    0.00 PKD
ROOT
HETATM    1  C   UNL     1      -9.604   6.610  69.250  1.00  0.00    -0.143 C  
HETATM    2  O   UNL     1      -9.601   7.917  69.817  1.00  0.00    -0.167 OA 
ENDROOT
BRANCH   2   3
HETATM    3  C   UNL     1     -10.256   8.870  69.066  1.00  0.00    -0.206 A  
HETATM    4  N   UNL     1     -10.115   8.799  67.724  1.00  0.00    -0.195 NA 
HETATM    5  C   UNL     1     -10.739   9.740  67.005  1.00  0.00    -0.166 A  
HETATM    6  N   UNL     1     -11.494  10.724  67.493  1.00  0.00    -0.487 NA 
HETATM    7  C   UNL     1     -11.580  10.762  68.831  1.00  0.00    -0.291 A  
HETATM    8  C   UNL     1     -10.983   9.861  69.709  1.00  0.00    -0.268 A  
BRANCH   7   9
HETATM    9  N   UNL     1     -12.358  11.856  69.292  1.00  0.00    -0.076 N  
HETATM   10  H   UNL     1     -13.279  11.726  69.713  1.00  0.00     0.000 HD 
BRANCH   9  11
HETATM   11  S   UNL     1     -11.674  13.383  69.103  1.00  0.00    -0.341 S  
HETATM   12  O   UNL     1     -12.396  14.014  68.015  1.00  0.00    -0.239 OA 
HETATM   13  O   UNL     1     -10.233  13.266  69.067  1.00  0.00    -0.079 OA 
BRANCH  11  14
HETATM   14  C   UNL     1     -12.138  14.243  70.588  1.00  0.00    -0.346 A  
HETATM   15  C   UNL     1     -13.009  13.644  71.500  1.00  0.00    -0.443 A  
HETATM   16  C   UNL     1     -13.350  14.324  72.675  1.00  0.00    -0.619 A  
HETATM   17  C   UNL     1     -12.861  15.609  72.926  1.00  0.00    -0.471 A  
HETATM   18  C   UNL     1     -11.926  16.159  72.043  1.00  0.00    -0.607 A  
HETATM   19  N   UNL     1     -13.122  16.233  74.152  1.00  0.00    -0.942 NA 
HETATM   20  H2  UNL     1     -12.805  15.617  74.900  1.00  0.00     0.000 HD 
HETATM   21  H1  UNL     1     -12.766  17.172  74.335  1.00  0.00     0.000 HD 
HETATM   22  C   UNL     1     -11.575  15.490  70.866  1.00  0.00    -0.410 A  
ENDBRANCH  11  14
ENDBRANCH   9  11
ENDBRANCH   7   9
BRANCH   8  23
HETATM   23  O   UNL     1     -11.160  10.089  71.044  1.00  0.00    -0.343 OA 
HETATM   24  C   UNL     1     -12.125   9.304  71.736  1.00  0.00    -0.387 C  
ENDBRANCH   8  23
ENDBRANCH   2   3
TORSDOF 5
ENDMDL
MODEL       35
REMARK 921   NORMALIZED FREE ENERGY PREDICTED BY IDOCK:   -5.63 KCAL/MOL
REMARK 922        TOTAL FREE ENERGY PREDICTED BY IDOCK:   -7.79 KCAL/MOL
REMARK 923 INTER-LIGAND FREE ENERGY PREDICTED BY IDOCK:   -7.12 KCAL/MOL
REMARK 924 INTRA-LIGAND FREE ENERGY PREDICTED BY IDOCK:   -0.67 KCAL/MOL
REMARK 927      BINDING AFFINITY PREDICTED BY RF-SCORE:    0.00 PKD
ROOT
HETATM    1  C   UNL     1      -8.790  18.990  68.618  1.00  0.00    -0.352 C  
HETATM    2  O   UNL     1      -8.545  17.746  67.968  1.00  0.00    -0.238 OA 
ENDROOT
BRANCH   2   3
HETATM    3  C   UNL     1      -9.347  17.501  66.874  1.00  0.00    -0.269 A  
HETATM    4  N   UNL     1     -10.119  18.521  66.437  1.00  0.00    -0.385 NA 
HETATM    5  C   UNL     1     -10.908  18.268  65.386  1.00  0.00     0.313 A  
HETATM    6  N   UNL     1     -10.989  17.110  64.730  1.00  0.00    -0.924 NA 
HETATM    7  C   UNL     1     -10.222  16.126  65.222  1.00  0.00    -0.170 A  
HETATM    8  C   UNL     1      -9.359  16.235  66.308  1.00  0.00    -0.326 A  
BRANCH   7   9
HETATM    9  N   UNL     1     -10.384  14.908  64.510  1.00  0.00    -0.406 N  
HETATM   10  H   UNL     1      -9.726  14.611  63.789  1.00  0.00     0.000 HD 
BRANCH   9  11
HETATM   11  S   UNL     1     -11.728  13.981  64.926  1.00  0.00    -0.403 S  
HETATM   12  O   UNL     1     -12.556  13.921  63.738  1.00  0.00    -0.721 OA 
HETATM   13  O   UNL     1     -12.267  14.450  66.184  1.00  0.00    -0.403 OA 
BRANCH  11  14
HETATM   14  C   UNL     1     -11.061  12.351  65.165  1.00  0.00    -0.309 A  
HETATM   15  C   UNL     1     -10.420  11.696  64.112  1.00  0.00    -0.402 A  
HETATM   16  C   UNL     1      -9.882  10.421  64.320  1.00  0.00    -0.388 A  
HETATM   17  C   UNL     1     -10.015   9.780  65.555  1.00  0.00    -0.259 A  
HETATM   18  C   UNL     1     -10.586  10.484  66.621  1.00  0.00    -0.263 A  
HETATM   19  N   UNL     1      -9.380   8.553  65.782  1.00  0.00    -0.405 NA 
HETATM   20  H2  UNL     1      -8.386   8.663  65.583  1.00  0.00     0.000 HD 
HETATM   21  H1  UNL     1      -9.477   8.085  66.684  1.00  0.00     0.000 HD 
HETATM   22  C   UNL     1     -11.126  11.759  66.428  1.00  0.00    -0.360 A  
ENDBRANCH  11  14
ENDBRANCH   9  11
ENDBRANCH   7   9
BRANCH   8  23
HETATM   23  O   UNL     1      -8.685  15.106  66.678  1.00  0.00    -0.262 OA 
HETATM   24  C   UNL     1      -9.080  14.452  67.879  1.00  0.00    -0.187 C  
ENDBRANCH   8  23
ENDBRANCH   2   3
TORSDOF 5
ENDMDL
MODEL       36
REMARK 921   NORMALIZED FREE ENERGY PREDICTED BY IDOCK:   -5.63 KCAL/MOL
REMARK 922        TOTAL FREE ENERGY PREDICTED BY IDOCK:   -7.78 KCAL/MOL
REMARK 923 INTER-LIGAND FREE ENERGY PREDICTED BY IDOCK:   -7.21 KCAL/MOL
REMARK 924 INTRA-LIGAND FREE ENERGY PREDICTED BY IDOCK:   -0.56 KCAL/MOL
REMARK 927      BINDING AFFINITY PREDICTED BY RF-SCORE:    0.00 PKD
ROOT
HETATM    1  C   UNL     1     -13.115  11.587  71.646  1.00  0.00    -0.373 C  
HETATM    2  O   UNL     1     -12.296  11.588  70.480  1.00  0.00    -0.350 OA 
ENDROOT
BRANCH   2   3
HETATM    3  C   UNL     1     -12.078  12.834  69.933  1.00  0.00    -0.259 A  
HETATM    4  N   UNL     1     -11.978  13.874  70.791  1.00  0.00    -0.310 NA 
HETATM    5  C   UNL     1     -11.785  15.082  70.249  1.00  0.00    -0.294 A  
HETATM    6  N   UNL     1     -11.670  15.345  68.947  1.00  0.00    -0.356 NA 
HETATM    7  C   UNL     1     -11.802  14.283  68.140  1.00  0.00    -0.339 A  
HETATM    8  C   UNL     1     -12.013  12.971  68.554  1.00  0.00    -0.261 A  
BRANCH   7   9
HETATM    9  N   UNL     1     -11.715  14.633  66.767  1.00  0.00    -0.367 N  
HETATM   10  H   UNL     1     -12.542  14.861  66.214  1.00  0.00     0.000 HD 
BRANCH   9  11
HETATM   11  S   UNL     1     -10.168  14.648  66.103  1.00  0.00    -0.316 S  
HETATM   12  O   UNL     1     -10.331  14.334  64.698  1.00  0.00    -0.417 OA 
HETATM   13  O   UNL     1      -9.276  13.873  66.938  1.00  0.00    -0.242 OA 
BRANCH  11  14
HETATM   14  C   UNL     1      -9.685  16.357  66.190  1.00  0.00    -0.327 A  
HETATM   15  C   UNL     1      -8.339  16.698  66.331  1.00  0.00    -0.353 A  
HETATM   16  C   UNL     1      -7.971  18.046  66.377  1.00  0.00    -0.296 A  
HETATM   17  C   UNL     1      -8.938  19.055  66.325  1.00  0.00    -0.279 A  
HETATM   18  C   UNL     1     -10.272  18.698  66.101  1.00  0.00    -0.450 A  
HETATM   19  N   UNL     1      -8.550  20.399  66.264  1.00  0.00    -0.552 NA 
HETATM   20  H2  UNL     1      -7.920  20.516  65.471  1.00  0.00     0.000 HD 
HETATM   21  H1  UNL     1      -9.255  21.135  66.226  1.00  0.00     0.000 HD 
HETATM   22  C   UNL     1     -10.653  17.353  66.050  1.00  0.00    -0.210 A  
ENDBRANCH  11  14
ENDBRANCH   9  11
ENDBRANCH   7   9
BRANCH   8  23
HETATM   23  O   UNL     1     -12.155  12.029  67.575  1.00  0.00    -0.555 OA 
HETATM   24  C   UNL     1     -11.098  11.097  67.381  1.00  0.00    -0.307 C  
ENDBRANCH   8  23
ENDBRANCH   2   3
TORSDOF 5
ENDMDL
MODEL       37
REMARK 921   NORMALIZED FREE ENERGY PREDICTED BY IDOCK:   -5.58 KCAL/MOL
REMARK 922        TOTAL FREE ENERGY PREDICTED BY IDOCK:   -7.73 KCAL/MOL
REMARK 923 INTER-LIGAND FREE ENERGY PREDICTED BY IDOCK:   -7.17 KCAL/MOL
REMARK 924 INTRA-LIGAND FREE ENERGY PREDICTED BY IDOCK:   -0.55 KCAL/MOL
REMARK 927      BINDING AFFINITY PREDICTED BY RF-SCORE:    0.00 PKD
ROOT
HETATM    1  C   UNL     1     -14.262  14.076  72.255  1.00  0.00    -0.504 C  
HETATM    2  O   UNL     1     -13.292  13.257  71.610  1.00  0.00    -0.371 OA 
ENDROOT
BRANCH   2   3
HETATM    3  C   UNL     1     -12.413  13.941  70.796  1.00  0.00    -0.375 A  
HETATM    4  N   UNL     1     -12.152  15.228  71.117  1.00  0.00    -0.315 NA 
HETATM    5  C   UNL     1     -11.313  15.888  70.311  1.00  0.00    -0.372 A  
HETATM    6  N   UNL     1     -10.705  15.387  69.236  1.00  0.00    -0.237 NA 
HETATM    7  C   UNL     1     -11.018  14.115  68.949  1.00  0.00    -0.259 A  
HETATM    8  C   UNL     1     -11.877  13.305  69.686  1.00  0.00    -0.327 A  
BRANCH   7   9
HETATM    9  N   UNL     1     -10.376  13.652  67.770  1.00  0.00    -0.238 N  
HETATM   10  H   UNL     1      -9.480  13.165  67.799  1.00  0.00     0.000 HD 
BRANCH   9  11
HETATM   11  S   UNL     1     -11.180  13.954  66.322  1.00  0.00    -0.316 S  
HETATM   12  O   UNL     1     -10.576  15.150  65.769  1.00  0.00    -0.312 OA 
HETATM   13  O   UNL     1     -12.608  13.876  66.537  1.00  0.00    -0.384 OA 
BRANCH  11  14
HETATM   14  C   UNL     1     -10.688  12.605  65.274  1.00  0.00    -0.289 A  
HETATM   15  C   UNL     1     -10.616  12.783  63.891  1.00  0.00    -0.427 A  
HETATM   16  C   UNL     1     -10.208  11.719  63.080  1.00  0.00    -0.376 A  
HETATM   17  C   UNL     1      -9.912  10.470  63.633  1.00  0.00    -0.234 A  
HETATM   18  C   UNL     1      -9.909  10.333  65.025  1.00  0.00    -0.397 A  
HETATM   19  N   UNL     1      -9.402   9.446  62.825  1.00  0.00    -0.549 NA 
HETATM   20  H2  UNL     1      -8.568   9.795  62.352  1.00  0.00     0.000 HD 
HETATM   21  H1  UNL     1      -9.185   8.535  63.228  1.00  0.00     0.000 HD 
HETATM   22  C   UNL     1     -10.312  11.389  65.848  1.00  0.00    -0.299 A  
ENDBRANCH  11  14
ENDBRANCH   9  11
ENDBRANCH   7   9
BRANCH   8  23
HETATM   23  O   UNL     1     -12.096  12.043  69.212  1.00  0.00    -0.271 OA 
HETATM   24  C   UNL     1     -11.416  10.962  69.841  1.00  0.00    -0.323 C  
ENDBRANCH   8  23
ENDBRANCH   2   3
TORSDOF 5
ENDMDL
MODEL       38
REMARK 921   NORMALIZED FREE ENERGY PREDICTED BY IDOCK:   -5.58 KCAL/MOL
REMARK 922        TOTAL FREE ENERGY PREDICTED BY IDOCK:   -7.72 KCAL/MOL
REMARK 923 INTER-LIGAND FREE ENERGY PREDICTED BY IDOCK:   -7.19 KCAL/MOL
REMARK 924 INTRA-LIGAND FREE ENERGY PREDICTED BY IDOCK:   -0.53 KCAL/MOL
REMARK 927      BINDING AFFINITY PREDICTED BY RF-SCORE:    0.00 PKD
ROOT
HETATM    1  C   UNL     1      -9.238  11.104  62.657  1.00  0.00    -0.323 C  
HETATM    2  O   UNL     1      -9.936  10.452  63.714  1.00  0.00    -0.301 OA 
ENDROOT
BRANCH   2   3
HETATM    3  C   UNL     1     -10.701  11.289  64.499  1.00  0.00    -0.323 A  
HETATM    4  N   UNL     1     -11.813  11.814  63.936  1.00  0.00    -0.382 NA 
HETATM    5  C   UNL     1     -12.538  12.640  64.699  1.00  0.00    -0.440 A  
HETATM    6  N   UNL     1     -12.271  12.975  65.961  1.00  0.00    -0.460 NA 
HETATM    7  C   UNL     1     -11.144  12.447  66.461  1.00  0.00    -0.301 A  
HETATM    8  C   UNL     1     -10.285  11.582  65.789  1.00  0.00    -0.249 A  
BRANCH   7   9
HETATM    9  N   UNL     1     -10.889  12.876  67.790  1.00  0.00    -0.224 N  
HETATM   10  H   UNL     1     -10.387  13.742  67.992  1.00  0.00     0.000 HD 
BRANCH   9  11
HETATM   11  S   UNL     1     -11.463  11.874  69.015  1.00  0.00    -0.322 S  
HETATM   12  O   UNL     1     -10.291  11.284  69.633  1.00  0.00    -0.017 OA 
HETATM   13  O   UNL     1     -12.527  11.041  68.499  1.00  0.00    -0.440 OA 
BRANCH  11  14
HETATM   14  C   UNL     1     -12.150  13.004  70.202  1.00  0.00    -0.307 A  
HETATM   15  C   UNL     1     -12.071  14.382  69.984  1.00  0.00    -0.401 A  
HETATM   16  C   UNL     1     -12.635  15.259  70.916  1.00  0.00    -0.471 A  
HETATM   17  C   UNL     1     -13.237  14.777  72.081  1.00  0.00    -0.361 A  
HETATM   18  C   UNL     1     -13.380  13.394  72.243  1.00  0.00    -0.641 A  
HETATM   19  N   UNL     1     -13.891  15.657  72.952  1.00  0.00    -0.583 NA 
HETATM   20  H2  UNL     1     -14.589  16.176  72.420  1.00  0.00     0.000 HD 
HETATM   21  H1  UNL     1     -14.331  15.305  73.803  1.00  0.00     0.000 HD 
HETATM   22  C   UNL     1     -12.825  12.505  71.318  1.00  0.00    -0.337 A  
ENDBRANCH  11  14
ENDBRANCH   9  11
ENDBRANCH   7   9
BRANCH   8  23
HETATM   23  O   UNL     1      -9.166  11.177  66.460  1.00  0.00    -0.170 OA 
HETATM   24  C   UNL     1      -9.034   9.795  66.772  1.00  0.00    -0.138 C  
ENDBRANCH   8  23
ENDBRANCH   2   3
TORSDOF 5
ENDMDL
MODEL       39
REMARK 921   NORMALIZED FREE ENERGY PREDICTED BY IDOCK:   -5.57 KCAL/MOL
REMARK 922        TOTAL FREE ENERGY PREDICTED BY IDOCK:   -7.71 KCAL/MOL
REMARK 923 INTER-LIGAND FREE ENERGY PREDICTED BY IDOCK:   -7.24 KCAL/MOL
REMARK 924 INTRA-LIGAND FREE ENERGY PREDICTED BY IDOCK:   -0.46 KCAL/MOL
REMARK 927      BINDING AFFINITY PREDICTED BY RF-SCORE:    0.00 PKD
ROOT
HETATM    1  C   UNL     1     -10.812  10.202  67.547  1.00  0.00    -0.290 C  
HETATM    2  O   UNL     1     -11.857  11.170  67.536  1.00  0.00    -0.591 OA 
ENDROOT
BRANCH   2   3
HETATM    3  C   UNL     1     -11.465  12.434  67.147  1.00  0.00    -0.357 A  
HETATM    4  N   UNL     1     -10.731  12.529  66.016  1.00  0.00    -0.257 NA 
HETATM    5  C   UNL     1     -10.340  13.757  65.657  1.00  0.00    -0.311 A  
HETATM    6  N   UNL     1     -10.621  14.887  66.305  1.00  0.00    -0.299 NA 
HETATM    7  C   UNL     1     -11.329  14.733  67.434  1.00  0.00    -0.351 A  
HETATM    8  C   UNL     1     -11.799  13.523  67.937  1.00  0.00    -0.362 A  
BRANCH   7   9
HETATM    9  N   UNL     1     -11.557  15.964  68.102  1.00  0.00    -0.287 N  
HETATM   10  H   UNL     1     -12.365  16.552  67.891  1.00  0.00     0.000 HD 
BRANCH   9  11
HETATM   11  S   UNL     1     -10.417  16.400  69.262  1.00  0.00    -0.318 S  
HETATM   12  O   UNL     1      -9.434  15.335  69.278  1.00  0.00    -0.224 OA 
HETATM   13  O   UNL     1     -11.093  16.804  70.475  1.00  0.00    -0.166 OA 
BRANCH  11  14
HETATM   14  C   UNL     1      -9.616  17.821  68.557  1.00  0.00    -0.322 A  
HETATM   15  C   UNL     1     -10.379  18.873  68.044  1.00  0.00    -0.457 A  
HETATM   16  C   UNL     1      -9.736  19.995  67.511  1.00  0.00    -0.539 A  
HETATM   17  C   UNL     1      -8.341  20.057  67.448  1.00  0.00    -0.334 A  
HETATM   18  C   UNL     1      -7.593  19.034  68.040  1.00  0.00    -0.300 A  
HETATM   19  N   UNL     1      -7.708  21.228  67.012  1.00  0.00    -0.741 NA 
HETATM   20  H2  UNL     1      -8.039  22.005  67.584  1.00  0.00     0.000 HD 
HETATM   21  H1  UNL     1      -6.690  21.274  66.965  1.00  0.00     0.000 HD 
HETATM   22  C   UNL     1      -8.223  17.908  68.579  1.00  0.00    -0.300 A  
ENDBRANCH  11  14
ENDBRANCH   9  11
ENDBRANCH   7   9
BRANCH   8  23
HETATM   23  O   UNL     1     -12.475  13.569  69.123  1.00  0.00    -0.156 OA 
HETATM   24  C   UNL     1     -11.923  12.877  70.238  1.00  0.00    -0.283 C  
ENDBRANCH   8  23
ENDBRANCH   2   3
TORSDOF 5
ENDMDL
MODEL       40
REMARK 921   NORMALIZED FREE ENERGY PREDICTED BY IDOCK:   -5.55 KCAL/MOL
REMARK 922        TOTAL FREE ENERGY PREDICTED BY IDOCK:   -7.68 KCAL/MOL
REMARK 923 INTER-LIGAND FREE ENERGY PREDICTED BY IDOCK:   -7.17 KCAL/MOL
REMARK 924 INTRA-LIGAND FREE ENERGY PREDICTED BY IDOCK:   -0.51 KCAL/MOL
REMARK 927      BINDING AFFINITY PREDICTED BY RF-SCORE:    0.00 PKD
ROOT
HETATM    1  C   UNL     1      -5.955  20.074  70.854  1.00  0.00    -0.302 C  
HETATM    2  O   UNL     1      -5.970  19.667  69.489  1.00  0.00    -0.245 OA 
ENDROOT
BRANCH   2   3
HETATM    3  C   UNL     1      -6.693  18.519  69.240  1.00  0.00    -0.234 A  
HETATM    4  N   UNL     1      -6.119  17.344  69.585  1.00  0.00    -0.249 NA 
HETATM    5  C   UNL     1      -6.821  16.235  69.322  1.00  0.00    -0.211 A  
HETATM    6  N   UNL     1      -8.032  16.189  68.768  1.00  0.00    -0.202 NA 
HETATM    7  C   UNL     1      -8.543  17.381  68.423  1.00  0.00    -0.270 A  
HETATM    8  C   UNL     1      -7.932  18.615  68.624  1.00  0.00    -0.327 A  
BRANCH   7   9
HETATM    9  N   UNL     1      -9.812  17.264  67.797  1.00  0.00    -0.272 N  
HETATM   10  H   UNL     1     -10.676  17.194  68.337  1.00  0.00     0.000 HD 
BRANCH   9  11
HETATM   11  S   UNL     1      -9.810  17.246  66.114  1.00  0.00    -0.214 S  
HETATM   12  O   UNL     1      -8.447  16.948  65.718  1.00  0.00    -0.492 OA 
HETATM   13  O   UNL     1     -10.486  18.424  65.617  1.00  0.00    -0.624 OA 
BRANCH  11  14
HETATM   14  C   UNL     1     -10.783  15.816  65.703  1.00  0.00    -0.348 A  
HETATM   15  C   UNL     1     -10.950  14.792  66.637  1.00  0.00    -0.326 A  
HETATM   16  C   UNL     1     -11.736  13.682  66.308  1.00  0.00    -0.396 A  
HETATM   17  C   UNL     1     -12.319  13.567  65.043  1.00  0.00    -0.428 A  
HETATM   18  C   UNL     1     -12.210  14.639  64.151  1.00  0.00    -0.343 A  
HETATM   19  N   UNL     1     -13.189  12.506  64.763  1.00  0.00    -0.740 NA 
HETATM   20  H2  UNL     1     -13.932  12.507  65.461  1.00  0.00     0.000 HD 
HETATM   21  H1  UNL     1     -13.615  12.422  63.840  1.00  0.00     0.000 HD 
HETATM   22  C   UNL     1     -11.430  15.756  64.467  1.00  0.00    -0.292 A  
ENDBRANCH  11  14
ENDBRANCH   9  11
ENDBRANCH   7   9
BRANCH   8  23
HETATM   23  O   UNL     1      -8.600  19.717  68.171  1.00  0.00    -0.315 OA 
HETATM   24  C   UNL     1      -8.028  20.453  67.096  1.00  0.00    -0.335 C  
ENDBRANCH   8  23
ENDBRANCH   2   3
TORSDOF 5
ENDMDL
MODEL       41
REMARK 921   NORMALIZED FREE ENERGY PREDICTED BY IDOCK:   -5.50 KCAL/MOL
REMARK 922        TOTAL FREE ENERGY PREDICTED BY IDOCK:   -7.62 KCAL/MOL
REMARK 923 INTER-LIGAND FREE ENERGY PREDICTED BY IDOCK:   -6.96 KCAL/MOL
REMARK 924 INTRA-LIGAND FREE ENERGY PREDICTED BY IDOCK:   -0.66 KCAL/MOL
REMARK 927      BINDING AFFINITY PREDICTED BY RF-SCORE:    0.00 PKD
ROOT
HETATM    1  C   UNL     1      -7.983   6.541  67.929  1.00  0.00    -0.109 C  
HETATM    2  O   UNL     1      -8.369   7.601  68.799  1.00  0.00    -0.127 OA 
ENDROOT
BRANCH   2   3
HETATM    3  C   UNL     1      -8.592   8.808  68.169  1.00  0.00    -0.134 A  
HETATM    4  N   UNL     1      -8.182   8.917  66.885  1.00  0.00    -0.111 NA 
HETATM    5  C   UNL     1      -8.386  10.098  66.290  1.00  0.00    -0.130 A  
HETATM    6  N   UNL     1      -8.966  11.163  66.843  1.00  0.00    -0.157 NA 
HETATM    7  C   UNL     1      -9.330  11.008  68.125  1.00  0.00    -0.173 A  
HETATM    8  C   UNL     1      -9.177   9.847  68.877  1.00  0.00    -0.160 A  
BRANCH   7   9
HETATM    9  N   UNL     1      -9.900  12.188  68.671  1.00  0.00    -0.369 N  
HETATM   10  H   UNL     1      -9.351  12.847  69.225  1.00  0.00     0.000 HD 
BRANCH   9  11
HETATM   11  S   UNL     1     -11.534  12.437  68.354  1.00  0.00    -0.333 S  
HETATM   12  O   UNL     1     -12.072  13.108  69.521  1.00  0.00    -0.293 OA 
HETATM   13  O   UNL     1     -12.124  11.210  67.866  1.00  0.00    -0.627 OA 
BRANCH  11  14
HETATM   14  C   UNL     1     -11.533  13.631  67.036  1.00  0.00    -0.343 A  
HETATM   15  C   UNL     1     -10.725  14.766  67.121  1.00  0.00    -0.299 A  
HETATM   16  C   UNL     1     -10.718  15.687  66.068  1.00  0.00    -0.322 A  
HETATM   17  C   UNL     1     -11.541  15.505  64.953  1.00  0.00    -0.201 A  
HETATM   18  C   UNL     1     -12.281  14.322  64.847  1.00  0.00    -0.449 A  
HETATM   19  N   UNL     1     -11.447  16.375  63.860  1.00  0.00    -1.618 NA 
HETATM   20  H2  UNL     1     -10.477  16.391  63.545  1.00  0.00     0.000 HD 
HETATM   21  H1  UNL     1     -12.047  16.243  63.045  1.00  0.00     0.000 HD 
HETATM   22  C   UNL     1     -12.295  13.392  65.891  1.00  0.00    -0.493 A  
ENDBRANCH  11  14
ENDBRANCH   9  11
ENDBRANCH   7   9
BRANCH   8  23
HETATM   23  O   UNL     1      -9.581   9.898  70.181  1.00  0.00    -0.245 OA 
HETATM   24  C   UNL     1     -10.838   9.322  70.517  1.00  0.00    -0.263 C  
ENDBRANCH   8  23
ENDBRANCH   2   3
TORSDOF 5
ENDMDL
MODEL       42
REMARK 921   NORMALIZED FREE ENERGY PREDICTED BY IDOCK:   -5.49 KCAL/MOL
REMARK 922        TOTAL FREE ENERGY PREDICTED BY IDOCK:   -7.60 KCAL/MOL
REMARK 923 INTER-LIGAND FREE ENERGY PREDICTED BY IDOCK:   -6.99 KCAL/MOL
REMARK 924 INTRA-LIGAND FREE ENERGY PREDICTED BY IDOCK:   -0.61 KCAL/MOL
REMARK 927      BINDING AFFINITY PREDICTED BY RF-SCORE:    0.00 PKD
ROOT
HETATM    1  C   UNL     1     -10.701  15.628  66.832  1.00  0.00    -0.307 C  
HETATM    2  O   UNL     1     -11.872  14.818  66.876  1.00  0.00    -0.354 OA 
ENDROOT
BRANCH   2   3
HETATM    3  C   UNL     1     -11.923  13.938  67.937  1.00  0.00    -0.358 A  
HETATM    4  N   UNL     1     -11.943  14.472  69.179  1.00  0.00    -0.319 NA 
HETATM    5  C   UNL     1     -11.973  13.610  70.202  1.00  0.00    -0.337 A  
HETATM    6  N   UNL     1     -11.998  12.281  70.103  1.00  0.00    -0.335 NA 
HETATM    7  C   UNL     1     -11.950  11.805  68.850  1.00  0.00    -0.271 A  
HETATM    8  C   UNL     1     -11.908  12.573  67.691  1.00  0.00    -0.317 A  
BRANCH   7   9
HETATM    9  N   UNL     1     -11.933  10.385  68.813  1.00  0.00    -0.474 N  
HETATM   10  H   UNL     1     -12.789   9.837  68.720  1.00  0.00     0.000 HD 
BRANCH   9  11
HETATM   11  S   UNL     1     -10.419   9.659  68.930  1.00  0.00    -0.220 S  
HETATM   12  O   UNL     1      -9.461  10.742  69.035  1.00  0.00    -0.191 OA 
HETATM   13  O   UNL     1     -10.287   8.649  67.902  1.00  0.00    -0.215 OA 
BRANCH  11  14
HETATM   14  C   UNL     1     -10.454   8.856  70.515  1.00  0.00    -0.215 A  
HETATM   15  C   UNL     1      -9.324   8.874  71.334  1.00  0.00    -0.338 A  
HETATM   16  C   UNL     1      -9.372   8.256  72.588  1.00  0.00    -0.350 A  
HETATM   17  C   UNL     1     -10.523   7.587  73.013  1.00  0.00    -0.342 A  
HETATM   18  C   UNL     1     -11.672   7.649  72.216  1.00  0.00    -0.371 A  
HETATM   19  N   UNL     1     -10.596   7.065  74.310  1.00  0.00    -0.531 NA 
HETATM   20  H2  UNL     1     -10.400   7.818  74.970  1.00  0.00     0.000 HD 
HETATM   21  H1  UNL     1     -11.436   6.577  74.621  1.00  0.00     0.000 HD 
HETATM   22  C   UNL     1     -11.638   8.266  70.962  1.00  0.00    -0.301 A  
ENDBRANCH  11  14
ENDBRANCH   9  11
ENDBRANCH   7   9
BRANCH   8  23
HETATM   23  O   UNL     1     -11.828  11.899  66.505  1.00  0.00    -0.579 OA 
HETATM   24  C   UNL     1     -10.575  11.872  65.832  1.00  0.00    -0.266 C  
ENDBRANCH   8  23
ENDBRANCH   2   3
TORSDOF 5
ENDMDL
MODEL       43
REMARK 921   NORMALIZED FREE ENERGY PREDICTED BY IDOCK:   -5.46 KCAL/MOL
REMARK 922        TOTAL FREE ENERGY PREDICTED BY IDOCK:   -7.56 KCAL/MOL
REMARK 923 INTER-LIGAND FREE ENERGY PREDICTED BY IDOCK:   -7.03 KCAL/MOL
REMARK 924 INTRA-LIGAND FREE ENERGY PREDICTED BY IDOCK:   -0.54 KCAL/MOL
REMARK 927      BINDING AFFINITY PREDICTED BY RF-SCORE:    0.00 PKD
ROOT
HETATM    1  C   UNL     1     -11.658   6.967  71.334  1.00  0.00    -0.299 C  
HETATM    2  O   UNL     1     -10.594   7.816  70.913  1.00  0.00    -0.210 OA 
ENDROOT
BRANCH   2   3
HETATM    3  C   UNL     1     -11.001   9.004  70.341  1.00  0.00    -0.247 A  
HETATM    4  N   UNL     1     -11.744   9.833  71.107  1.00  0.00    -0.354 NA 
HETATM    5  C   UNL     1     -12.149  10.974  70.536  1.00  0.00    -0.377 A  
HETATM    6  N   UNL     1     -11.873  11.366  69.292  1.00  0.00    -0.325 NA 
HETATM    7  C   UNL     1     -11.155  10.495  68.569  1.00  0.00    -0.275 A  
HETATM    8  C   UNL     1     -10.670   9.271  69.020  1.00  0.00    -0.167 A  
BRANCH   7   9
HETATM    9  N   UNL     1     -10.932  10.948  67.242  1.00  0.00    -0.291 N  
HETATM   10  H   UNL     1     -11.584  10.742  66.484  1.00  0.00     0.000 HD 
BRANCH   9  11
HETATM   11  S   UNL     1      -9.530  11.845  66.991  1.00  0.00    -0.192 S  
HETATM   12  O   UNL     1      -8.730  11.086  66.050  1.00  0.00    -0.181 OA 
HETATM   13  O   UNL     1      -8.984  12.255  68.267  1.00  0.00    -0.190 OA 
BRANCH  11  14
HETATM   14  C   UNL     1     -10.098  13.290  66.126  1.00  0.00    -0.293 A  
HETATM   15  C   UNL     1     -11.249  13.225  65.337  1.00  0.00    -0.306 A  
HETATM   16  C   UNL     1     -11.697  14.375  64.678  1.00  0.00    -0.438 A  
HETATM   17  C   UNL     1     -10.986  15.575  64.766  1.00  0.00    -0.399 A  
HETATM   18  C   UNL     1      -9.884  15.642  65.626  1.00  0.00    -0.369 A  
HETATM   19  N   UNL     1     -11.501  16.742  64.191  1.00  0.00    -1.378 NA 
HETATM   20  H2  UNL     1     -12.439  16.897  64.562  1.00  0.00     0.000 HD 
HETATM   21  H1  UNL     1     -10.982  17.618  64.256  1.00  0.00     0.000 HD 
HETATM   22  C   UNL     1      -9.426  14.502  66.293  1.00  0.00    -0.310 A  
ENDBRANCH  11  14
ENDBRANCH   9  11
ENDBRANCH   7   9
BRANCH   8  23
HETATM   23  O   UNL     1      -9.985   8.507  68.119  1.00  0.00    -0.168 OA 
HETATM   24  C   UNL     1     -10.701   7.505  67.407  1.00  0.00    -0.261 C  
ENDBRANCH   8  23
ENDBRANCH   2   3
TORSDOF 5
ENDMDL
MODEL       44
REMARK 921   NORMALIZED FREE ENERGY PREDICTED BY IDOCK:   -5.44 KCAL/MOL
REMARK 922        TOTAL FREE ENERGY PREDICTED BY IDOCK:   -7.54 KCAL/MOL
REMARK 923 INTER-LIGAND FREE ENERGY PREDICTED BY IDOCK:   -7.17 KCAL/MOL
REMARK 924 INTRA-LIGAND FREE ENERGY PREDICTED BY IDOCK:   -0.37 KCAL/MOL
REMARK 927      BINDING AFFINITY PREDICTED BY RF-SCORE:    0.00 PKD
ROOT
HETATM    1  C   UNL     1     -11.262  10.274  69.085  1.00  0.00    -0.215 C  
HETATM    2  O   UNL     1     -11.773  10.930  67.928  1.00  0.00    -0.557 OA 
ENDROOT
BRANCH   2   3
HETATM    3  C   UNL     1     -11.637  12.303  67.940  1.00  0.00    -0.354 A  
HETATM    4  N   UNL     1     -11.187  12.867  69.083  1.00  0.00    -0.254 NA 
HETATM    5  C   UNL     1     -11.077  14.200  69.090  1.00  0.00    -0.262 A  
HETATM    6  N   UNL     1     -11.358  15.013  68.072  1.00  0.00    -0.316 NA 
HETATM    7  C   UNL     1     -11.825  14.404  66.972  1.00  0.00    -0.412 A  
HETATM    8  C   UNL     1     -12.000  13.032  66.817  1.00  0.00    -0.369 A  
BRANCH   7   9
HETATM    9  N   UNL     1     -12.148  15.325  65.941  1.00  0.00     0.284 N  
HETATM   10  H   UNL     1     -13.101  15.659  65.794  1.00  0.00     0.000 HD 
BRANCH   9  11
HETATM   11  S   UNL     1     -10.867  15.833  64.974  1.00  0.00    -0.375 S  
HETATM   12  O   UNL     1     -11.458  16.602  63.896  1.00  0.00    -1.186 OA 
HETATM   13  O   UNL     1      -9.998  14.710  64.694  1.00  0.00    -0.174 OA 
BRANCH  11  14
HETATM   14  C   UNL     1      -9.991  16.988  66.002  1.00  0.00    -0.269 A  
HETATM   15  C   UNL     1     -10.633  18.137  66.468  1.00  0.00    -0.290 A  
HETATM   16  C   UNL     1      -9.938  19.027  67.294  1.00  0.00    -0.410 A  
HETATM   17  C   UNL     1      -8.598  18.801  67.623  1.00  0.00    -0.272 A  
HETATM   18  C   UNL     1      -7.997  17.605  67.217  1.00  0.00    -0.222 A  
HETATM   19  N   UNL     1      -7.947  19.641  68.535  1.00  0.00    -0.337 NA 
HETATM   20  H2  UNL     1      -8.491  19.662  69.398  1.00  0.00     0.000 HD 
HETATM   21  H1  UNL     1      -6.969  19.476  68.776  1.00  0.00     0.000 HD 
HETATM   22  C   UNL     1      -8.681  16.705  66.394  1.00  0.00    -0.345 A  
ENDBRANCH  11  14
ENDBRANCH   9  11
ENDBRANCH   7   9
BRANCH   8  23
HETATM   23  O   UNL     1     -12.522  12.606  65.629  1.00  0.00    -0.622 OA 
HETATM   24  C   UNL     1     -11.668  11.899  64.736  1.00  0.00    -0.212 C  
ENDBRANCH   8  23
ENDBRANCH   2   3
TORSDOF 5
ENDMDL
MODEL       45
REMARK 921   NORMALIZED FREE ENERGY PREDICTED BY IDOCK:   -5.41 KCAL/MOL
REMARK 922        TOTAL FREE ENERGY PREDICTED BY IDOCK:   -7.50 KCAL/MOL
REMARK 923 INTER-LIGAND FREE ENERGY PREDICTED BY IDOCK:   -6.97 KCAL/MOL
REMARK 924 INTRA-LIGAND FREE ENERGY PREDICTED BY IDOCK:   -0.53 KCAL/MOL
REMARK 927      BINDING AFFINITY PREDICTED BY RF-SCORE:    0.00 PKD
ROOT
HETATM    1  C   UNL     1      -7.877   6.490  70.935  1.00  0.00    -0.106 C  
HETATM    2  O   UNL     1      -8.909   6.720  69.980  1.00  0.00    -0.140 OA 
ENDROOT
BRANCH   2   3
HETATM    3  C   UNL     1      -9.750   7.770  70.285  1.00  0.00    -0.179 A  
HETATM    4  N   UNL     1     -10.040   7.968  71.591  1.00  0.00    -0.177 NA 
HETATM    5  C   UNL     1     -10.871   8.977  71.874  1.00  0.00    -0.343 A  
HETATM    6  N   UNL     1     -11.423   9.807  70.990  1.00  0.00    -0.352 NA 
HETATM    7  C   UNL     1     -11.123   9.551  69.708  1.00  0.00    -0.191 A  
HETATM    8  C   UNL     1     -10.283   8.536  69.259  1.00  0.00    -0.208 A  
BRANCH   7   9
HETATM    9  N   UNL     1     -11.775  10.438  68.812  1.00  0.00    -0.520 N  
HETATM   10  H   UNL     1     -12.593  10.155  68.271  1.00  0.00     0.000 HD 
BRANCH   9  11
HETATM   11  S   UNL     1     -11.121  11.985  68.694  1.00  0.00    -0.270 S  
HETATM   12  O   UNL     1      -9.681  11.812  68.690  1.00  0.00    -0.191 OA 
HETATM   13  O   UNL     1     -11.761  12.855  69.656  1.00  0.00    -0.300 OA 
BRANCH  11  14
HETATM   14  C   UNL     1     -11.574  12.514  67.059  1.00  0.00    -0.368 A  
HETATM   15  C   UNL     1     -12.249  13.723  66.876  1.00  0.00    -0.408 A  
HETATM   16  C   UNL     1     -12.581  14.137  65.582  1.00  0.00    -0.495 A  
HETATM   17  C   UNL     1     -12.282  13.338  64.475  1.00  0.00    -0.400 A  
HETATM   18  C   UNL     1     -11.534  12.172  64.669  1.00  0.00    -0.388 A  
HETATM   19  N   UNL     1     -12.523  13.812  63.180  1.00  0.00    -1.074 NA 
HETATM   20  H2  UNL     1     -12.043  14.705  63.070  1.00  0.00     0.000 HD 
HETATM   21  H1  UNL     1     -12.305  13.228  62.372  1.00  0.00     0.000 HD 
HETATM   22  C   UNL     1     -11.193  11.747  65.956  1.00  0.00    -0.352 A  
ENDBRANCH  11  14
ENDBRANCH   9  11
ENDBRANCH   7   9
BRANCH   8  23
HETATM   23  O   UNL     1     -10.128   8.415  67.907  1.00  0.00    -0.182 OA 
HETATM   24  C   UNL     1     -10.765   7.322  67.254  1.00  0.00    -0.321 C  
ENDBRANCH   8  23
ENDBRANCH   2   3
TORSDOF 5
ENDMDL
MODEL       46
REMARK 921   NORMALIZED FREE ENERGY PREDICTED BY IDOCK:   -5.40 KCAL/MOL
REMARK 922        TOTAL FREE ENERGY PREDICTED BY IDOCK:   -7.48 KCAL/MOL
REMARK 923 INTER-LIGAND FREE ENERGY PREDICTED BY IDOCK:   -6.89 KCAL/MOL
REMARK 924 INTRA-LIGAND FREE ENERGY PREDICTED BY IDOCK:   -0.59 KCAL/MOL
REMARK 927      BINDING AFFINITY PREDICTED BY RF-SCORE:    0.00 PKD
ROOT
HETATM    1  C   UNL     1      -7.217   7.814  65.094  1.00  0.00    -0.065 C  
HETATM    2  O   UNL     1      -8.613   7.996  65.313  1.00  0.00    -0.153 OA 
ENDROOT
BRANCH   2   3
HETATM    3  C   UNL     1      -8.934   8.570  66.526  1.00  0.00    -0.161 A  
HETATM    4  N   UNL     1      -9.082   7.736  67.580  1.00  0.00    -0.133 NA 
HETATM    5  C   UNL     1      -9.412   8.301  68.748  1.00  0.00    -0.148 A  
HETATM    6  N   UNL     1      -9.592   9.603  68.963  1.00  0.00    -0.162 NA 
HETATM    7  C   UNL     1      -9.459  10.381  67.879  1.00  0.00    -0.138 A  
HETATM    8  C   UNL     1      -9.127   9.941  66.600  1.00  0.00    -0.147 A  
BRANCH   7   9
HETATM    9  N   UNL     1      -9.707  11.750  68.161  1.00  0.00    -0.186 N  
HETATM   10  H   UNL     1      -8.952  12.402  68.379  1.00  0.00     0.000 HD 
BRANCH   9  11
HETATM   11  S   UNL     1     -11.318  12.235  68.116  1.00  0.00    -0.321 S  
HETATM   12  O   UNL     1     -11.561  12.939  69.360  1.00  0.00    -0.285 OA 
HETATM   13  O   UNL     1     -12.148  11.118  67.722  1.00  0.00    -0.606 OA 
BRANCH  11  14
HETATM   14  C   UNL     1     -11.358  13.457  66.825  1.00  0.00    -0.325 A  
HETATM   15  C   UNL     1     -12.251  13.320  65.760  1.00  0.00    -0.510 A  
HETATM   16  C   UNL     1     -12.286  14.299  64.762  1.00  0.00    -0.440 A  
HETATM   17  C   UNL     1     -11.412  15.389  64.796  1.00  0.00    -0.336 A  
HETATM   18  C   UNL     1     -10.583  15.553  65.912  1.00  0.00    -0.350 A  
HETATM   19  N   UNL     1     -11.530  16.415  63.851  1.00  0.00    -1.618 NA 
HETATM   20  H2  UNL     1     -12.486  16.769  63.878  1.00  0.00     0.000 HD 
HETATM   21  H1  UNL     1     -10.892  17.211  63.876  1.00  0.00     0.000 HD 
HETATM   22  C   UNL     1     -10.539  14.584  66.918  1.00  0.00    -0.279 A  
ENDBRANCH  11  14
ENDBRANCH   9  11
ENDBRANCH   7   9
BRANCH   8  23
HETATM   23  O   UNL     1      -9.072  10.887  65.616  1.00  0.00    -0.192 OA 
HETATM   24  C   UNL     1      -9.926  10.732  64.488  1.00  0.00    -0.333 C  
ENDBRANCH   8  23
ENDBRANCH   2   3
TORSDOF 5
ENDMDL
MODEL       47
REMARK 921   NORMALIZED FREE ENERGY PREDICTED BY IDOCK:   -5.39 KCAL/MOL
REMARK 922        TOTAL FREE ENERGY PREDICTED BY IDOCK:   -7.47 KCAL/MOL
REMARK 923 INTER-LIGAND FREE ENERGY PREDICTED BY IDOCK:   -6.96 KCAL/MOL
REMARK 924 INTRA-LIGAND FREE ENERGY PREDICTED BY IDOCK:   -0.51 KCAL/MOL
REMARK 927      BINDING AFFINITY PREDICTED BY RF-SCORE:    0.00 PKD
ROOT
HETATM    1  C   UNL     1     -10.044  16.474  67.583  1.00  0.00    -0.266 C  
HETATM    2  O   UNL     1     -11.374  16.004  67.787  1.00  0.00    -0.282 OA 
ENDROOT
BRANCH   2   3
HETATM    3  C   UNL     1     -11.583  14.693  67.414  1.00  0.00    -0.389 A  
HETATM    4  N   UNL     1     -11.800  14.454  66.101  1.00  0.00    -0.390 NA 
HETATM    5  C   UNL     1     -12.021  13.181  65.752  1.00  0.00    -0.423 A  
HETATM    6  N   UNL     1     -12.030  12.135  66.578  1.00  0.00    -0.631 NA 
HETATM    7  C   UNL     1     -11.835  12.431  67.871  1.00  0.00    -0.308 A  
HETATM    8  C   UNL     1     -11.601  13.704  68.386  1.00  0.00    -0.342 A  
BRANCH   7   9
HETATM    9  N   UNL     1     -11.901  11.284  68.705  1.00  0.00    -0.317 N  
HETATM   10  H   UNL     1     -12.704  11.099  69.307  1.00  0.00     0.000 HD 
BRANCH   9  11
HETATM   11  S   UNL     1     -10.577  10.246  68.643  1.00  0.00    -0.221 S  
HETATM   12  O   UNL     1      -9.404  11.081  68.811  1.00  0.00    -0.189 OA 
HETATM   13  O   UNL     1     -10.705   9.368  67.501  1.00  0.00    -0.280 OA 
BRANCH  11  14
HETATM   14  C   UNL     1     -10.728   9.277  70.125  1.00  0.00    -0.235 A  
HETATM   15  C   UNL     1      -9.767   8.310  70.430  1.00  0.00    -0.175 A  
HETATM   16  C   UNL     1      -9.886   7.569  71.610  1.00  0.00    -0.185 A  
HETATM   17  C   UNL     1     -10.976   7.755  72.466  1.00  0.00    -0.338 A  
HETATM   18  C   UNL     1     -11.883   8.783  72.187  1.00  0.00    -0.436 A  
HETATM   19  N   UNL     1     -11.028   7.085  73.694  1.00  0.00    -0.529 NA 
HETATM   20  H2  UNL     1     -10.174   7.294  74.211  1.00  0.00     0.000 HD 
HETATM   21  H1  UNL     1     -11.823   7.221  74.319  1.00  0.00     0.000 HD 
HETATM   22  C   UNL     1     -11.774   9.534  71.013  1.00  0.00    -0.419 A  
ENDBRANCH  11  14
ENDBRANCH   9  11
ENDBRANCH   7   9
BRANCH   8  23
HETATM   23  O   UNL     1     -11.459  13.806  69.740  1.00  0.00    -0.253 OA 
HETATM   24  C   UNL     1     -12.573  14.260  70.500  1.00  0.00    -0.353 C  
ENDBRANCH   8  23
ENDBRANCH   2   3
TORSDOF 5
ENDMDL
MODEL       48
REMARK 921   NORMALIZED FREE ENERGY PREDICTED BY IDOCK:   -5.38 KCAL/MOL
REMARK 922        TOTAL FREE ENERGY PREDICTED BY IDOCK:   -7.46 KCAL/MOL
REMARK 923 INTER-LIGAND FREE ENERGY PREDICTED BY IDOCK:   -6.95 KCAL/MOL
REMARK 924 INTRA-LIGAND FREE ENERGY PREDICTED BY IDOCK:   -0.51 KCAL/MOL
REMARK 927      BINDING AFFINITY PREDICTED BY RF-SCORE:    0.00 PKD
ROOT
HETATM    1  C   UNL     1     -10.442  15.949  65.444  1.00  0.00    -0.405 C  
HETATM    2  O   UNL     1     -11.481  14.992  65.627  1.00  0.00    -0.331 OA 
ENDROOT
BRANCH   2   3
HETATM    3  C   UNL     1     -11.509  14.405  66.874  1.00  0.00    -0.366 A  
HETATM    4  N   UNL     1     -11.250  15.203  67.935  1.00  0.00    -0.318 NA 
HETATM    5  C   UNL     1     -11.261  14.619  69.140  1.00  0.00    -0.270 A  
HETATM    6  N   UNL     1     -11.517  13.335  69.384  1.00  0.00    -0.273 NA 
HETATM    7  C   UNL     1     -11.743  12.585  68.295  1.00  0.00    -0.340 A  
HETATM    8  C   UNL     1     -11.757  13.045  66.981  1.00  0.00    -0.383 A  
BRANCH   7   9
HETATM    9  N   UNL     1     -11.964  11.219  68.615  1.00  0.00    -0.299 N  
HETATM   10  H   UNL     1     -12.889  10.865  68.861  1.00  0.00     0.000 HD 
BRANCH   9  11
HETATM   11  S   UNL     1     -10.612  10.218  68.566  1.00  0.00    -0.227 S  
HETATM   12  O   UNL     1      -9.460  11.099  68.557  1.00  0.00    -0.181 OA 
HETATM   13  O   UNL     1     -10.788   9.218  67.537  1.00  0.00    -0.259 OA 
BRANCH  11  14
HETATM   14  C   UNL     1     -10.623   9.412  70.150  1.00  0.00    -0.240 A  
HETATM   15  C   UNL     1     -11.757   9.480  70.963  1.00  0.00    -0.419 A  
HETATM   16  C   UNL     1     -11.759   8.824  72.198  1.00  0.00    -0.433 A  
HETATM   17  C   UNL     1     -10.628   8.136  72.646  1.00  0.00    -0.344 A  
HETATM   18  C   UNL     1      -9.532   8.008  71.785  1.00  0.00    -0.223 A  
HETATM   19  N   UNL     1     -10.679   7.395  73.833  1.00  0.00    -0.558 NA 
HETATM   20  H2  UNL     1     -11.452   6.733  73.765  1.00  0.00     0.000 HD 
HETATM   21  H1  UNL     1      -9.854   6.893  74.160  1.00  0.00     0.000 HD 
HETATM   22  C   UNL     1      -9.517   8.657  70.547  1.00  0.00    -0.206 A  
ENDBRANCH  11  14
ENDBRANCH   9  11
ENDBRANCH   7   9
BRANCH   8  23
HETATM   23  O   UNL     1     -11.973  12.116  66.003  1.00  0.00    -0.578 OA 
HETATM   24  C   UNL     1     -10.900  11.810  65.119  1.00  0.00    -0.297 C  
ENDBRANCH   8  23
ENDBRANCH   2   3
TORSDOF 5
ENDMDL
MODEL       49
REMARK 921   NORMALIZED FREE ENERGY PREDICTED BY IDOCK:   -5.34 KCAL/MOL
REMARK 922        TOTAL FREE ENERGY PREDICTED BY IDOCK:   -7.41 KCAL/MOL
REMARK 923 INTER-LIGAND FREE ENERGY PREDICTED BY IDOCK:   -6.90 KCAL/MOL
REMARK 924 INTRA-LIGAND FREE ENERGY PREDICTED BY IDOCK:   -0.51 KCAL/MOL
REMARK 927      BINDING AFFINITY PREDICTED BY RF-SCORE:    0.00 PKD
ROOT
HETATM    1  C   UNL     1     -10.312   5.304  69.894  1.00  0.00    -0.304 C  
HETATM    2  O   UNL     1     -10.478   6.541  70.580  1.00  0.00    -0.197 OA 
ENDROOT
BRANCH   2   3
HETATM    3  C   UNL     1     -10.307   7.661  69.793  1.00  0.00    -0.223 A  
HETATM    4  N   UNL     1      -9.890   7.463  68.522  1.00  0.00    -0.155 NA 
HETATM    5  C   UNL     1      -9.709   8.557  67.774  1.00  0.00    -0.162 A  
HETATM    6  N   UNL     1      -9.916   9.814  68.164  1.00  0.00    -0.149 NA 
HETATM    7  C   UNL     1     -10.303   9.955  69.441  1.00  0.00    -0.222 A  
HETATM    8  C   UNL     1     -10.525   8.917  70.340  1.00  0.00    -0.210 A  
BRANCH   7   9
HETATM    9  N   UNL     1     -10.463  11.317  69.810  1.00  0.00    -0.412 N  
HETATM   10  H   UNL     1      -9.782  11.802  70.396  1.00  0.00     0.000 HD 
BRANCH   9  11
HETATM   11  S   UNL     1     -11.842  12.086  69.226  1.00  0.00    -0.298 S  
HETATM   12  O   UNL     1     -12.889  11.083  69.220  1.00  0.00    -0.173 OA 
HETATM   13  O   UNL     1     -11.513  12.821  68.024  1.00  0.00    -0.275 OA 
BRANCH  11  14
HETATM   14  C   UNL     1     -12.256  13.246  70.507  1.00  0.00    -0.340 A  
HETATM   15  C   UNL     1     -11.847  14.578  70.405  1.00  0.00    -0.378 A  
HETATM   16  C   UNL     1     -12.198  15.485  71.410  1.00  0.00    -0.453 A  
HETATM   17  C   UNL     1     -12.916  15.066  72.534  1.00  0.00    -0.374 A  
HETATM   18  C   UNL     1     -13.388  13.750  72.580  1.00  0.00    -0.618 A  
HETATM   19  N   UNL     1     -13.352  16.003  73.479  1.00  0.00    -0.799 NA 
HETATM   20  H2  UNL     1     -13.898  16.716  72.996  1.00  0.00     0.000 HD 
HETATM   21  H1  UNL     1     -13.876  15.698  74.299  1.00  0.00     0.000 HD 
HETATM   22  C   UNL     1     -13.047  12.833  71.581  1.00  0.00    -0.428 A  
ENDBRANCH  11  14
ENDBRANCH   9  11
ENDBRANCH   7   9
BRANCH   8  23
HETATM   23  O   UNL     1     -10.885   9.266  71.611  1.00  0.00    -0.357 OA 
HETATM   24  C   UNL     1     -12.151   8.831  72.094  1.00  0.00    -0.371 C  
ENDBRANCH   8  23
ENDBRANCH   2   3
TORSDOF 5
ENDMDL
MODEL       50
REMARK 921   NORMALIZED FREE ENERGY PREDICTED BY IDOCK:   -5.33 KCAL/MOL
REMARK 922        TOTAL FREE ENERGY PREDICTED BY IDOCK:   -7.39 KCAL/MOL
REMARK 923 INTER-LIGAND FREE ENERGY PREDICTED BY IDOCK:   -6.81 KCAL/MOL
REMARK 924 INTRA-LIGAND FREE ENERGY PREDICTED BY IDOCK:   -0.58 KCAL/MOL
REMARK 927      BINDING AFFINITY PREDICTED BY RF-SCORE:    0.00 PKD
ROOT
HETATM    1  C   UNL     1      -8.917   4.359  71.540  1.00  0.00    -0.123 C  
HETATM    2  O   UNL     1     -10.220   4.742  71.109  1.00  0.00    -0.202 OA 
ENDROOT
BRANCH   2   3
HETATM    3  C   UNL     1     -10.617   5.995  71.525  1.00  0.00    -0.243 A  
HETATM    4  N   UNL     1     -10.307   6.350  72.793  1.00  0.00    -0.193 NA 
HETATM    5  C   UNL     1     -10.714   7.561  73.192  1.00  0.00    -0.398 A  
HETATM    6  N   UNL     1     -11.380   8.446  72.451  1.00  0.00    -0.380 NA 
HETATM    7  C   UNL     1     -11.683   8.033  71.211  1.00  0.00    -0.282 A  
HETATM    8  C   UNL     1     -11.337   6.804  70.658  1.00  0.00    -0.334 A  
BRANCH   7   9
HETATM    9  N   UNL     1     -12.430   9.000  70.488  1.00  0.00    -0.433 N  
HETATM   10  H   UNL     1     -13.445   8.942  70.399  1.00  0.00     0.000 HD 
BRANCH   9  11
HETATM   11  S   UNL     1     -11.544  10.246  69.784  1.00  0.00    -0.198 S  
HETATM   12  O   UNL     1     -11.935  10.279  68.388  1.00  0.00    -0.164 OA 
HETATM   13  O   UNL     1     -10.153  10.122  70.161  1.00  0.00    -0.246 OA 
BRANCH  11  14
HETATM   14  C   UNL     1     -12.207  11.715  70.533  1.00  0.00    -0.361 A  
HETATM   15  C   UNL     1     -11.992  12.961  69.941  1.00  0.00    -0.377 A  
HETATM   16  C   UNL     1     -12.537  14.107  70.530  1.00  0.00    -0.410 A  
HETATM   17  C   UNL     1     -13.259  14.024  71.724  1.00  0.00    -0.375 A  
HETATM   18  C   UNL     1     -13.535  12.760  72.258  1.00  0.00    -0.591 A  
HETATM   19  N   UNL     1     -13.890  15.160  72.245  1.00  0.00    -0.468 NA 
HETATM   20  H2  UNL     1     -14.501  15.547  71.526  1.00  0.00     0.000 HD 
HETATM   21  H1  UNL     1     -14.417  15.100  73.117  1.00  0.00     0.000 HD 
HETATM   22  C   UNL     1     -12.999  11.606  71.678  1.00  0.00    -0.483 A  
ENDBRANCH  11  14
ENDBRANCH   9  11
ENDBRANCH   7   9
BRANCH   8  23
HETATM   23  O   UNL     1     -11.769   6.555  69.386  1.00  0.00    -0.295 OA 
HETATM   24  C   UNL     1     -10.818   6.622  68.329  1.00  0.00    -0.254 C  
ENDBRANCH   8  23
ENDBRANCH   2   3
TORSDOF 5
ENDMDL
MODEL       51
REMARK 921   NORMALIZED FREE ENERGY PREDICTED BY IDOCK:   -5.33 KCAL/MOL
REMARK 922        TOTAL FREE ENERGY PREDICTED BY IDOCK:   -7.39 KCAL/MOL
REMARK 923 INTER-LIGAND FREE ENERGY PREDICTED BY IDOCK:   -6.89 KCAL/MOL
REMARK 924 INTRA-LIGAND FREE ENERGY PREDICTED BY IDOCK:   -0.50 KCAL/MOL
REMARK 927      BINDING AFFINITY PREDICTED BY RF-SCORE:    0.00 PKD
ROOT
HETATM    1  C   UNL     1      -9.321   9.543  67.108  1.00  0.00    -0.143 C  
HETATM    2  O   UNL     1     -10.256  10.601  67.296  1.00  0.00    -0.190 OA 
ENDROOT
BRANCH   2   3
HETATM    3  C   UNL     1     -10.248  11.558  66.303  1.00  0.00    -0.230 A  
HETATM    4  N   UNL     1     -10.660  11.173  65.074  1.00  0.00    -0.293 NA 
HETATM    5  C   UNL     1     -10.630  12.104  64.113  1.00  0.00    -0.365 A  
HETATM    6  N   UNL     1     -10.246  13.371  64.265  1.00  0.00    -0.328 NA 
HETATM    7  C   UNL     1      -9.824  13.693  65.496  1.00  0.00    -0.152 A  
HETATM    8  C   UNL     1      -9.789  12.834  66.592  1.00  0.00    -0.250 A  
BRANCH   7   9
HETATM    9  N   UNL     1      -9.386  15.040  65.583  1.00  0.00    -0.458 N  
HETATM   10  H   UNL     1      -8.397  15.289  65.571  1.00  0.00     0.000 HD 
BRANCH   9  11
HETATM   11  S   UNL     1     -10.596  16.205  65.708  1.00  0.00    -0.305 S  
HETATM   12  O   UNL     1     -11.401  15.826  66.853  1.00  0.00    -0.136 OA 
HETATM   13  O   UNL     1     -11.202  16.413  64.411  1.00  0.00    -0.807 OA 
BRANCH  11  14
HETATM   14  C   UNL     1      -9.719  17.681  66.169  1.00  0.00    -0.213 A  
HETATM   15  C   UNL     1      -8.353  17.623  66.456  1.00  0.00    -0.300 A  
HETATM   16  C   UNL     1      -7.671  18.795  66.797  1.00  0.00    -0.252 A  
HETATM   17  C   UNL     1      -8.347  20.015  66.894  1.00  0.00    -0.326 A  
HETATM   18  C   UNL     1      -9.695  20.069  66.522  1.00  0.00    -0.564 A  
HETATM   19  N   UNL     1      -7.634  21.197  67.130  1.00  0.00    -0.710 NA 
HETATM   20  H2  UNL     1      -6.912  21.285  66.416  1.00  0.00     0.000 HD 
HETATM   21  H1  UNL     1      -8.127  22.087  67.201  1.00  0.00     0.000 HD 
HETATM   22  C   UNL     1     -10.389  18.906  66.177  1.00  0.00    -0.517 A  
ENDBRANCH  11  14
ENDBRANCH   9  11
ENDBRANCH   7   9
BRANCH   8  23
HETATM   23  O   UNL     1      -9.292  13.342  67.758  1.00  0.00    -0.193 OA 
HETATM   24  C   UNL     1      -7.963  12.994  68.129  1.00  0.00    -0.154 C  
ENDBRANCH   8  23
ENDBRANCH   2   3
TORSDOF 5
ENDMDL
MODEL       52
REMARK 921   NORMALIZED FREE ENERGY PREDICTED BY IDOCK:   -5.30 KCAL/MOL
REMARK 922        TOTAL FREE ENERGY PREDICTED BY IDOCK:   -7.36 KCAL/MOL
REMARK 923 INTER-LIGAND FREE ENERGY PREDICTED BY IDOCK:   -7.26 KCAL/MOL
REMARK 924 INTRA-LIGAND FREE ENERGY PREDICTED BY IDOCK:   -0.10 KCAL/MOL
REMARK 927      BINDING AFFINITY PREDICTED BY RF-SCORE:    0.00 PKD
ROOT
HETATM    1  C   UNL     1      -6.669  21.075  67.676  1.00  0.00    -0.341 C  
HETATM    2  O   UNL     1      -7.395  20.110  68.432  1.00  0.00    -0.285 OA 
ENDROOT
BRANCH   2   3
HETATM    3  C   UNL     1      -8.439  19.517  67.753  1.00  0.00    -0.315 A  
HETATM    4  N   UNL     1      -9.107  20.283  66.861  1.00  0.00    -0.342 NA 
HETATM    5  C   UNL     1     -10.130  19.703  66.222  1.00  0.00    -0.480 A  
HETATM    6  N   UNL     1     -10.536  18.443  66.377  1.00  0.00    -0.398 NA 
HETATM    7  C   UNL     1      -9.855  17.737  67.292  1.00  0.00    -0.312 A  
HETATM    8  C   UNL     1      -8.777  18.202  68.039  1.00  0.00    -0.269 A  
BRANCH   7   9
HETATM    9  N   UNL     1     -10.362  16.419  67.443  1.00  0.00    -0.290 N  
HETATM   10  H   UNL     1     -11.274  16.235  67.862  1.00  0.00     0.000 HD 
BRANCH   9  11
HETATM   11  S   UNL     1      -9.368  15.176  66.893  1.00  0.00    -0.249 S  
HETATM   12  O   UNL     1      -9.078  14.352  68.050  1.00  0.00    -0.176 OA 
HETATM   13  O   UNL     1      -8.300  15.731  66.091  1.00  0.00    -0.243 OA 
BRANCH  11  14
HETATM   14  C   UNL     1     -10.431  14.218  65.839  1.00  0.00    -0.307 A  
HETATM   15  C   UNL     1     -11.423  14.849  65.085  1.00  0.00    -0.357 A  
HETATM   16  C   UNL     1     -12.239  14.086  64.243  1.00  0.00    -0.453 A  
HETATM   17  C   UNL     1     -12.101  12.696  64.180  1.00  0.00    -0.439 A  
HETATM   18  C   UNL     1     -11.051  12.091  64.878  1.00  0.00    -0.368 A  
HETATM   19  N   UNL     1     -12.850  11.956  63.257  1.00  0.00    -0.854 NA 
HETATM   20  H2  UNL     1     -12.681  12.339  62.327  1.00  0.00     0.000 HD 
HETATM   21  H1  UNL     1     -12.750  10.942  63.211  1.00  0.00     0.000 HD 
HETATM   22  C   UNL     1     -10.226  12.842  65.721  1.00  0.00    -0.302 A  
ENDBRANCH  11  14
ENDBRANCH   9  11
ENDBRANCH   7   9
BRANCH   8  23
HETATM   23  O   UNL     1      -8.236  17.338  68.948  1.00  0.00    -0.255 OA 
HETATM   24  C   UNL     1      -6.823  17.170  68.955  1.00  0.00    -0.231 C  
ENDBRANCH   8  23
ENDBRANCH   2   3
TORSDOF 5
ENDMDL
MODEL       53
REMARK 921   NORMALIZED FREE ENERGY PREDICTED BY IDOCK:   -5.30 KCAL/MOL
REMARK 922        TOTAL FREE ENERGY PREDICTED BY IDOCK:   -7.36 KCAL/MOL
REMARK 923 INTER-LIGAND FREE ENERGY PREDICTED BY IDOCK:   -6.67 KCAL/MOL
REMARK 924 INTRA-LIGAND FREE ENERGY PREDICTED BY IDOCK:   -0.70 KCAL/MOL
REMARK 927      BINDING AFFINITY PREDICTED BY RF-SCORE:    0.00 PKD
ROOT
HETATM    1  C   UNL     1      -9.688  10.749  63.238  1.00  0.00    -0.355 C  
HETATM    2  O   UNL     1      -9.480  10.322  64.582  1.00  0.00    -0.243 OA 
ENDROOT
BRANCH   2   3
HETATM    3  C   UNL     1      -9.789  11.267  65.538  1.00  0.00    -0.231 A  
HETATM    4  N   UNL     1     -10.048  12.521  65.103  1.00  0.00    -0.271 NA 
HETATM    5  C   UNL     1     -10.328  13.434  66.041  1.00  0.00    -0.297 A  
HETATM    6  N   UNL     1     -10.387  13.214  67.354  1.00  0.00    -0.237 NA 
HETATM    7  C   UNL     1     -10.096  11.960  67.732  1.00  0.00    -0.191 A  
HETATM    8  C   UNL     1      -9.780  10.908  66.877  1.00  0.00    -0.181 A  
BRANCH   7   9
HETATM    9  N   UNL     1     -10.130  11.799  69.142  1.00  0.00    -0.417 N  
HETATM   10  H   UNL     1      -9.282  11.817  69.709  1.00  0.00     0.000 HD 
BRANCH   9  11
HETATM   11  S   UNL     1     -11.653  11.577  69.825  1.00  0.00    -0.320 S  
HETATM   12  O   UNL     1     -12.522  11.161  68.742  1.00  0.00    -0.468 OA 
HETATM   13  O   UNL     1     -11.986  12.721  70.645  1.00  0.00    -0.300 OA 
BRANCH  11  14
HETATM   14  C   UNL     1     -11.443  10.163  70.880  1.00  0.00    -0.360 A  
HETATM   15  C   UNL     1     -12.544   9.610  71.538  1.00  0.00    -0.483 A  
HETATM   16  C   UNL     1     -12.368   8.484  72.349  1.00  0.00    -0.424 A  
HETATM   17  C   UNL     1     -11.098   7.932  72.541  1.00  0.00    -0.362 A  
HETATM   18  C   UNL     1     -10.022   8.446  71.811  1.00  0.00    -0.312 A  
HETATM   19  N   UNL     1     -10.951   6.743  73.268  1.00  0.00    -0.467 NA 
HETATM   20  H2  UNL     1     -11.551   6.033  72.847  1.00  0.00     0.000 HD 
HETATM   21  H1  UNL     1     -10.025   6.340  73.408  1.00  0.00     0.000 HD 
HETATM   22  C   UNL     1     -10.184   9.569  70.994  1.00  0.00    -0.332 A  
ENDBRANCH  11  14
ENDBRANCH   9  11
ENDBRANCH   7   9
BRANCH   8  23
HETATM   23  O   UNL     1      -9.480   9.709  67.459  1.00  0.00    -0.132 OA 
HETATM   24  C   UNL     1     -10.459   8.676  67.411  1.00  0.00    -0.281 C  
ENDBRANCH   8  23
ENDBRANCH   2   3
TORSDOF 5
ENDMDL
MODEL       54
REMARK 921   NORMALIZED FREE ENERGY PREDICTED BY IDOCK:   -5.28 KCAL/MOL
REMARK 922        TOTAL FREE ENERGY PREDICTED BY IDOCK:   -7.34 KCAL/MOL
REMARK 923 INTER-LIGAND FREE ENERGY PREDICTED BY IDOCK:   -7.05 KCAL/MOL
REMARK 924 INTRA-LIGAND FREE ENERGY PREDICTED BY IDOCK:   -0.29 KCAL/MOL
REMARK 927      BINDING AFFINITY PREDICTED BY RF-SCORE:    0.00 PKD
ROOT
HETATM    1  C   UNL     1     -12.545  15.466  73.957  1.00  0.00    -0.598 C  
HETATM    2  O   UNL     1     -13.002  14.576  72.944  1.00  0.00    -0.450 OA 
ENDROOT
BRANCH   2   3
HETATM    3  C   UNL     1     -12.364  14.713  71.729  1.00  0.00    -0.346 A  
HETATM    4  N   UNL     1     -11.693  15.866  71.513  1.00  0.00    -0.438 NA 
HETATM    5  C   UNL     1     -11.093  15.997  70.324  1.00  0.00    -0.374 A  
HETATM    6  N   UNL     1     -11.089  15.090  69.347  1.00  0.00    -0.264 NA 
HETATM    7  C   UNL     1     -11.791  13.977  69.603  1.00  0.00    -0.330 A  
HETATM    8  C   UNL     1     -12.471  13.701  70.786  1.00  0.00    -0.359 A  
BRANCH   7   9
HETATM    9  N   UNL     1     -11.786  13.071  68.510  1.00  0.00    -0.322 N  
HETATM   10  H   UNL     1     -12.582  12.983  67.878  1.00  0.00     0.000 HD 
BRANCH   9  11
HETATM   11  S   UNL     1     -10.390  12.149  68.319  1.00  0.00    -0.216 S  
HETATM   12  O   UNL     1     -10.620  10.917  69.047  1.00  0.00    -0.195 OA 
HETATM   13  O   UNL     1      -9.229  12.967  68.593  1.00  0.00    -0.105 OA 
BRANCH  11  14
HETATM   14  C   UNL     1     -10.393  11.728  66.592  1.00  0.00    -0.218 A  
HETATM   15  C   UNL     1     -10.918  12.620  65.654  1.00  0.00    -0.313 A  
HETATM   16  C   UNL     1     -10.895  12.285  64.297  1.00  0.00    -0.392 A  
HETATM   17  C   UNL     1     -10.392  11.052  63.872  1.00  0.00    -0.372 A  
HETATM   18  C   UNL     1      -9.796  10.206  64.814  1.00  0.00    -0.382 A  
HETATM   19  N   UNL     1     -10.277  10.773  62.505  1.00  0.00    -0.755 NA 
HETATM   20  H2  UNL     1      -9.724  11.512  62.071  1.00  0.00     0.000 HD 
HETATM   21  H1  UNL     1      -9.910   9.873  62.194  1.00  0.00     0.000 HD 
HETATM   22  C   UNL     1      -9.810  10.530  66.174  1.00  0.00    -0.271 A  
ENDBRANCH  11  14
ENDBRANCH   9  11
ENDBRANCH   7   9
BRANCH   8  23
HETATM   23  O   UNL     1     -13.158  12.522  70.843  1.00  0.00    -0.059 OA 
HETATM   24  C   UNL     1     -12.667  11.500  71.702  1.00  0.00    -0.290 C  
ENDBRANCH   8  23
ENDBRANCH   2   3
TORSDOF 5
ENDMDL
MODEL       55
REMARK 921   NORMALIZED FREE ENERGY PREDICTED BY IDOCK:   -5.28 KCAL/MOL
REMARK 922        TOTAL FREE ENERGY PREDICTED BY IDOCK:   -7.33 KCAL/MOL
REMARK 923 INTER-LIGAND FREE ENERGY PREDICTED BY IDOCK:   -6.79 KCAL/MOL
REMARK 924 INTRA-LIGAND FREE ENERGY PREDICTED BY IDOCK:   -0.54 KCAL/MOL
REMARK 927      BINDING AFFINITY PREDICTED BY RF-SCORE:    0.00 PKD
ROOT
HETATM    1  C   UNL     1     -13.687  12.985  72.230  1.00  0.00    -0.512 C  
HETATM    2  O   UNL     1     -12.463  12.844  71.515  1.00  0.00    -0.223 OA 
ENDROOT
BRANCH   2   3
HETATM    3  C   UNL     1     -12.097  13.952  70.780  1.00  0.00    -0.330 A  
HETATM    4  N   UNL     1     -11.870  15.097  71.464  1.00  0.00    -0.348 NA 
HETATM    5  C   UNL     1     -11.533  16.170  70.740  1.00  0.00    -0.378 A  
HETATM    6  N   UNL     1     -11.389  16.206  69.415  1.00  0.00    -0.333 NA 
HETATM    7  C   UNL     1     -11.651  15.051  68.785  1.00  0.00    -0.335 A  
HETATM    8  C   UNL     1     -12.018  13.857  69.399  1.00  0.00    -0.354 A  
BRANCH   7   9
HETATM    9  N   UNL     1     -11.524  15.164  67.376  1.00  0.00    -0.315 N  
HETATM   10  H   UNL     1     -12.338  15.190  66.760  1.00  0.00     0.000 HD 
BRANCH   9  11
HETATM   11  S   UNL     1      -9.953  15.252  66.778  1.00  0.00    -0.250 S  
HETATM   12  O   UNL     1     -10.045  14.953  65.362  1.00  0.00    -0.346 OA 
HETATM   13  O   UNL     1      -9.066  14.499  67.638  1.00  0.00    -0.185 OA 
BRANCH  11  14
HETATM   14  C   UNL     1      -9.545  16.977  66.909  1.00  0.00    -0.257 A  
HETATM   15  C   UNL     1      -8.370  17.371  67.553  1.00  0.00    -0.212 A  
HETATM   16  C   UNL     1      -8.050  18.730  67.630  1.00  0.00    -0.270 A  
HETATM   17  C   UNL     1      -8.912  19.700  67.109  1.00  0.00    -0.316 A  
HETATM   18  C   UNL     1     -10.041  19.283  66.396  1.00  0.00    -0.507 A  
HETATM   19  N   UNL     1      -8.531  21.047  67.098  1.00  0.00    -0.523 NA 
HETATM   20  H2  UNL     1      -7.633  21.123  66.619  1.00  0.00     0.000 HD 
HETATM   21  H1  UNL     1      -9.159  21.755  66.717  1.00  0.00     0.000 HD 
HETATM   22  C   UNL     1     -10.371  17.928  66.308  1.00  0.00    -0.364 A  
ENDBRANCH  11  14
ENDBRANCH   9  11
ENDBRANCH   7   9
BRANCH   8  23
HETATM   23  O   UNL     1     -12.275  12.795  68.580  1.00  0.00    -0.182 OA 
HETATM   24  C   UNL     1     -11.270  11.797  68.438  1.00  0.00    -0.251 C  
ENDBRANCH   8  23
ENDBRANCH   2   3
TORSDOF 5
ENDMDL
MODEL       56
REMARK 921   NORMALIZED FREE ENERGY PREDICTED BY IDOCK:   -5.27 KCAL/MOL
REMARK 922        TOTAL FREE ENERGY PREDICTED BY IDOCK:   -7.32 KCAL/MOL
REMARK 923 INTER-LIGAND FREE ENERGY PREDICTED BY IDOCK:   -7.12 KCAL/MOL
REMARK 924 INTRA-LIGAND FREE ENERGY PREDICTED BY IDOCK:   -0.20 KCAL/MOL
REMARK 927      BINDING AFFINITY PREDICTED BY RF-SCORE:    0.00 PKD
ROOT
HETATM    1  C   UNL     1     -10.871  10.321  67.440  1.00  0.00    -0.277 C  
HETATM    2  O   UNL     1     -11.871  11.271  67.795  1.00  0.00    -0.610 OA 
ENDROOT
BRANCH   2   3
HETATM    3  C   UNL     1     -11.859  12.427  67.043  1.00  0.00    -0.297 A  
HETATM    4  N   UNL     1     -12.276  12.331  65.760  1.00  0.00    -0.603 NA 
HETATM    5  C   UNL     1     -12.242  13.454  65.034  1.00  0.00    -0.424 A  
HETATM    6  N   UNL     1     -11.849  14.652  65.465  1.00  0.00    -0.328 NA 
HETATM    7  C   UNL     1     -11.422  14.685  66.736  1.00  0.00    -0.364 A  
HETATM    8  C   UNL     1     -11.391  13.603  67.610  1.00  0.00    -0.300 A  
BRANCH   7   9
HETATM    9  N   UNL     1     -10.975  15.977  67.122  1.00  0.00    -0.244 N  
HETATM   10  H   UNL     1     -11.225  16.388  68.022  1.00  0.00     0.000 HD 
BRANCH   9  11
HETATM   11  S   UNL     1     -10.008  16.789  66.009  1.00  0.00    -0.285 S  
HETATM   12  O   UNL     1     -10.894  17.673  65.277  1.00  0.00    -0.600 OA 
HETATM   13  O   UNL     1      -9.169  15.838  65.313  1.00  0.00    -0.151 OA 
BRANCH  11  14
HETATM   14  C   UNL     1      -8.976  17.825  67.019  1.00  0.00    -0.252 A  
HETATM   15  C   UNL     1      -8.137  17.255  67.979  1.00  0.00    -0.221 A  
HETATM   16  C   UNL     1      -7.315  18.080  68.753  1.00  0.00    -0.279 A  
HETATM   17  C   UNL     1      -7.354  19.470  68.607  1.00  0.00    -0.346 A  
HETATM   18  C   UNL     1      -8.137  20.018  67.585  1.00  0.00    -0.341 A  
HETATM   19  N   UNL     1      -6.451  20.277  69.310  1.00  0.00    -0.291 NA 
HETATM   20  H2  UNL     1      -5.505  19.958  69.101  1.00  0.00     0.000 HD 
HETATM   21  H1  UNL     1      -6.479  21.291  69.203  1.00  0.00     0.000 HD 
HETATM   22  C   UNL     1      -8.962  19.205  66.802  1.00  0.00    -0.335 A  
ENDBRANCH  11  14
ENDBRANCH   9  11
ENDBRANCH   7   9
BRANCH   8  23
HETATM   23  O   UNL     1     -10.887  13.831  68.859  1.00  0.00    -0.246 OA 
HETATM   24  C   UNL     1     -11.804  13.947  69.941  1.00  0.00    -0.328 C  
ENDBRANCH   8  23
ENDBRANCH   2   3
TORSDOF 5
ENDMDL
MODEL       57
REMARK 921   NORMALIZED FREE ENERGY PREDICTED BY IDOCK:   -5.27 KCAL/MOL
REMARK 922        TOTAL FREE ENERGY PREDICTED BY IDOCK:   -7.32 KCAL/MOL
REMARK 923 INTER-LIGAND FREE ENERGY PREDICTED BY IDOCK:   -6.86 KCAL/MOL
REMARK 924 INTRA-LIGAND FREE ENERGY PREDICTED BY IDOCK:   -0.46 KCAL/MOL
REMARK 927      BINDING AFFINITY PREDICTED BY RF-SCORE:    0.00 PKD
ROOT
HETATM    1  C   UNL     1      -8.446   8.906  63.345  1.00  0.00    -0.145 C  
HETATM    2  O   UNL     1      -9.179  10.116  63.508  1.00  0.00    -0.250 OA 
ENDROOT
BRANCH   2   3
HETATM    3  C   UNL     1      -9.768  10.268  64.746  1.00  0.00    -0.332 A  
HETATM    4  N   UNL     1      -9.660   9.234  65.610  1.00  0.00    -0.271 NA 
HETATM    5  C   UNL     1     -10.251   9.384  66.801  1.00  0.00    -0.250 A  
HETATM    6  N   UNL     1     -10.920  10.461  67.211  1.00  0.00    -0.274 NA 
HETATM    7  C   UNL     1     -11.018  11.446  66.307  1.00  0.00    -0.247 A  
HETATM    8  C   UNL     1     -10.465  11.433  65.029  1.00  0.00    -0.303 A  
BRANCH   7   9
HETATM    9  N   UNL     1     -11.778  12.546  66.785  1.00  0.00    -0.386 N  
HETATM   10  H   UNL     1     -12.781  12.626  66.613  1.00  0.00     0.000 HD 
BRANCH   9  11
HETATM   11  S   UNL     1     -10.928  13.711  67.655  1.00  0.00    -0.273 S  
HETATM   12  O   UNL     1     -11.145  14.966  66.962  1.00  0.00    -0.323 OA 
HETATM   13  O   UNL     1      -9.589  13.233  67.922  1.00  0.00    -0.203 OA 
BRANCH  11  14
HETATM   14  C   UNL     1     -11.811  13.820  69.194  1.00  0.00    -0.354 A  
HETATM   15  C   UNL     1     -12.323  15.047  69.622  1.00  0.00    -0.238 A  
HETATM   16  C   UNL     1     -13.033  15.114  70.825  1.00  0.00    -0.468 A  
HETATM   17  C   UNL     1     -13.201  13.979  71.622  1.00  0.00    -0.368 A  
HETATM   18  C   UNL     1     -12.754  12.744  71.139  1.00  0.00    -0.355 A  
HETATM   19  N   UNL     1     -14.004  14.036  72.768  1.00  0.00    -0.644 NA 
HETATM   20  H2  UNL     1     -14.926  14.378  72.498  1.00  0.00     0.000 HD 
HETATM   21  H1  UNL     1     -14.126  13.207  73.351  1.00  0.00     0.000 HD 
HETATM   22  C   UNL     1     -12.045  12.661  69.937  1.00  0.00    -0.322 A  
ENDBRANCH  11  14
ENDBRANCH   9  11
ENDBRANCH   7   9
BRANCH   8  23
HETATM   23  O   UNL     1     -10.705  12.522  64.241  1.00  0.00    -0.318 OA 
HETATM   24  C   UNL     1     -11.906  12.547  63.477  1.00  0.00    -0.534 C  
ENDBRANCH   8  23
ENDBRANCH   2   3
TORSDOF 5
ENDMDL
MODEL       58
REMARK 921   NORMALIZED FREE ENERGY PREDICTED BY IDOCK:   -5.26 KCAL/MOL
REMARK 922        TOTAL FREE ENERGY PREDICTED BY IDOCK:   -7.31 KCAL/MOL
REMARK 923 INTER-LIGAND FREE ENERGY PREDICTED BY IDOCK:   -6.94 KCAL/MOL
REMARK 924 INTRA-LIGAND FREE ENERGY PREDICTED BY IDOCK:   -0.37 KCAL/MOL
REMARK 927      BINDING AFFINITY PREDICTED BY RF-SCORE:    0.00 PKD
ROOT
HETATM    1  C   UNL     1      -8.643   9.272  63.009  1.00  0.00    -0.214 C  
HETATM    2  O   UNL     1      -9.146   9.489  64.324  1.00  0.00    -0.233 OA 
ENDROOT
BRANCH   2   3
HETATM    3  C   UNL     1      -9.931  10.615  64.460  1.00  0.00    -0.345 A  
HETATM    4  N   UNL     1     -10.132  11.362  63.351  1.00  0.00    -0.371 NA 
HETATM    5  C   UNL     1     -10.880  12.462  63.498  1.00  0.00    -0.438 A  
HETATM    6  N   UNL     1     -11.451  12.874  64.629  1.00  0.00    -0.313 NA 
HETATM    7  C   UNL     1     -11.198  12.111  65.703  1.00  0.00    -0.335 A  
HETATM    8  C   UNL     1     -10.436  10.947  65.709  1.00  0.00    -0.210 A  
BRANCH   7   9
HETATM    9  N   UNL     1     -11.794  12.625  66.884  1.00  0.00    -0.386 N  
HETATM   10  H   UNL     1     -12.649  12.227  67.276  1.00  0.00     0.000 HD 
BRANCH   9  11
HETATM   11  S   UNL     1     -11.010  13.930  67.602  1.00  0.00    -0.270 S  
HETATM   12  O   UNL     1     -11.404  15.102  66.845  1.00  0.00    -0.333 OA 
HETATM   13  O   UNL     1      -9.613  13.607  67.796  1.00  0.00    -0.211 OA 
BRANCH  11  14
HETATM   14  C   UNL     1     -11.787  14.069  69.195  1.00  0.00    -0.350 A  
HETATM   15  C   UNL     1     -11.981  12.931  69.980  1.00  0.00    -0.380 A  
HETATM   16  C   UNL     1     -12.575  13.058  71.240  1.00  0.00    -0.373 A  
HETATM   17  C   UNL     1     -13.013  14.302  71.704  1.00  0.00    -0.346 A  
HETATM   18  C   UNL     1     -12.736  15.441  70.941  1.00  0.00    -0.520 A  
HETATM   19  N   UNL     1     -13.507  14.432  73.008  1.00  0.00    -0.625 NA 
HETATM   20  H2  UNL     1     -12.804  14.077  73.655  1.00  0.00     0.000 HD 
HETATM   21  H1  UNL     1     -13.827  15.340  73.347  1.00  0.00     0.000 HD 
HETATM   22  C   UNL     1     -12.140  15.330  69.681  1.00  0.00    -0.342 A  
ENDBRANCH  11  14
ENDBRANCH   9  11
ENDBRANCH   7   9
BRANCH   8  23
HETATM   23  O   UNL     1     -10.265  10.326  66.913  1.00  0.00    -0.210 OA 
HETATM   24  C   UNL     1      -8.943  10.201  67.423  1.00  0.00    -0.134 C  
ENDBRANCH   8  23
ENDBRANCH   2   3
TORSDOF 5
ENDMDL
MODEL       59
REMARK 921   NORMALIZED FREE ENERGY PREDICTED BY IDOCK:   -5.25 KCAL/MOL
REMARK 922        TOTAL FREE ENERGY PREDICTED BY IDOCK:   -7.29 KCAL/MOL
REMARK 923 INTER-LIGAND FREE ENERGY PREDICTED BY IDOCK:   -6.61 KCAL/MOL
REMARK 924 INTRA-LIGAND FREE ENERGY PREDICTED BY IDOCK:   -0.68 KCAL/MOL
REMARK 927      BINDING AFFINITY PREDICTED BY RF-SCORE:    0.00 PKD
ROOT
HETATM    1  C   UNL     1     -12.976  11.382  71.780  1.00  0.00    -0.414 C  
HETATM    2  O   UNL     1     -13.174  10.565  70.629  1.00  0.00    -0.316 OA 
ENDROOT
BRANCH   2   3
HETATM    3  C   UNL     1     -12.013  10.179  69.992  1.00  0.00    -0.136 A  
HETATM    4  N   UNL     1     -11.258   9.240  70.606  1.00  0.00    -0.261 NA 
HETATM    5  C   UNL     1     -10.124   8.887  69.988  1.00  0.00    -0.192 A  
HETATM    6  N   UNL     1      -9.686   9.365  68.825  1.00  0.00    -0.154 NA 
HETATM    7  C   UNL     1     -10.460  10.311  68.273  1.00  0.00    -0.199 A  
HETATM    8  C   UNL     1     -11.658  10.787  68.797  1.00  0.00    -0.280 A  
BRANCH   7   9
HETATM    9  N   UNL     1      -9.918  10.813  67.060  1.00  0.00    -0.191 N  
HETATM   10  H   UNL     1     -10.138  10.395  66.156  1.00  0.00     0.000 HD 
BRANCH   9  11
HETATM   11  S   UNL     1      -8.891  12.140  67.201  1.00  0.00    -0.197 S  
HETATM   12  O   UNL     1      -7.664  11.772  66.522  1.00  0.00    -0.082 OA 
HETATM   13  O   UNL     1      -8.871  12.592  68.575  1.00  0.00    -0.146 OA 
BRANCH  11  14
HETATM   14  C   UNL     1      -9.670  13.388  66.203  1.00  0.00    -0.250 A  
HETATM   15  C   UNL     1     -10.623  13.027  65.249  1.00  0.00    -0.320 A  
HETATM   16  C   UNL     1     -11.243  14.021  64.485  1.00  0.00    -0.358 A  
HETATM   17  C   UNL     1     -10.891  15.365  64.636  1.00  0.00    -0.258 A  
HETATM   18  C   UNL     1      -9.996  15.716  65.652  1.00  0.00    -0.388 A  
HETATM   19  N   UNL     1     -11.593  16.358  63.943  1.00  0.00    -1.602 NA 
HETATM   20  H2  UNL     1     -12.585  16.260  64.159  1.00  0.00     0.000 HD 
HETATM   21  H1  UNL     1     -11.336  17.340  64.053  1.00  0.00     0.000 HD 
HETATM   22  C   UNL     1      -9.370  14.733  66.425  1.00  0.00    -0.320 A  
ENDBRANCH  11  14
ENDBRANCH   9  11
ENDBRANCH   7   9
BRANCH   8  23
HETATM   23  O   UNL     1     -12.286  11.781  68.102  1.00  0.00    -0.507 OA 
HETATM   24  C   UNL     1     -12.238  13.102  68.628  1.00  0.00    -0.043 C  
ENDBRANCH   8  23
ENDBRANCH   2   3
TORSDOF 5
ENDMDL
MODEL       60
REMARK 921   NORMALIZED FREE ENERGY PREDICTED BY IDOCK:   -5.23 KCAL/MOL
REMARK 922        TOTAL FREE ENERGY PREDICTED BY IDOCK:   -7.26 KCAL/MOL
REMARK 923 INTER-LIGAND FREE ENERGY PREDICTED BY IDOCK:   -7.01 KCAL/MOL
REMARK 924 INTRA-LIGAND FREE ENERGY PREDICTED BY IDOCK:   -0.25 KCAL/MOL
REMARK 927      BINDING AFFINITY PREDICTED BY RF-SCORE:    0.00 PKD
ROOT
HETATM    1  C   UNL     1      -9.031  10.656  62.545  1.00  0.00    -0.290 C  
HETATM    2  O   UNL     1      -9.753  11.642  63.277  1.00  0.00    -0.363 OA 
ENDROOT
BRANCH   2   3
HETATM    3  C   UNL     1     -10.163  11.241  64.531  1.00  0.00    -0.314 A  
HETATM    4  N   UNL     1      -9.867   9.974  64.899  1.00  0.00    -0.318 NA 
HETATM    5  C   UNL     1     -10.286   9.589  66.110  1.00  0.00    -0.202 A  
HETATM    6  N   UNL     1     -10.950  10.344  66.984  1.00  0.00    -0.208 NA 
HETATM    7  C   UNL     1     -11.240  11.582  66.559  1.00  0.00    -0.259 A  
HETATM    8  C   UNL     1     -10.880  12.122  65.327  1.00  0.00    -0.293 A  
BRANCH   7   9
HETATM    9  N   UNL     1     -11.986  12.321  67.514  1.00  0.00    -0.246 N  
HETATM   10  H   UNL     1     -12.959  12.586  67.352  1.00  0.00     0.000 HD 
BRANCH   9  11
HETATM   11  S   UNL     1     -11.174  12.735  68.929  1.00  0.00    -0.286 S  
HETATM   12  O   UNL     1     -11.702  14.024  69.333  1.00  0.00    -0.272 OA 
HETATM   13  O   UNL     1      -9.753  12.541  68.745  1.00  0.00    -0.095 OA 
BRANCH  11  14
HETATM   14  C   UNL     1     -11.761  11.550  70.117  1.00  0.00    -0.309 A  
HETATM   15  C   UNL     1     -11.165  10.291  70.203  1.00  0.00    -0.387 A  
HETATM   16  C   UNL     1     -11.622   9.375  71.156  1.00  0.00    -0.415 A  
HETATM   17  C   UNL     1     -12.695   9.691  71.995  1.00  0.00    -0.385 A  
HETATM   18  C   UNL     1     -13.225  10.985  71.952  1.00  0.00    -0.503 A  
HETATM   19  N   UNL     1     -13.073   8.810  73.015  1.00  0.00    -0.785 NA 
HETATM   20  H2  UNL     1     -12.256   8.620  73.595  1.00  0.00     0.000 HD 
HETATM   21  H1  UNL     1     -13.856   9.040  73.627  1.00  0.00     0.000 HD 
HETATM   22  C   UNL     1     -12.776  11.911  71.006  1.00  0.00    -0.354 A  
ENDBRANCH  11  14
ENDBRANCH   9  11
ENDBRANCH   7   9
BRANCH   8  23
HETATM   23  O   UNL     1     -11.298  13.395  65.064  1.00  0.00    -0.301 OA 
HETATM   24  C   UNL     1     -10.350  14.450  65.182  1.00  0.00    -0.421 C  
ENDBRANCH   8  23
ENDBRANCH   2   3
TORSDOF 5
ENDMDL
MODEL       61
REMARK 921   NORMALIZED FREE ENERGY PREDICTED BY IDOCK:   -5.21 KCAL/MOL
REMARK 922        TOTAL FREE ENERGY PREDICTED BY IDOCK:   -7.24 KCAL/MOL
REMARK 923 INTER-LIGAND FREE ENERGY PREDICTED BY IDOCK:   -6.59 KCAL/MOL
REMARK 924 INTRA-LIGAND FREE ENERGY PREDICTED BY IDOCK:   -0.65 KCAL/MOL
REMARK 927      BINDING AFFINITY PREDICTED BY RF-SCORE:    0.00 PKD
ROOT
HETATM    1  C   UNL     1      -6.814  19.366  68.707  1.00  0.00    -0.319 C  
HETATM    2  O   UNL     1      -7.577  18.734  67.685  1.00  0.00    -0.228 OA 
ENDROOT
BRANCH   2   3
HETATM    3  C   UNL     1      -7.975  17.446  67.978  1.00  0.00    -0.224 A  
HETATM    4  N   UNL     1      -7.424  16.865  69.068  1.00  0.00    -0.238 NA 
HETATM    5  C   UNL     1      -7.803  15.610  69.334  1.00  0.00    -0.222 A  
HETATM    6  N   UNL     1      -8.680  14.893  68.631  1.00  0.00    -0.171 NA 
HETATM    7  C   UNL     1      -9.175  15.507  67.547  1.00  0.00    -0.198 A  
HETATM    8  C   UNL     1      -8.872  16.803  67.139  1.00  0.00    -0.200 A  
BRANCH   7   9
HETATM    9  N   UNL     1     -10.067  14.678  66.816  1.00  0.00    -0.260 N  
HETATM   10  H   UNL     1      -9.769  14.162  65.987  1.00  0.00     0.000 HD 
BRANCH   9  11
HETATM   11  S   UNL     1     -11.645  14.595  67.396  1.00  0.00    -0.383 S  
HETATM   12  O   UNL     1     -12.495  14.456  66.230  1.00  0.00    -0.393 OA 
HETATM   13  O   UNL     1     -11.865  15.658  68.352  1.00  0.00    -0.346 OA 
BRANCH  11  14
HETATM   14  C   UNL     1     -11.701  13.039  68.254  1.00  0.00    -0.353 A  
HETATM   15  C   UNL     1     -11.409  11.854  67.575  1.00  0.00    -0.381 A  
HETATM   16  C   UNL     1     -11.436  10.639  68.267  1.00  0.00    -0.318 A  
HETATM   17  C   UNL     1     -11.792  10.592  69.618  1.00  0.00    -0.286 A  
HETATM   18  C   UNL     1     -11.999  11.795  70.302  1.00  0.00    -0.429 A  
HETATM   19  N   UNL     1     -11.711   9.386  70.325  1.00  0.00    -0.450 NA 
HETATM   20  H2  UNL     1     -10.764   9.020  70.229  1.00  0.00     0.000 HD 
HETATM   21  H1  UNL     1     -11.970   9.352  71.311  1.00  0.00     0.000 HD 
HETATM   22  C   UNL     1     -11.973  13.017  69.624  1.00  0.00    -0.367 A  
ENDBRANCH  11  14
ENDBRANCH   9  11
ENDBRANCH   7   9
BRANCH   8  23
HETATM   23  O   UNL     1      -9.456  17.239  65.984  1.00  0.00    -0.462 OA 
HETATM   24  C   UNL     1     -10.531  18.166  66.084  1.00  0.00    -0.364 C  
ENDBRANCH   8  23
ENDBRANCH   2   3
TORSDOF 5
ENDMDL
MODEL       62
REMARK 921   NORMALIZED FREE ENERGY PREDICTED BY IDOCK:   -5.18 KCAL/MOL
REMARK 922        TOTAL FREE ENERGY PREDICTED BY IDOCK:   -7.21 KCAL/MOL
REMARK 923 INTER-LIGAND FREE ENERGY PREDICTED BY IDOCK:   -6.93 KCAL/MOL
REMARK 924 INTRA-LIGAND FREE ENERGY PREDICTED BY IDOCK:   -0.28 KCAL/MOL
REMARK 927      BINDING AFFINITY PREDICTED BY RF-SCORE:    0.00 PKD
ROOT
HETATM    1  C   UNL     1     -10.500  19.103  66.690  1.00  0.00    -0.443 C  
HETATM    2  O   UNL     1      -9.745  18.340  65.753  1.00  0.00    -0.494 OA 
ENDROOT
BRANCH   2   3
HETATM    3  C   UNL     1     -10.234  17.072  65.518  1.00  0.00    -0.089 A  
HETATM    4  N   UNL     1     -11.096  16.926  64.486  1.00  0.00    -1.071 NA 
HETATM    5  C   UNL     1     -11.579  15.696  64.279  1.00  0.00    -0.189 A  
HETATM    6  N   UNL     1     -11.277  14.608  64.986  1.00  0.00    -0.365 NA 
HETATM    7  C   UNL     1     -10.438  14.814  66.012  1.00  0.00    -0.303 A  
HETATM    8  C   UNL     1      -9.861  16.033  66.357  1.00  0.00    -0.288 A  
BRANCH   7   9
HETATM    9  N   UNL     1     -10.190  13.628  66.754  1.00  0.00    -0.264 N  
HETATM   10  H   UNL     1      -9.245  13.276  66.909  1.00  0.00     0.000 HD 
BRANCH   9  11
HETATM   11  S   UNL     1     -11.546  12.837  67.361  1.00  0.00    -0.368 S  
HETATM   12  O   UNL     1     -12.114  12.101  66.248  1.00  0.00    -0.626 OA 
HETATM   13  O   UNL     1     -12.350  13.770  68.120  1.00  0.00    -0.245 OA 
BRANCH  11  14
HETATM   14  C   UNL     1     -10.869  11.630  68.477  1.00  0.00    -0.219 A  
HETATM   15  C   UNL     1     -11.644  11.139  69.530  1.00  0.00    -0.392 A  
HETATM   16  C   UNL     1     -11.106  10.174  70.388  1.00  0.00    -0.393 A  
HETATM   17  C   UNL     1      -9.791   9.727  70.229  1.00  0.00    -0.240 A  
HETATM   18  C   UNL     1      -9.059  10.168  69.121  1.00  0.00    -0.189 A  
HETATM   19  N   UNL     1      -9.301   8.686  71.026  1.00  0.00    -0.183 NA 
HETATM   20  H2  UNL     1      -9.926   7.886  70.930  1.00  0.00     0.000 HD 
HETATM   21  H1  UNL     1      -8.341   8.359  70.911  1.00  0.00     0.000 HD 
HETATM   22  C   UNL     1      -9.585  11.130  68.254  1.00  0.00    -0.185 A  
ENDBRANCH  11  14
ENDBRANCH   9  11
ENDBRANCH   7   9
BRANCH   8  23
HETATM   23  O   UNL     1      -9.057  16.046  67.461  1.00  0.00    -0.196 OA 
HETATM   24  C   UNL     1      -7.648  16.097  67.264  1.00  0.00    -0.184 C  
ENDBRANCH   8  23
ENDBRANCH   2   3
TORSDOF 5
ENDMDL
MODEL       63
REMARK 921   NORMALIZED FREE ENERGY PREDICTED BY IDOCK:   -5.18 KCAL/MOL
REMARK 922        TOTAL FREE ENERGY PREDICTED BY IDOCK:   -7.20 KCAL/MOL
REMARK 923 INTER-LIGAND FREE ENERGY PREDICTED BY IDOCK:   -6.52 KCAL/MOL
REMARK 924 INTRA-LIGAND FREE ENERGY PREDICTED BY IDOCK:   -0.68 KCAL/MOL
REMARK 927      BINDING AFFINITY PREDICTED BY RF-SCORE:    0.00 PKD
ROOT
HETATM    1  C   UNL     1     -10.814  15.900  66.830  1.00  0.00    -0.228 C  
HETATM    2  O   UNL     1     -11.764  14.842  66.754  1.00  0.00    -0.366 OA 
ENDROOT
BRANCH   2   3
HETATM    3  C   UNL     1     -11.886  14.095  67.907  1.00  0.00    -0.370 A  
HETATM    4  N   UNL     1     -11.940  14.774  69.076  1.00  0.00    -0.295 NA 
HETATM    5  C   UNL     1     -12.039  14.039  70.190  1.00  0.00    -0.351 A  
HETATM    6  N   UNL     1     -12.104  12.710  70.247  1.00  0.00    -0.341 NA 
HETATM    7  C   UNL     1     -12.021  12.087  69.062  1.00  0.00    -0.264 A  
HETATM    8  C   UNL     1     -11.908  12.711  67.823  1.00  0.00    -0.323 A  
BRANCH   7   9
HETATM    9  N   UNL     1     -12.050  10.673  69.191  1.00  0.00    -0.536 N  
HETATM   10  H   UNL     1     -12.873  10.124  68.938  1.00  0.00     0.000 HD 
BRANCH   9  11
HETATM   11  S   UNL     1     -10.649   9.955  69.787  1.00  0.00    -0.283 S  
HETATM   12  O   UNL     1     -10.921   9.634  71.174  1.00  0.00    -0.336 OA 
HETATM   13  O   UNL     1      -9.502  10.758  69.423  1.00  0.00    -0.140 OA 
BRANCH  11  14
HETATM   14  C   UNL     1     -10.560   8.409  68.914  1.00  0.00    -0.140 A  
HETATM   15  C   UNL     1     -10.259   8.391  67.551  1.00  0.00    -0.308 A  
HETATM   16  C   UNL     1     -10.172   7.166  66.881  1.00  0.00    -0.330 A  
HETATM   17  C   UNL     1     -10.423   5.965  67.550  1.00  0.00    -0.243 A  
HETATM   18  C   UNL     1     -10.641   5.996  68.931  1.00  0.00    -0.356 A  
HETATM   19  N   UNL     1     -10.228   4.742  66.896  1.00  0.00    -0.209 NA 
HETATM   20  H2  UNL     1      -9.273   4.718  66.538  1.00  0.00     0.000 HD 
HETATM   21  H1  UNL     1     -10.410   3.865  67.384  1.00  0.00     0.000 HD 
HETATM   22  C   UNL     1     -10.728   7.213  69.614  1.00  0.00    -0.256 A  
ENDBRANCH  11  14
ENDBRANCH   9  11
ENDBRANCH   7   9
BRANCH   8  23
HETATM   23  O   UNL     1     -11.802  11.900  66.730  1.00  0.00    -0.598 OA 
HETATM   24  C   UNL     1     -10.516  11.723  66.147  1.00  0.00    -0.245 C  
ENDBRANCH   8  23
ENDBRANCH   2   3
TORSDOF 5
ENDMDL
MODEL       64
REMARK 921   NORMALIZED FREE ENERGY PREDICTED BY IDOCK:   -5.18 KCAL/MOL
REMARK 922        TOTAL FREE ENERGY PREDICTED BY IDOCK:   -7.20 KCAL/MOL
REMARK 923 INTER-LIGAND FREE ENERGY PREDICTED BY IDOCK:   -6.75 KCAL/MOL
REMARK 924 INTRA-LIGAND FREE ENERGY PREDICTED BY IDOCK:   -0.45 KCAL/MOL
REMARK 927      BINDING AFFINITY PREDICTED BY RF-SCORE:    0.00 PKD
ROOT
HETATM    1  C   UNL     1     -12.500  14.000  65.157  1.00  0.00    -0.452 C  
HETATM    2  O   UNL     1     -11.962  12.866  65.831  1.00  0.00    -0.406 OA 
ENDROOT
BRANCH   2   3
HETATM    3  C   UNL     1     -11.908  12.987  67.204  1.00  0.00    -0.373 A  
HETATM    4  N   UNL     1     -12.070  14.226  67.720  1.00  0.00    -0.339 NA 
HETATM    5  C   UNL     1     -11.997  14.335  69.051  1.00  0.00    -0.325 A  
HETATM    6  N   UNL     1     -11.795  13.334  69.908  1.00  0.00    -0.320 NA 
HETATM    7  C   UNL     1     -11.616  12.132  69.342  1.00  0.00    -0.317 A  
HETATM    8  C   UNL     1     -11.656  11.863  67.977  1.00  0.00    -0.332 A  
BRANCH   7   9
HETATM    9  N   UNL     1     -11.361  11.116  70.301  1.00  0.00    -0.475 N  
HETATM   10  H   UNL     1     -10.412  10.830  70.545  1.00  0.00     0.000 HD 
BRANCH   9  11
HETATM   11  S   UNL     1     -12.714  10.411  71.011  1.00  0.00    -0.421 S  
HETATM   12  O   UNL     1     -13.636  10.131  69.928  1.00  0.00     0.321 OA 
HETATM   13  O   UNL     1     -13.127  11.200  72.151  1.00  0.00    -0.463 OA 
BRANCH  11  14
HETATM   14  C   UNL     1     -12.119   8.840  71.592  1.00  0.00    -0.337 A  
HETATM   15  C   UNL     1     -12.926   7.705  71.489  1.00  0.00    -0.378 A  
HETATM   16  C   UNL     1     -12.437   6.471  71.931  1.00  0.00    -0.291 A  
HETATM   17  C   UNL     1     -11.170   6.369  72.511  1.00  0.00    -0.272 A  
HETATM   18  C   UNL     1     -10.345   7.498  72.531  1.00  0.00    -0.291 A  
HETATM   19  N   UNL     1     -10.651   5.113  72.851  1.00  0.00    -0.216 NA 
HETATM   20  H2  UNL     1     -10.673   4.521  72.021  1.00  0.00     0.000 HD 
HETATM   21  H1  UNL     1      -9.726   5.038  73.275  1.00  0.00     0.000 HD 
HETATM   22  C   UNL     1     -10.819   8.738  72.090  1.00  0.00    -0.400 A  
ENDBRANCH  11  14
ENDBRANCH   9  11
ENDBRANCH   7   9
BRANCH   8  23
HETATM   23  O   UNL     1     -11.415  10.574  67.593  1.00  0.00    -0.444 OA 
HETATM   24  C   UNL     1     -10.136  10.263  67.054  1.00  0.00    -0.218 C  
ENDBRANCH   8  23
ENDBRANCH   2   3
TORSDOF 5
ENDMDL
MODEL       65
REMARK 921   NORMALIZED FREE ENERGY PREDICTED BY IDOCK:   -5.17 KCAL/MOL
REMARK 922        TOTAL FREE ENERGY PREDICTED BY IDOCK:   -7.18 KCAL/MOL
REMARK 923 INTER-LIGAND FREE ENERGY PREDICTED BY IDOCK:   -6.51 KCAL/MOL
REMARK 924 INTRA-LIGAND FREE ENERGY PREDICTED BY IDOCK:   -0.68 KCAL/MOL
REMARK 927      BINDING AFFINITY PREDICTED BY RF-SCORE:    0.00 PKD
ROOT
HETATM    1  C   UNL     1      -6.993   8.682  65.412  1.00  0.00    -0.075 C  
HETATM    2  O   UNL     1      -7.156  10.095  65.333  1.00  0.00    -0.131 OA 
ENDROOT
BRANCH   2   3
HETATM    3  C   UNL     1      -8.402  10.506  64.905  1.00  0.00    -0.135 A  
HETATM    4  N   UNL     1      -8.701  10.308  63.601  1.00  0.00    -0.190 NA 
HETATM    5  C   UNL     1      -9.904  10.727  63.193  1.00  0.00    -0.334 A  
HETATM    6  N   UNL     1     -10.831  11.305  63.956  1.00  0.00    -0.370 NA 
HETATM    7  C   UNL     1     -10.473  11.501  65.233  1.00  0.00    -0.283 A  
HETATM    8  C   UNL     1      -9.258  11.128  65.801  1.00  0.00    -0.215 A  
BRANCH   7   9
HETATM    9  N   UNL     1     -11.482  12.160  65.983  1.00  0.00    -0.363 N  
HETATM   10  H   UNL     1     -12.085  11.658  66.637  1.00  0.00     0.000 HD 
BRANCH   9  11
HETATM   11  S   UNL     1     -11.628  13.818  65.731  1.00  0.00    -0.344 S  
HETATM   12  O   UNL     1     -12.957  14.028  65.192  1.00  0.00    -0.744 OA 
HETATM   13  O   UNL     1     -10.459  14.305  65.032  1.00  0.00    -0.388 OA 
BRANCH  11  14
HETATM   14  C   UNL     1     -11.632  14.499  67.373  1.00  0.00    -0.385 A  
HETATM   15  C   UNL     1     -11.204  15.810  67.589  1.00  0.00    -0.246 A  
HETATM   16  C   UNL     1     -11.232  16.340  68.883  1.00  0.00    -0.337 A  
HETATM   17  C   UNL     1     -11.643  15.560  69.967  1.00  0.00    -0.341 A  
HETATM   18  C   UNL     1     -12.147  14.278  69.722  1.00  0.00    -0.401 A  
HETATM   19  N   UNL     1     -11.769  16.133  71.239  1.00  0.00    -0.559 NA 
HETATM   20  H2  UNL     1     -12.390  16.939  71.168  1.00  0.00     0.000 HD 
HETATM   21  H1  UNL     1     -12.069  15.564  72.031  1.00  0.00     0.000 HD 
HETATM   22  C   UNL     1     -12.127  13.736  68.433  1.00  0.00    -0.324 A  
ENDBRANCH  11  14
ENDBRANCH   9  11
ENDBRANCH   7   9
BRANCH   8  23
HETATM   23  O   UNL     1      -9.067  11.445  67.116  1.00  0.00    -0.159 OA 
HETATM   24  C   UNL     1      -8.212  12.540  67.426  1.00  0.00    -0.183 C  
ENDBRANCH   8  23
ENDBRANCH   2   3
TORSDOF 5
ENDMDL
MODEL       66
REMARK 921   NORMALIZED FREE ENERGY PREDICTED BY IDOCK:   -5.16 KCAL/MOL
REMARK 922        TOTAL FREE ENERGY PREDICTED BY IDOCK:   -7.18 KCAL/MOL
REMARK 923 INTER-LIGAND FREE ENERGY PREDICTED BY IDOCK:   -6.77 KCAL/MOL
REMARK 924 INTRA-LIGAND FREE ENERGY PREDICTED BY IDOCK:   -0.41 KCAL/MOL
REMARK 927      BINDING AFFINITY PREDICTED BY RF-SCORE:    0.00 PKD
ROOT
HETATM    1  C   UNL     1     -13.651   9.307  72.128  1.00  0.00    -0.471 C  
HETATM    2  O   UNL     1     -13.132   9.779  70.888  1.00  0.00    -0.312 OA 
ENDROOT
BRANCH   2   3
HETATM    3  C   UNL     1     -12.746  11.103  70.893  1.00  0.00    -0.344 A  
HETATM    4  N   UNL     1     -13.320  11.907  71.816  1.00  0.00    -0.343 NA 
HETATM    5  C   UNL     1     -12.953  13.194  71.800  1.00  0.00    -0.338 A  
HETATM    6  N   UNL     1     -12.067  13.744  70.970  1.00  0.00    -0.310 NA 
HETATM    7  C   UNL     1     -11.548  12.908  70.059  1.00  0.00    -0.116 A  
HETATM    8  C   UNL     1     -11.837  11.551  69.946  1.00  0.00    -0.355 A  
BRANCH   7   9
HETATM    9  N   UNL     1     -10.648  13.561  69.176  1.00  0.00    -0.432 N  
HETATM   10  H   UNL     1      -9.636  13.458  69.263  1.00  0.00     0.000 HD 
BRANCH   9  11
HETATM   11  S   UNL     1     -11.347  14.514  67.978  1.00  0.00    -0.322 S  
HETATM   12  O   UNL     1     -10.429  15.612  67.752  1.00  0.00    -0.261 OA 
HETATM   13  O   UNL     1     -12.734  14.762  68.306  1.00  0.00     0.364 OA 
BRANCH  11  14
HETATM   14  C   UNL     1     -11.281  13.489  66.527  1.00  0.00    -0.306 A  
HETATM   15  C   UNL     1     -12.364  13.451  65.647  1.00  0.00    -0.521 A  
HETATM   16  C   UNL     1     -12.290  12.656  64.498  1.00  0.00    -0.537 A  
HETATM   17  C   UNL     1     -11.164  11.869  64.243  1.00  0.00    -0.357 A  
HETATM   18  C   UNL     1     -10.056  11.983  65.091  1.00  0.00    -0.295 A  
HETATM   19  N   UNL     1     -11.058  11.162  63.039  1.00  0.00    -0.801 NA 
HETATM   20  H2  UNL     1     -11.171  11.820  62.269  1.00  0.00     0.000 HD 
HETATM   21  H1  UNL     1     -10.235  10.587  62.852  1.00  0.00     0.000 HD 
HETATM   22  C   UNL     1     -10.115  12.775  66.241  1.00  0.00    -0.267 A  
ENDBRANCH  11  14
ENDBRANCH   9  11
ENDBRANCH   7   9
BRANCH   8  23
HETATM   23  O   UNL     1     -11.230  10.872  68.928  1.00  0.00    -0.224 OA 
HETATM   24  C   UNL     1      -9.959  10.282  69.179  1.00  0.00    -0.222 C  
ENDBRANCH   8  23
ENDBRANCH   2   3
TORSDOF 5
ENDMDL
MODEL       67
REMARK 921   NORMALIZED FREE ENERGY PREDICTED BY IDOCK:   -5.15 KCAL/MOL
REMARK 922        TOTAL FREE ENERGY PREDICTED BY IDOCK:   -7.17 KCAL/MOL
REMARK 923 INTER-LIGAND FREE ENERGY PREDICTED BY IDOCK:   -6.65 KCAL/MOL
REMARK 924 INTRA-LIGAND FREE ENERGY PREDICTED BY IDOCK:   -0.52 KCAL/MOL
REMARK 927      BINDING AFFINITY PREDICTED BY RF-SCORE:    0.00 PKD
ROOT
HETATM    1  C   UNL     1      -8.668  18.059  66.417  1.00  0.00    -0.227 C  
HETATM    2  O   UNL     1     -10.052  17.881  66.703  1.00  0.00    -0.326 OA 
ENDROOT
BRANCH   2   3
HETATM    3  C   UNL     1     -10.644  16.825  66.041  1.00  0.00    -0.228 A  
HETATM    4  N   UNL     1     -10.938  17.006  64.734  1.00  0.00    -0.905 NA 
HETATM    5  C   UNL     1     -11.529  15.983  64.106  1.00  0.00    -0.011 A  
HETATM    6  N   UNL     1     -11.838  14.806  64.649  1.00  0.00    -0.439 NA 
HETATM    7  C   UNL     1     -11.548  14.690  65.953  1.00  0.00    -0.327 A  
HETATM    8  C   UNL     1     -10.943  15.665  66.740  1.00  0.00    -0.230 A  
BRANCH   7   9
HETATM    9  N   UNL     1     -11.941  13.433  66.484  1.00  0.00    -0.393 N  
HETATM   10  H   UNL     1     -12.859  13.288  66.907  1.00  0.00     0.000 HD 
BRANCH   9  11
HETATM   11  S   UNL     1     -10.805  12.196  66.377  1.00  0.00    -0.283 S  
HETATM   12  O   UNL     1      -9.506  12.835  66.461  1.00  0.00    -0.250 OA 
HETATM   13  O   UNL     1     -11.136  11.331  65.266  1.00  0.00    -0.196 OA 
BRANCH  11  14
HETATM   14  C   UNL     1     -11.022  11.287  67.889  1.00  0.00    -0.248 A  
HETATM   15  C   UNL     1     -10.545   9.978  67.994  1.00  0.00    -0.280 A  
HETATM   16  C   UNL     1     -10.704   9.282  69.197  1.00  0.00    -0.202 A  
HETATM   17  C   UNL     1     -11.372   9.864  70.278  1.00  0.00    -0.291 A  
HETATM   18  C   UNL     1     -11.769  11.202  70.184  1.00  0.00    -0.439 A  
HETATM   19  N   UNL     1     -11.430   9.199  71.509  1.00  0.00    -0.339 NA 
HETATM   20  H2  UNL     1     -10.479   8.976  71.800  1.00  0.00     0.000 HD 
HETATM   21  H1  UNL     1     -11.917   9.623  72.299  1.00  0.00     0.000 HD 
HETATM   22  C   UNL     1     -11.614  11.911  68.989  1.00  0.00    -0.376 A  
ENDBRANCH  11  14
ENDBRANCH   9  11
ENDBRANCH   7   9
BRANCH   8  23
HETATM   23  O   UNL     1     -10.761  15.369  68.061  1.00  0.00    -0.263 OA 
HETATM   24  C   UNL     1     -11.743  15.813  68.990  1.00  0.00    -0.396 C  
ENDBRANCH   8  23
ENDBRANCH   2   3
TORSDOF 5
ENDMDL
MODEL       68
REMARK 921   NORMALIZED FREE ENERGY PREDICTED BY IDOCK:   -5.15 KCAL/MOL
REMARK 922        TOTAL FREE ENERGY PREDICTED BY IDOCK:   -7.17 KCAL/MOL
REMARK 923 INTER-LIGAND FREE ENERGY PREDICTED BY IDOCK:   -6.96 KCAL/MOL
REMARK 924 INTRA-LIGAND FREE ENERGY PREDICTED BY IDOCK:   -0.21 KCAL/MOL
REMARK 927      BINDING AFFINITY PREDICTED BY RF-SCORE:    0.00 PKD
ROOT
HETATM    1  C   UNL     1     -10.781  18.927  66.848  1.00  0.00    -0.370 C  
HETATM    2  O   UNL     1      -9.900  18.359  65.884  1.00  0.00    -0.517 OA 
ENDROOT
BRANCH   2   3
HETATM    3  C   UNL     1     -10.239  17.087  65.474  1.00  0.00    -0.089 A  
HETATM    4  N   UNL     1     -11.190  16.981  64.518  1.00  0.00    -1.059 NA 
HETATM    5  C   UNL     1     -11.525  15.742  64.141  1.00  0.00    -0.072 A  
HETATM    6  N   UNL     1     -10.998  14.612  64.612  1.00  0.00    -0.360 NA 
HETATM    7  C   UNL     1     -10.080  14.774  65.576  1.00  0.00    -0.380 A  
HETATM    8  C   UNL     1      -9.634  15.994  66.076  1.00  0.00    -0.350 A  
BRANCH   7   9
HETATM    9  N   UNL     1      -9.589  13.535  66.068  1.00  0.00    -0.462 N  
HETATM   10  H   UNL     1      -8.687  13.158  65.778  1.00  0.00     0.000 HD 
BRANCH   9  11
HETATM   11  S   UNL     1     -10.584  12.726  67.159  1.00  0.00    -0.238 S  
HETATM   12  O   UNL     1     -11.944  12.985  66.731  1.00  0.00    -0.391 OA 
HETATM   13  O   UNL     1     -10.162  13.025  68.511  1.00  0.00    -0.241 OA 
BRANCH  11  14
HETATM   14  C   UNL     1     -10.266  11.009  66.831  1.00  0.00    -0.222 A  
HETATM   15  C   UNL     1     -10.698  10.032  67.730  1.00  0.00    -0.333 A  
HETATM   16  C   UNL     1     -10.460   8.683  67.449  1.00  0.00    -0.351 A  
HETATM   17  C   UNL     1      -9.758   8.303  66.301  1.00  0.00    -0.183 A  
HETATM   18  C   UNL     1      -9.406   9.288  65.371  1.00  0.00    -0.292 A  
HETATM   19  N   UNL     1      -9.620   6.948  65.976  1.00  0.00    -0.399 NA 
HETATM   20  H2  UNL     1     -10.549   6.530  65.938  1.00  0.00     0.000 HD 
HETATM   21  H1  UNL     1      -9.108   6.671  65.139  1.00  0.00     0.000 HD 
HETATM   22  C   UNL     1      -9.640  10.640  65.638  1.00  0.00    -0.268 A  
ENDBRANCH  11  14
ENDBRANCH   9  11
ENDBRANCH   7   9
BRANCH   8  23
HETATM   23  O   UNL     1      -8.714  15.950  67.084  1.00  0.00    -0.181 OA 
HETATM   24  C   UNL     1      -9.166  16.170  68.416  1.00  0.00    -0.203 C  
ENDBRANCH   8  23
ENDBRANCH   2   3
TORSDOF 5
ENDMDL
MODEL       69
REMARK 921   NORMALIZED FREE ENERGY PREDICTED BY IDOCK:   -5.12 KCAL/MOL
REMARK 922        TOTAL FREE ENERGY PREDICTED BY IDOCK:   -7.12 KCAL/MOL
REMARK 923 INTER-LIGAND FREE ENERGY PREDICTED BY IDOCK:   -6.67 KCAL/MOL
REMARK 924 INTRA-LIGAND FREE ENERGY PREDICTED BY IDOCK:   -0.45 KCAL/MOL
REMARK 927      BINDING AFFINITY PREDICTED BY RF-SCORE:    0.00 PKD
ROOT
HETATM    1  C   UNL     1     -10.175   6.477  74.234  1.00  0.00    -0.350 C  
HETATM    2  O   UNL     1     -10.771   7.582  73.561  1.00  0.00    -0.378 OA 
ENDROOT
BRANCH   2   3
HETATM    3  C   UNL     1     -10.556   7.608  72.199  1.00  0.00    -0.232 A  
HETATM    4  N   UNL     1      -9.658   6.727  71.701  1.00  0.00    -0.162 NA 
HETATM    5  C   UNL     1      -9.444   6.773  70.381  1.00  0.00    -0.166 A  
HETATM    6  N   UNL     1     -10.043   7.595  69.519  1.00  0.00    -0.187 NA 
HETATM    7  C   UNL     1     -10.904   8.463  70.070  1.00  0.00    -0.225 A  
HETATM    8  C   UNL     1     -11.225   8.542  71.422  1.00  0.00    -0.266 A  
BRANCH   7   9
HETATM    9  N   UNL     1     -11.476   9.340  69.110  1.00  0.00    -0.324 N  
HETATM   10  H   UNL     1     -12.330   9.105  68.604  1.00  0.00     0.000 HD 
BRANCH   9  11
HETATM   11  S   UNL     1     -10.660  10.790  68.854  1.00  0.00    -0.231 S  
HETATM   12  O   UNL     1      -9.288  10.557  69.260  1.00  0.00    -0.199 OA 
HETATM   13  O   UNL     1     -11.425  11.881  69.418  1.00  0.00    -0.270 OA 
BRANCH  11  14
HETATM   14  C   UNL     1     -10.644  10.962  67.084  1.00  0.00    -0.255 A  
HETATM   15  C   UNL     1      -9.944  10.044  66.298  1.00  0.00    -0.310 A  
HETATM   16  C   UNL     1      -9.957  10.179  64.906  1.00  0.00    -0.358 A  
HETATM   17  C   UNL     1     -10.627  11.243  64.296  1.00  0.00    -0.358 A  
HETATM   18  C   UNL     1     -11.390  12.104  65.092  1.00  0.00    -0.379 A  
HETATM   19  N   UNL     1     -10.723  11.306  62.900  1.00  0.00    -0.792 NA 
HETATM   20  H2  UNL     1     -11.133  10.434  62.566  1.00  0.00     0.000 HD 
HETATM   21  H1  UNL     1     -11.212  12.083  62.455  1.00  0.00     0.000 HD 
HETATM   22  C   UNL     1     -11.389  11.979  66.485  1.00  0.00    -0.413 A  
ENDBRANCH  11  14
ENDBRANCH   9  11
ENDBRANCH   7   9
BRANCH   8  23
HETATM   23  O   UNL     1     -12.103   9.520  71.793  1.00  0.00    -0.370 OA 
HETATM   24  C   UNL     1     -13.465   9.159  71.992  1.00  0.00    -0.448 C  
ENDBRANCH   8  23
ENDBRANCH   2   3
TORSDOF 5
ENDMDL
MODEL       70
REMARK 921   NORMALIZED FREE ENERGY PREDICTED BY IDOCK:   -5.10 KCAL/MOL
REMARK 922        TOTAL FREE ENERGY PREDICTED BY IDOCK:   -7.10 KCAL/MOL
REMARK 923 INTER-LIGAND FREE ENERGY PREDICTED BY IDOCK:   -6.75 KCAL/MOL
REMARK 924 INTRA-LIGAND FREE ENERGY PREDICTED BY IDOCK:   -0.35 KCAL/MOL
REMARK 927      BINDING AFFINITY PREDICTED BY RF-SCORE:    0.00 PKD
ROOT
HETATM    1  C   UNL     1      -5.801  20.574  69.502  1.00  0.00    -0.352 C  
HETATM    2  O   UNL     1      -5.302  19.356  68.957  1.00  0.00    -0.190 OA 
ENDROOT
BRANCH   2   3
HETATM    3  C   UNL     1      -6.006  18.884  67.869  1.00  0.00    -0.198 A  
HETATM    4  N   UNL     1      -5.861  19.554  66.704  1.00  0.00    -0.166 NA 
HETATM    5  C   UNL     1      -6.563  19.098  65.659  1.00  0.00    -0.262 A  
HETATM    6  N   UNL     1      -7.375  18.041  65.664  1.00  0.00    -0.541 NA 
HETATM    7  C   UNL     1      -7.502  17.430  66.851  1.00  0.00    -0.209 A  
HETATM    8  C   UNL     1      -6.845  17.790  68.024  1.00  0.00    -0.191 A  
BRANCH   7   9
HETATM    9  N   UNL     1      -8.413  16.341  66.804  1.00  0.00    -0.219 N  
HETATM   10  H   UNL     1      -8.112  15.395  66.568  1.00  0.00     0.000 HD 
BRANCH   9  11
HETATM   11  S   UNL     1     -10.018  16.704  67.158  1.00  0.00    -0.275 S  
HETATM   12  O   UNL     1     -10.319  17.932  66.449  1.00  0.00    -0.363 OA 
HETATM   13  O   UNL     1     -10.233  16.599  68.585  1.00  0.00    -0.251 OA 
BRANCH  11  14
HETATM   14  C   UNL     1     -10.934  15.413  66.349  1.00  0.00    -0.277 A  
HETATM   15  C   UNL     1     -11.665  14.494  67.105  1.00  0.00    -0.420 A  
HETATM   16  C   UNL     1     -12.398  13.496  66.455  1.00  0.00    -0.413 A  
HETATM   17  C   UNL     1     -12.373  13.381  65.062  1.00  0.00    -0.436 A  
HETATM   18  C   UNL     1     -11.703  14.358  64.318  1.00  0.00    -0.328 A  
HETATM   19  N   UNL     1     -13.193  12.447  64.418  1.00  0.00    -0.778 NA 
HETATM   20  H2  UNL     1     -14.157  12.610  64.710  1.00  0.00     0.000 HD 
HETATM   21  H1  UNL     1     -13.176  12.363  63.402  1.00  0.00     0.000 HD 
HETATM   22  C   UNL     1     -10.969  15.363  64.954  1.00  0.00    -0.453 A  
ENDBRANCH  11  14
ENDBRANCH   9  11
ENDBRANCH   7   9
BRANCH   8  23
HETATM   23  O   UNL     1      -7.133  17.061  69.143  1.00  0.00    -0.236 OA 
HETATM   24  C   UNL     1      -6.168  16.119  69.596  1.00  0.00    -0.191 C  
ENDBRANCH   8  23
ENDBRANCH   2   3
TORSDOF 5
ENDMDL
MODEL       71
REMARK 921   NORMALIZED FREE ENERGY PREDICTED BY IDOCK:   -5.09 KCAL/MOL
REMARK 922        TOTAL FREE ENERGY PREDICTED BY IDOCK:   -7.09 KCAL/MOL
REMARK 923 INTER-LIGAND FREE ENERGY PREDICTED BY IDOCK:   -6.49 KCAL/MOL
REMARK 924 INTRA-LIGAND FREE ENERGY PREDICTED BY IDOCK:   -0.60 KCAL/MOL
REMARK 927      BINDING AFFINITY PREDICTED BY RF-SCORE:    0.00 PKD
ROOT
HETATM    1  C   UNL     1      -8.483   5.775  69.340  1.00  0.00    -0.112 C  
HETATM    2  O   UNL     1      -8.738   7.047  68.751  1.00  0.00    -0.127 OA 
ENDROOT
BRANCH   2   3
HETATM    3  C   UNL     1      -9.452   7.916  69.548  1.00  0.00    -0.160 A  
HETATM    4  N   UNL     1      -9.216   7.866  70.879  1.00  0.00    -0.151 NA 
HETATM    5  C   UNL     1      -9.928   8.701  71.645  1.00  0.00    -0.282 A  
HETATM    6  N   UNL     1     -10.832   9.580  71.213  1.00  0.00    -0.353 NA 
HETATM    7  C   UNL     1     -11.045   9.570  69.889  1.00  0.00    -0.216 A  
HETATM    8  C   UNL     1     -10.390   8.757  68.968  1.00  0.00    -0.213 A  
BRANCH   7   9
HETATM    9  N   UNL     1     -12.049  10.493  69.495  1.00  0.00    -0.515 N  
HETATM   10  H   UNL     1     -13.040  10.249  69.500  1.00  0.00     0.000 HD 
BRANCH   9  11
HETATM   11  S   UNL     1     -11.509  12.016  69.020  1.00  0.00    -0.324 S  
HETATM   12  O   UNL     1     -12.180  12.306  67.768  1.00  0.00    -0.425 OA 
HETATM   13  O   UNL     1     -10.067  12.069  69.118  1.00  0.00     0.009 OA 
BRANCH  11  14
HETATM   14  C   UNL     1     -12.203  13.111  70.235  1.00  0.00    -0.306 A  
HETATM   15  C   UNL     1     -12.758  12.594  71.408  1.00  0.00    -0.347 A  
HETATM   16  C   UNL     1     -13.282  13.469  72.365  1.00  0.00    -0.577 A  
HETATM   17  C   UNL     1     -13.294  14.849  72.144  1.00  0.00    -0.375 A  
HETATM   18  C   UNL     1     -12.660  15.354  71.004  1.00  0.00    -0.491 A  
HETATM   19  N   UNL     1     -13.722  15.720  73.154  1.00  0.00    -0.670 NA 
HETATM   20  H2  UNL     1     -13.174  15.533  73.993  1.00  0.00     0.000 HD 
HETATM   21  H1  UNL     1     -13.731  16.727  72.993  1.00  0.00     0.000 HD 
HETATM   22  C   UNL     1     -12.130  14.492  70.040  1.00  0.00    -0.395 A  
ENDBRANCH  11  14
ENDBRANCH   9  11
ENDBRANCH   7   9
BRANCH   8  23
HETATM   23  O   UNL     1     -10.772   8.871  67.661  1.00  0.00    -0.244 OA 
HETATM   24  C   UNL     1      -9.862   9.469  66.745  1.00  0.00    -0.216 C  
ENDBRANCH   8  23
ENDBRANCH   2   3
TORSDOF 5
ENDMDL
MODEL       72
REMARK 921   NORMALIZED FREE ENERGY PREDICTED BY IDOCK:   -5.08 KCAL/MOL
REMARK 922        TOTAL FREE ENERGY PREDICTED BY IDOCK:   -7.08 KCAL/MOL
REMARK 923 INTER-LIGAND FREE ENERGY PREDICTED BY IDOCK:   -6.44 KCAL/MOL
REMARK 924 INTRA-LIGAND FREE ENERGY PREDICTED BY IDOCK:   -0.63 KCAL/MOL
REMARK 927      BINDING AFFINITY PREDICTED BY RF-SCORE:    0.00 PKD
ROOT
HETATM    1  C   UNL     1      -6.948  19.558  69.150  1.00  0.00    -0.357 C  
HETATM    2  O   UNL     1      -7.124  18.239  68.641  1.00  0.00    -0.257 OA 
ENDROOT
BRANCH   2   3
HETATM    3  C   UNL     1      -8.302  18.042  67.951  1.00  0.00    -0.248 A  
HETATM    4  N   UNL     1      -8.615  18.947  66.997  1.00  0.00    -0.282 NA 
HETATM    5  C   UNL     1      -9.770  18.757  66.347  1.00  0.00    -0.353 A  
HETATM    6  N   UNL     1     -10.623  17.753  66.548  1.00  0.00    -0.275 NA 
HETATM    7  C   UNL     1     -10.277  16.900  67.522  1.00  0.00    -0.295 A  
HETATM    8  C   UNL     1      -9.116  16.971  68.288  1.00  0.00    -0.241 A  
BRANCH   7   9
HETATM    9  N   UNL     1     -11.245  15.881  67.718  1.00  0.00    -0.301 N  
HETATM   10  H   UNL     1     -11.914  15.912  68.489  1.00  0.00     0.000 HD 
BRANCH   9  11
HETATM   11  S   UNL     1     -11.227  14.617  66.606  1.00  0.00    -0.353 S  
HETATM   12  O   UNL     1      -9.903  14.621  66.016  1.00  0.00    -0.291 OA 
HETATM   13  O   UNL     1     -12.409  14.687  65.776  1.00  0.00    -0.259 OA 
BRANCH  11  14
HETATM   14  C   UNL     1     -11.328  13.159  67.618  1.00  0.00    -0.298 A  
HETATM   15  C   UNL     1     -11.570  13.274  68.989  1.00  0.00    -0.359 A  
HETATM   16  C   UNL     1     -11.668  12.118  69.770  1.00  0.00    -0.381 A  
HETATM   17  C   UNL     1     -11.486  10.853  69.203  1.00  0.00    -0.303 A  
HETATM   18  C   UNL     1     -11.327  10.753  67.817  1.00  0.00    -0.354 A  
HETATM   19  N   UNL     1     -11.692   9.701  69.972  1.00  0.00    -0.443 NA 
HETATM   20  H2  UNL     1     -12.631   9.744  70.369  1.00  0.00     0.000 HD 
HETATM   21  H1  UNL     1     -11.559   8.778  69.559  1.00  0.00     0.000 HD 
HETATM   22  C   UNL     1     -11.230  11.900  67.023  1.00  0.00    -0.379 A  
ENDBRANCH  11  14
ENDBRANCH   9  11
ENDBRANCH   7   9
BRANCH   8  23
HETATM   23  O   UNL     1      -8.958  16.023  69.259  1.00  0.00    -0.244 OA 
HETATM   24  C   UNL     1      -8.204  14.858  68.943  1.00  0.00    -0.171 C  
ENDBRANCH   8  23
ENDBRANCH   2   3
TORSDOF 5
ENDMDL
MODEL       73
REMARK 921   NORMALIZED FREE ENERGY PREDICTED BY IDOCK:   -5.07 KCAL/MOL
REMARK 922        TOTAL FREE ENERGY PREDICTED BY IDOCK:   -7.06 KCAL/MOL
REMARK 923 INTER-LIGAND FREE ENERGY PREDICTED BY IDOCK:   -6.37 KCAL/MOL
REMARK 924 INTRA-LIGAND FREE ENERGY PREDICTED BY IDOCK:   -0.69 KCAL/MOL
REMARK 927      BINDING AFFINITY PREDICTED BY RF-SCORE:    0.00 PKD
ROOT
HETATM    1  C   UNL     1     -11.048  14.883  69.736  1.00  0.00    -0.274 C  
HETATM    2  O   UNL     1     -11.667  13.760  69.116  1.00  0.00    -0.286 OA 
ENDROOT
BRANCH   2   3
HETATM    3  C   UNL     1     -12.153  12.814  69.995  1.00  0.00    -0.285 A  
HETATM    4  N   UNL     1     -12.749  13.269  71.120  1.00  0.00    -0.352 NA 
HETATM    5  C   UNL     1     -13.200  12.343  71.975  1.00  0.00    -0.409 A  
HETATM    6  N   UNL     1     -13.126  11.023  71.808  1.00  0.00    -0.480 NA 
HETATM    7  C   UNL     1     -12.503  10.627  70.689  1.00  0.00    -0.371 A  
HETATM    8  C   UNL     1     -11.977  11.468  69.712  1.00  0.00    -0.346 A  
BRANCH   7   9
HETATM    9  N   UNL     1     -12.416   9.214  70.590  1.00  0.00    -0.487 N  
HETATM   10  H   UNL     1     -13.000   8.680  69.946  1.00  0.00     0.000 HD 
BRANCH   9  11
HETATM   11  S   UNL     1     -11.292   8.469  71.598  1.00  0.00    -0.320 S  
HETATM   12  O   UNL     1     -12.036   8.001  72.752  1.00  0.00    -0.337 OA 
HETATM   13  O   UNL     1     -10.141   9.330  71.758  1.00  0.00    -0.293 OA 
BRANCH  11  14
HETATM   14  C   UNL     1     -10.799   7.023  70.690  1.00  0.00    -0.246 A  
HETATM   15  C   UNL     1     -10.871   7.014  69.295  1.00  0.00    -0.241 A  
HETATM   16  C   UNL     1     -10.460   5.877  68.592  1.00  0.00    -0.302 A  
HETATM   17  C   UNL     1     -10.019   4.736  69.269  1.00  0.00    -0.184 A  
HETATM   18  C   UNL     1      -9.876   4.792  70.660  1.00  0.00    -0.292 A  
HETATM   19  N   UNL     1      -9.511   3.646  68.553  1.00  0.00    -0.166 NA 
HETATM   20  H2  UNL     1      -8.753   3.978  67.956  1.00  0.00     0.000 HD 
HETATM   21  H1  UNL     1      -9.189   2.813  69.047  1.00  0.00     0.000 HD 
HETATM   22  C   UNL     1     -10.280   5.923  71.376  1.00  0.00    -0.261 A  
ENDBRANCH  11  14
ENDBRANCH   9  11
ENDBRANCH   7   9
BRANCH   8  23
HETATM   23  O   UNL     1     -11.347  10.872  68.657  1.00  0.00    -0.250 OA 
HETATM   24  C   UNL     1      -9.925  10.880  68.632  1.00  0.00    -0.189 C  
ENDBRANCH   8  23
ENDBRANCH   2   3
TORSDOF 5
ENDMDL
MODEL       74
REMARK 921   NORMALIZED FREE ENERGY PREDICTED BY IDOCK:   -5.05 KCAL/MOL
REMARK 922        TOTAL FREE ENERGY PREDICTED BY IDOCK:   -7.04 KCAL/MOL
REMARK 923 INTER-LIGAND FREE ENERGY PREDICTED BY IDOCK:   -6.53 KCAL/MOL
REMARK 924 INTRA-LIGAND FREE ENERGY PREDICTED BY IDOCK:   -0.51 KCAL/MOL
REMARK 927      BINDING AFFINITY PREDICTED BY RF-SCORE:    0.00 PKD
ROOT
HETATM    1  C   UNL     1     -11.712   6.186  72.308  1.00  0.00    -0.302 C  
HETATM    2  O   UNL     1     -11.874   6.781  71.024  1.00  0.00    -0.339 OA 
ENDROOT
BRANCH   2   3
HETATM    3  C   UNL     1     -11.946   8.158  71.035  1.00  0.00    -0.240 A  
HETATM    4  N   UNL     1     -12.942   8.717  71.759  1.00  0.00    -0.343 NA 
HETATM    5  C   UNL     1     -13.014  10.053  71.748  1.00  0.00    -0.458 A  
HETATM    6  N   UNL     1     -12.188  10.875  71.101  1.00  0.00    -0.352 NA 
HETATM    7  C   UNL     1     -11.235  10.268  70.378  1.00  0.00    -0.332 A  
HETATM    8  C   UNL     1     -11.039   8.893  70.286  1.00  0.00    -0.228 A  
BRANCH   7   9
HETATM    9  N   UNL     1     -10.417  11.192  69.677  1.00  0.00    -0.451 N  
HETATM   10  H   UNL     1      -9.589  11.611  70.102  1.00  0.00     0.000 HD 
BRANCH   9  11
HETATM   11  S   UNL     1     -10.893  11.558  68.104  1.00  0.00    -0.232 S  
HETATM   12  O   UNL     1     -12.278  11.145  67.997  1.00  0.00    -0.584 OA 
HETATM   13  O   UNL     1      -9.899  11.070  67.173  1.00  0.00    -0.179 OA 
BRANCH  11  14
HETATM   14  C   UNL     1     -10.887  13.335  68.061  1.00  0.00    -0.243 A  
HETATM   15  C   UNL     1     -11.608  14.060  69.013  1.00  0.00    -0.345 A  
HETATM   16  C   UNL     1     -11.578  15.458  68.980  1.00  0.00    -0.361 A  
HETATM   17  C   UNL     1     -10.871  16.137  67.983  1.00  0.00    -0.333 A  
HETATM   18  C   UNL     1     -10.089  15.397  67.089  1.00  0.00    -0.245 A  
HETATM   19  N   UNL     1     -10.761  17.532  68.024  1.00  0.00    -0.381 NA 
HETATM   20  H2  UNL     1     -10.375  17.798  68.930  1.00  0.00     0.000 HD 
HETATM   21  H1  UNL     1     -10.245  18.027  67.297  1.00  0.00     0.000 HD 
HETATM   22  C   UNL     1     -10.107  13.999  67.112  1.00  0.00    -0.259 A  
ENDBRANCH  11  14
ENDBRANCH   9  11
ENDBRANCH   7   9
BRANCH   8  23
HETATM   23  O   UNL     1     -10.032   8.466  69.468  1.00  0.00    -0.182 OA 
HETATM   24  C   UNL     1      -8.825   8.013  70.071  1.00  0.00    -0.143 C  
ENDBRANCH   8  23
ENDBRANCH   2   3
TORSDOF 5
ENDMDL
MODEL       75
REMARK 921   NORMALIZED FREE ENERGY PREDICTED BY IDOCK:   -5.04 KCAL/MOL
REMARK 922        TOTAL FREE ENERGY PREDICTED BY IDOCK:   -7.02 KCAL/MOL
REMARK 923 INTER-LIGAND FREE ENERGY PREDICTED BY IDOCK:   -6.52 KCAL/MOL
REMARK 924 INTRA-LIGAND FREE ENERGY PREDICTED BY IDOCK:   -0.50 KCAL/MOL
REMARK 927      BINDING AFFINITY PREDICTED BY RF-SCORE:    0.00 PKD
ROOT
HETATM    1  C   UNL     1     -10.077  19.850  69.184  1.00  0.00    -0.244 C  
HETATM    2  O   UNL     1     -10.120  18.426  69.197  1.00  0.00    -0.346 OA 
ENDROOT
BRANCH   2   3
HETATM    3  C   UNL     1     -10.214  17.843  67.950  1.00  0.00    -0.371 A  
HETATM    4  N   UNL     1     -10.538  18.652  66.916  1.00  0.00    -0.403 NA 
HETATM    5  C   UNL     1     -10.644  18.073  65.714  1.00  0.00    -0.169 A  
HETATM    6  N   UNL     1     -10.447  16.782  65.448  1.00  0.00    -0.634 NA 
HETATM    7  C   UNL     1     -10.154  16.022  66.513  1.00  0.00    -0.287 A  
HETATM    8  C   UNL     1     -10.017  16.477  67.822  1.00  0.00    -0.253 A  
BRANCH   7   9
HETATM    9  N   UNL     1     -10.001  14.652  66.174  1.00  0.00    -0.289 N  
HETATM   10  H   UNL     1      -9.082  14.223  66.059  1.00  0.00     0.000 HD 
BRANCH   9  11
HETATM   11  S   UNL     1     -11.424  13.776  65.970  1.00  0.00    -0.337 S  
HETATM   12  O   UNL     1     -11.311  13.119  64.683  1.00  0.00    -0.310 OA 
HETATM   13  O   UNL     1     -12.559  14.619  66.275  1.00  0.00    -0.151 OA 
BRANCH  11  14
HETATM   14  C   UNL     1     -11.317  12.499  67.203  1.00  0.00    -0.324 A  
HETATM   15  C   UNL     1     -11.811  12.725  68.489  1.00  0.00    -0.345 A  
HETATM   16  C   UNL     1     -11.739  11.705  69.443  1.00  0.00    -0.405 A  
HETATM   17  C   UNL     1     -11.142  10.479  69.137  1.00  0.00    -0.250 A  
HETATM   18  C   UNL     1     -10.728  10.241  67.822  1.00  0.00    -0.324 A  
HETATM   19  N   UNL     1     -11.172   9.431  70.065  1.00  0.00    -0.344 NA 
HETATM   20  H2  UNL     1     -12.143   9.260  70.325  1.00  0.00     0.000 HD 
HETATM   21  H1  UNL     1     -10.737   8.535  69.842  1.00  0.00     0.000 HD 
HETATM   22  C   UNL     1     -10.797  11.251  66.857  1.00  0.00    -0.333 A  
ENDBRANCH  11  14
ENDBRANCH   9  11
ENDBRANCH   7   9
BRANCH   8  23
HETATM   23  O   UNL     1      -9.748  15.538  68.777  1.00  0.00    -0.195 OA 
HETATM   24  C   UNL     1      -8.386  15.211  69.031  1.00  0.00    -0.209 C  
ENDBRANCH   8  23
ENDBRANCH   2   3
TORSDOF 5
ENDMDL
MODEL       76
REMARK 921   NORMALIZED FREE ENERGY PREDICTED BY IDOCK:   -5.03 KCAL/MOL
REMARK 922        TOTAL FREE ENERGY PREDICTED BY IDOCK:   -7.00 KCAL/MOL
REMARK 923 INTER-LIGAND FREE ENERGY PREDICTED BY IDOCK:   -7.08 KCAL/MOL
REMARK 924 INTRA-LIGAND FREE ENERGY PREDICTED BY IDOCK:    0.08 KCAL/MOL
REMARK 927      BINDING AFFINITY PREDICTED BY RF-SCORE:    0.00 PKD
ROOT
HETATM    1  C   UNL     1     -10.521   6.906  73.357  1.00  0.00    -0.331 C  
HETATM    2  O   UNL     1     -10.418   8.299  73.076  1.00  0.00    -0.271 OA 
ENDROOT
BRANCH   2   3
HETATM    3  C   UNL     1     -10.381   8.612  71.733  1.00  0.00    -0.316 A  
HETATM    4  N   UNL     1      -9.371   8.085  71.006  1.00  0.00    -0.147 NA 
HETATM    5  C   UNL     1      -9.334   8.411  69.708  1.00  0.00    -0.158 A  
HETATM    6  N   UNL     1     -10.207   9.192  69.073  1.00  0.00    -0.202 NA 
HETATM    7  C   UNL     1     -11.173   9.709  69.847  1.00  0.00    -0.207 A  
HETATM    8  C   UNL     1     -11.337   9.469  71.208  1.00  0.00    -0.376 A  
BRANCH   7   9
HETATM    9  N   UNL     1     -12.043  10.566  69.124  1.00  0.00    -0.538 N  
HETATM   10  H   UNL     1     -13.049  10.398  69.073  1.00  0.00     0.000 HD 
BRANCH   9  11
HETATM   11  S   UNL     1     -11.320  11.878  68.355  1.00  0.00    -0.303 S  
HETATM   12  O   UNL     1     -12.156  12.184  67.211  1.00  0.00    -0.565 OA 
HETATM   13  O   UNL     1      -9.905  11.622  68.193  1.00  0.00    -0.178 OA 
BRANCH  11  14
HETATM   14  C   UNL     1     -11.528  13.214  69.508  1.00  0.00    -0.226 A  
HETATM   15  C   UNL     1     -10.879  14.432  69.293  1.00  0.00    -0.261 A  
HETATM   16  C   UNL     1     -11.068  15.482  70.198  1.00  0.00    -0.337 A  
HETATM   17  C   UNL     1     -11.864  15.314  71.334  1.00  0.00    -0.372 A  
HETATM   18  C   UNL     1     -12.571  14.117  71.490  1.00  0.00    -0.434 A  
HETATM   19  N   UNL     1     -12.131  16.402  72.174  1.00  0.00    -0.619 NA 
HETATM   20  H2  UNL     1     -12.530  17.153  71.610  1.00  0.00     0.000 HD 
HETATM   21  H1  UNL     1     -12.712  16.280  73.003  1.00  0.00     0.000 HD 
HETATM   22  C   UNL     1     -12.394  13.060  70.593  1.00  0.00    -0.391 A  
ENDBRANCH  11  14
ENDBRANCH   9  11
ENDBRANCH   7   9
BRANCH   8  23
HETATM   23  O   UNL     1     -12.367  10.117  71.830  1.00  0.00    -0.388 OA 
HETATM   24  C   UNL     1     -13.559   9.385  72.092  1.00  0.00    -0.457 C  
ENDBRANCH   8  23
ENDBRANCH   2   3
TORSDOF 5
ENDMDL
MODEL       77
REMARK 921   NORMALIZED FREE ENERGY PREDICTED BY IDOCK:   -5.01 KCAL/MOL
REMARK 922        TOTAL FREE ENERGY PREDICTED BY IDOCK:   -6.98 KCAL/MOL
REMARK 923 INTER-LIGAND FREE ENERGY PREDICTED BY IDOCK:   -6.57 KCAL/MOL
REMARK 924 INTRA-LIGAND FREE ENERGY PREDICTED BY IDOCK:   -0.41 KCAL/MOL
REMARK 927      BINDING AFFINITY PREDICTED BY RF-SCORE:    0.00 PKD
ROOT
HETATM    1  C   UNL     1     -10.681   5.923  70.725  1.00  0.00    -0.277 C  
HETATM    2  O   UNL     1      -9.859   7.045  70.413  1.00  0.00    -0.179 OA 
ENDROOT
BRANCH   2   3
HETATM    3  C   UNL     1     -10.139   7.643  69.203  1.00  0.00    -0.194 A  
HETATM    4  N   UNL     1      -9.972   6.892  68.091  1.00  0.00    -0.150 NA 
HETATM    5  C   UNL     1     -10.229   7.488  66.921  1.00  0.00    -0.289 A  
HETATM    6  N   UNL     1     -10.645   8.743  66.758  1.00  0.00    -0.217 NA 
HETATM    7  C   UNL     1     -10.769   9.451  67.890  1.00  0.00    -0.210 A  
HETATM    8  C   UNL     1     -10.532   8.973  69.176  1.00  0.00    -0.225 A  
BRANCH   7   9
HETATM    9  N   UNL     1     -11.170  10.791  67.649  1.00  0.00    -0.317 N  
HETATM   10  H   UNL     1     -12.154  11.060  67.599  1.00  0.00     0.000 HD 
BRANCH   9  11
HETATM   11  S   UNL     1      -9.930  11.911  67.448  1.00  0.00    -0.190 S  
HETATM   12  O   UNL     1      -8.877  11.219  66.731  1.00  0.00    -0.159 OA 
HETATM   13  O   UNL     1      -9.661  12.566  68.709  1.00  0.00    -0.095 OA 
BRANCH  11  14
HETATM   14  C   UNL     1     -10.613  13.105  66.321  1.00  0.00    -0.284 A  
HETATM   15  C   UNL     1     -11.883  12.906  65.777  1.00  0.00    -0.469 A  
HETATM   16  C   UNL     1     -12.418  13.863  64.908  1.00  0.00    -0.420 A  
HETATM   17  C   UNL     1     -11.680  14.994  64.547  1.00  0.00    -0.368 A  
HETATM   18  C   UNL     1     -10.445  15.218  65.165  1.00  0.00    -0.438 A  
HETATM   19  N   UNL     1     -12.265  15.995  63.763  1.00  0.00    -1.134 NA 
HETATM   20  H2  UNL     1     -13.122  16.304  64.223  1.00  0.00     0.000 HD 
HETATM   21  H1  UNL     1     -11.727  16.821  63.499  1.00  0.00     0.000 HD 
HETATM   22  C   UNL     1      -9.900  14.271  66.037  1.00  0.00    -0.336 A  
ENDBRANCH  11  14
ENDBRANCH   9  11
ENDBRANCH   7   9
BRANCH   8  23
HETATM   23  O   UNL     1     -10.682   9.861  70.203  1.00  0.00    -0.263 OA 
HETATM   24  C   UNL     1     -11.862   9.779  70.995  1.00  0.00    -0.356 C  
ENDBRANCH   8  23
ENDBRANCH   2   3
TORSDOF 5
ENDMDL
MODEL       78
REMARK 921   NORMALIZED FREE ENERGY PREDICTED BY IDOCK:   -5.01 KCAL/MOL
REMARK 922        TOTAL FREE ENERGY PREDICTED BY IDOCK:   -6.98 KCAL/MOL
REMARK 923 INTER-LIGAND FREE ENERGY PREDICTED BY IDOCK:   -6.46 KCAL/MOL
REMARK 924 INTRA-LIGAND FREE ENERGY PREDICTED BY IDOCK:   -0.52 KCAL/MOL
REMARK 927      BINDING AFFINITY PREDICTED BY RF-SCORE:    0.00 PKD
ROOT
HETATM    1  C   UNL     1      -9.459  10.756  62.819  1.00  0.00    -0.331 C  
HETATM    2  O   UNL     1      -9.343  11.354  64.107  1.00  0.00    -0.162 OA 
ENDROOT
BRANCH   2   3
HETATM    3  C   UNL     1      -9.786  10.566  65.148  1.00  0.00    -0.297 A  
HETATM    4  N   UNL     1      -9.363   9.282  65.172  1.00  0.00    -0.219 NA 
HETATM    5  C   UNL     1      -9.813   8.521  66.176  1.00  0.00    -0.157 A  
HETATM    6  N   UNL     1     -10.626   8.919  67.154  1.00  0.00    -0.274 NA 
HETATM    7  C   UNL     1     -11.036  10.193  67.068  1.00  0.00    -0.092 A  
HETATM    8  C   UNL     1     -10.660  11.101  66.082  1.00  0.00    -0.248 A  
BRANCH   7   9
HETATM    9  N   UNL     1     -11.933  10.544  68.111  1.00  0.00    -0.227 N  
HETATM   10  H   UNL     1     -12.912  10.769  67.929  1.00  0.00     0.000 HD 
BRANCH   9  11
HETATM   11  S   UNL     1     -11.288  10.567  69.666  1.00  0.00    -0.299 S  
HETATM   12  O   UNL     1      -9.891  10.924  69.516  1.00  0.00    -0.103 OA 
HETATM   13  O   UNL     1     -11.674   9.362  70.367  1.00  0.00    -0.239 OA 
BRANCH  11  14
HETATM   14  C   UNL     1     -12.088  11.955  70.437  1.00  0.00    -0.333 A  
HETATM   15  C   UNL     1     -12.849  11.771  71.593  1.00  0.00    -0.433 A  
HETATM   16  C   UNL     1     -13.456  12.875  72.201  1.00  0.00    -0.619 A  
HETATM   17  C   UNL     1     -13.343  14.151  71.643  1.00  0.00    -0.364 A  
HETATM   18  C   UNL     1     -12.510  14.331  70.533  1.00  0.00    -0.428 A  
HETATM   19  N   UNL     1     -13.864  15.262  72.317  1.00  0.00    -0.483 NA 
HETATM   20  H2  UNL     1     -13.465  15.285  73.255  1.00  0.00     0.000 HD 
HETATM   21  H1  UNL     1     -13.782  16.194  71.910  1.00  0.00     0.000 HD 
HETATM   22  C   UNL     1     -11.895  13.237  69.917  1.00  0.00    -0.380 A  
ENDBRANCH  11  14
ENDBRANCH   9  11
ENDBRANCH   7   9
BRANCH   8  23
HETATM   23  O   UNL     1     -11.214  12.348  66.148  1.00  0.00    -0.291 OA 
HETATM   24  C   UNL     1     -12.208  12.693  65.190  1.00  0.00    -0.481 C  
ENDBRANCH   8  23
ENDBRANCH   2   3
TORSDOF 5
ENDMDL
MODEL       79
REMARK 921   NORMALIZED FREE ENERGY PREDICTED BY IDOCK:   -5.01 KCAL/MOL
REMARK 922        TOTAL FREE ENERGY PREDICTED BY IDOCK:   -6.98 KCAL/MOL
REMARK 923 INTER-LIGAND FREE ENERGY PREDICTED BY IDOCK:   -6.53 KCAL/MOL
REMARK 924 INTRA-LIGAND FREE ENERGY PREDICTED BY IDOCK:   -0.45 KCAL/MOL
REMARK 927      BINDING AFFINITY PREDICTED BY RF-SCORE:    0.00 PKD
ROOT
HETATM    1  C   UNL     1     -12.084  14.327  64.596  1.00  0.00    -0.463 C  
HETATM    2  O   UNL     1     -12.384  14.248  65.986  1.00  0.00    -0.432 OA 
ENDROOT
BRANCH   2   3
HETATM    3  C   UNL     1     -11.830  13.163  66.633  1.00  0.00    -0.391 A  
HETATM    4  N   UNL     1     -11.405  12.138  65.861  1.00  0.00    -0.344 NA 
HETATM    5  C   UNL     1     -10.887  11.082  66.499  1.00  0.00    -0.209 A  
HETATM    6  N   UNL     1     -10.741  10.961  67.818  1.00  0.00    -0.216 NA 
HETATM    7  C   UNL     1     -11.201  11.995  68.537  1.00  0.00    -0.256 A  
HETATM    8  C   UNL     1     -11.771  13.154  68.019  1.00  0.00    -0.355 A  
BRANCH   7   9
HETATM    9  N   UNL     1     -11.059  11.788  69.935  1.00  0.00    -0.474 N  
HETATM   10  H   UNL     1     -10.222  12.076  70.442  1.00  0.00     0.000 HD 
BRANCH   9  11
HETATM   11  S   UNL     1     -12.353  11.037  70.707  1.00  0.00    -0.408 S  
HETATM   12  O   UNL     1     -13.273  10.643  69.659  1.00  0.00     0.039 OA 
HETATM   13  O   UNL     1     -12.797  11.857  71.813  1.00  0.00    -0.358 OA 
BRANCH  11  14
HETATM   14  C   UNL     1     -11.650   9.540  71.357  1.00  0.00    -0.395 A  
HETATM   15  C   UNL     1     -12.357   8.782  72.293  1.00  0.00    -0.448 A  
HETATM   16  C   UNL     1     -11.801   7.595  72.780  1.00  0.00    -0.205 A  
HETATM   17  C   UNL     1     -10.529   7.180  72.373  1.00  0.00    -0.218 A  
HETATM   18  C   UNL     1      -9.871   7.906  71.374  1.00  0.00    -0.203 A  
HETATM   19  N   UNL     1     -10.029   5.938  72.784  1.00  0.00    -0.177 NA 
HETATM   20  H2  UNL     1     -10.702   5.218  72.522  1.00  0.00     0.000 HD 
HETATM   21  H1  UNL     1      -9.102   5.635  72.487  1.00  0.00     0.000 HD 
HETATM   22  C   UNL     1     -10.417   9.093  70.876  1.00  0.00    -0.347 A  
ENDBRANCH  11  14
ENDBRANCH   9  11
ENDBRANCH   7   9
BRANCH   8  23
HETATM   23  O   UNL     1     -12.212  14.082  68.919  1.00  0.00    -0.345 OA 
HETATM   24  C   UNL     1     -11.513  15.319  69.004  1.00  0.00    -0.324 C  
ENDBRANCH   8  23
ENDBRANCH   2   3
TORSDOF 5
ENDMDL
MODEL       80
REMARK 921   NORMALIZED FREE ENERGY PREDICTED BY IDOCK:   -4.99 KCAL/MOL
REMARK 922        TOTAL FREE ENERGY PREDICTED BY IDOCK:   -6.95 KCAL/MOL
REMARK 923 INTER-LIGAND FREE ENERGY PREDICTED BY IDOCK:   -6.59 KCAL/MOL
REMARK 924 INTRA-LIGAND FREE ENERGY PREDICTED BY IDOCK:   -0.36 KCAL/MOL
REMARK 927      BINDING AFFINITY PREDICTED BY RF-SCORE:    0.00 PKD
ROOT
HETATM    1  C   UNL     1     -12.195  14.603  64.340  1.00  0.00    -0.452 C  
HETATM    2  O   UNL     1     -11.039  14.207  65.072  1.00  0.00    -0.334 OA 
ENDROOT
BRANCH   2   3
HETATM    3  C   UNL     1     -11.306  13.530  66.244  1.00  0.00    -0.309 A  
HETATM    4  N   UNL     1     -11.651  14.274  67.319  1.00  0.00    -0.358 NA 
HETATM    5  C   UNL     1     -11.889  13.609  68.456  1.00  0.00    -0.371 A  
HETATM    6  N   UNL     1     -11.830  12.287  68.616  1.00  0.00    -0.319 NA 
HETATM    7  C   UNL     1     -11.458  11.601  67.525  1.00  0.00    -0.289 A  
HETATM    8  C   UNL     1     -11.171  12.150  66.279  1.00  0.00    -0.334 A  
BRANCH   7   9
HETATM    9  N   UNL     1     -11.369  10.205  67.770  1.00  0.00    -0.453 N  
HETATM   10  H   UNL     1     -12.110   9.559  67.494  1.00  0.00     0.000 HD 
BRANCH   9  11
HETATM   11  S   UNL     1      -9.969   9.676  68.541  1.00  0.00    -0.172 S  
HETATM   12  O   UNL     1      -9.415  10.837  69.209  1.00  0.00    -0.176 OA 
HETATM   13  O   UNL     1      -9.170   8.902  67.615  1.00  0.00    -0.136 OA 
BRANCH  11  14
HETATM   14  C   UNL     1     -10.569   8.594  69.816  1.00  0.00    -0.224 A  
HETATM   15  C   UNL     1     -10.997   9.120  71.037  1.00  0.00    -0.375 A  
HETATM   16  C   UNL     1     -11.487   8.259  72.025  1.00  0.00    -0.399 A  
HETATM   17  C   UNL     1     -11.515   6.877  71.820  1.00  0.00    -0.275 A  
HETATM   18  C   UNL     1     -11.161   6.375  70.563  1.00  0.00    -0.414 A  
HETATM   19  N   UNL     1     -12.106   6.037  72.771  1.00  0.00    -0.520 NA 
HETATM   20  H2  UNL     1     -13.060   6.357  72.935  1.00  0.00     0.000 HD 
HETATM   21  H1  UNL     1     -12.127   5.028  72.622  1.00  0.00     0.000 HD 
HETATM   22  C   UNL     1     -10.672   7.224  69.565  1.00  0.00    -0.244 A  
ENDBRANCH  11  14
ENDBRANCH   9  11
ENDBRANCH   7   9
BRANCH   8  23
HETATM   23  O   UNL     1     -10.775  11.285  65.298  1.00  0.00    -0.281 OA 
HETATM   24  C   UNL     1      -9.403  11.280  64.922  1.00  0.00    -0.159 C  
ENDBRANCH   8  23
ENDBRANCH   2   3
TORSDOF 5
ENDMDL
MODEL       81
REMARK 921   NORMALIZED FREE ENERGY PREDICTED BY IDOCK:   -4.98 KCAL/MOL
REMARK 922        TOTAL FREE ENERGY PREDICTED BY IDOCK:   -6.95 KCAL/MOL
REMARK 923 INTER-LIGAND FREE ENERGY PREDICTED BY IDOCK:   -6.61 KCAL/MOL
REMARK 924 INTRA-LIGAND FREE ENERGY PREDICTED BY IDOCK:   -0.33 KCAL/MOL
REMARK 927      BINDING AFFINITY PREDICTED BY RF-SCORE:    0.00 PKD
ROOT
HETATM    1  C   UNL     1      -7.573   8.044  65.318  1.00  0.00    -0.085 C  
HETATM    2  O   UNL     1      -8.916   8.518  65.313  1.00  0.00    -0.154 OA 
ENDROOT
BRANCH   2   3
HETATM    3  C   UNL     1      -9.057   9.849  65.646  1.00  0.00    -0.178 A  
HETATM    4  N   UNL     1      -8.665  10.218  66.887  1.00  0.00    -0.126 NA 
HETATM    5  C   UNL     1      -8.823  11.508  67.206  1.00  0.00    -0.160 A  
HETATM    6  N   UNL     1      -9.316  12.455  66.409  1.00  0.00    -0.233 NA 
HETATM    7  C   UNL     1      -9.712  12.031  65.200  1.00  0.00    -0.144 A  
HETATM    8  C   UNL     1      -9.619  10.724  64.729  1.00  0.00    -0.262 A  
BRANCH   7   9
HETATM    9  N   UNL     1     -10.268  13.075  64.416  1.00  0.00    -0.573 N  
HETATM   10  H   UNL     1      -9.759  13.497  63.638  1.00  0.00     0.000 HD 
BRANCH   9  11
HETATM   11  S   UNL     1     -11.817  13.578  64.844  1.00  0.00    -0.396 S  
HETATM   12  O   UNL     1     -12.516  12.390  65.291  1.00  0.00    -0.611 OA 
HETATM   13  O   UNL     1     -12.363  14.408  63.792  1.00  0.00    -0.736 OA 
BRANCH  11  14
HETATM   14  C   UNL     1     -11.553  14.586  66.284  1.00  0.00    -0.360 A  
HETATM   15  C   UNL     1     -12.139  14.234  67.502  1.00  0.00    -0.347 A  
HETATM   16  C   UNL     1     -11.906  15.024  68.632  1.00  0.00    -0.325 A  
HETATM   17  C   UNL     1     -11.130  16.183  68.548  1.00  0.00    -0.357 A  
HETATM   18  C   UNL     1     -10.484  16.475  67.341  1.00  0.00    -0.310 A  
HETATM   19  N   UNL     1     -10.816  16.906  69.705  1.00  0.00    -0.368 NA 
HETATM   20  H2  UNL     1     -10.375  16.271  70.371  1.00  0.00     0.000 HD 
HETATM   21  H1  UNL     1     -10.249  17.752  69.644  1.00  0.00     0.000 HD 
HETATM   22  C   UNL     1     -10.705  15.692  66.204  1.00  0.00    -0.305 A  
ENDBRANCH  11  14
ENDBRANCH   9  11
ENDBRANCH   7   9
BRANCH   8  23
HETATM   23  O   UNL     1     -10.109  10.483  63.477  1.00  0.00    -0.286 OA 
HETATM   24  C   UNL     1      -9.184  10.171  62.442  1.00  0.00    -0.297 C  
ENDBRANCH   8  23
ENDBRANCH   2   3
TORSDOF 5
ENDMDL
MODEL       82
REMARK 921   NORMALIZED FREE ENERGY PREDICTED BY IDOCK:   -4.96 KCAL/MOL
REMARK 922        TOTAL FREE ENERGY PREDICTED BY IDOCK:   -6.91 KCAL/MOL
REMARK 923 INTER-LIGAND FREE ENERGY PREDICTED BY IDOCK:   -6.39 KCAL/MOL
REMARK 924 INTRA-LIGAND FREE ENERGY PREDICTED BY IDOCK:   -0.53 KCAL/MOL
REMARK 927      BINDING AFFINITY PREDICTED BY RF-SCORE:    0.00 PKD
ROOT
HETATM    1  C   UNL     1     -10.361  11.664  63.391  1.00  0.00    -0.435 C  
HETATM    2  O   UNL     1     -10.275  11.998  64.773  1.00  0.00    -0.265 OA 
ENDROOT
BRANCH   2   3
HETATM    3  C   UNL     1     -10.082  10.922  65.614  1.00  0.00    -0.261 A  
HETATM    4  N   UNL     1      -9.131  10.028  65.261  1.00  0.00    -0.183 NA 
HETATM    5  C   UNL     1      -8.964   8.978  66.073  1.00  0.00    -0.185 A  
HETATM    6  N   UNL     1      -9.640   8.745  67.198  1.00  0.00    -0.164 NA 
HETATM    7  C   UNL     1     -10.588   9.648  67.487  1.00  0.00    -0.277 A  
HETATM    8  C   UNL     1     -10.882  10.784  66.738  1.00  0.00    -0.194 A  
BRANCH   7   9
HETATM    9  N   UNL     1     -11.302   9.322  68.670  1.00  0.00    -0.332 N  
HETATM   10  H   UNL     1     -12.173   8.790  68.646  1.00  0.00     0.000 HD 
BRANCH   9  11
HETATM   11  S   UNL     1     -10.629   9.865  70.114  1.00  0.00    -0.312 S  
HETATM   12  O   UNL     1     -11.545  10.862  70.634  1.00  0.00    -0.328 OA 
HETATM   13  O   UNL     1      -9.232  10.177  69.909  1.00  0.00    -0.192 OA 
BRANCH  11  14
HETATM   14  C   UNL     1     -10.745   8.457  71.193  1.00  0.00    -0.230 A  
HETATM   15  C   UNL     1     -10.102   8.470  72.433  1.00  0.00    -0.365 A  
HETATM   16  C   UNL     1     -10.219   7.363  73.280  1.00  0.00    -0.386 A  
HETATM   17  C   UNL     1     -10.934   6.230  72.884  1.00  0.00    -0.254 A  
HETATM   18  C   UNL     1     -11.639   6.266  71.676  1.00  0.00    -0.353 A  
HETATM   19  N   UNL     1     -11.133   5.174  73.782  1.00  0.00    -0.409 NA 
HETATM   20  H2  UNL     1     -11.564   5.547  74.627  1.00  0.00     0.000 HD 
HETATM   21  H1  UNL     1     -11.655   4.346  73.493  1.00  0.00     0.000 HD 
HETATM   22  C   UNL     1     -11.534   7.367  70.820  1.00  0.00    -0.313 A  
ENDBRANCH  11  14
ENDBRANCH   9  11
ENDBRANCH   7   9
BRANCH   8  23
HETATM   23  O   UNL     1     -11.911  11.566  67.180  1.00  0.00    -0.595 OA 
HETATM   24  C   UNL     1     -11.595  12.838  67.735  1.00  0.00    -0.353 C  
ENDBRANCH   8  23
ENDBRANCH   2   3
TORSDOF 5
ENDMDL
MODEL       83
REMARK 921   NORMALIZED FREE ENERGY PREDICTED BY IDOCK:   -4.95 KCAL/MOL
REMARK 922        TOTAL FREE ENERGY PREDICTED BY IDOCK:   -6.91 KCAL/MOL
REMARK 923 INTER-LIGAND FREE ENERGY PREDICTED BY IDOCK:   -6.28 KCAL/MOL
REMARK 924 INTRA-LIGAND FREE ENERGY PREDICTED BY IDOCK:   -0.63 KCAL/MOL
REMARK 927      BINDING AFFINITY PREDICTED BY RF-SCORE:    0.00 PKD
ROOT
HETATM    1  C   UNL     1     -11.320  14.935  67.443  1.00  0.00    -0.347 C  
HETATM    2  O   UNL     1     -12.172  13.853  67.077  1.00  0.00    -0.421 OA 
ENDROOT
BRANCH   2   3
HETATM    3  C   UNL     1     -11.511  12.690  66.743  1.00  0.00    -0.351 A  
HETATM    4  N   UNL     1     -10.793  12.698  65.597  1.00  0.00    -0.269 NA 
HETATM    5  C   UNL     1     -10.171  11.558  65.272  1.00  0.00    -0.267 A  
HETATM    6  N   UNL     1     -10.186  10.430  65.981  1.00  0.00    -0.243 NA 
HETATM    7  C   UNL     1     -10.933  10.470  67.094  1.00  0.00    -0.228 A  
HETATM    8  C   UNL     1     -11.641  11.575  67.557  1.00  0.00    -0.246 A  
BRANCH   7   9
HETATM    9  N   UNL     1     -10.946   9.227  67.781  1.00  0.00    -0.493 N  
HETATM   10  H   UNL     1     -11.749   8.598  67.745  1.00  0.00     0.000 HD 
BRANCH   9  11
HETATM   11  S   UNL     1      -9.559   8.852  68.659  1.00  0.00    -0.156 S  
HETATM   12  O   UNL     1      -9.102  10.100  69.240  1.00  0.00    -0.175 OA 
HETATM   13  O   UNL     1      -8.676   8.045  67.846  1.00  0.00    -0.128 OA 
BRANCH  11  14
HETATM   14  C   UNL     1     -10.164   7.857  70.003  1.00  0.00    -0.208 A  
HETATM   15  C   UNL     1     -10.106   8.339  71.312  1.00  0.00    -0.249 A  
HETATM   16  C   UNL     1     -10.604   7.554  72.357  1.00  0.00    -0.299 A  
HETATM   17  C   UNL     1     -11.120   6.279  72.112  1.00  0.00    -0.269 A  
HETATM   18  C   UNL     1     -11.246   5.847  70.787  1.00  0.00    -0.281 A  
HETATM   19  N   UNL     1     -11.713   5.548  73.149  1.00  0.00    -0.527 NA 
HETATM   20  H2  UNL     1     -12.449   6.119  73.564  1.00  0.00     0.000 HD 
HETATM   21  H1  UNL     1     -12.090   4.617  72.970  1.00  0.00     0.000 HD 
HETATM   22  C   UNL     1     -10.755   6.622  69.732  1.00  0.00    -0.304 A  
ENDBRANCH  11  14
ENDBRANCH   9  11
ENDBRANCH   7   9
BRANCH   8  23
HETATM   23  O   UNL     1     -12.373  11.406  68.697  1.00  0.00    -0.491 OA 
HETATM   24  C   UNL     1     -11.889  11.995  69.899  1.00  0.00    -0.331 C  
ENDBRANCH   8  23
ENDBRANCH   2   3
TORSDOF 5
ENDMDL
MODEL       84
REMARK 921   NORMALIZED FREE ENERGY PREDICTED BY IDOCK:   -4.95 KCAL/MOL
REMARK 922        TOTAL FREE ENERGY PREDICTED BY IDOCK:   -6.90 KCAL/MOL
REMARK 923 INTER-LIGAND FREE ENERGY PREDICTED BY IDOCK:   -6.25 KCAL/MOL
REMARK 924 INTRA-LIGAND FREE ENERGY PREDICTED BY IDOCK:   -0.65 KCAL/MOL
REMARK 927      BINDING AFFINITY PREDICTED BY RF-SCORE:    0.00 PKD
ROOT
HETATM    1  C   UNL     1      -6.832  20.315  64.987  1.00  0.00    -0.237 C  
HETATM    2  O   UNL     1      -6.919  19.769  66.300  1.00  0.00    -0.213 OA 
ENDROOT
BRANCH   2   3
HETATM    3  C   UNL     1      -8.191  19.401  66.686  1.00  0.00    -0.306 A  
HETATM    4  N   UNL     1      -8.959  20.355  67.261  1.00  0.00    -0.355 NA 
HETATM    5  C   UNL     1     -10.184  19.983  67.649  1.00  0.00    -0.408 A  
HETATM    6  N   UNL     1     -10.714  18.768  67.507  1.00  0.00    -0.440 NA 
HETATM    7  C   UNL     1      -9.901  17.856  66.955  1.00  0.00    -0.314 A  
HETATM    8  C   UNL     1      -8.603  18.089  66.510  1.00  0.00    -0.258 A  
BRANCH   7   9
HETATM    9  N   UNL     1     -10.505  16.573  66.872  1.00  0.00    -0.301 N  
HETATM   10  H   UNL     1     -10.833  16.187  65.987  1.00  0.00     0.000 HD 
BRANCH   9  11
HETATM   11  S   UNL     1     -10.648  15.727  68.321  1.00  0.00    -0.282 S  
HETATM   12  O   UNL     1     -12.013  15.925  68.768  1.00  0.00    -0.368 OA 
HETATM   13  O   UNL     1      -9.532  16.051  69.182  1.00  0.00    -0.228 OA 
BRANCH  11  14
HETATM   14  C   UNL     1     -10.514  14.023  67.833  1.00  0.00    -0.241 A  
HETATM   15  C   UNL     1      -9.447  13.246  68.289  1.00  0.00    -0.209 A  
HETATM   16  C   UNL     1      -9.365  11.901  67.914  1.00  0.00    -0.187 A  
HETATM   17  C   UNL     1     -10.314  11.338  67.056  1.00  0.00    -0.227 A  
HETATM   18  C   UNL     1     -11.419  12.107  66.676  1.00  0.00    -0.426 A  
HETATM   19  N   UNL     1     -10.281   9.967  66.775  1.00  0.00    -0.233 NA 
HETATM   20  H2  UNL     1     -10.303   9.457  67.658  1.00  0.00     0.000 HD 
HETATM   21  H1  UNL     1     -10.974   9.555  66.148  1.00  0.00     0.000 HD 
HETATM   22  C   UNL     1     -11.516  13.452  67.046  1.00  0.00    -0.372 A  
ENDBRANCH  11  14
ENDBRANCH   9  11
ENDBRANCH   7   9
BRANCH   8  23
HETATM   23  O   UNL     1      -7.921  17.018  66.006  1.00  0.00    -0.435 OA 
HETATM   24  C   UNL     1      -6.956  16.385  66.838  1.00  0.00    -0.212 C  
ENDBRANCH   8  23
ENDBRANCH   2   3
TORSDOF 5
ENDMDL
MODEL       85
REMARK 921   NORMALIZED FREE ENERGY PREDICTED BY IDOCK:   -4.91 KCAL/MOL
REMARK 922        TOTAL FREE ENERGY PREDICTED BY IDOCK:   -6.86 KCAL/MOL
REMARK 923 INTER-LIGAND FREE ENERGY PREDICTED BY IDOCK:   -6.26 KCAL/MOL
REMARK 924 INTRA-LIGAND FREE ENERGY PREDICTED BY IDOCK:   -0.60 KCAL/MOL
REMARK 927      BINDING AFFINITY PREDICTED BY RF-SCORE:    0.00 PKD
ROOT
HETATM    1  C   UNL     1      -5.749  20.702  69.631  1.00  0.00    -0.357 C  
HETATM    2  O   UNL     1      -5.317  19.447  69.115  1.00  0.00    -0.195 OA 
ENDROOT
BRANCH   2   3
HETATM    3  C   UNL     1      -5.879  19.099  67.904  1.00  0.00    -0.198 A  
HETATM    4  N   UNL     1      -5.513  19.827  66.825  1.00  0.00    -0.167 NA 
HETATM    5  C   UNL     1      -6.079  19.494  65.659  1.00  0.00    -0.198 A  
HETATM    6  N   UNL     1      -6.953  18.506  65.468  1.00  0.00    -0.516 NA 
HETATM    7  C   UNL     1      -7.301  17.834  66.575  1.00  0.00    -0.248 A  
HETATM    8  C   UNL     1      -6.806  18.069  67.855  1.00  0.00    -0.199 A  
BRANCH   7   9
HETATM    9  N   UNL     1      -8.267  16.827  66.316  1.00  0.00    -0.317 N  
HETATM   10  H   UNL     1      -8.002  15.889  66.014  1.00  0.00     0.000 HD 
BRANCH   9  11
HETATM   11  S   UNL     1      -9.876  17.271  66.535  1.00  0.00    -0.310 S  
HETATM   12  O   UNL     1     -10.549  16.972  65.286  1.00  0.00    -0.647 OA 
HETATM   13  O   UNL     1      -9.937  18.596  67.113  1.00  0.00    -0.305 OA 
BRANCH  11  14
HETATM   14  C   UNL     1     -10.480  16.101  67.730  1.00  0.00    -0.295 A  
HETATM   15  C   UNL     1     -11.515  16.458  68.597  1.00  0.00    -0.224 A  
HETATM   16  C   UNL     1     -11.995  15.521  69.519  1.00  0.00    -0.372 A  
HETATM   17  C   UNL     1     -11.423  14.249  69.610  1.00  0.00    -0.282 A  
HETATM   18  C   UNL     1     -10.445  13.881  68.679  1.00  0.00    -0.249 A  
HETATM   19  N   UNL     1     -11.981  13.286  70.460  1.00  0.00    -0.523 NA 
HETATM   20  H2  UNL     1     -12.967  13.179  70.221  1.00  0.00     0.000 HD 
HETATM   21  H1  UNL     1     -11.564  12.357  70.527  1.00  0.00     0.000 HD 
HETATM   22  C   UNL     1      -9.958  14.807  67.751  1.00  0.00    -0.223 A  
ENDBRANCH  11  14
ENDBRANCH   9  11
ENDBRANCH   7   9
BRANCH   8  23
HETATM   23  O   UNL     1      -7.309  17.297  68.863  1.00  0.00    -0.241 OA 
HETATM   24  C   UNL     1      -6.487  16.263  69.392  1.00  0.00    -0.197 C  
ENDBRANCH   8  23
ENDBRANCH   2   3
TORSDOF 5
ENDMDL
MODEL       86
REMARK 921   NORMALIZED FREE ENERGY PREDICTED BY IDOCK:   -4.88 KCAL/MOL
REMARK 922        TOTAL FREE ENERGY PREDICTED BY IDOCK:   -6.82 KCAL/MOL
REMARK 923 INTER-LIGAND FREE ENERGY PREDICTED BY IDOCK:   -6.59 KCAL/MOL
REMARK 924 INTRA-LIGAND FREE ENERGY PREDICTED BY IDOCK:   -0.23 KCAL/MOL
REMARK 927      BINDING AFFINITY PREDICTED BY RF-SCORE:    0.00 PKD
ROOT
HETATM    1  C   UNL     1     -10.206   8.475  66.947  1.00  0.00    -0.305 C  
HETATM    2  O   UNL     1     -10.124   9.859  66.618  1.00  0.00    -0.212 OA 
ENDROOT
BRANCH   2   3
HETATM    3  C   UNL     1     -10.574  10.712  67.604  1.00  0.00    -0.246 A  
HETATM    4  N   UNL     1     -11.692  10.346  68.270  1.00  0.00    -0.307 NA 
HETATM    5  C   UNL     1     -12.131  11.190  69.212  1.00  0.00    -0.308 A  
HETATM    6  N   UNL     1     -11.558  12.342  69.557  1.00  0.00    -0.293 NA 
HETATM    7  C   UNL     1     -10.467  12.668  68.848  1.00  0.00    -0.080 A  
HETATM    8  C   UNL     1      -9.898  11.900  67.836  1.00  0.00    -0.190 A  
BRANCH   7   9
HETATM    9  N   UNL     1      -9.930  13.925  69.230  1.00  0.00    -0.409 N  
HETATM   10  H   UNL     1      -9.113  14.002  69.838  1.00  0.00     0.000 HD 
BRANCH   9  11
HETATM   11  S   UNL     1     -10.717  15.283  68.622  1.00  0.00    -0.255 S  
HETATM   12  O   UNL     1      -9.696  16.300  68.458  1.00  0.00    -0.212 OA 
HETATM   13  O   UNL     1     -11.904  15.545  69.407  1.00  0.00    -0.343 OA 
BRANCH  11  14
HETATM   14  C   UNL     1     -11.213  14.791  66.988  1.00  0.00    -0.345 A  
HETATM   15  C   UNL     1     -12.473  14.225  66.779  1.00  0.00    -0.136 A  
HETATM   16  C   UNL     1     -12.858  13.861  65.485  1.00  0.00    -0.471 A  
HETATM   17  C   UNL     1     -11.983  14.018  64.406  1.00  0.00    -0.454 A  
HETATM   18  C   UNL     1     -10.760  14.662  64.620  1.00  0.00    -0.309 A  
HETATM   19  N   UNL     1     -12.419  13.751  63.103  1.00  0.00    -1.074 NA 
HETATM   20  H2  UNL     1     -13.255  14.307  62.923  1.00  0.00     0.000 HD 
HETATM   21  H1  UNL     1     -11.781  13.866  62.315  1.00  0.00     0.000 HD 
HETATM   22  C   UNL     1     -10.363  15.034  65.908  1.00  0.00    -0.329 A  
ENDBRANCH  11  14
ENDBRANCH   9  11
ENDBRANCH   7   9
BRANCH   8  23
HETATM   23  O   UNL     1      -8.804  12.421  67.206  1.00  0.00    -0.176 OA 
HETATM   24  C   UNL     1      -7.521  11.922  67.567  1.00  0.00    -0.136 C  
ENDBRANCH   8  23
ENDBRANCH   2   3
TORSDOF 5
ENDMDL
MODEL       87
REMARK 921   NORMALIZED FREE ENERGY PREDICTED BY IDOCK:   -4.86 KCAL/MOL
REMARK 922        TOTAL FREE ENERGY PREDICTED BY IDOCK:   -6.80 KCAL/MOL
REMARK 923 INTER-LIGAND FREE ENERGY PREDICTED BY IDOCK:   -6.25 KCAL/MOL
REMARK 924 INTRA-LIGAND FREE ENERGY PREDICTED BY IDOCK:   -0.55 KCAL/MOL
REMARK 927      BINDING AFFINITY PREDICTED BY RF-SCORE:    0.00 PKD
ROOT
HETATM    1  C   UNL     1     -12.257  14.014  64.279  1.00  0.00    -0.418 C  
HETATM    2  O   UNL     1     -12.487  12.874  65.101  1.00  0.00    -0.472 OA 
ENDROOT
BRANCH   2   3
HETATM    3  C   UNL     1     -11.392  12.051  65.263  1.00  0.00    -0.312 A  
HETATM    4  N   UNL     1     -10.619  11.835  64.174  1.00  0.00    -0.320 NA 
HETATM    5  C   UNL     1      -9.570  11.021  64.337  1.00  0.00    -0.259 A  
HETATM    6  N   UNL     1      -9.215  10.420  65.473  1.00  0.00    -0.172 NA 
HETATM    7  C   UNL     1     -10.030  10.648  66.513  1.00  0.00    -0.215 A  
HETATM    8  C   UNL     1     -11.159  11.462  66.496  1.00  0.00    -0.251 A  
BRANCH   7   9
HETATM    9  N   UNL     1      -9.627   9.946  67.679  1.00  0.00    -0.147 N  
HETATM   10  H   UNL     1      -9.247  10.427  68.495  1.00  0.00     0.000 HD 
BRANCH   9  11
HETATM   11  S   UNL     1      -9.812   8.273  67.638  1.00  0.00    -0.182 S  
HETATM   12  O   UNL     1      -8.484   7.727  67.441  1.00  0.00    -0.118 OA 
HETATM   13  O   UNL     1     -10.896   7.929  66.744  1.00  0.00    -0.234 OA 
BRANCH  11  14
HETATM   14  C   UNL     1     -10.291   7.858  69.299  1.00  0.00    -0.220 A  
HETATM   15  C   UNL     1     -11.003   6.683  69.549  1.00  0.00    -0.367 A  
HETATM   16  C   UNL     1     -11.355   6.358  70.863  1.00  0.00    -0.398 A  
HETATM   17  C   UNL     1     -11.040   7.214  71.922  1.00  0.00    -0.236 A  
HETATM   18  C   UNL     1     -10.256   8.344  71.664  1.00  0.00    -0.310 A  
HETATM   19  N   UNL     1     -11.303   6.828  73.242  1.00  0.00    -0.487 NA 
HETATM   20  H2  UNL     1     -10.851   5.929  73.410  1.00  0.00     0.000 HD 
HETATM   21  H1  UNL     1     -11.074   7.453  74.015  1.00  0.00     0.000 HD 
HETATM   22  C   UNL     1      -9.895   8.680  70.356  1.00  0.00    -0.207 A  
ENDBRANCH  11  14
ENDBRANCH   9  11
ENDBRANCH   7   9
BRANCH   8  23
HETATM   23  O   UNL     1     -11.882  11.540  67.653  1.00  0.00    -0.595 OA 
HETATM   24  C   UNL     1     -11.711  12.690  68.474  1.00  0.00    -0.330 C  
ENDBRANCH   8  23
ENDBRANCH   2   3
TORSDOF 5
ENDMDL
MODEL       88
REMARK 921   NORMALIZED FREE ENERGY PREDICTED BY IDOCK:   -4.86 KCAL/MOL
REMARK 922        TOTAL FREE ENERGY PREDICTED BY IDOCK:   -6.80 KCAL/MOL
REMARK 923 INTER-LIGAND FREE ENERGY PREDICTED BY IDOCK:   -6.53 KCAL/MOL
REMARK 924 INTRA-LIGAND FREE ENERGY PREDICTED BY IDOCK:   -0.27 KCAL/MOL
REMARK 927      BINDING AFFINITY PREDICTED BY RF-SCORE:    0.00 PKD
ROOT
HETATM    1  C   UNL     1     -11.981  16.201  71.932  1.00  0.00    -0.507 C  
HETATM    2  O   UNL     1     -12.238  15.541  70.696  1.00  0.00    -0.344 OA 
ENDROOT
BRANCH   2   3
HETATM    3  C   UNL     1     -12.464  14.185  70.804  1.00  0.00    -0.366 A  
HETATM    4  N   UNL     1     -13.108  13.756  71.913  1.00  0.00    -0.370 NA 
HETATM    5  C   UNL     1     -13.306  12.436  72.018  1.00  0.00    -0.407 A  
HETATM    6  N   UNL     1     -12.938  11.518  71.125  1.00  0.00    -0.302 NA 
HETATM    7  C   UNL     1     -12.281  11.995  70.058  1.00  0.00    -0.206 A  
HETATM    8  C   UNL     1     -11.995  13.335  69.814  1.00  0.00    -0.324 A  
BRANCH   7   9
HETATM    9  N   UNL     1     -11.877  10.966  69.167  1.00  0.00    -0.399 N  
HETATM   10  H   UNL     1     -12.415  10.732  68.331  1.00  0.00     0.000 HD 
BRANCH   9  11
HETATM   11  S   UNL     1     -10.459  10.153  69.569  1.00  0.00    -0.256 S  
HETATM   12  O   UNL     1     -10.555   9.853  70.984  1.00  0.00    -0.290 OA 
HETATM   13  O   UNL     1      -9.322  10.875  69.040  1.00  0.00    -0.188 OA 
BRANCH  11  14
HETATM   14  C   UNL     1     -10.599   8.604  68.709  1.00  0.00    -0.140 A  
HETATM   15  C   UNL     1     -10.397   8.549  67.328  1.00  0.00    -0.372 A  
HETATM   16  C   UNL     1     -10.490   7.320  66.667  1.00  0.00    -0.204 A  
HETATM   17  C   UNL     1     -10.822   6.155  67.364  1.00  0.00    -0.343 A  
HETATM   18  C   UNL     1     -10.939   6.214  68.757  1.00  0.00    -0.421 A  
HETATM   19  N   UNL     1     -10.806   4.916  66.712  1.00  0.00    -0.287 NA 
HETATM   20  H2  UNL     1      -9.887   4.787  66.289  1.00  0.00     0.000 HD 
HETATM   21  H1  UNL     1     -11.048   4.066  67.221  1.00  0.00     0.000 HD 
HETATM   22  C   UNL     1     -10.846   7.435  69.431  1.00  0.00    -0.184 A  
ENDBRANCH  11  14
ENDBRANCH   9  11
ENDBRANCH   7   9
BRANCH   8  23
HETATM   23  O   UNL     1     -11.284  13.620  68.683  1.00  0.00    -0.248 OA 
HETATM   24  C   UNL     1     -11.977  14.194  67.580  1.00  0.00    -0.370 C  
ENDBRANCH   8  23
ENDBRANCH   2   3
TORSDOF 5
ENDMDL
MODEL       89
REMARK 921   NORMALIZED FREE ENERGY PREDICTED BY IDOCK:   -4.86 KCAL/MOL
REMARK 922        TOTAL FREE ENERGY PREDICTED BY IDOCK:   -6.79 KCAL/MOL
REMARK 923 INTER-LIGAND FREE ENERGY PREDICTED BY IDOCK:   -6.16 KCAL/MOL
REMARK 924 INTRA-LIGAND FREE ENERGY PREDICTED BY IDOCK:   -0.64 KCAL/MOL
REMARK 927      BINDING AFFINITY PREDICTED BY RF-SCORE:    0.00 PKD
ROOT
HETATM    1  C   UNL     1     -10.015   9.247  66.062  1.00  0.00    -0.255 C  
HETATM    2  O   UNL     1      -9.964  10.669  66.001  1.00  0.00    -0.220 OA 
ENDROOT
BRANCH   2   3
HETATM    3  C   UNL     1     -10.472  11.309  67.112  1.00  0.00    -0.222 A  
HETATM    4  N   UNL     1     -11.530  10.732  67.725  1.00  0.00    -0.513 NA 
HETATM    5  C   UNL     1     -12.026  11.371  68.791  1.00  0.00    -0.287 A  
HETATM    6  N   UNL     1     -11.564  12.511  69.305  1.00  0.00    -0.302 NA 
HETATM    7  C   UNL     1     -10.531  13.053  68.643  1.00  0.00    -0.219 A  
HETATM    8  C   UNL     1      -9.914  12.512  67.519  1.00  0.00    -0.201 A  
BRANCH   7   9
HETATM    9  N   UNL     1     -10.114  14.286  69.210  1.00  0.00    -0.429 N  
HETATM   10  H   UNL     1      -9.308  14.348  69.834  1.00  0.00     0.000 HD 
BRANCH   9  11
HETATM   11  S   UNL     1     -11.024  15.639  68.793  1.00  0.00    -0.302 S  
HETATM   12  O   UNL     1     -11.853  15.936  69.944  1.00  0.00    -0.336 OA 
HETATM   13  O   UNL     1     -11.613  15.441  67.486  1.00  0.00    -0.294 OA 
BRANCH  11  14
HETATM   14  C   UNL     1      -9.821  16.943  68.682  1.00  0.00    -0.270 A  
HETATM   15  C   UNL     1     -10.235  18.276  68.649  1.00  0.00    -0.377 A  
HETATM   16  C   UNL     1      -9.277  19.293  68.583  1.00  0.00    -0.436 A  
HETATM   17  C   UNL     1      -7.915  18.990  68.507  1.00  0.00    -0.346 A  
HETATM   18  C   UNL     1      -7.514  17.654  68.624  1.00  0.00    -0.273 A  
HETATM   19  N   UNL     1      -6.962  20.015  68.549  1.00  0.00    -0.304 NA 
HETATM   20  H2  UNL     1      -7.122  20.568  69.391  1.00  0.00     0.000 HD 
HETATM   21  H1  UNL     1      -5.968  19.794  68.494  1.00  0.00     0.000 HD 
HETATM   22  C   UNL     1      -8.461  16.628  68.694  1.00  0.00    -0.253 A  
ENDBRANCH  11  14
ENDBRANCH   9  11
ENDBRANCH   7   9
BRANCH   8  23
HETATM   23  O   UNL     1      -8.895  13.234  66.966  1.00  0.00    -0.218 OA 
HETATM   24  C   UNL     1      -7.559  12.846  67.263  1.00  0.00    -0.099 C  
ENDBRANCH   8  23
ENDBRANCH   2   3
TORSDOF 5
ENDMDL
MODEL       90
REMARK 921   NORMALIZED FREE ENERGY PREDICTED BY IDOCK:   -4.84 KCAL/MOL
REMARK 922        TOTAL FREE ENERGY PREDICTED BY IDOCK:   -6.76 KCAL/MOL
REMARK 923 INTER-LIGAND FREE ENERGY PREDICTED BY IDOCK:   -6.14 KCAL/MOL
REMARK 924 INTRA-LIGAND FREE ENERGY PREDICTED BY IDOCK:   -0.62 KCAL/MOL
REMARK 927      BINDING AFFINITY PREDICTED BY RF-SCORE:    0.00 PKD
ROOT
HETATM    1  C   UNL     1      -7.882   9.922  63.686  1.00  0.00    -0.145 C  
HETATM    2  O   UNL     1      -8.711  10.579  64.641  1.00  0.00    -0.183 OA 
ENDROOT
BRANCH   2   3
HETATM    3  C   UNL     1      -8.159  10.691  65.900  1.00  0.00    -0.159 A  
HETATM    4  N   UNL     1      -6.816  10.826  65.973  1.00  0.00    -0.128 NA 
HETATM    5  C   UNL     1      -6.289  10.915  67.200  1.00  0.00    -0.074 A  
HETATM    6  N   UNL     1      -6.969  10.896  68.346  1.00  0.00    -0.068 NA 
HETATM    7  C   UNL     1      -8.294  10.734  68.216  1.00  0.00    -0.125 A  
HETATM    8  C   UNL     1      -8.984  10.620  67.013  1.00  0.00    -0.137 A  
BRANCH   7   9
HETATM    9  N   UNL     1      -8.957  10.677  69.471  1.00  0.00    -0.405 N  
HETATM   10  H   UNL     1      -9.433  11.488  69.868  1.00  0.00     0.000 HD 
BRANCH   9  11
HETATM   11  S   UNL     1      -8.912   9.193  70.264  1.00  0.00    -0.237 S  
HETATM   12  O   UNL     1      -7.899   9.318  71.293  1.00  0.00    -0.322 OA 
HETATM   13  O   UNL     1      -8.851   8.125  69.290  1.00  0.00    -0.142 OA 
BRANCH  11  14
HETATM   14  C   UNL     1     -10.479   9.111  71.100  1.00  0.00    -0.315 A  
HETATM   15  C   UNL     1     -10.707   8.127  72.065  1.00  0.00    -0.343 A  
HETATM   16  C   UNL     1     -11.936   8.087  72.731  1.00  0.00    -0.246 A  
HETATM   17  C   UNL     1     -12.953   8.992  72.412  1.00  0.00    -0.405 A  
HETATM   18  C   UNL     1     -12.679  10.021  71.504  1.00  0.00    -0.532 A  
HETATM   19  N   UNL     1     -14.138   9.010  73.158  1.00  0.00    -1.223 NA 
HETATM   20  H2  UNL     1     -13.897   9.131  74.141  1.00  0.00     0.000 HD 
HETATM   21  H1  UNL     1     -14.880   9.671  72.925  1.00  0.00     0.000 HD 
HETATM   22  C   UNL     1     -11.453  10.075  70.833  1.00  0.00    -0.452 A  
ENDBRANCH  11  14
ENDBRANCH   9  11
ENDBRANCH   7   9
BRANCH   8  23
HETATM   23  O   UNL     1     -10.334  10.427  67.090  1.00  0.00    -0.213 OA 
HETATM   24  C   UNL     1     -11.187  11.534  66.823  1.00  0.00    -0.285 C  
ENDBRANCH   8  23
ENDBRANCH   2   3
TORSDOF 5
ENDMDL
MODEL       91
REMARK 921   NORMALIZED FREE ENERGY PREDICTED BY IDOCK:   -4.83 KCAL/MOL
REMARK 922        TOTAL FREE ENERGY PREDICTED BY IDOCK:   -6.75 KCAL/MOL
REMARK 923 INTER-LIGAND FREE ENERGY PREDICTED BY IDOCK:   -6.09 KCAL/MOL
REMARK 924 INTRA-LIGAND FREE ENERGY PREDICTED BY IDOCK:   -0.66 KCAL/MOL
REMARK 927      BINDING AFFINITY PREDICTED BY RF-SCORE:    0.00 PKD
ROOT
HETATM    1  C   UNL     1     -12.235  12.114  63.424  1.00  0.00    -0.530 C  
HETATM    2  O   UNL     1     -11.205  12.693  64.218  1.00  0.00    -0.320 OA 
ENDROOT
BRANCH   2   3
HETATM    3  C   UNL     1     -11.141  12.218  65.512  1.00  0.00    -0.307 A  
HETATM    4  N   UNL     1     -12.117  12.613  66.361  1.00  0.00    -0.565 NA 
HETATM    5  C   UNL     1     -12.035  12.162  67.618  1.00  0.00    -0.120 A  
HETATM    6  N   UNL     1     -11.092  11.352  68.098  1.00  0.00    -0.227 NA 
HETATM    7  C   UNL     1     -10.136  11.012  67.221  1.00  0.00    -0.189 A  
HETATM    8  C   UNL     1     -10.081  11.407  65.887  1.00  0.00    -0.243 A  
BRANCH   7   9
HETATM    9  N   UNL     1      -9.137  10.187  67.803  1.00  0.00    -0.131 N  
HETATM   10  H   UNL     1      -8.267  10.572  68.173  1.00  0.00     0.000 HD 
BRANCH   9  11
HETATM   11  S   UNL     1      -9.472   8.538  67.845  1.00  0.00    -0.141 S  
HETATM   12  O   UNL     1      -8.190   7.866  67.763  1.00  0.00    -0.125 OA 
HETATM   13  O   UNL     1     -10.529   8.235  66.905  1.00  0.00    -0.319 OA 
BRANCH  11  14
HETATM   14  C   UNL     1     -10.082   8.270  69.493  1.00  0.00    -0.197 A  
HETATM   15  C   UNL     1     -10.888   7.164  69.770  1.00  0.00    -0.261 A  
HETATM   16  C   UNL     1     -11.344   6.955  71.075  1.00  0.00    -0.342 A  
HETATM   17  C   UNL     1     -11.037   7.859  72.095  1.00  0.00    -0.294 A  
HETATM   18  C   UNL     1     -10.161   8.915  71.819  1.00  0.00    -0.414 A  
HETATM   19  N   UNL     1     -11.409   7.583  73.417  1.00  0.00    -0.617 NA 
HETATM   20  H2  UNL     1     -11.032   6.670  73.672  1.00  0.00     0.000 HD 
HETATM   21  H1  UNL     1     -11.185   8.243  74.162  1.00  0.00     0.000 HD 
HETATM   22  C   UNL     1      -9.696   9.135  70.519  1.00  0.00    -0.287 A  
ENDBRANCH  11  14
ENDBRANCH   9  11
ENDBRANCH   7   9
BRANCH   8  23
HETATM   23  O   UNL     1      -9.005  10.982  65.161  1.00  0.00    -0.197 OA 
HETATM   24  C   UNL     1      -9.196   9.914  64.241  1.00  0.00    -0.265 C  
ENDBRANCH   8  23
ENDBRANCH   2   3
TORSDOF 5
ENDMDL
MODEL       92
REMARK 921   NORMALIZED FREE ENERGY PREDICTED BY IDOCK:   -4.82 KCAL/MOL
REMARK 922        TOTAL FREE ENERGY PREDICTED BY IDOCK:   -6.74 KCAL/MOL
REMARK 923 INTER-LIGAND FREE ENERGY PREDICTED BY IDOCK:   -6.36 KCAL/MOL
REMARK 924 INTRA-LIGAND FREE ENERGY PREDICTED BY IDOCK:   -0.37 KCAL/MOL
REMARK 927      BINDING AFFINITY PREDICTED BY RF-SCORE:    0.00 PKD
ROOT
HETATM    1  C   UNL     1      -8.229   5.907  64.971  1.00  0.00    -0.138 C  
HETATM    2  O   UNL     1      -8.081   6.894  65.988  1.00  0.00    -0.107 OA 
ENDROOT
BRANCH   2   3
HETATM    3  C   UNL     1      -8.756   8.072  65.748  1.00  0.00    -0.146 A  
HETATM    4  N   UNL     1      -8.569   8.653  64.541  1.00  0.00    -0.124 NA 
HETATM    5  C   UNL     1      -9.214   9.806  64.326  1.00  0.00    -0.232 A  
HETATM    6  N   UNL     1     -10.029  10.419  65.184  1.00  0.00    -0.306 NA 
HETATM    7  C   UNL     1     -10.157   9.813  66.374  1.00  0.00    -0.243 A  
HETATM    8  C   UNL     1      -9.547   8.619  66.747  1.00  0.00    -0.207 A  
BRANCH   7   9
HETATM    9  N   UNL     1     -11.000  10.536  67.260  1.00  0.00    -0.285 N  
HETATM   10  H   UNL     1     -11.921  10.190  67.532  1.00  0.00     0.000 HD 
BRANCH   9  11
HETATM   11  S   UNL     1     -10.390  11.996  67.835  1.00  0.00    -0.203 S  
HETATM   12  O   UNL     1      -8.947  11.884  67.764  1.00  0.00    -0.160 OA 
HETATM   13  O   UNL     1     -11.047  12.337  69.078  1.00  0.00    -0.238 OA 
BRANCH  11  14
HETATM   14  C   UNL     1     -10.872  13.175  66.596  1.00  0.00    -0.280 A  
HETATM   15  C   UNL     1     -12.168  13.155  66.076  1.00  0.00    -0.478 A  
HETATM   16  C   UNL     1     -12.540  14.102  65.117  1.00  0.00    -0.426 A  
HETATM   17  C   UNL     1     -11.619  15.040  64.642  1.00  0.00    -0.386 A  
HETATM   18  C   UNL     1     -10.352  15.099  65.232  1.00  0.00    -0.425 A  
HETATM   19  N   UNL     1     -12.032  16.048  63.762  1.00  0.00    -1.339 NA 
HETATM   20  H2  UNL     1     -12.810  16.550  64.190  1.00  0.00     0.000 HD 
HETATM   21  H1  UNL     1     -11.360  16.733  63.415  1.00  0.00     0.000 HD 
HETATM   22  C   UNL     1      -9.968  14.160  66.194  1.00  0.00    -0.328 A  
ENDBRANCH  11  14
ENDBRANCH   9  11
ENDBRANCH   7   9
BRANCH   8  23
HETATM   23  O   UNL     1      -9.777   8.179  68.020  1.00  0.00    -0.153 OA 
HETATM   24  C   UNL     1     -10.699   7.111  68.205  1.00  0.00    -0.160 C  
ENDBRANCH   8  23
ENDBRANCH   2   3
TORSDOF 5
ENDMDL
MODEL       93
REMARK 921   NORMALIZED FREE ENERGY PREDICTED BY IDOCK:   -4.81 KCAL/MOL
REMARK 922        TOTAL FREE ENERGY PREDICTED BY IDOCK:   -6.73 KCAL/MOL
REMARK 923 INTER-LIGAND FREE ENERGY PREDICTED BY IDOCK:   -6.05 KCAL/MOL
REMARK 924 INTRA-LIGAND FREE ENERGY PREDICTED BY IDOCK:   -0.68 KCAL/MOL
REMARK 927      BINDING AFFINITY PREDICTED BY RF-SCORE:    0.00 PKD
ROOT
HETATM    1  C   UNL     1      -9.774   4.993  70.574  1.00  0.00    -0.204 C  
HETATM    2  O   UNL     1     -10.807   5.759  69.960  1.00  0.00    -0.316 OA 
ENDROOT
BRANCH   2   3
HETATM    3  C   UNL     1     -11.080   6.959  70.583  1.00  0.00    -0.278 A  
HETATM    4  N   UNL     1     -11.839   6.913  71.701  1.00  0.00    -0.304 NA 
HETATM    5  C   UNL     1     -12.114   8.084  72.287  1.00  0.00    -0.341 A  
HETATM    6  N   UNL     1     -11.695   9.281  71.876  1.00  0.00    -0.373 NA 
HETATM    7  C   UNL     1     -10.968   9.271  70.749  1.00  0.00    -0.284 A  
HETATM    8  C   UNL     1     -10.608   8.138  70.026  1.00  0.00    -0.239 A  
BRANCH   7   9
HETATM    9  N   UNL     1     -10.590  10.576  70.338  1.00  0.00    -0.414 N  
HETATM   10  H   UNL     1      -9.626  10.905  70.399  1.00  0.00     0.000 HD 
BRANCH   9  11
HETATM   11  S   UNL     1     -11.827  11.552  69.744  1.00  0.00    -0.370 S  
HETATM   12  O   UNL     1     -12.260  12.375  70.856  1.00  0.00    -0.355 OA 
HETATM   13  O   UNL     1     -12.773  10.739  69.010  1.00  0.00    -0.188 OA 
BRANCH  11  14
HETATM   14  C   UNL     1     -11.002  12.635  68.601  1.00  0.00    -0.256 A  
HETATM   15  C   UNL     1      -9.931  12.163  67.839  1.00  0.00    -0.200 A  
HETATM   16  C   UNL     1      -9.304  13.020  66.928  1.00  0.00    -0.241 A  
HETATM   17  C   UNL     1      -9.709  14.352  66.802  1.00  0.00    -0.270 A  
HETATM   18  C   UNL     1     -10.835  14.784  67.512  1.00  0.00    -0.287 A  
HETATM   19  N   UNL     1      -9.146  15.168  65.813  1.00  0.00    -0.414 NA 
HETATM   20  H2  UNL     1      -9.267  14.709  64.911  1.00  0.00     0.000 HD 
HETATM   21  H1  UNL     1      -9.442  16.140  65.721  1.00  0.00     0.000 HD 
HETATM   22  C   UNL     1     -11.473  13.937  68.424  1.00  0.00    -0.346 A  
ENDBRANCH  11  14
ENDBRANCH   9  11
ENDBRANCH   7   9
BRANCH   8  23
HETATM   23  O   UNL     1      -9.890   8.337  68.881  1.00  0.00    -0.171 OA 
HETATM   24  C   UNL     1     -10.576   8.267  67.637  1.00  0.00    -0.194 C  
ENDBRANCH   8  23
ENDBRANCH   2   3
TORSDOF 5
ENDMDL
MODEL       94
REMARK 921   NORMALIZED FREE ENERGY PREDICTED BY IDOCK:   -4.80 KCAL/MOL
REMARK 922        TOTAL FREE ENERGY PREDICTED BY IDOCK:   -6.71 KCAL/MOL
REMARK 923 INTER-LIGAND FREE ENERGY PREDICTED BY IDOCK:   -6.15 KCAL/MOL
REMARK 924 INTRA-LIGAND FREE ENERGY PREDICTED BY IDOCK:   -0.56 KCAL/MOL
REMARK 927      BINDING AFFINITY PREDICTED BY RF-SCORE:    0.00 PKD
ROOT
HETATM    1  C   UNL     1      -7.169   6.429  64.484  1.00  0.00    -0.061 C  
HETATM    2  O   UNL     1      -7.654   7.727  64.814  1.00  0.00    -0.093 OA 
ENDROOT
BRANCH   2   3
HETATM    3  C   UNL     1      -8.684   7.739  65.731  1.00  0.00    -0.133 A  
HETATM    4  N   UNL     1      -9.114   6.541  66.189  1.00  0.00    -0.150 NA 
HETATM    5  C   UNL     1     -10.126   6.563  67.064  1.00  0.00    -0.179 A  
HETATM    6  N   UNL     1     -10.732   7.653  67.531  1.00  0.00    -0.240 NA 
HETATM    7  C   UNL     1     -10.284   8.812  67.025  1.00  0.00    -0.281 A  
HETATM    8  C   UNL     1      -9.248   8.949  66.105  1.00  0.00    -0.217 A  
BRANCH   7   9
HETATM    9  N   UNL     1     -10.998   9.933  67.526  1.00  0.00    -0.375 N  
HETATM   10  H   UNL     1     -11.835  10.290  67.064  1.00  0.00     0.000 HD 
BRANCH   9  11
HETATM   11  S   UNL     1     -10.382  10.638  68.925  1.00  0.00    -0.219 S  
HETATM   12  O   UNL     1     -10.617  12.063  68.793  1.00  0.00    -0.227 OA 
HETATM   13  O   UNL     1      -9.053  10.126  69.179  1.00  0.00    -0.161 OA 
BRANCH  11  14
HETATM   14  C   UNL     1     -11.469  10.059  70.206  1.00  0.00    -0.300 A  
HETATM   15  C   UNL     1     -11.135   8.925  70.949  1.00  0.00    -0.328 A  
HETATM   16  C   UNL     1     -11.989   8.493  71.968  1.00  0.00    -0.427 A  
HETATM   17  C   UNL     1     -13.192   9.157  72.224  1.00  0.00    -0.461 A  
HETATM   18  C   UNL     1     -13.472  10.337  71.527  1.00  0.00    -0.336 A  
HETATM   19  N   UNL     1     -13.986   8.780  73.315  1.00  0.00    -1.116 NA 
HETATM   20  H2  UNL     1     -13.413   8.817  74.157  1.00  0.00     0.000 HD 
HETATM   21  H1  UNL     1     -14.864   9.264  73.502  1.00  0.00     0.000 HD 
HETATM   22  C   UNL     1     -12.625  10.783  70.508  1.00  0.00    -0.421 A  
ENDBRANCH  11  14
ENDBRANCH   9  11
ENDBRANCH   7   9
BRANCH   8  23
HETATM   23  O   UNL     1      -8.959  10.216  65.684  1.00  0.00    -0.157 OA 
HETATM   24  C   UNL     1      -9.478  10.640  64.428  1.00  0.00    -0.269 C  
ENDBRANCH   8  23
ENDBRANCH   2   3
TORSDOF 5
ENDMDL
MODEL       95
REMARK 921   NORMALIZED FREE ENERGY PREDICTED BY IDOCK:   -4.77 KCAL/MOL
REMARK 922        TOTAL FREE ENERGY PREDICTED BY IDOCK:   -6.68 KCAL/MOL
REMARK 923 INTER-LIGAND FREE ENERGY PREDICTED BY IDOCK:   -6.04 KCAL/MOL
REMARK 924 INTRA-LIGAND FREE ENERGY PREDICTED BY IDOCK:   -0.64 KCAL/MOL
REMARK 927      BINDING AFFINITY PREDICTED BY RF-SCORE:    0.00 PKD
ROOT
HETATM    1  C   UNL     1     -11.781   6.861  70.544  1.00  0.00    -0.350 C  
HETATM    2  O   UNL     1     -10.645   6.792  69.687  1.00  0.00    -0.209 OA 
ENDROOT
BRANCH   2   3
HETATM    3  C   UNL     1      -9.829   7.903  69.725  1.00  0.00    -0.179 A  
HETATM    4  N   UNL     1      -9.091   8.087  70.843  1.00  0.00    -0.146 NA 
HETATM    5  C   UNL     1      -8.317   9.178  70.877  1.00  0.00    -0.185 A  
HETATM    6  N   UNL     1      -8.200  10.084  69.907  1.00  0.00    -0.179 NA 
HETATM    7  C   UNL     1      -8.972   9.867  68.832  1.00  0.00    -0.153 A  
HETATM    8  C   UNL     1      -9.831   8.786  68.655  1.00  0.00    -0.168 A  
BRANCH   7   9
HETATM    9  N   UNL     1      -8.837  10.888  67.855  1.00  0.00    -0.132 N  
HETATM   10  H   UNL     1      -8.299  10.749  66.999  1.00  0.00     0.000 HD 
BRANCH   9  11
HETATM   11  S   UNL     1      -9.617  12.342  68.190  1.00  0.00    -0.212 S  
HETATM   12  O   UNL     1      -8.569  13.324  68.384  1.00  0.00    -0.173 OA 
HETATM   13  O   UNL     1     -10.628  12.125  69.202  1.00  0.00    -0.138 OA 
BRANCH  11  14
HETATM   14  C   UNL     1     -10.424  12.753  66.660  1.00  0.00    -0.257 A  
HETATM   15  C   UNL     1     -11.537  12.024  66.238  1.00  0.00    -0.378 A  
HETATM   16  C   UNL     1     -12.175  12.372  65.043  1.00  0.00    -0.465 A  
HETATM   17  C   UNL     1     -11.687  13.413  64.247  1.00  0.00    -0.412 A  
HETATM   18  C   UNL     1     -10.622  14.184  64.726  1.00  0.00    -0.439 A  
HETATM   19  N   UNL     1     -12.395  13.820  63.110  1.00  0.00    -1.106 NA 
HETATM   20  H2  UNL     1     -13.348  14.050  63.390  1.00  0.00     0.000 HD 
HETATM   21  H1  UNL     1     -12.039  14.580  62.529  1.00  0.00     0.000 HD 
HETATM   22  C   UNL     1      -9.977  13.850  65.920  1.00  0.00    -0.317 A  
ENDBRANCH  11  14
ENDBRANCH   9  11
ENDBRANCH   7   9
BRANCH   8  23
HETATM   23  O   UNL     1     -10.561   8.759  67.501  1.00  0.00    -0.267 OA 
HETATM   24  C   UNL     1     -10.159   7.860  66.473  1.00  0.00    -0.175 C  
ENDBRANCH   8  23
ENDBRANCH   2   3
TORSDOF 5
ENDMDL
MODEL       96
REMARK 921   NORMALIZED FREE ENERGY PREDICTED BY IDOCK:   -4.75 KCAL/MOL
REMARK 922        TOTAL FREE ENERGY PREDICTED BY IDOCK:   -6.65 KCAL/MOL
REMARK 923 INTER-LIGAND FREE ENERGY PREDICTED BY IDOCK:   -6.26 KCAL/MOL
REMARK 924 INTRA-LIGAND FREE ENERGY PREDICTED BY IDOCK:   -0.38 KCAL/MOL
REMARK 927      BINDING AFFINITY PREDICTED BY RF-SCORE:    0.00 PKD
ROOT
HETATM    1  C   UNL     1     -11.757  16.071  68.876  1.00  0.00    -0.319 C  
HETATM    2  O   UNL     1     -11.539  14.937  69.711  1.00  0.00    -0.268 OA 
ENDROOT
BRANCH   2   3
HETATM    3  C   UNL     1     -11.685  13.721  69.077  1.00  0.00    -0.331 A  
HETATM    4  N   UNL     1     -11.604  13.717  67.728  1.00  0.00    -0.318 NA 
HETATM    5  C   UNL     1     -11.766  12.535  67.121  1.00  0.00    -0.355 A  
HETATM    6  N   UNL     1     -11.984  11.369  67.728  1.00  0.00    -0.646 NA 
HETATM    7  C   UNL     1     -12.081  11.434  69.064  1.00  0.00    -0.249 A  
HETATM    8  C   UNL     1     -11.944  12.587  69.832  1.00  0.00    -0.301 A  
BRANCH   7   9
HETATM    9  N   UNL     1     -12.359  10.170  69.649  1.00  0.00    -0.480 N  
HETATM   10  H   UNL     1     -13.307   9.796  69.702  1.00  0.00     0.000 HD 
BRANCH   9  11
HETATM   11  S   UNL     1     -11.033   9.324  70.248  1.00  0.00    -0.254 S  
HETATM   12  O   UNL     1     -11.455   8.764  71.517  1.00  0.00    -0.264 OA 
HETATM   13  O   UNL     1      -9.851  10.154  70.160  1.00  0.00    -0.207 OA 
BRANCH  11  14
HETATM   14  C   UNL     1     -10.855   7.960  69.123  1.00  0.00    -0.038 A  
HETATM   15  C   UNL     1     -10.998   6.649  69.584  1.00  0.00    -0.367 A  
HETATM   16  C   UNL     1     -10.876   5.586  68.683  1.00  0.00    -0.088 A  
HETATM   17  C   UNL     1     -10.573   5.817  67.339  1.00  0.00    -0.265 A  
HETATM   18  C   UNL     1     -10.516   7.137  66.878  1.00  0.00    -0.364 A  
HETATM   19  N   UNL     1     -10.560   4.754  66.428  1.00  0.00    -0.387 NA 
HETATM   20  H2  UNL     1     -11.460   4.277  66.477  1.00  0.00     0.000 HD 
HETATM   21  H1  UNL     1     -10.339   4.922  65.446  1.00  0.00     0.000 HD 
HETATM   22  C   UNL     1     -10.638   8.210  67.767  1.00  0.00    -0.233 A  
ENDBRANCH  11  14
ENDBRANCH   9  11
ENDBRANCH   7   9
BRANCH   8  23
HETATM   23  O   UNL     1     -12.111  12.454  71.181  1.00  0.00    -0.133 OA 
HETATM   24  C   UNL     1     -13.271  13.027  71.774  1.00  0.00    -0.392 C  
ENDBRANCH   8  23
ENDBRANCH   2   3
TORSDOF 5
ENDMDL
MODEL       97
REMARK 921   NORMALIZED FREE ENERGY PREDICTED BY IDOCK:   -4.73 KCAL/MOL
REMARK 922        TOTAL FREE ENERGY PREDICTED BY IDOCK:   -6.62 KCAL/MOL
REMARK 923 INTER-LIGAND FREE ENERGY PREDICTED BY IDOCK:   -6.12 KCAL/MOL
REMARK 924 INTRA-LIGAND FREE ENERGY PREDICTED BY IDOCK:   -0.50 KCAL/MOL
REMARK 927      BINDING AFFINITY PREDICTED BY RF-SCORE:    0.00 PKD
ROOT
HETATM    1  C   UNL     1     -14.153  13.889  72.137  1.00  0.00    -0.536 C  
HETATM    2  O   UNL     1     -13.093  12.946  72.270  1.00  0.00    -0.402 OA 
ENDROOT
BRANCH   2   3
HETATM    3  C   UNL     1     -12.579  12.488  71.075  1.00  0.00    -0.256 A  
HETATM    4  N   UNL     1     -12.371  13.405  70.103  1.00  0.00    -0.287 NA 
HETATM    5  C   UNL     1     -11.889  12.947  68.942  1.00  0.00    -0.309 A  
HETATM    6  N   UNL     1     -11.585  11.679  68.667  1.00  0.00    -0.285 NA 
HETATM    7  C   UNL     1     -11.835  10.809  69.656  1.00  0.00    -0.320 A  
HETATM    8  C   UNL     1     -12.340  11.132  70.912  1.00  0.00    -0.399 A  
BRANCH   7   9
HETATM    9  N   UNL     1     -11.534   9.471  69.288  1.00  0.00    -0.438 N  
HETATM   10  H   UNL     1     -12.219   8.870  68.830  1.00  0.00     0.000 HD 
BRANCH   9  11
HETATM   11  S   UNL     1      -9.980   8.934  69.653  1.00  0.00    -0.198 S  
HETATM   12  O   UNL     1      -9.334  10.025  70.356  1.00  0.00    -0.108 OA 
HETATM   13  O   UNL     1      -9.380   8.354  68.471  1.00  0.00    -0.139 OA 
BRANCH  11  14
HETATM   14  C   UNL     1     -10.246   7.645  70.847  1.00  0.00    -0.199 A  
HETATM   15  C   UNL     1     -10.124   7.918  72.211  1.00  0.00    -0.297 A  
HETATM   16  C   UNL     1     -10.356   6.899  73.141  1.00  0.00    -0.293 A  
HETATM   17  C   UNL     1     -10.667   5.603  72.720  1.00  0.00    -0.242 A  
HETATM   18  C   UNL     1     -10.866   5.367  71.355  1.00  0.00    -0.210 A  
HETATM   19  N   UNL     1     -11.002   4.620  73.659  1.00  0.00    -0.303 NA 
HETATM   20  H2  UNL     1     -11.774   4.968  74.227  1.00  0.00     0.000 HD 
HETATM   21  H1  UNL     1     -11.229   3.674  73.353  1.00  0.00     0.000 HD 
HETATM   22  C   UNL     1     -10.641   6.377  70.415  1.00  0.00    -0.294 A  
ENDBRANCH  11  14
ENDBRANCH   9  11
ENDBRANCH   7   9
BRANCH   8  23
HETATM   23  O   UNL     1     -12.558  10.096  71.776  1.00  0.00    -0.395 OA 
HETATM   24  C   UNL     1     -13.889   9.614  71.924  1.00  0.00    -0.213 C  
ENDBRANCH   8  23
ENDBRANCH   2   3
TORSDOF 5
ENDMDL
MODEL       98
REMARK 921   NORMALIZED FREE ENERGY PREDICTED BY IDOCK:   -4.71 KCAL/MOL
REMARK 922        TOTAL FREE ENERGY PREDICTED BY IDOCK:   -6.59 KCAL/MOL
REMARK 923 INTER-LIGAND FREE ENERGY PREDICTED BY IDOCK:   -6.01 KCAL/MOL
REMARK 924 INTRA-LIGAND FREE ENERGY PREDICTED BY IDOCK:   -0.58 KCAL/MOL
REMARK 927      BINDING AFFINITY PREDICTED BY RF-SCORE:    0.00 PKD
ROOT
HETATM    1  C   UNL     1     -13.912  13.815  72.241  1.00  0.00    -0.573 C  
HETATM    2  O   UNL     1     -12.973  12.744  72.203  1.00  0.00    -0.323 OA 
ENDROOT
BRANCH   2   3
HETATM    3  C   UNL     1     -12.481  12.456  70.948  1.00  0.00    -0.274 A  
HETATM    4  N   UNL     1     -12.324  13.493  70.095  1.00  0.00    -0.304 NA 
HETATM    5  C   UNL     1     -11.864  13.200  68.873  1.00  0.00    -0.320 A  
HETATM    6  N   UNL     1     -11.535  11.987  68.432  1.00  0.00    -0.276 NA 
HETATM    7  C   UNL     1     -11.734  10.992  69.309  1.00  0.00    -0.326 A  
HETATM    8  C   UNL     1     -12.212  11.138  70.608  1.00  0.00    -0.397 A  
BRANCH   7   9
HETATM    9  N   UNL     1     -11.409   9.720  68.767  1.00  0.00    -0.482 N  
HETATM   10  H   UNL     1     -12.120   9.105  68.369  1.00  0.00     0.000 HD 
BRANCH   9  11
HETATM   11  S   UNL     1      -9.783   9.287  68.818  1.00  0.00    -0.161 S  
HETATM   12  O   UNL     1      -9.756   7.840  68.903  1.00  0.00    -0.156 OA 
HETATM   13  O   UNL     1      -9.097  10.100  69.798  1.00  0.00    -0.203 OA 
BRANCH  11  14
HETATM   14  C   UNL     1      -9.179   9.713  67.202  1.00  0.00    -0.134 A  
HETATM   15  C   UNL     1      -7.855  10.127  67.036  1.00  0.00    -0.102 A  
HETATM   16  C   UNL     1      -7.387  10.440  65.756  1.00  0.00    -0.147 A  
HETATM   17  C   UNL     1      -8.237  10.383  64.648  1.00  0.00    -0.137 A  
HETATM   18  C   UNL     1      -9.535   9.887  64.820  1.00  0.00    -0.356 A  
HETATM   19  N   UNL     1      -7.730  10.594  63.360  1.00  0.00    -0.349 NA 
HETATM   20  H2  UNL     1      -6.960   9.943  63.208  1.00  0.00     0.000 HD 
HETATM   21  H1  UNL     1      -8.351  10.552  62.552  1.00  0.00     0.000 HD 
HETATM   22  C   UNL     1     -10.015   9.569  66.093  1.00  0.00    -0.342 A  
ENDBRANCH  11  14
ENDBRANCH   9  11
ENDBRANCH   7   9
BRANCH   8  23
HETATM   23  O   UNL     1     -12.378   9.996  71.338  1.00  0.00    -0.355 OA 
HETATM   24  C   UNL     1     -13.693   9.466  71.466  1.00  0.00    -0.294 C  
ENDBRANCH   8  23
ENDBRANCH   2   3
TORSDOF 5
ENDMDL
MODEL       99
REMARK 921   NORMALIZED FREE ENERGY PREDICTED BY IDOCK:   -4.70 KCAL/MOL
REMARK 922        TOTAL FREE ENERGY PREDICTED BY IDOCK:   -6.58 KCAL/MOL
REMARK 923 INTER-LIGAND FREE ENERGY PREDICTED BY IDOCK:   -6.06 KCAL/MOL
REMARK 924 INTRA-LIGAND FREE ENERGY PREDICTED BY IDOCK:   -0.52 KCAL/MOL
REMARK 927      BINDING AFFINITY PREDICTED BY RF-SCORE:    0.00 PKD
ROOT
HETATM    1  C   UNL     1     -12.561   9.002  72.253  1.00  0.00    -0.375 C  
HETATM    2  O   UNL     1     -13.081   9.636  71.087  1.00  0.00    -0.348 OA 
ENDROOT
BRANCH   2   3
HETATM    3  C   UNL     1     -12.712  10.957  70.940  1.00  0.00    -0.370 A  
HETATM    4  N   UNL     1     -13.372  11.867  71.691  1.00  0.00    -0.254 NA 
HETATM    5  C   UNL     1     -13.020  13.148  71.527  1.00  0.00    -0.321 A  
HETATM    6  N   UNL     1     -12.073  13.599  70.705  1.00  0.00    -0.344 NA 
HETATM    7  C   UNL     1     -11.469  12.657  69.966  1.00  0.00    -0.013 A  
HETATM    8  C   UNL     1     -11.731  11.291  70.019  1.00  0.00    -0.346 A  
BRANCH   7   9
HETATM    9  N   UNL     1     -10.504  13.203  69.078  1.00  0.00    -0.432 N  
HETATM   10  H   UNL     1      -9.527  13.324  69.350  1.00  0.00     0.000 HD 
BRANCH   9  11
HETATM   11  S   UNL     1     -11.065  13.641  67.553  1.00  0.00    -0.286 S  
HETATM   12  O   UNL     1     -12.511  13.552  67.616  1.00  0.00    -0.125 OA 
HETATM   13  O   UNL     1     -10.321  12.923  66.540  1.00  0.00    -0.257 OA 
BRANCH  11  14
HETATM   14  C   UNL     1     -10.666  15.369  67.433  1.00  0.00    -0.296 A  
HETATM   15  C   UNL     1     -10.042  15.866  66.287  1.00  0.00    -0.317 A  
HETATM   16  C   UNL     1      -9.753  17.231  66.198  1.00  0.00    -0.243 A  
HETATM   17  C   UNL     1     -10.043  18.096  67.257  1.00  0.00    -0.347 A  
HETATM   18  C   UNL     1     -10.742  17.597  68.361  1.00  0.00    -0.246 A  
HETATM   19  N   UNL     1      -9.847  19.475  67.113  1.00  0.00    -0.335 NA 
HETATM   20  H2  UNL     1     -10.363  19.789  66.291  1.00  0.00     0.000 HD 
HETATM   21  H1  UNL     1     -10.059  20.106  67.886  1.00  0.00     0.000 HD 
HETATM   22  C   UNL     1     -11.040  16.235  68.463  1.00  0.00    -0.368 A  
ENDBRANCH  11  14
ENDBRANCH   9  11
ENDBRANCH   7   9
BRANCH   8  23
HETATM   23  O   UNL     1     -11.031  10.493  69.159  1.00  0.00    -0.209 OA 
HETATM   24  C   UNL     1      -9.857   9.852  69.644  1.00  0.00    -0.232 C  
ENDBRANCH   8  23
ENDBRANCH   2   3
TORSDOF 5
ENDMDL
MODEL      100
REMARK 921   NORMALIZED FREE ENERGY PREDICTED BY IDOCK:   -4.69 KCAL/MOL
REMARK 922        TOTAL FREE ENERGY PREDICTED BY IDOCK:   -6.57 KCAL/MOL
REMARK 923 INTER-LIGAND FREE ENERGY PREDICTED BY IDOCK:   -6.03 KCAL/MOL
REMARK 924 INTRA-LIGAND FREE ENERGY PREDICTED BY IDOCK:   -0.54 KCAL/MOL
REMARK 927      BINDING AFFINITY PREDICTED BY RF-SCORE:    0.00 PKD
ROOT
HETATM    1  C   UNL     1      -6.536   6.269  70.118  1.00  0.00    -0.045 C  
HETATM    2  O   UNL     1      -7.318   7.433  70.367  1.00  0.00    -0.074 OA 
ENDROOT
BRANCH   2   3
HETATM    3  C   UNL     1      -7.738   8.096  69.233  1.00  0.00    -0.104 A  
HETATM    4  N   UNL     1      -6.794   8.406  68.317  1.00  0.00    -0.065 NA 
HETATM    5  C   UNL     1      -7.209   9.065  67.229  1.00  0.00    -0.083 A  
HETATM    6  N   UNL     1      -8.464   9.428  66.966  1.00  0.00    -0.127 NA 
HETATM    7  C   UNL     1      -9.355   9.119  67.919  1.00  0.00    -0.137 A  
HETATM    8  C   UNL     1      -9.074   8.445  69.104  1.00  0.00    -0.147 A  
BRANCH   7   9
HETATM    9  N   UNL     1     -10.663   9.571  67.603  1.00  0.00    -0.375 N  
HETATM   10  H   UNL     1     -11.333   8.982  67.106  1.00  0.00     0.000 HD 
BRANCH   9  11
HETATM   11  S   UNL     1     -11.047  11.134  68.096  1.00  0.00    -0.290 S  
HETATM   12  O   UNL     1      -9.816  11.708  68.606  1.00  0.00    -0.203 OA 
HETATM   13  O   UNL     1     -12.243  11.105  68.909  1.00  0.00    -0.522 OA 
BRANCH  11  14
HETATM   14  C   UNL     1     -11.412  11.981  66.577  1.00  0.00    -0.349 A  
HETATM   15  C   UNL     1     -11.088  11.393  65.352  1.00  0.00    -0.196 A  
HETATM   16  C   UNL     1     -11.400  12.061  64.164  1.00  0.00    -0.455 A  
HETATM   17  C   UNL     1     -11.993  13.327  64.188  1.00  0.00    -0.447 A  
HETATM   18  C   UNL     1     -12.385  13.864  65.419  1.00  0.00    -0.494 A  
HETATM   19  N   UNL     1     -12.397  13.937  62.995  1.00  0.00    -1.023 NA 
HETATM   20  H2  UNL     1     -13.022  13.299  62.502  1.00  0.00     0.000 HD 
HETATM   21  H1  UNL     1     -12.830  14.861  63.012  1.00  0.00     0.000 HD 
HETATM   22  C   UNL     1     -12.082  13.205  66.615  1.00  0.00    -0.409 A  
ENDBRANCH  11  14
ENDBRANCH   9  11
ENDBRANCH   7   9
BRANCH   8  23
HETATM   23  O   UNL     1     -10.115   8.253  69.967  1.00  0.00    -0.190 OA 
HETATM   24  C   UNL     1     -10.114   8.978  71.192  1.00  0.00    -0.295 C  
ENDBRANCH   8  23
ENDBRANCH   2   3
TORSDOF 5
ENDMDL
MODEL      101
REMARK 921   NORMALIZED FREE ENERGY PREDICTED BY IDOCK:   -4.67 KCAL/MOL
REMARK 922        TOTAL FREE ENERGY PREDICTED BY IDOCK:   -6.55 KCAL/MOL
REMARK 923 INTER-LIGAND FREE ENERGY PREDICTED BY IDOCK:   -5.79 KCAL/MOL
REMARK 924 INTRA-LIGAND FREE ENERGY PREDICTED BY IDOCK:   -0.76 KCAL/MOL
REMARK 927      BINDING AFFINITY PREDICTED BY RF-SCORE:    0.00 PKD
ROOT
HETATM    1  C   UNL     1     -11.604  15.254  71.592  1.00  0.00    -0.408 C  
HETATM    2  O   UNL     1     -12.242  14.683  70.453  1.00  0.00    -0.289 OA 
ENDROOT
BRANCH   2   3
HETATM    3  C   UNL     1     -12.375  13.311  70.498  1.00  0.00    -0.316 A  
HETATM    4  N   UNL     1     -12.872  12.777  71.636  1.00  0.00    -0.309 NA 
HETATM    5  C   UNL     1     -12.980  11.444  71.676  1.00  0.00    -0.418 A  
HETATM    6  N   UNL     1     -12.655  10.604  70.694  1.00  0.00    -0.351 NA 
HETATM    7  C   UNL     1     -12.143  11.184  69.598  1.00  0.00    -0.336 A  
HETATM    8  C   UNL     1     -11.964  12.552  69.412  1.00  0.00    -0.256 A  
BRANCH   7   9
HETATM    9  N   UNL     1     -11.775  10.236  68.607  1.00  0.00    -0.512 N  
HETATM   10  H   UNL     1     -12.399   9.988  67.838  1.00  0.00     0.000 HD 
BRANCH   9  11
HETATM   11  S   UNL     1     -10.249   9.545  68.774  1.00  0.00    -0.205 S  
HETATM   12  O   UNL     1     -10.464   8.113  68.856  1.00  0.00    -0.215 OA 
HETATM   13  O   UNL     1      -9.512  10.244  69.804  1.00  0.00    -0.191 OA 
BRANCH  11  14
HETATM   14  C   UNL     1      -9.469   9.854  67.207  1.00  0.00    -0.153 A  
HETATM   15  C   UNL     1      -8.077   9.827  67.101  1.00  0.00    -0.116 A  
HETATM   16  C   UNL     1      -7.477  10.051  65.858  1.00  0.00    -0.115 A  
HETATM   17  C   UNL     1      -8.251  10.342  64.731  1.00  0.00    -0.163 A  
HETATM   18  C   UNL     1      -9.645  10.282  64.837  1.00  0.00    -0.365 A  
HETATM   19  N   UNL     1      -7.646  10.458  63.473  1.00  0.00    -0.297 NA 
HETATM   20  H2  UNL     1      -7.119   9.604  63.290  1.00  0.00     0.000 HD 
HETATM   21  H1  UNL     1      -8.211  10.670  62.650  1.00  0.00     0.000 HD 
HETATM   22  C   UNL     1     -10.258  10.057  66.073  1.00  0.00    -0.277 A  
ENDBRANCH  11  14
ENDBRANCH   9  11
ENDBRANCH   7   9
BRANCH   8  23
HETATM   23  O   UNL     1     -11.394  12.946  68.235  1.00  0.00    -0.251 OA 
HETATM   24  C   UNL     1     -10.051  13.416  68.264  1.00  0.00    -0.247 C  
ENDBRANCH   8  23
ENDBRANCH   2   3
TORSDOF 5
ENDMDL
MODEL      102
REMARK 921   NORMALIZED FREE ENERGY PREDICTED BY IDOCK:   -4.63 KCAL/MOL
REMARK 922        TOTAL FREE ENERGY PREDICTED BY IDOCK:   -6.50 KCAL/MOL
REMARK 923 INTER-LIGAND FREE ENERGY PREDICTED BY IDOCK:   -5.94 KCAL/MOL
REMARK 924 INTRA-LIGAND FREE ENERGY PREDICTED BY IDOCK:   -0.56 KCAL/MOL
REMARK 927      BINDING AFFINITY PREDICTED BY RF-SCORE:    0.00 PKD
ROOT
HETATM    1  C   UNL     1      -7.268  19.682  68.500  1.00  0.00    -0.328 C  
HETATM    2  O   UNL     1      -7.221  19.087  67.206  1.00  0.00    -0.215 OA 
ENDROOT
BRANCH   2   3
HETATM    3  C   UNL     1      -7.283  17.709  67.205  1.00  0.00    -0.180 A  
HETATM    4  N   UNL     1      -6.299  17.049  67.856  1.00  0.00    -0.134 NA 
HETATM    5  C   UNL     1      -6.358  15.712  67.833  1.00  0.00    -0.148 A  
HETATM    6  N   UNL     1      -7.302  14.982  67.240  1.00  0.00    -0.194 NA 
HETATM    7  C   UNL     1      -8.238  15.686  66.587  1.00  0.00    -0.249 A  
HETATM    8  C   UNL     1      -8.306  17.075  66.516  1.00  0.00    -0.278 A  
BRANCH   7   9
HETATM    9  N   UNL     1      -9.188  14.853  65.939  1.00  0.00    -0.502 N  
HETATM   10  H   UNL     1      -9.119  14.625  64.947  1.00  0.00     0.000 HD 
BRANCH   9  11
HETATM   11  S   UNL     1     -10.435  14.263  66.904  1.00  0.00    -0.274 S  
HETATM   12  O   UNL     1     -11.668  14.639  66.241  1.00  0.00    -0.370 OA 
HETATM   13  O   UNL     1     -10.194  14.629  68.283  1.00  0.00    -0.218 OA 
BRANCH  11  14
HETATM   14  C   UNL     1     -10.293  12.498  66.751  1.00  0.00    -0.226 A  
HETATM   15  C   UNL     1     -10.364  11.689  67.886  1.00  0.00    -0.206 A  
HETATM   16  C   UNL     1     -10.271  10.300  67.749  1.00  0.00    -0.225 A  
HETATM   17  C   UNL     1     -10.067   9.716  66.495  1.00  0.00    -0.244 A  
HETATM   18  C   UNL     1     -10.080  10.535  65.361  1.00  0.00    -0.358 A  
HETATM   19  N   UNL     1     -10.083   8.323  66.357  1.00  0.00    -0.452 NA 
HETATM   20  H2  UNL     1     -10.963   7.973  66.735  1.00  0.00     0.000 HD 
HETATM   21  H1  UNL     1      -9.933   7.897  65.442  1.00  0.00     0.000 HD 
HETATM   22  C   UNL     1     -10.175  11.925  65.483  1.00  0.00    -0.290 A  
ENDBRANCH  11  14
ENDBRANCH   9  11
ENDBRANCH   7   9
BRANCH   8  23
HETATM   23  O   UNL     1      -9.320  17.607  65.772  1.00  0.00    -0.511 OA 
HETATM   24  C   UNL     1     -10.497  18.032  66.449  1.00  0.00    -0.339 C  
ENDBRANCH   8  23
ENDBRANCH   2   3
TORSDOF 5
ENDMDL
MODEL      103
REMARK 921   NORMALIZED FREE ENERGY PREDICTED BY IDOCK:   -4.63 KCAL/MOL
REMARK 922        TOTAL FREE ENERGY PREDICTED BY IDOCK:   -6.49 KCAL/MOL
REMARK 923 INTER-LIGAND FREE ENERGY PREDICTED BY IDOCK:   -5.97 KCAL/MOL
REMARK 924 INTRA-LIGAND FREE ENERGY PREDICTED BY IDOCK:   -0.52 KCAL/MOL
REMARK 927      BINDING AFFINITY PREDICTED BY RF-SCORE:    0.00 PKD
ROOT
HETATM    1  C   UNL     1     -13.751  15.583  72.650  1.00  0.00    -0.575 C  
HETATM    2  O   UNL     1     -13.330  15.412  71.299  1.00  0.00    -0.466 OA 
ENDROOT
BRANCH   2   3
HETATM    3  C   UNL     1     -12.823  14.163  71.009  1.00  0.00    -0.351 A  
HETATM    4  N   UNL     1     -13.350  13.114  71.680  1.00  0.00    -0.348 NA 
HETATM    5  C   UNL     1     -12.838  11.908  71.405  1.00  0.00    -0.307 A  
HETATM    6  N   UNL     1     -11.871  11.652  70.525  1.00  0.00    -0.309 NA 
HETATM    7  C   UNL     1     -11.366  12.731  69.907  1.00  0.00     0.040 A  
HETATM    8  C   UNL     1     -11.788  14.044  70.093  1.00  0.00    -0.306 A  
BRANCH   7   9
HETATM    9  N   UNL     1     -10.311  12.400  69.017  1.00  0.00    -0.427 N  
HETATM   10  H   UNL     1      -9.356  12.247  69.344  1.00  0.00     0.000 HD 
BRANCH   9  11
HETATM   11  S   UNL     1     -10.726  12.273  67.391  1.00  0.00    -0.237 S  
HETATM   12  O   UNL     1      -9.920  13.256  66.693  1.00  0.00    -0.258 OA 
HETATM   13  O   UNL     1     -12.166  12.267  67.259  1.00  0.00    -0.485 OA 
BRANCH  11  14
HETATM   14  C   UNL     1     -10.104  10.677  66.916  1.00  0.00    -0.214 A  
HETATM   15  C   UNL     1      -9.137  10.572  65.915  1.00  0.00    -0.192 A  
HETATM   16  C   UNL     1      -8.641   9.312  65.566  1.00  0.00    -0.172 A  
HETATM   17  C   UNL     1      -9.132   8.154  66.177  1.00  0.00    -0.183 A  
HETATM   18  C   UNL     1     -10.039   8.284  67.235  1.00  0.00    -0.315 A  
HETATM   19  N   UNL     1      -8.553   6.911  65.897  1.00  0.00    -0.147 NA 
HETATM   20  H2  UNL     1      -7.552   6.973  66.083  1.00  0.00     0.000 HD 
HETATM   21  H1  UNL     1      -8.911   6.066  66.343  1.00  0.00     0.000 HD 
HETATM   22  C   UNL     1     -10.541   9.538  67.596  1.00  0.00    -0.329 A  
ENDBRANCH  11  14
ENDBRANCH   9  11
ENDBRANCH   7   9
BRANCH   8  23
HETATM   23  O   UNL     1     -11.124  15.012  69.394  1.00  0.00    -0.252 OA 
HETATM   24  C   UNL     1     -11.794  15.629  68.301  1.00  0.00    -0.140 C  
ENDBRANCH   8  23
ENDBRANCH   2   3
TORSDOF 5
ENDMDL
MODEL      104
REMARK 921   NORMALIZED FREE ENERGY PREDICTED BY IDOCK:   -4.61 KCAL/MOL
REMARK 922        TOTAL FREE ENERGY PREDICTED BY IDOCK:   -6.47 KCAL/MOL
REMARK 923 INTER-LIGAND FREE ENERGY PREDICTED BY IDOCK:   -5.85 KCAL/MOL
REMARK 924 INTRA-LIGAND FREE ENERGY PREDICTED BY IDOCK:   -0.62 KCAL/MOL
REMARK 927      BINDING AFFINITY PREDICTED BY RF-SCORE:    0.00 PKD
ROOT
HETATM    1  C   UNL     1      -9.763   6.670  74.154  1.00  0.00    -0.283 C  
HETATM    2  O   UNL     1     -10.890   6.970  73.337  1.00  0.00    -0.326 OA 
ENDROOT
BRANCH   2   3
HETATM    3  C   UNL     1     -10.787   6.534  72.033  1.00  0.00    -0.234 A  
HETATM    4  N   UNL     1     -10.347   5.270  71.840  1.00  0.00    -0.210 NA 
HETATM    5  C   UNL     1     -10.232   4.862  70.571  1.00  0.00    -0.218 A  
HETATM    6  N   UNL     1     -10.525   5.583  69.489  1.00  0.00    -0.286 NA 
HETATM    7  C   UNL     1     -10.932   6.837  69.736  1.00  0.00    -0.297 A  
HETATM    8  C   UNL     1     -11.093   7.404  70.997  1.00  0.00    -0.258 A  
BRANCH   7   9
HETATM    9  N   UNL     1     -11.185   7.568  68.546  1.00  0.00    -0.327 N  
HETATM   10  H   UNL     1     -12.132   7.725  68.199  1.00  0.00     0.000 HD 
BRANCH   9  11
HETATM   11  S   UNL     1      -9.831   8.161  67.739  1.00  0.00    -0.177 S  
HETATM   12  O   UNL     1      -9.612   7.272  66.615  1.00  0.00    -0.175 OA 
HETATM   13  O   UNL     1      -8.777   8.423  68.694  1.00  0.00    -0.131 OA 
BRANCH  11  14
HETATM   14  C   UNL     1     -10.384   9.709  67.064  1.00  0.00    -0.248 A  
HETATM   15  C   UNL     1     -11.043  10.633  67.877  1.00  0.00    -0.371 A  
HETATM   16  C   UNL     1     -11.454  11.856  67.338  1.00  0.00    -0.393 A  
HETATM   17  C   UNL     1     -11.250  12.148  65.986  1.00  0.00    -0.336 A  
HETATM   18  C   UNL     1     -10.516  11.247  65.206  1.00  0.00    -0.341 A  
HETATM   19  N   UNL     1     -11.569  13.415  65.483  1.00  0.00    -0.317 NA 
HETATM   20  H2  UNL     1     -11.078  14.114  66.041  1.00  0.00     0.000 HD 
HETATM   21  H1  UNL     1     -11.420  13.628  64.497  1.00  0.00     0.000 HD 
HETATM   22  C   UNL     1     -10.096  10.022  65.733  1.00  0.00    -0.320 A  
ENDBRANCH  11  14
ENDBRANCH   9  11
ENDBRANCH   7   9
BRANCH   8  23
HETATM   23  O   UNL     1     -11.486   8.712  71.042  1.00  0.00    -0.267 OA 
HETATM   24  C   UNL     1     -12.812   9.000  71.471  1.00  0.00    -0.336 C  
ENDBRANCH   8  23
ENDBRANCH   2   3
TORSDOF 5
ENDMDL
MODEL      105
REMARK 921   NORMALIZED FREE ENERGY PREDICTED BY IDOCK:   -4.61 KCAL/MOL
REMARK 922        TOTAL FREE ENERGY PREDICTED BY IDOCK:   -6.47 KCAL/MOL
REMARK 923 INTER-LIGAND FREE ENERGY PREDICTED BY IDOCK:   -6.20 KCAL/MOL
REMARK 924 INTRA-LIGAND FREE ENERGY PREDICTED BY IDOCK:   -0.27 KCAL/MOL
REMARK 927      BINDING AFFINITY PREDICTED BY RF-SCORE:    0.00 PKD
ROOT
HETATM    1  C   UNL     1     -11.784  11.367  68.537  1.00  0.00    -0.318 C  
HETATM    2  O   UNL     1     -12.103  12.435  67.650  1.00  0.00    -0.470 OA 
ENDROOT
BRANCH   2   3
HETATM    3  C   UNL     1     -11.896  13.695  68.170  1.00  0.00    -0.372 A  
HETATM    4  N   UNL     1     -12.386  13.938  69.407  1.00  0.00    -0.282 NA 
HETATM    5  C   UNL     1     -12.196  15.170  69.895  1.00  0.00    -0.314 A  
HETATM    6  N   UNL     1     -11.558  16.165  69.279  1.00  0.00    -0.309 NA 
HETATM    7  C   UNL     1     -11.115  15.878  68.046  1.00  0.00    -0.334 A  
HETATM    8  C   UNL     1     -11.244  14.649  67.404  1.00  0.00    -0.342 A  
BRANCH   7   9
HETATM    9  N   UNL     1     -10.486  16.989  67.425  1.00  0.00    -0.329 N  
HETATM   10  H   UNL     1     -10.721  17.282  66.476  1.00  0.00     0.000 HD 
BRANCH   9  11
HETATM   11  S   UNL     1      -9.330  17.794  68.346  1.00  0.00    -0.299 S  
HETATM   12  O   UNL     1      -8.600  16.767  69.063  1.00  0.00    -0.232 OA 
HETATM   13  O   UNL     1      -9.953  18.891  69.053  1.00  0.00    -0.392 OA 
BRANCH  11  14
HETATM   14  C   UNL     1      -8.212  18.461  67.135  1.00  0.00    -0.245 A  
HETATM   15  C   UNL     1      -7.389  17.607  66.397  1.00  0.00    -0.323 A  
HETATM   16  C   UNL     1      -6.529  18.143  65.433  1.00  0.00    -0.152 A  
HETATM   17  C   UNL     1      -6.454  19.524  65.228  1.00  0.00    -0.277 A  
HETATM   18  C   UNL     1      -7.344  20.356  65.916  1.00  0.00    -0.178 A  
HETATM   19  N   UNL     1      -5.671  20.039  64.188  1.00  0.00    -0.230 NA 
HETATM   20  H2  UNL     1      -5.965  19.600  63.316  1.00  0.00     0.000 HD 
HETATM   21  H1  UNL     1      -5.616  21.047  64.039  1.00  0.00     0.000 HD 
HETATM   22  C   UNL     1      -8.211  19.834  66.881  1.00  0.00    -0.342 A  
ENDBRANCH  11  14
ENDBRANCH   9  11
ENDBRANCH   7   9
BRANCH   8  23
HETATM   23  O   UNL     1     -10.755  14.564  66.131  1.00  0.00    -0.298 OA 
HETATM   24  C   UNL     1      -9.418  14.108  65.955  1.00  0.00    -0.160 C  
ENDBRANCH   8  23
ENDBRANCH   2   3
TORSDOF 5
ENDMDL
MODEL      106
REMARK 921   NORMALIZED FREE ENERGY PREDICTED BY IDOCK:   -4.61 KCAL/MOL
REMARK 922        TOTAL FREE ENERGY PREDICTED BY IDOCK:   -6.46 KCAL/MOL
REMARK 923 INTER-LIGAND FREE ENERGY PREDICTED BY IDOCK:   -6.12 KCAL/MOL
REMARK 924 INTRA-LIGAND FREE ENERGY PREDICTED BY IDOCK:   -0.34 KCAL/MOL
REMARK 927      BINDING AFFINITY PREDICTED BY RF-SCORE:    0.00 PKD
ROOT
HETATM    1  C   UNL     1      -7.955   8.786  69.510  1.00  0.00    -0.096 C  
HETATM    2  O   UNL     1      -8.756   9.961  69.425  1.00  0.00    -0.151 OA 
ENDROOT
BRANCH   2   3
HETATM    3  C   UNL     1      -9.187  10.271  68.152  1.00  0.00    -0.136 A  
HETATM    4  N   UNL     1      -9.540   9.238  67.353  1.00  0.00    -0.145 NA 
HETATM    5  C   UNL     1      -9.939   9.549  66.114  1.00  0.00    -0.272 A  
HETATM    6  N   UNL     1     -10.032  10.778  65.608  1.00  0.00    -0.247 NA 
HETATM    7  C   UNL     1      -9.646  11.762  66.433  1.00  0.00    -0.218 A  
HETATM    8  C   UNL     1      -9.201  11.596  67.742  1.00  0.00    -0.178 A  
BRANCH   7   9
HETATM    9  N   UNL     1      -9.724  13.041  65.823  1.00  0.00    -0.444 N  
HETATM   10  H   UNL     1      -8.903  13.504  65.431  1.00  0.00     0.000 HD 
BRANCH   9  11
HETATM   11  S   UNL     1     -11.250  13.752  65.785  1.00  0.00    -0.300 S  
HETATM   12  O   UNL     1     -12.202  12.658  65.800  1.00  0.00    -0.532 OA 
HETATM   13  O   UNL     1     -11.289  14.755  64.743  1.00  0.00    -0.384 OA 
BRANCH  11  14
HETATM   14  C   UNL     1     -11.380  14.563  67.361  1.00  0.00    -0.356 A  
HETATM   15  C   UNL     1     -11.993  13.913  68.434  1.00  0.00    -0.391 A  
HETATM   16  C   UNL     1     -12.070  14.554  69.674  1.00  0.00    -0.369 A  
HETATM   17  C   UNL     1     -11.580  15.853  69.841  1.00  0.00    -0.336 A  
HETATM   18  C   UNL     1     -10.896  16.456  68.780  1.00  0.00    -0.338 A  
HETATM   19  N   UNL     1     -11.566  16.442  71.111  1.00  0.00    -0.605 NA 
HETATM   20  H2  UNL     1     -11.063  15.824  71.747  1.00  0.00     0.000 HD 
HETATM   21  H1  UNL     1     -11.208  17.389  71.233  1.00  0.00     0.000 HD 
HETATM   22  C   UNL     1     -10.809  15.825  67.535  1.00  0.00    -0.315 A  
ENDBRANCH  11  14
ENDBRANCH   9  11
ENDBRANCH   7   9
BRANCH   8  23
HETATM   23  O   UNL     1      -8.819  12.722  68.413  1.00  0.00    -0.179 OA 
HETATM   24  C   UNL     1      -7.444  13.087  68.383  1.00  0.00    -0.128 C  
ENDBRANCH   8  23
ENDBRANCH   2   3
TORSDOF 5
ENDMDL
MODEL      107
REMARK 921   NORMALIZED FREE ENERGY PREDICTED BY IDOCK:   -4.60 KCAL/MOL
REMARK 922        TOTAL FREE ENERGY PREDICTED BY IDOCK:   -6.46 KCAL/MOL
REMARK 923 INTER-LIGAND FREE ENERGY PREDICTED BY IDOCK:   -6.11 KCAL/MOL
REMARK 924 INTRA-LIGAND FREE ENERGY PREDICTED BY IDOCK:   -0.34 KCAL/MOL
REMARK 927      BINDING AFFINITY PREDICTED BY RF-SCORE:    0.00 PKD
ROOT
HETATM    1  C   UNL     1     -11.650  11.590  67.726  1.00  0.00    -0.267 C  
HETATM    2  O   UNL     1     -11.006  11.836  68.973  1.00  0.00    -0.221 OA 
ENDROOT
BRANCH   2   3
HETATM    3  C   UNL     1     -11.475  11.072  70.022  1.00  0.00    -0.314 A  
HETATM    4  N   UNL     1     -12.526  11.562  70.718  1.00  0.00    -0.366 NA 
HETATM    5  C   UNL     1     -12.961  10.823  71.745  1.00  0.00    -0.463 A  
HETATM    6  N   UNL     1     -12.462   9.648  72.129  1.00  0.00    -0.321 NA 
HETATM    7  C   UNL     1     -11.407   9.221  71.420  1.00  0.00    -0.364 A  
HETATM    8  C   UNL     1     -10.838   9.881  70.334  1.00  0.00    -0.319 A  
BRANCH   7   9
HETATM    9  N   UNL     1     -10.893   7.989  71.904  1.00  0.00    -0.242 N  
HETATM   10  H   UNL     1     -10.018   7.937  72.427  1.00  0.00     0.000 HD 
BRANCH   9  11
HETATM   11  S   UNL     1     -11.812   6.620  71.565  1.00  0.00    -0.346 S  
HETATM   12  O   UNL     1     -13.099   7.103  71.106  1.00  0.00    -0.361 OA 
HETATM   13  O   UNL     1     -11.720   5.691  72.671  1.00  0.00    -0.303 OA 
BRANCH  11  14
HETATM   14  C   UNL     1     -11.003   5.905  70.153  1.00  0.00    -0.342 A  
HETATM   15  C   UNL     1     -10.153   4.808  70.314  1.00  0.00    -0.304 A  
HETATM   16  C   UNL     1      -9.539   4.243  69.192  1.00  0.00    -0.249 A  
HETATM   17  C   UNL     1      -9.733   4.786  67.919  1.00  0.00    -0.149 A  
HETATM   18  C   UNL     1     -10.652   5.830  67.765  1.00  0.00    -0.310 A  
HETATM   19  N   UNL     1      -9.201   4.147  66.792  1.00  0.00    -0.145 NA 
HETATM   20  H2  UNL     1      -9.531   3.182  66.784  1.00  0.00     0.000 HD 
HETATM   21  H1  UNL     1      -9.342   4.544  65.863  1.00  0.00     0.000 HD 
HETATM   22  C   UNL     1     -11.274   6.404  68.878  1.00  0.00    -0.385 A  
ENDBRANCH  11  14
ENDBRANCH   9  11
ENDBRANCH   7   9
BRANCH   8  23
HETATM   23  O   UNL     1      -9.742   9.300  69.763  1.00  0.00    -0.171 OA 
HETATM   24  C   UNL     1      -8.455   9.758  70.161  1.00  0.00    -0.174 C  
ENDBRANCH   8  23
ENDBRANCH   2   3
TORSDOF 5
ENDMDL
MODEL      108
REMARK 921   NORMALIZED FREE ENERGY PREDICTED BY IDOCK:   -4.59 KCAL/MOL
REMARK 922        TOTAL FREE ENERGY PREDICTED BY IDOCK:   -6.44 KCAL/MOL
REMARK 923 INTER-LIGAND FREE ENERGY PREDICTED BY IDOCK:   -7.10 KCAL/MOL
REMARK 924 INTRA-LIGAND FREE ENERGY PREDICTED BY IDOCK:    0.66 KCAL/MOL
REMARK 927      BINDING AFFINITY PREDICTED BY RF-SCORE:    0.00 PKD
ROOT
HETATM    1  C   UNL     1      -7.036  20.081  68.495  1.00  0.00    -0.289 C  
HETATM    2  O   UNL     1      -7.688  19.170  67.615  1.00  0.00    -0.239 OA 
ENDROOT
BRANCH   2   3
HETATM    3  C   UNL     1      -8.051  17.972  68.194  1.00  0.00    -0.273 A  
HETATM    4  N   UNL     1      -7.063  17.233  68.748  1.00  0.00    -0.227 NA 
HETATM    5  C   UNL     1      -7.423  16.064  69.291  1.00  0.00    -0.228 A  
HETATM    6  N   UNL     1      -8.662  15.576  69.346  1.00  0.00    -0.258 NA 
HETATM    7  C   UNL     1      -9.598  16.337  68.759  1.00  0.00    -0.242 A  
HETATM    8  C   UNL     1      -9.376  17.568  68.149  1.00  0.00    -0.276 A  
BRANCH   7   9
HETATM    9  N   UNL     1     -10.887  15.744  68.810  1.00  0.00    -0.258 N  
HETATM   10  H   UNL     1     -11.728  16.294  68.984  1.00  0.00     0.000 HD 
BRANCH   9  11
HETATM   11  S   UNL     1     -10.946  14.079  68.565  1.00  0.00    -0.266 S  
HETATM   12  O   UNL     1     -12.046  13.593  69.374  1.00  0.00    -0.326 OA 
HETATM   13  O   UNL     1      -9.618  13.522  68.708  1.00  0.00    -0.125 OA 
BRANCH  11  14
HETATM   14  C   UNL     1     -11.452  13.917  66.869  1.00  0.00    -0.351 A  
HETATM   15  C   UNL     1     -11.406  15.022  66.016  1.00  0.00    -0.270 A  
HETATM   16  C   UNL     1     -11.787  14.875  64.678  1.00  0.00    -0.412 A  
HETATM   17  C   UNL     1     -12.251  13.648  64.196  1.00  0.00    -0.399 A  
HETATM   18  C   UNL     1     -12.212  12.534  65.041  1.00  0.00    -0.519 A  
HETATM   19  N   UNL     1     -12.527  13.487  62.833  1.00  0.00    -0.865 NA 
HETATM   20  H2  UNL     1     -11.695  13.746  62.303  1.00  0.00     0.000 HD 
HETATM   21  H1  UNL     1     -12.866  12.591  62.480  1.00  0.00     0.000 HD 
HETATM   22  C   UNL     1     -11.831  12.665  66.380  1.00  0.00    -0.466 A  
ENDBRANCH  11  14
ENDBRANCH   9  11
ENDBRANCH   7   9
BRANCH   8  23
HETATM   23  O   UNL     1     -10.457  18.177  67.576  1.00  0.00    -0.380 OA 
HETATM   24  C   UNL     1     -10.391  18.497  66.191  1.00  0.00    -0.426 C  
ENDBRANCH   8  23
ENDBRANCH   2   3
TORSDOF 5
ENDMDL
MODEL      109
REMARK 921   NORMALIZED FREE ENERGY PREDICTED BY IDOCK:   -4.58 KCAL/MOL
REMARK 922        TOTAL FREE ENERGY PREDICTED BY IDOCK:   -6.43 KCAL/MOL
REMARK 923 INTER-LIGAND FREE ENERGY PREDICTED BY IDOCK:   -6.06 KCAL/MOL
REMARK 924 INTRA-LIGAND FREE ENERGY PREDICTED BY IDOCK:   -0.37 KCAL/MOL
REMARK 927      BINDING AFFINITY PREDICTED BY RF-SCORE:    0.00 PKD
ROOT
HETATM    1  C   UNL     1      -7.366   9.688  64.469  1.00  0.00    -0.125 C  
HETATM    2  O   UNL     1      -8.367   9.511  65.467  1.00  0.00    -0.123 OA 
ENDROOT
BRANCH   2   3
HETATM    3  C   UNL     1      -8.398  10.495  66.432  1.00  0.00    -0.145 A  
HETATM    4  N   UNL     1      -7.401  11.409  66.410  1.00  0.00    -0.064 NA 
HETATM    5  C   UNL     1      -7.429  12.349  67.362  1.00  0.00    -0.157 A  
HETATM    6  N   UNL     1      -8.354  12.470  68.314  1.00  0.00    -0.171 NA 
HETATM    7  C   UNL     1      -9.304  11.523  68.305  1.00  0.00    -0.190 A  
HETATM    8  C   UNL     1      -9.403  10.482  67.387  1.00  0.00    -0.142 A  
BRANCH   7   9
HETATM    9  N   UNL     1     -10.232  11.679  69.368  1.00  0.00    -0.411 N  
HETATM   10  H   UNL     1     -10.012  11.399  70.324  1.00  0.00     0.000 HD 
BRANCH   9  11
HETATM   11  S   UNL     1     -11.720  12.353  68.958  1.00  0.00    -0.316 S  
HETATM   12  O   UNL     1     -12.658  11.250  68.898  1.00  0.00    -0.327 OA 
HETATM   13  O   UNL     1     -11.552  13.246  67.833  1.00  0.00    -0.292 OA 
BRANCH  11  14
HETATM   14  C   UNL     1     -12.158  13.316  70.387  1.00  0.00    -0.327 A  
HETATM   15  C   UNL     1     -11.679  14.621  70.526  1.00  0.00    -0.345 A  
HETATM   16  C   UNL     1     -12.049  15.374  71.645  1.00  0.00    -0.449 A  
HETATM   17  C   UNL     1     -12.856  14.823  72.645  1.00  0.00    -0.405 A  
HETATM   18  C   UNL     1     -13.393  13.546  72.450  1.00  0.00    -0.641 A  
HETATM   19  N   UNL     1     -13.305  15.621  73.704  1.00  0.00    -0.644 NA 
HETATM   20  H2  UNL     1     -13.784  16.432  73.315  1.00  0.00     0.000 HD 
HETATM   21  H1  UNL     1     -13.894  15.219  74.434  1.00  0.00     0.000 HD 
HETATM   22  C   UNL     1     -13.034  12.783  71.334  1.00  0.00    -0.359 A  
ENDBRANCH  11  14
ENDBRANCH   9  11
ENDBRANCH   7   9
BRANCH   8  23
HETATM   23  O   UNL     1     -10.427   9.596  67.566  1.00  0.00    -0.228 OA 
HETATM   24  C   UNL     1     -10.120   8.314  68.102  1.00  0.00    -0.200 C  
ENDBRANCH   8  23
ENDBRANCH   2   3
TORSDOF 5
ENDMDL
MODEL      110
REMARK 921   NORMALIZED FREE ENERGY PREDICTED BY IDOCK:   -4.57 KCAL/MOL
REMARK 922        TOTAL FREE ENERGY PREDICTED BY IDOCK:   -6.42 KCAL/MOL
REMARK 923 INTER-LIGAND FREE ENERGY PREDICTED BY IDOCK:   -6.13 KCAL/MOL
REMARK 924 INTRA-LIGAND FREE ENERGY PREDICTED BY IDOCK:   -0.29 KCAL/MOL
REMARK 927      BINDING AFFINITY PREDICTED BY RF-SCORE:    0.00 PKD
ROOT
HETATM    1  C   UNL     1      -7.993   4.593  69.932  1.00  0.00    -0.068 C  
HETATM    2  O   UNL     1      -9.127   5.416  70.194  1.00  0.00    -0.130 OA 
ENDROOT
BRANCH   2   3
HETATM    3  C   UNL     1      -9.696   5.983  69.072  1.00  0.00    -0.133 A  
HETATM    4  N   UNL     1      -9.837   5.189  67.987  1.00  0.00    -0.146 NA 
HETATM    5  C   UNL     1     -10.373   5.754  66.898  1.00  0.00    -0.251 A  
HETATM    6  N   UNL     1     -10.790   7.015  66.797  1.00  0.00    -0.269 NA 
HETATM    7  C   UNL     1     -10.603   7.764  67.893  1.00  0.00    -0.156 A  
HETATM    8  C   UNL     1     -10.054   7.322  69.094  1.00  0.00    -0.183 A  
BRANCH   7   9
HETATM    9  N   UNL     1     -11.024   9.107  67.709  1.00  0.00    -0.492 N  
HETATM   10  H   UNL     1     -12.000   9.387  67.814  1.00  0.00     0.000 HD 
BRANCH   9  11
HETATM   11  S   UNL     1      -9.819  10.213  67.307  1.00  0.00    -0.192 S  
HETATM   12  O   UNL     1      -8.791   9.454  66.622  1.00  0.00    -0.131 OA 
HETATM   13  O   UNL     1      -9.499  11.020  68.464  1.00  0.00    -0.174 OA 
BRANCH  11  14
HETATM   14  C   UNL     1     -10.586  11.250  66.084  1.00  0.00    -0.258 A  
HETATM   15  C   UNL     1     -10.423  10.969  64.726  1.00  0.00    -0.384 A  
HETATM   16  C   UNL     1     -11.048  11.782  63.775  1.00  0.00    -0.513 A  
HETATM   17  C   UNL     1     -11.800  12.894  64.166  1.00  0.00    -0.414 A  
HETATM   18  C   UNL     1     -12.021  13.111  65.530  1.00  0.00    -0.457 A  
HETATM   19  N   UNL     1     -12.508  13.635  63.212  1.00  0.00    -1.048 NA 
HETATM   20  H2  UNL     1     -13.118  12.999  62.699  1.00  0.00     0.000 HD 
HETATM   21  H1  UNL     1     -13.057  14.446  63.497  1.00  0.00     0.000 HD 
HETATM   22  C   UNL     1     -11.404  12.306  66.492  1.00  0.00    -0.403 A  
ENDBRANCH  11  14
ENDBRANCH   9  11
ENDBRANCH   7   9
BRANCH   8  23
HETATM   23  O   UNL     1      -9.915   8.248  70.088  1.00  0.00    -0.184 OA 
HETATM   24  C   UNL     1      -8.627   8.425  70.666  1.00  0.00    -0.141 C  
ENDBRANCH   8  23
ENDBRANCH   2   3
TORSDOF 5
ENDMDL
MODEL      111
REMARK 921   NORMALIZED FREE ENERGY PREDICTED BY IDOCK:   -4.56 KCAL/MOL
REMARK 922        TOTAL FREE ENERGY PREDICTED BY IDOCK:   -6.40 KCAL/MOL
REMARK 923 INTER-LIGAND FREE ENERGY PREDICTED BY IDOCK:   -6.33 KCAL/MOL
REMARK 924 INTRA-LIGAND FREE ENERGY PREDICTED BY IDOCK:   -0.07 KCAL/MOL
REMARK 927      BINDING AFFINITY PREDICTED BY RF-SCORE:    0.00 PKD
ROOT
HETATM    1  C   UNL     1     -10.582   5.902  69.147  1.00  0.00    -0.299 C  
HETATM    2  O   UNL     1     -10.015   6.496  70.311  1.00  0.00    -0.173 OA 
ENDROOT
BRANCH   2   3
HETATM    3  C   UNL     1     -10.407   7.798  70.540  1.00  0.00    -0.205 A  
HETATM    4  N   UNL     1     -11.186   8.024  71.622  1.00  0.00    -0.247 NA 
HETATM    5  C   UNL     1     -11.577   9.288  71.825  1.00  0.00    -0.388 A  
HETATM    6  N   UNL     1     -11.256  10.336  71.068  1.00  0.00    -0.256 NA 
HETATM    7  C   UNL     1     -10.504  10.052  69.995  1.00  0.00    -0.287 A  
HETATM    8  C   UNL     1     -10.028   8.790  69.649  1.00  0.00    -0.191 A  
BRANCH   7   9
HETATM    9  N   UNL     1     -10.234  11.200  69.204  1.00  0.00    -0.367 N  
HETATM   10  H   UNL     1      -9.292  11.582  69.110  1.00  0.00     0.000 HD 
BRANCH   9  11
HETATM   11  S   UNL     1     -11.559  11.895  68.432  1.00  0.00    -0.328 S  
HETATM   12  O   UNL     1     -11.508  13.310  68.744  1.00  0.00    -0.263 OA 
HETATM   13  O   UNL     1     -12.745  11.116  68.711  1.00  0.00    -0.162 OA 
BRANCH  11  14
HETATM   14  C   UNL     1     -11.171  11.741  66.704  1.00  0.00    -0.323 A  
HETATM   15  C   UNL     1     -10.245  10.788  66.276  1.00  0.00    -0.301 A  
HETATM   16  C   UNL     1      -9.965  10.663  64.912  1.00  0.00    -0.382 A  
HETATM   17  C   UNL     1     -10.570  11.508  63.976  1.00  0.00    -0.379 A  
HETATM   18  C   UNL     1     -11.555  12.400  64.413  1.00  0.00    -0.418 A  
HETATM   19  N   UNL     1     -10.364  11.303  62.607  1.00  0.00    -0.612 NA 
HETATM   20  H2  UNL     1     -10.619  10.341  62.383  1.00  0.00     0.000 HD 
HETATM   21  H1  UNL     1     -10.805  11.919  61.924  1.00  0.00     0.000 HD 
HETATM   22  C   UNL     1     -11.847  12.533  65.773  1.00  0.00    -0.494 A  
ENDBRANCH  11  14
ENDBRANCH   9  11
ENDBRANCH   7   9
BRANCH   8  23
HETATM   23  O   UNL     1      -9.303   8.698  68.495  1.00  0.00    -0.138 OA 
HETATM   24  C   UNL     1      -7.924   8.361  68.594  1.00  0.00    -0.121 C  
ENDBRANCH   8  23
ENDBRANCH   2   3
TORSDOF 5
ENDMDL
MODEL      112
REMARK 921   NORMALIZED FREE ENERGY PREDICTED BY IDOCK:   -4.55 KCAL/MOL
REMARK 922        TOTAL FREE ENERGY PREDICTED BY IDOCK:   -6.40 KCAL/MOL
REMARK 923 INTER-LIGAND FREE ENERGY PREDICTED BY IDOCK:   -6.62 KCAL/MOL
REMARK 924 INTRA-LIGAND FREE ENERGY PREDICTED BY IDOCK:    0.23 KCAL/MOL
REMARK 927      BINDING AFFINITY PREDICTED BY RF-SCORE:    0.00 PKD
ROOT
HETATM    1  C   UNL     1     -11.265   9.568  71.300  1.00  0.00    -0.382 C  
HETATM    2  O   UNL     1     -12.171  10.650  71.105  1.00  0.00    -0.349 OA 
ENDROOT
BRANCH   2   3
HETATM    3  C   UNL     1     -12.070  11.268  69.876  1.00  0.00    -0.341 A  
HETATM    4  N   UNL     1     -12.002  10.468  68.788  1.00  0.00    -0.281 NA 
HETATM    5  C   UNL     1     -11.885  11.078  67.603  1.00  0.00     0.167 A  
HETATM    6  N   UNL     1     -11.845  12.395  67.402  1.00  0.00    -0.505 NA 
HETATM    7  C   UNL     1     -11.890  13.140  68.516  1.00  0.00    -0.342 A  
HETATM    8  C   UNL     1     -12.003  12.652  69.815  1.00  0.00    -0.295 A  
BRANCH   7   9
HETATM    9  N   UNL     1     -11.798  14.530  68.241  1.00  0.00    -0.440 N  
HETATM   10  H   UNL     1     -12.150  15.234  68.890  1.00  0.00     0.000 HD 
BRANCH   9  11
HETATM   11  S   UNL     1     -11.075  14.949  66.779  1.00  0.00    -0.330 S  
HETATM   12  O   UNL     1     -12.136  14.948  65.791  1.00  0.00    -0.169 OA 
HETATM   13  O   UNL     1      -9.881  14.155  66.586  1.00  0.00    -0.264 OA 
BRANCH  11  14
HETATM   14  C   UNL     1     -10.598  16.646  67.012  1.00  0.00    -0.247 A  
HETATM   15  C   UNL     1     -10.319  17.452  65.907  1.00  0.00    -0.276 A  
HETATM   16  C   UNL     1      -9.965  18.791  66.104  1.00  0.00    -0.378 A  
HETATM   17  C   UNL     1      -9.848  19.319  67.393  1.00  0.00    -0.336 A  
HETATM   18  C   UNL     1     -10.212  18.521  68.483  1.00  0.00    -0.389 A  
HETATM   19  N   UNL     1      -9.599  20.685  67.574  1.00  0.00    -0.409 NA 
HETATM   20  H2  UNL     1     -10.316  21.211  67.075  1.00  0.00     0.000 HD 
HETATM   21  H1  UNL     1      -9.514  21.071  68.515  1.00  0.00     0.000 HD 
HETATM   22  C   UNL     1     -10.570  17.182  68.301  1.00  0.00    -0.375 A  
ENDBRANCH  11  14
ENDBRANCH   9  11
ENDBRANCH   7   9
BRANCH   8  23
HETATM   23  O   UNL     1     -11.999  13.573  70.823  1.00  0.00    -0.305 OA 
HETATM   24  C   UNL     1     -13.148  13.658  71.659  1.00  0.00    -0.372 C  
ENDBRANCH   8  23
ENDBRANCH   2   3
TORSDOF 5
ENDMDL
MODEL      113
REMARK 921   NORMALIZED FREE ENERGY PREDICTED BY IDOCK:   -4.54 KCAL/MOL
REMARK 922        TOTAL FREE ENERGY PREDICTED BY IDOCK:   -6.38 KCAL/MOL
REMARK 923 INTER-LIGAND FREE ENERGY PREDICTED BY IDOCK:   -5.68 KCAL/MOL
REMARK 924 INTRA-LIGAND FREE ENERGY PREDICTED BY IDOCK:   -0.69 KCAL/MOL
REMARK 927      BINDING AFFINITY PREDICTED BY RF-SCORE:    0.00 PKD
ROOT
HETATM    1  C   UNL     1     -13.232   7.175  71.467  1.00  0.00    -0.360 C  
HETATM    2  O   UNL     1     -12.106   7.933  71.898  1.00  0.00    -0.288 OA 
ENDROOT
BRANCH   2   3
HETATM    3  C   UNL     1     -12.124   9.258  71.514  1.00  0.00    -0.361 A  
HETATM    4  N   UNL     1     -13.108  10.032  72.022  1.00  0.00    -0.446 NA 
HETATM    5  C   UNL     1     -13.128  11.311  71.628  1.00  0.00    -0.408 A  
HETATM    6  N   UNL     1     -12.260  11.886  70.796  1.00  0.00    -0.363 NA 
HETATM    7  C   UNL     1     -11.320  11.067  70.302  1.00  0.00    -0.203 A  
HETATM    8  C   UNL     1     -11.177   9.717  70.611  1.00  0.00    -0.334 A  
BRANCH   7   9
HETATM    9  N   UNL     1     -10.455  11.725  69.389  1.00  0.00    -0.428 N  
HETATM   10  H   UNL     1      -9.501  11.986  69.640  1.00  0.00     0.000 HD 
BRANCH   9  11
HETATM   11  S   UNL     1     -11.095  12.051  67.866  1.00  0.00    -0.256 S  
HETATM   12  O   UNL     1     -11.007  13.487  67.692  1.00  0.00    -0.255 OA 
HETATM   13  O   UNL     1     -12.358  11.362  67.715  1.00  0.00    -0.308 OA 
BRANCH  11  14
HETATM   14  C   UNL     1      -9.917  11.330  66.747  1.00  0.00    -0.206 A  
HETATM   15  C   UNL     1     -10.191  11.278  65.379  1.00  0.00    -0.323 A  
HETATM   16  C   UNL     1      -9.246  10.727  64.507  1.00  0.00    -0.250 A  
HETATM   17  C   UNL     1      -8.051  10.190  64.993  1.00  0.00    -0.149 A  
HETATM   18  C   UNL     1      -7.756  10.325  66.355  1.00  0.00    -0.116 A  
HETATM   19  N   UNL     1      -7.069   9.740  64.103  1.00  0.00    -0.121 NA 
HETATM   20  H2  UNL     1      -6.843  10.500  63.462  1.00  0.00     0.000 HD 
HETATM   21  H1  UNL     1      -6.196   9.348  64.458  1.00  0.00     0.000 HD 
HETATM   22  C   UNL     1      -8.690  10.876  67.237  1.00  0.00    -0.131 A  
ENDBRANCH  11  14
ENDBRANCH   9  11
ENDBRANCH   7   9
BRANCH   8  23
HETATM   23  O   UNL     1     -10.173   9.041  69.976  1.00  0.00    -0.187 OA 
HETATM   24  C   UNL     1     -10.507   8.264  68.832  1.00  0.00    -0.191 C  
ENDBRANCH   8  23
ENDBRANCH   2   3
TORSDOF 5
ENDMDL
MODEL      114
REMARK 921   NORMALIZED FREE ENERGY PREDICTED BY IDOCK:   -4.53 KCAL/MOL
REMARK 922        TOTAL FREE ENERGY PREDICTED BY IDOCK:   -6.37 KCAL/MOL
REMARK 923 INTER-LIGAND FREE ENERGY PREDICTED BY IDOCK:   -5.88 KCAL/MOL
REMARK 924 INTRA-LIGAND FREE ENERGY PREDICTED BY IDOCK:   -0.49 KCAL/MOL
REMARK 927      BINDING AFFINITY PREDICTED BY RF-SCORE:    0.00 PKD
ROOT
HETATM    1  C   UNL     1     -13.165  12.143  72.054  1.00  0.00    -0.391 C  
HETATM    2  O   UNL     1     -12.858  12.644  70.756  1.00  0.00    -0.162 OA 
ENDROOT
BRANCH   2   3
HETATM    3  C   UNL     1     -12.328  13.918  70.743  1.00  0.00    -0.378 A  
HETATM    4  N   UNL     1     -12.565  14.694  71.825  1.00  0.00    -0.326 NA 
HETATM    5  C   UNL     1     -12.062  15.933  71.794  1.00  0.00    -0.492 A  
HETATM    6  N   UNL     1     -11.343  16.461  70.805  1.00  0.00    -0.305 NA 
HETATM    7  C   UNL     1     -11.160  15.658  69.746  1.00  0.00    -0.313 A  
HETATM    8  C   UNL     1     -11.626  14.351  69.629  1.00  0.00    -0.292 A  
BRANCH   7   9
HETATM    9  N   UNL     1     -10.426  16.290  68.708  1.00  0.00    -0.263 N  
HETATM   10  H   UNL     1     -10.868  16.930  68.046  1.00  0.00     0.000 HD 
BRANCH   9  11
HETATM   11  S   UNL     1      -8.785  15.923  68.631  1.00  0.00    -0.213 S  
HETATM   12  O   UNL     1      -8.593  15.197  67.391  1.00  0.00    -0.163 OA 
HETATM   13  O   UNL     1      -8.357  15.360  69.893  1.00  0.00    -0.134 OA 
BRANCH  11  14
HETATM   14  C   UNL     1      -8.005  17.506  68.421  1.00  0.00    -0.261 A  
HETATM   15  C   UNL     1      -8.783  18.652  68.242  1.00  0.00    -0.349 A  
HETATM   16  C   UNL     1      -8.157  19.894  68.099  1.00  0.00    -0.287 A  
HETATM   17  C   UNL     1      -6.763  19.997  68.090  1.00  0.00    -0.291 A  
HETATM   18  C   UNL     1      -6.002  18.853  68.353  1.00  0.00    -0.225 A  
HETATM   19  N   UNL     1      -6.151  21.255  68.053  1.00  0.00    -0.325 NA 
HETATM   20  H2  UNL     1      -6.509  21.810  68.830  1.00  0.00     0.000 HD 
HETATM   21  H1  UNL     1      -5.133  21.331  68.047  1.00  0.00     0.000 HD 
HETATM   22  C   UNL     1      -6.615  17.605  68.501  1.00  0.00    -0.204 A  
ENDBRANCH  11  14
ENDBRANCH   9  11
ENDBRANCH   7   9
BRANCH   8  23
HETATM   23  O   UNL     1     -11.365  13.705  68.454  1.00  0.00    -0.260 OA 
HETATM   24  C   UNL     1     -10.575  12.522  68.500  1.00  0.00    -0.243 C  
ENDBRANCH   8  23
ENDBRANCH   2   3
TORSDOF 5
ENDMDL
MODEL      115
REMARK 921   NORMALIZED FREE ENERGY PREDICTED BY IDOCK:   -4.53 KCAL/MOL
REMARK 922        TOTAL FREE ENERGY PREDICTED BY IDOCK:   -6.36 KCAL/MOL
REMARK 923 INTER-LIGAND FREE ENERGY PREDICTED BY IDOCK:   -6.11 KCAL/MOL
REMARK 924 INTRA-LIGAND FREE ENERGY PREDICTED BY IDOCK:   -0.25 KCAL/MOL
REMARK 927      BINDING AFFINITY PREDICTED BY RF-SCORE:    0.00 PKD
ROOT
HETATM    1  C   UNL     1     -13.915  13.785  72.038  1.00  0.00    -0.470 C  
HETATM    2  O   UNL     1     -13.520  12.469  72.416  1.00  0.00    -0.529 OA 
ENDROOT
BRANCH   2   3
HETATM    3  C   UNL     1     -12.811  11.783  71.452  1.00  0.00    -0.335 A  
HETATM    4  N   UNL     1     -12.285  12.510  70.441  1.00  0.00    -0.333 NA 
HETATM    5  C   UNL     1     -11.616  11.833  69.501  1.00  0.00    -0.332 A  
HETATM    6  N   UNL     1     -11.412  10.516  69.483  1.00  0.00    -0.262 NA 
HETATM    7  C   UNL     1     -11.976   9.841  70.495  1.00  0.00    -0.206 A  
HETATM    8  C   UNL     1     -12.706  10.403  71.539  1.00  0.00    -0.459 A  
BRANCH   7   9
HETATM    9  N   UNL     1     -11.763   8.440  70.396  1.00  0.00    -0.471 N  
HETATM   10  H   UNL     1     -12.313   7.853  69.768  1.00  0.00     0.000 HD 
BRANCH   9  11
HETATM   11  S   UNL     1     -10.550   7.805  71.375  1.00  0.00    -0.215 S  
HETATM   12  O   UNL     1     -11.224   7.022  72.393  1.00  0.00    -0.250 OA 
HETATM   13  O   UNL     1      -9.624   8.855  71.740  1.00  0.00    -0.287 OA 
BRANCH  11  14
HETATM   14  C   UNL     1      -9.711   6.650  70.317  1.00  0.00    -0.171 A  
HETATM   15  C   UNL     1      -8.326   6.729  70.152  1.00  0.00    -0.135 A  
HETATM   16  C   UNL     1      -7.676   5.800  69.333  1.00  0.00    -0.092 A  
HETATM   17  C   UNL     1      -8.400   4.822  68.645  1.00  0.00    -0.082 A  
HETATM   18  C   UNL     1      -9.773   4.706  68.886  1.00  0.00    -0.236 A  
HETATM   19  N   UNL     1      -7.728   3.834  67.915  1.00  0.00    -0.069 NA 
HETATM   20  H2  UNL     1      -7.067   3.368  68.536  1.00  0.00     0.000 HD 
HETATM   21  H1  UNL     1      -8.256   3.120  67.412  1.00  0.00     0.000 HD 
HETATM   22  C   UNL     1     -10.435   5.625  69.705  1.00  0.00    -0.374 A  
ENDBRANCH  11  14
ENDBRANCH   9  11
ENDBRANCH   7   9
BRANCH   8  23
HETATM   23  O   UNL     1     -13.231   9.542  72.460  1.00  0.00    -0.408 OA 
HETATM   24  C   UNL     1     -14.383   8.789  72.095  1.00  0.00    -0.393 C  
ENDBRANCH   8  23
ENDBRANCH   2   3
TORSDOF 5
ENDMDL
MODEL      116
REMARK 921   NORMALIZED FREE ENERGY PREDICTED BY IDOCK:   -4.50 KCAL/MOL
REMARK 922        TOTAL FREE ENERGY PREDICTED BY IDOCK:   -6.33 KCAL/MOL
REMARK 923 INTER-LIGAND FREE ENERGY PREDICTED BY IDOCK:   -5.79 KCAL/MOL
REMARK 924 INTRA-LIGAND FREE ENERGY PREDICTED BY IDOCK:   -0.54 KCAL/MOL
REMARK 927      BINDING AFFINITY PREDICTED BY RF-SCORE:    0.00 PKD
ROOT
HETATM    1  C   UNL     1     -11.789   6.657  70.444  1.00  0.00    -0.346 C  
HETATM    2  O   UNL     1     -10.451   7.079  70.194  1.00  0.00    -0.204 OA 
ENDROOT
BRANCH   2   3
HETATM    3  C   UNL     1     -10.276   7.756  69.005  1.00  0.00    -0.208 A  
HETATM    4  N   UNL     1     -10.214   7.013  67.877  1.00  0.00    -0.172 NA 
HETATM    5  C   UNL     1     -10.025   7.678  66.731  1.00  0.00    -0.247 A  
HETATM    6  N   UNL     1      -9.908   8.999  66.605  1.00  0.00    -0.225 NA 
HETATM    7  C   UNL     1      -9.950   9.685  67.757  1.00  0.00    -0.171 A  
HETATM    8  C   UNL     1     -10.133   9.135  69.022  1.00  0.00    -0.191 A  
BRANCH   7   9
HETATM    9  N   UNL     1      -9.774  11.080  67.562  1.00  0.00    -0.171 N  
HETATM   10  H   UNL     1      -8.891  11.548  67.770  1.00  0.00     0.000 HD 
BRANCH   9  11
HETATM   11  S   UNL     1     -11.108  11.919  66.968  1.00  0.00    -0.319 S  
HETATM   12  O   UNL     1     -12.250  11.443  67.722  1.00  0.00    -0.537 OA 
HETATM   13  O   UNL     1     -11.103  11.873  65.522  1.00  0.00    -0.302 OA 
BRANCH  11  14
HETATM   14  C   UNL     1     -10.820  13.595  67.484  1.00  0.00    -0.264 A  
HETATM   15  C   UNL     1      -9.717  14.299  66.995  1.00  0.00    -0.253 A  
HETATM   16  C   UNL     1      -9.514  15.624  67.394  1.00  0.00    -0.217 A  
HETATM   17  C   UNL     1     -10.377  16.238  68.306  1.00  0.00    -0.272 A  
HETATM   18  C   UNL     1     -11.521  15.547  68.721  1.00  0.00    -0.363 A  
HETATM   19  N   UNL     1     -10.225  17.595  68.614  1.00  0.00    -0.365 NA 
HETATM   20  H2  UNL     1     -10.246  18.126  67.744  1.00  0.00     0.000 HD 
HETATM   21  H1  UNL     1     -10.855  18.044  69.280  1.00  0.00     0.000 HD 
HETATM   22  C   UNL     1     -11.738  14.223  68.328  1.00  0.00    -0.377 A  
ENDBRANCH  11  14
ENDBRANCH   9  11
ENDBRANCH   7   9
BRANCH   8  23
HETATM   23  O   UNL     1     -10.113   9.999  70.080  1.00  0.00    -0.248 OA 
HETATM   24  C   UNL     1     -11.347  10.304  70.720  1.00  0.00    -0.337 C  
ENDBRANCH   8  23
ENDBRANCH   2   3
TORSDOF 5
ENDMDL
MODEL      117
REMARK 921   NORMALIZED FREE ENERGY PREDICTED BY IDOCK:   -4.49 KCAL/MOL
REMARK 922        TOTAL FREE ENERGY PREDICTED BY IDOCK:   -6.31 KCAL/MOL
REMARK 923 INTER-LIGAND FREE ENERGY PREDICTED BY IDOCK:   -5.81 KCAL/MOL
REMARK 924 INTRA-LIGAND FREE ENERGY PREDICTED BY IDOCK:   -0.50 KCAL/MOL
REMARK 927      BINDING AFFINITY PREDICTED BY RF-SCORE:    0.00 PKD
ROOT
HETATM    1  C   UNL     1      -7.817   6.843  63.647  1.00  0.00    -0.107 C  
HETATM    2  O   UNL     1      -8.445   7.858  64.423  1.00  0.00    -0.045 OA 
ENDROOT
BRANCH   2   3
HETATM    3  C   UNL     1      -7.967   7.973  65.712  1.00  0.00    -0.111 A  
HETATM    4  N   UNL     1      -6.630   8.109  65.863  1.00  0.00    -0.046 NA 
HETATM    5  C   UNL     1      -6.175   8.201  67.118  1.00  0.00    -0.055 A  
HETATM    6  N   UNL     1      -6.921   8.185  68.222  1.00  0.00    -0.074 NA 
HETATM    7  C   UNL     1      -8.236   8.023  68.017  1.00  0.00    -0.129 A  
HETATM    8  C   UNL     1      -8.855   7.906  66.776  1.00  0.00    -0.138 A  
BRANCH   7   9
HETATM    9  N   UNL     1      -8.970   7.970  69.231  1.00  0.00    -0.148 N  
HETATM   10  H   UNL     1      -9.403   7.107  69.563  1.00  0.00     0.000 HD 
BRANCH   9  11
HETATM   11  S   UNL     1      -9.087   9.412  70.090  1.00  0.00    -0.246 S  
HETATM   12  O   UNL     1      -9.285  10.454  69.102  1.00  0.00    -0.180 OA 
HETATM   13  O   UNL     1      -8.004   9.494  71.047  1.00  0.00    -0.321 OA 
BRANCH  11  14
HETATM   14  C   UNL     1     -10.619   9.255  70.978  1.00  0.00    -0.316 A  
HETATM   15  C   UNL     1     -10.822   8.173  71.837  1.00  0.00    -0.333 A  
HETATM   16  C   UNL     1     -12.024   8.073  72.545  1.00  0.00    -0.384 A  
HETATM   17  C   UNL     1     -13.039   9.019  72.372  1.00  0.00    -0.423 A  
HETATM   18  C   UNL     1     -12.786  10.139  71.572  1.00  0.00    -0.548 A  
HETATM   19  N   UNL     1     -14.192   8.967  73.165  1.00  0.00    -1.200 NA 
HETATM   20  H2  UNL     1     -13.909   8.975  74.145  1.00  0.00     0.000 HD 
HETATM   21  H1  UNL     1     -14.932   9.657  73.039  1.00  0.00     0.000 HD 
HETATM   22  C   UNL     1     -11.588  10.253  70.861  1.00  0.00    -0.454 A  
ENDBRANCH  11  14
ENDBRANCH   9  11
ENDBRANCH   7   9
BRANCH   8  23
HETATM   23  O   UNL     1     -10.207   7.713  66.775  1.00  0.00    -0.267 OA 
HETATM   24  C   UNL     1     -10.694   6.376  66.777  1.00  0.00    -0.285 C  
ENDBRANCH   8  23
ENDBRANCH   2   3
TORSDOF 5
ENDMDL
MODEL      118
REMARK 921   NORMALIZED FREE ENERGY PREDICTED BY IDOCK:   -4.46 KCAL/MOL
REMARK 922        TOTAL FREE ENERGY PREDICTED BY IDOCK:   -6.27 KCAL/MOL
REMARK 923 INTER-LIGAND FREE ENERGY PREDICTED BY IDOCK:   -5.64 KCAL/MOL
REMARK 924 INTRA-LIGAND FREE ENERGY PREDICTED BY IDOCK:   -0.63 KCAL/MOL
REMARK 927      BINDING AFFINITY PREDICTED BY RF-SCORE:    0.00 PKD
ROOT
HETATM    1  C   UNL     1      -7.899   6.430  69.932  1.00  0.00    -0.114 C  
HETATM    2  O   UNL     1      -8.184   7.823  69.855  1.00  0.00    -0.121 OA 
ENDROOT
BRANCH   2   3
HETATM    3  C   UNL     1      -9.011   8.183  68.812  1.00  0.00    -0.144 A  
HETATM    4  N   UNL     1      -8.877   7.495  67.655  1.00  0.00    -0.128 NA 
HETATM    5  C   UNL     1      -9.671   7.865  66.644  1.00  0.00    -0.235 A  
HETATM    6  N   UNL     1     -10.584   8.835  66.681  1.00  0.00    -0.171 NA 
HETATM    7  C   UNL     1     -10.657   9.501  67.842  1.00  0.00    -0.244 A  
HETATM    8  C   UNL     1      -9.895   9.239  68.977  1.00  0.00    -0.166 A  
BRANCH   7   9
HETATM    9  N   UNL     1     -11.614  10.550  67.805  1.00  0.00    -0.334 N  
HETATM   10  H   UNL     1     -12.526  10.465  68.255  1.00  0.00     0.000 HD 
BRANCH   9  11
HETATM   11  S   UNL     1     -11.156  11.941  66.974  1.00  0.00    -0.319 S  
HETATM   12  O   UNL     1     -12.094  12.081  65.878  1.00  0.00    -0.546 OA 
HETATM   13  O   UNL     1      -9.730  11.911  66.731  1.00  0.00    -0.197 OA 
BRANCH  11  14
HETATM   14  C   UNL     1     -11.511  13.254  68.118  1.00  0.00    -0.312 A  
HETATM   15  C   UNL     1     -12.133  12.973  69.337  1.00  0.00    -0.267 A  
HETATM   16  C   UNL     1     -12.387  14.013  70.236  1.00  0.00    -0.425 A  
HETATM   17  C   UNL     1     -12.064  15.334  69.914  1.00  0.00    -0.343 A  
HETATM   18  C   UNL     1     -11.367  15.587  68.727  1.00  0.00    -0.339 A  
HETATM   19  N   UNL     1     -12.225  16.350  70.864  1.00  0.00    -0.328 NA 
HETATM   20  H2  UNL     1     -11.709  16.089  71.704  1.00  0.00     0.000 HD 
HETATM   21  H1  UNL     1     -11.989  17.314  70.629  1.00  0.00     0.000 HD 
HETATM   22  C   UNL     1     -11.104  14.556  67.819  1.00  0.00    -0.295 A  
ENDBRANCH  11  14
ENDBRANCH   9  11
ENDBRANCH   7   9
BRANCH   8  23
HETATM   23  O   UNL     1     -10.093  10.053  70.056  1.00  0.00    -0.248 OA 
HETATM   24  C   UNL     1     -10.922   9.580  71.111  1.00  0.00    -0.368 C  
ENDBRANCH   8  23
ENDBRANCH   2   3
TORSDOF 5
ENDMDL
MODEL      119
REMARK 921   NORMALIZED FREE ENERGY PREDICTED BY IDOCK:   -4.46 KCAL/MOL
REMARK 922        TOTAL FREE ENERGY PREDICTED BY IDOCK:   -6.27 KCAL/MOL
REMARK 923 INTER-LIGAND FREE ENERGY PREDICTED BY IDOCK:   -6.10 KCAL/MOL
REMARK 924 INTRA-LIGAND FREE ENERGY PREDICTED BY IDOCK:   -0.17 KCAL/MOL
REMARK 927      BINDING AFFINITY PREDICTED BY RF-SCORE:    0.00 PKD
ROOT
HETATM    1  C   UNL     1     -10.677  19.162  65.748  1.00  0.00    -0.307 C  
HETATM    2  O   UNL     1     -10.751  17.827  65.259  1.00  0.00    -0.649 OA 
ENDROOT
BRANCH   2   3
HETATM    3  C   UNL     1      -9.872  16.947  65.856  1.00  0.00    -0.215 A  
HETATM    4  N   UNL     1      -8.839  17.482  66.545  1.00  0.00    -0.266 NA 
HETATM    5  C   UNL     1      -7.982  16.620  67.104  1.00  0.00    -0.182 A  
HETATM    6  N   UNL     1      -8.065  15.291  67.052  1.00  0.00    -0.212 NA 
HETATM    7  C   UNL     1      -9.093  14.814  66.335  1.00  0.00    -0.233 A  
HETATM    8  C   UNL     1     -10.059  15.583  65.692  1.00  0.00    -0.376 A  
BRANCH   7   9
HETATM    9  N   UNL     1      -9.102  13.395  66.280  1.00  0.00    -0.470 N  
HETATM   10  H   UNL     1      -9.073  12.889  65.395  1.00  0.00     0.000 HD 
BRANCH   9  11
HETATM   11  S   UNL     1      -9.163  12.597  67.761  1.00  0.00    -0.204 S  
HETATM   12  O   UNL     1     -10.334  13.109  68.445  1.00  0.00    -0.245 OA 
HETATM   13  O   UNL     1      -7.860  12.642  68.388  1.00  0.00    -0.136 OA 
BRANCH  11  14
HETATM   14  C   UNL     1      -9.525  10.913  67.322  1.00  0.00    -0.159 A  
HETATM   15  C   UNL     1      -9.028  10.378  66.131  1.00  0.00    -0.175 A  
HETATM   16  C   UNL     1      -9.303   9.046  65.808  1.00  0.00    -0.302 A  
HETATM   17  C   UNL     1     -10.102   8.257  66.640  1.00  0.00    -0.281 A  
HETATM   18  C   UNL     1     -10.522   8.783  67.867  1.00  0.00    -0.275 A  
HETATM   19  N   UNL     1     -10.281   6.897  66.360  1.00  0.00    -0.455 NA 
HETATM   20  H2  UNL     1      -9.362   6.460  66.288  1.00  0.00     0.000 HD 
HETATM   21  H1  UNL     1     -10.864   6.321  66.967  1.00  0.00     0.000 HD 
HETATM   22  C   UNL     1     -10.252  10.112  68.204  1.00  0.00    -0.200 A  
ENDBRANCH  11  14
ENDBRANCH   9  11
ENDBRANCH   7   9
BRANCH   8  23
HETATM   23  O   UNL     1     -11.011  14.909  64.981  1.00  0.00    -0.370 OA 
HETATM   24  C   UNL     1     -12.103  14.339  65.694  1.00  0.00    -0.393 C  
ENDBRANCH   8  23
ENDBRANCH   2   3
TORSDOF 5
ENDMDL
MODEL      120
REMARK 921   NORMALIZED FREE ENERGY PREDICTED BY IDOCK:   -4.43 KCAL/MOL
REMARK 922        TOTAL FREE ENERGY PREDICTED BY IDOCK:   -6.23 KCAL/MOL
REMARK 923 INTER-LIGAND FREE ENERGY PREDICTED BY IDOCK:   -5.85 KCAL/MOL
REMARK 924 INTRA-LIGAND FREE ENERGY PREDICTED BY IDOCK:   -0.39 KCAL/MOL
REMARK 927      BINDING AFFINITY PREDICTED BY RF-SCORE:    0.00 PKD
ROOT
HETATM    1  C   UNL     1     -11.261  11.693  63.848  1.00  0.00    -0.397 C  
HETATM    2  O   UNL     1     -12.265  12.257  64.687  1.00  0.00    -0.411 OA 
ENDROOT
BRANCH   2   3
HETATM    3  C   UNL     1     -11.808  12.704  65.909  1.00  0.00    -0.444 A  
HETATM    4  N   UNL     1     -12.128  11.962  66.994  1.00  0.00    -0.520 NA 
HETATM    5  C   UNL     1     -11.695  12.414  68.177  1.00  0.00    -0.353 A  
HETATM    6  N   UNL     1     -10.972  13.515  68.375  1.00  0.00    -0.256 NA 
HETATM    7  C   UNL     1     -10.705  14.226  67.270  1.00  0.00    -0.277 A  
HETATM    8  C   UNL     1     -11.091  13.889  65.976  1.00  0.00    -0.289 A  
BRANCH   7   9
HETATM    9  N   UNL     1      -9.971  15.409  67.551  1.00  0.00    -0.225 N  
HETATM   10  H   UNL     1     -10.410  16.330  67.549  1.00  0.00     0.000 HD 
BRANCH   9  11
HETATM   11  S   UNL     1      -8.335  15.202  67.888  1.00  0.00    -0.157 S  
HETATM   12  O   UNL     1      -7.907  14.054  67.113  1.00  0.00    -0.150 OA 
HETATM   13  O   UNL     1      -8.126  15.250  69.319  1.00  0.00    -0.207 OA 
BRANCH  11  14
HETATM   14  C   UNL     1      -7.567  16.626  67.153  1.00  0.00    -0.184 A  
HETATM   15  C   UNL     1      -6.180  16.671  66.995  1.00  0.00    -0.212 A  
HETATM   16  C   UNL     1      -5.590  17.789  66.396  1.00  0.00    -0.224 A  
HETATM   17  C   UNL     1      -6.368  18.878  65.992  1.00  0.00    -0.204 A  
HETATM   18  C   UNL     1      -7.761  18.782  66.082  1.00  0.00    -0.274 A  
HETATM   19  N   UNL     1      -5.780  19.943  65.298  1.00  0.00    -0.169 NA 
HETATM   20  H2  UNL     1      -5.302  19.568  64.479  1.00  0.00     0.000 HD 
HETATM   21  H1  UNL     1      -6.347  20.738  65.003  1.00  0.00     0.000 HD 
HETATM   22  C   UNL     1      -8.363  17.669  66.676  1.00  0.00    -0.288 A  
ENDBRANCH  11  14
ENDBRANCH   9  11
ENDBRANCH   7   9
BRANCH   8  23
HETATM   23  O   UNL     1     -10.751  14.762  64.982  1.00  0.00    -0.380 OA 
HETATM   24  C   UNL     1     -11.797  15.337  64.207  1.00  0.00    -0.225 C  
ENDBRANCH   8  23
ENDBRANCH   2   3
TORSDOF 5
ENDMDL
MODEL      121
REMARK 921   NORMALIZED FREE ENERGY PREDICTED BY IDOCK:   -4.43 KCAL/MOL
REMARK 922        TOTAL FREE ENERGY PREDICTED BY IDOCK:   -6.23 KCAL/MOL
REMARK 923 INTER-LIGAND FREE ENERGY PREDICTED BY IDOCK:   -5.81 KCAL/MOL
REMARK 924 INTRA-LIGAND FREE ENERGY PREDICTED BY IDOCK:   -0.42 KCAL/MOL
REMARK 927      BINDING AFFINITY PREDICTED BY RF-SCORE:    0.00 PKD
ROOT
HETATM    1  C   UNL     1      -8.727   9.322  62.445  1.00  0.00    -0.235 C  
HETATM    2  O   UNL     1      -8.722  10.449  63.316  1.00  0.00    -0.172 OA 
ENDROOT
BRANCH   2   3
HETATM    3  C   UNL     1      -9.307  10.228  64.545  1.00  0.00    -0.276 A  
HETATM    4  N   UNL     1      -9.157   8.997  65.085  1.00  0.00    -0.184 NA 
HETATM    5  C   UNL     1      -9.745   8.786  66.269  1.00  0.00    -0.272 A  
HETATM    6  N   UNL     1     -10.447   9.681  66.963  1.00  0.00    -0.246 NA 
HETATM    7  C   UNL     1     -10.586  10.876  66.371  1.00  0.00    -0.229 A  
HETATM    8  C   UNL     1     -10.042  11.241  65.142  1.00  0.00    -0.275 A  
BRANCH   7   9
HETATM    9  N   UNL     1     -11.380  11.770  67.136  1.00  0.00    -0.320 N  
HETATM   10  H   UNL     1     -12.313  12.055  66.838  1.00  0.00     0.000 HD 
BRANCH   9  11
HETATM   11  S   UNL     1     -10.690  12.335  68.565  1.00  0.00    -0.241 S  
HETATM   12  O   UNL     1      -9.302  11.918  68.533  1.00  0.00    -0.196 OA 
HETATM   13  O   UNL     1     -11.543  11.990  69.682  1.00  0.00    -0.296 OA 
BRANCH  11  14
HETATM   14  C   UNL     1     -10.696  14.102  68.370  1.00  0.00    -0.256 A  
HETATM   15  C   UNL     1     -11.302  14.910  69.334  1.00  0.00    -0.312 A  
HETATM   16  C   UNL     1     -11.281  16.300  69.179  1.00  0.00    -0.309 A  
HETATM   17  C   UNL     1     -10.698  16.886  68.052  1.00  0.00    -0.364 A  
HETATM   18  C   UNL     1     -10.025  16.067  67.139  1.00  0.00    -0.249 A  
HETATM   19  N   UNL     1     -10.589  18.279  67.960  1.00  0.00    -0.364 NA 
HETATM   20  H2  UNL     1     -10.099  18.618  68.788  1.00  0.00     0.000 HD 
HETATM   21  H1  UNL     1     -10.164  18.707  67.138  1.00  0.00     0.000 HD 
HETATM   22  C   UNL     1     -10.035  14.677  67.283  1.00  0.00    -0.235 A  
ENDBRANCH  11  14
ENDBRANCH   9  11
ENDBRANCH   7   9
BRANCH   8  23
HETATM   23  O   UNL     1     -10.324  12.499  64.690  1.00  0.00    -0.298 OA 
HETATM   24  C   UNL     1     -11.316  12.641  63.679  1.00  0.00    -0.481 C  
ENDBRANCH   8  23
ENDBRANCH   2   3
TORSDOF 5
ENDMDL
MODEL      122
REMARK 921   NORMALIZED FREE ENERGY PREDICTED BY IDOCK:   -4.43 KCAL/MOL
REMARK 922        TOTAL FREE ENERGY PREDICTED BY IDOCK:   -6.23 KCAL/MOL
REMARK 923 INTER-LIGAND FREE ENERGY PREDICTED BY IDOCK:   -5.88 KCAL/MOL
REMARK 924 INTRA-LIGAND FREE ENERGY PREDICTED BY IDOCK:   -0.35 KCAL/MOL
REMARK 927      BINDING AFFINITY PREDICTED BY RF-SCORE:    0.00 PKD
ROOT
HETATM    1  C   UNL     1      -8.582  17.589  66.408  1.00  0.00    -0.240 C  
HETATM    2  O   UNL     1      -9.708  17.058  67.101  1.00  0.00    -0.247 OA 
ENDROOT
BRANCH   2   3
HETATM    3  C   UNL     1      -9.953  15.722  66.859  1.00  0.00    -0.243 A  
HETATM    4  N   UNL     1     -10.409  15.393  65.629  1.00  0.00    -0.342 NA 
HETATM    5  C   UNL     1     -10.661  14.097  65.411  1.00  0.00    -0.342 A  
HETATM    6  N   UNL     1     -10.491  13.109  66.289  1.00  0.00    -0.280 NA 
HETATM    7  C   UNL     1     -10.063  13.494  67.500  1.00  0.00    -0.234 A  
HETATM    8  C   UNL     1      -9.765  14.800  67.878  1.00  0.00    -0.211 A  
BRANCH   7   9
HETATM    9  N   UNL     1      -9.945  12.405  68.403  1.00  0.00    -0.244 N  
HETATM   10  H   UNL     1      -9.039  12.010  68.658  1.00  0.00     0.000 HD 
BRANCH   9  11
HETATM   11  S   UNL     1     -11.387  11.802  69.028  1.00  0.00    -0.304 S  
HETATM   12  O   UNL     1     -12.127  11.278  67.897  1.00  0.00    -0.634 OA 
HETATM   13  O   UNL     1     -11.978  12.783  69.911  1.00  0.00    -0.321 OA 
BRANCH  11  14
HETATM   14  C   UNL     1     -10.877  10.400  69.996  1.00  0.00    -0.289 A  
HETATM   15  C   UNL     1     -11.812   9.699  70.759  1.00  0.00    -0.378 A  
HETATM   16  C   UNL     1     -11.401   8.586  71.500  1.00  0.00    -0.348 A  
HETATM   17  C   UNL     1     -10.060   8.192  71.517  1.00  0.00    -0.188 A  
HETATM   18  C   UNL     1      -9.153   8.855  70.683  1.00  0.00    -0.247 A  
HETATM   19  N   UNL     1      -9.681   7.016  72.174  1.00  0.00    -0.148 NA 
HETATM   20  H2  UNL     1     -10.237   6.246  71.802  1.00  0.00     0.000 HD 
HETATM   21  H1  UNL     1      -8.702   6.728  72.187  1.00  0.00     0.000 HD 
HETATM   22  C   UNL     1      -9.551   9.967  69.935  1.00  0.00    -0.233 A  
ENDBRANCH  11  14
ENDBRANCH   9  11
ENDBRANCH   7   9
BRANCH   8  23
HETATM   23  O   UNL     1      -9.373  14.995  69.172  1.00  0.00    -0.205 OA 
HETATM   24  C   UNL     1      -7.984  15.164  69.434  1.00  0.00    -0.205 C  
ENDBRANCH   8  23
ENDBRANCH   2   3
TORSDOF 5
ENDMDL
MODEL      123
REMARK 921   NORMALIZED FREE ENERGY PREDICTED BY IDOCK:   -4.42 KCAL/MOL
REMARK 922        TOTAL FREE ENERGY PREDICTED BY IDOCK:   -6.23 KCAL/MOL
REMARK 923 INTER-LIGAND FREE ENERGY PREDICTED BY IDOCK:   -6.09 KCAL/MOL
REMARK 924 INTRA-LIGAND FREE ENERGY PREDICTED BY IDOCK:   -0.14 KCAL/MOL
REMARK 927      BINDING AFFINITY PREDICTED BY RF-SCORE:    0.00 PKD
ROOT
HETATM    1  C   UNL     1      -5.416  17.979  69.469  1.00  0.00    -0.207 C  
HETATM    2  O   UNL     1      -6.820  17.928  69.232  1.00  0.00    -0.250 OA 
ENDROOT
BRANCH   2   3
HETATM    3  C   UNL     1      -7.270  16.736  68.705  1.00  0.00    -0.217 A  
HETATM    4  N   UNL     1      -7.104  15.627  69.461  1.00  0.00    -0.199 NA 
HETATM    5  C   UNL     1      -7.527  14.473  68.932  1.00  0.00    -0.133 A  
HETATM    6  N   UNL     1      -8.107  14.325  67.742  1.00  0.00    -0.155 NA 
HETATM    7  C   UNL     1      -8.224  15.452  67.024  1.00  0.00    -0.236 A  
HETATM    8  C   UNL     1      -7.825  16.720  67.434  1.00  0.00    -0.171 A  
BRANCH   7   9
HETATM    9  N   UNL     1      -8.806  15.222  65.749  1.00  0.00    -0.262 N  
HETATM   10  H   UNL     1      -8.255  14.897  64.954  1.00  0.00     0.000 HD 
BRANCH   9  11
HETATM   11  S   UNL     1     -10.459  15.519  65.626  1.00  0.00    -0.401 S  
HETATM   12  O   UNL     1     -10.981  14.514  64.721  1.00  0.00    -0.390 OA 
HETATM   13  O   UNL     1     -10.680  16.927  65.378  1.00  0.00    -0.524 OA 
BRANCH  11  14
HETATM   14  C   UNL     1     -11.083  15.122  67.242  1.00  0.00    -0.332 A  
HETATM   15  C   UNL     1     -11.284  16.134  68.183  1.00  0.00    -0.311 A  
HETATM   16  C   UNL     1     -11.795  15.810  69.444  1.00  0.00    -0.361 A  
HETATM   17  C   UNL     1     -12.068  14.483  69.787  1.00  0.00    -0.331 A  
HETATM   18  C   UNL     1     -11.941  13.494  68.806  1.00  0.00    -0.374 A  
HETATM   19  N   UNL     1     -12.679  14.184  71.011  1.00  0.00    -0.343 NA 
HETATM   20  H2  UNL     1     -13.546  14.718  71.077  1.00  0.00     0.000 HD 
HETATM   21  H1  UNL     1     -12.879  13.215  71.261  1.00  0.00     0.000 HD 
HETATM   22  C   UNL     1     -11.433  13.804  67.540  1.00  0.00    -0.359 A  
ENDBRANCH  11  14
ENDBRANCH   9  11
ENDBRANCH   7   9
BRANCH   8  23
HETATM   23  O   UNL     1      -7.999  17.741  66.543  1.00  0.00    -0.233 OA 
HETATM   24  C   UNL     1      -6.860  18.211  65.831  1.00  0.00    -0.298 C  
ENDBRANCH   8  23
ENDBRANCH   2   3
TORSDOF 5
ENDMDL
MODEL      124
REMARK 921   NORMALIZED FREE ENERGY PREDICTED BY IDOCK:   -4.40 KCAL/MOL
REMARK 922        TOTAL FREE ENERGY PREDICTED BY IDOCK:   -6.19 KCAL/MOL
REMARK 923 INTER-LIGAND FREE ENERGY PREDICTED BY IDOCK:   -5.97 KCAL/MOL
REMARK 924 INTRA-LIGAND FREE ENERGY PREDICTED BY IDOCK:   -0.22 KCAL/MOL
REMARK 927      BINDING AFFINITY PREDICTED BY RF-SCORE:    0.00 PKD
ROOT
HETATM    1  C   UNL     1     -11.272  15.686  64.615  1.00  0.00    -0.369 C  
HETATM    2  O   UNL     1     -10.173  15.377  65.467  1.00  0.00    -0.331 OA 
ENDROOT
BRANCH   2   3
HETATM    3  C   UNL     1     -10.522  15.065  66.765  1.00  0.00    -0.283 A  
HETATM    4  N   UNL     1     -11.112  16.039  67.494  1.00  0.00    -0.261 NA 
HETATM    5  C   UNL     1     -11.430  15.732  68.757  1.00  0.00    -0.388 A  
HETATM    6  N   UNL     1     -11.230  14.555  69.349  1.00  0.00    -0.271 NA 
HETATM    7  C   UNL     1     -10.619  13.634  68.589  1.00  0.00    -0.248 A  
HETATM    8  C   UNL     1     -10.223  13.808  67.266  1.00  0.00    -0.253 A  
BRANCH   7   9
HETATM    9  N   UNL     1     -10.393  12.419  69.289  1.00  0.00    -0.399 N  
HETATM   10  H   UNL     1      -9.458  12.124  69.570  1.00  0.00     0.000 HD 
BRANCH   9  11
HETATM   11  S   UNL     1     -11.759  11.495  69.626  1.00  0.00    -0.376 S  
HETATM   12  O   UNL     1     -12.311  11.110  68.342  1.00  0.00    -0.556 OA 
HETATM   13  O   UNL     1     -12.572  12.176  70.609  1.00  0.00    -0.266 OA 
BRANCH  11  14
HETATM   14  C   UNL     1     -11.099  10.016  70.360  1.00  0.00    -0.327 A  
HETATM   15  C   UNL     1     -10.250   9.187  69.623  1.00  0.00    -0.211 A  
HETATM   16  C   UNL     1      -9.722   8.038  70.220  1.00  0.00    -0.175 A  
HETATM   17  C   UNL     1     -10.066   7.687  71.528  1.00  0.00    -0.178 A  
HETATM   18  C   UNL     1     -10.851   8.570  72.278  1.00  0.00    -0.418 A  
HETATM   19  N   UNL     1      -9.448   6.595  72.149  1.00  0.00    -0.145 NA 
HETATM   20  H2  UNL     1      -8.438   6.731  72.108  1.00  0.00     0.000 HD 
HETATM   21  H1  UNL     1      -9.699   6.339  73.105  1.00  0.00     0.000 HD 
HETATM   22  C   UNL     1     -11.383   9.724  71.696  1.00  0.00    -0.230 A  
ENDBRANCH  11  14
ENDBRANCH   9  11
ENDBRANCH   7   9
BRANCH   8  23
HETATM   23  O   UNL     1      -9.582  12.758  66.670  1.00  0.00    -0.242 OA 
HETATM   24  C   UNL     1      -8.185  12.609  66.895  1.00  0.00    -0.044 C  
ENDBRANCH   8  23
ENDBRANCH   2   3
TORSDOF 5
ENDMDL
MODEL      125
REMARK 921   NORMALIZED FREE ENERGY PREDICTED BY IDOCK:   -4.39 KCAL/MOL
REMARK 922        TOTAL FREE ENERGY PREDICTED BY IDOCK:   -6.18 KCAL/MOL
REMARK 923 INTER-LIGAND FREE ENERGY PREDICTED BY IDOCK:   -5.83 KCAL/MOL
REMARK 924 INTRA-LIGAND FREE ENERGY PREDICTED BY IDOCK:   -0.35 KCAL/MOL
REMARK 927      BINDING AFFINITY PREDICTED BY RF-SCORE:    0.00 PKD
ROOT
HETATM    1  C   UNL     1     -12.596   9.302  71.964  1.00  0.00    -0.390 C  
HETATM    2  O   UNL     1     -13.196  10.123  70.966  1.00  0.00    -0.394 OA 
ENDROOT
BRANCH   2   3
HETATM    3  C   UNL     1     -12.888  11.464  71.065  1.00  0.00    -0.286 A  
HETATM    4  N   UNL     1     -13.658  12.212  71.887  1.00  0.00    -0.210 NA 
HETATM    5  C   UNL     1     -13.364  13.515  71.962  1.00  0.00    -0.475 A  
HETATM    6  N   UNL     1     -12.377  14.132  71.312  1.00  0.00    -0.360 NA 
HETATM    7  C   UNL     1     -11.662  13.349  70.492  1.00  0.00    -0.026 A  
HETATM    8  C   UNL     1     -11.853  11.983  70.303  1.00  0.00    -0.270 A  
BRANCH   7   9
HETATM    9  N   UNL     1     -10.657  14.071  69.795  1.00  0.00    -0.405 N  
HETATM   10  H   UNL     1      -9.672  14.015  70.058  1.00  0.00     0.000 HD 
BRANCH   9  11
HETATM   11  S   UNL     1     -11.184  15.024  68.512  1.00  0.00    -0.303 S  
HETATM   12  O   UNL     1     -11.911  16.129  69.104  1.00  0.00    -0.309 OA 
HETATM   13  O   UNL     1     -11.802  14.184  67.508  1.00  0.00    -0.366 OA 
BRANCH  11  14
HETATM   14  C   UNL     1      -9.684  15.702  67.841  1.00  0.00    -0.211 A  
HETATM   15  C   UNL     1      -9.605  17.063  67.539  1.00  0.00    -0.249 A  
HETATM   16  C   UNL     1      -8.412  17.587  67.032  1.00  0.00    -0.252 A  
HETATM   17  C   UNL     1      -7.313  16.759  66.785  1.00  0.00    -0.240 A  
HETATM   18  C   UNL     1      -7.382  15.415  67.171  1.00  0.00    -0.203 A  
HETATM   19  N   UNL     1      -6.092  17.311  66.379  1.00  0.00    -0.213 NA 
HETATM   20  H2  UNL     1      -5.816  18.017  67.062  1.00  0.00     0.000 HD 
HETATM   21  H1  UNL     1      -5.290  16.707  66.199  1.00  0.00     0.000 HD 
HETATM   22  C   UNL     1      -8.568  14.879  67.682  1.00  0.00    -0.181 A  
ENDBRANCH  11  14
ENDBRANCH   9  11
ENDBRANCH   7   9
BRANCH   8  23
HETATM   23  O   UNL     1     -11.040  11.365  69.396  1.00  0.00    -0.244 OA 
HETATM   24  C   UNL     1     -11.619  10.906  68.179  1.00  0.00    -0.241 C  
ENDBRANCH   8  23
ENDBRANCH   2   3
TORSDOF 5
ENDMDL
MODEL      126
REMARK 921   NORMALIZED FREE ENERGY PREDICTED BY IDOCK:   -4.36 KCAL/MOL
REMARK 922        TOTAL FREE ENERGY PREDICTED BY IDOCK:   -6.15 KCAL/MOL
REMARK 923 INTER-LIGAND FREE ENERGY PREDICTED BY IDOCK:   -6.72 KCAL/MOL
REMARK 924 INTRA-LIGAND FREE ENERGY PREDICTED BY IDOCK:    0.57 KCAL/MOL
REMARK 927      BINDING AFFINITY PREDICTED BY RF-SCORE:    0.00 PKD
ROOT
HETATM    1  C   UNL     1      -7.311  17.724  68.659  1.00  0.00    -0.269 C  
HETATM    2  O   UNL     1      -7.805  17.357  67.374  1.00  0.00    -0.191 OA 
ENDROOT
BRANCH   2   3
HETATM    3  C   UNL     1      -8.258  16.057  67.283  1.00  0.00    -0.182 A  
HETATM    4  N   UNL     1      -7.763  15.169  68.175  1.00  0.00    -0.111 NA 
HETATM    5  C   UNL     1      -8.195  13.908  68.066  1.00  0.00    -0.161 A  
HETATM    6  N   UNL     1      -9.074  13.457  67.172  1.00  0.00    -0.226 NA 
HETATM    7  C   UNL     1      -9.513  14.373  66.296  1.00  0.00    -0.271 A  
HETATM    8  C   UNL     1      -9.150  15.717  66.278  1.00  0.00    -0.341 A  
BRANCH   7   9
HETATM    9  N   UNL     1     -10.410  13.823  65.342  1.00  0.00    -0.319 N  
HETATM   10  H   UNL     1     -10.138  13.671  64.370  1.00  0.00     0.000 HD 
BRANCH   9  11
HETATM   11  S   UNL     1     -11.948  13.438  65.908  1.00  0.00    -0.434 S  
HETATM   12  O   UNL     1     -12.050  11.994  65.843  1.00  0.00    -0.546 OA 
HETATM   13  O   UNL     1     -12.927  14.281  65.257  1.00  0.00    -0.679 OA 
BRANCH  11  14
HETATM   14  C   UNL     1     -11.885  13.867  67.632  1.00  0.00    -0.386 A  
HETATM   15  C   UNL     1     -11.892  15.208  68.021  1.00  0.00    -0.225 A  
HETATM   16  C   UNL     1     -11.864  15.531  69.381  1.00  0.00    -0.392 A  
HETATM   17  C   UNL     1     -11.787  14.529  70.354  1.00  0.00    -0.311 A  
HETATM   18  C   UNL     1     -11.865  13.192  69.950  1.00  0.00    -0.378 A  
HETATM   19  N   UNL     1     -11.867  14.860  71.712  1.00  0.00    -0.365 NA 
HETATM   20  H2  UNL     1     -12.725  15.390  71.863  1.00  0.00     0.000 HD 
HETATM   21  H1  UNL     1     -11.812  14.129  72.422  1.00  0.00     0.000 HD 
HETATM   22  C   UNL     1     -11.896  12.855  68.594  1.00  0.00    -0.347 A  
ENDBRANCH  11  14
ENDBRANCH   9  11
ENDBRANCH   7   9
BRANCH   8  23
HETATM   23  O   UNL     1      -9.681  16.486  65.282  1.00  0.00    -0.440 OA 
HETATM   24  C   UNL     1     -10.645  17.472  65.637  1.00  0.00    -0.140 C  
ENDBRANCH   8  23
ENDBRANCH   2   3
TORSDOF 5
ENDMDL
MODEL      127
REMARK 921   NORMALIZED FREE ENERGY PREDICTED BY IDOCK:   -4.35 KCAL/MOL
REMARK 922        TOTAL FREE ENERGY PREDICTED BY IDOCK:   -6.13 KCAL/MOL
REMARK 923 INTER-LIGAND FREE ENERGY PREDICTED BY IDOCK:   -6.01 KCAL/MOL
REMARK 924 INTRA-LIGAND FREE ENERGY PREDICTED BY IDOCK:   -0.13 KCAL/MOL
REMARK 927      BINDING AFFINITY PREDICTED BY RF-SCORE:    0.00 PKD
ROOT
HETATM    1  C   UNL     1     -10.568  18.784  65.841  1.00  0.00    -0.352 C  
HETATM    2  O   UNL     1      -9.990  17.486  65.941  1.00  0.00    -0.511 OA 
ENDROOT
BRANCH   2   3
HETATM    3  C   UNL     1     -10.450  16.733  67.001  1.00  0.00    -0.285 A  
HETATM    4  N   UNL     1     -10.174  17.187  68.244  1.00  0.00    -0.313 NA 
HETATM    5  C   UNL     1     -10.609  16.440  69.265  1.00  0.00    -0.311 A  
HETATM    6  N   UNL     1     -11.297  15.303  69.164  1.00  0.00    -0.276 NA 
HETATM    7  C   UNL     1     -11.520  14.885  67.910  1.00  0.00    -0.340 A  
HETATM    8  C   UNL     1     -11.126  15.548  66.751  1.00  0.00    -0.206 A  
BRANCH   7   9
HETATM    9  N   UNL     1     -12.216  13.648  67.868  1.00  0.00    -0.382 N  
HETATM   10  H   UNL     1     -13.082  13.532  67.339  1.00  0.00     0.000 HD 
BRANCH   9  11
HETATM   11  S   UNL     1     -11.531  12.383  68.742  1.00  0.00    -0.327 S  
HETATM   12  O   UNL     1     -12.341  11.214  68.459  1.00  0.00    -0.561 OA 
HETATM   13  O   UNL     1     -11.295  12.809  70.104  1.00  0.00    -0.013 OA 
BRANCH  11  14
HETATM   14  C   UNL     1      -9.963  12.119  67.948  1.00  0.00    -0.200 A  
HETATM   15  C   UNL     1      -9.872  11.273  66.841  1.00  0.00    -0.220 A  
HETATM   16  C   UNL     1      -8.635  11.091  66.213  1.00  0.00    -0.167 A  
HETATM   17  C   UNL     1      -7.484  11.712  66.705  1.00  0.00    -0.091 A  
HETATM   18  C   UNL     1      -7.607  12.619  67.763  1.00  0.00    -0.141 A  
HETATM   19  N   UNL     1      -6.275  11.607  66.007  1.00  0.00    -0.440 NA 
HETATM   20  H2  UNL     1      -6.428  11.926  65.050  1.00  0.00     0.000 HD 
HETATM   21  H1  UNL     1      -5.434  12.060  66.366  1.00  0.00     0.000 HD 
HETATM   22  C   UNL     1      -8.838  12.813  68.398  1.00  0.00    -0.117 A  
ENDBRANCH  11  14
ENDBRANCH   9  11
ENDBRANCH   7   9
BRANCH   8  23
HETATM   23  O   UNL     1     -11.419  14.942  65.562  1.00  0.00    -0.347 OA 
HETATM   24  C   UNL     1     -10.401  14.173  64.932  1.00  0.00    -0.408 C  
ENDBRANCH   8  23
ENDBRANCH   2   3
TORSDOF 5
ENDMDL
MODEL      128
REMARK 921   NORMALIZED FREE ENERGY PREDICTED BY IDOCK:   -4.33 KCAL/MOL
REMARK 922        TOTAL FREE ENERGY PREDICTED BY IDOCK:   -6.10 KCAL/MOL
REMARK 923 INTER-LIGAND FREE ENERGY PREDICTED BY IDOCK:   -6.66 KCAL/MOL
REMARK 924 INTRA-LIGAND FREE ENERGY PREDICTED BY IDOCK:    0.55 KCAL/MOL
REMARK 927      BINDING AFFINITY PREDICTED BY RF-SCORE:    0.00 PKD
ROOT
HETATM    1  C   UNL     1     -12.857  12.857  71.083  1.00  0.00    -0.238 C  
HETATM    2  O   UNL     1     -11.611  12.986  70.406  1.00  0.00    -0.116 OA 
ENDROOT
BRANCH   2   3
HETATM    3  C   UNL     1     -11.695  13.552  69.151  1.00  0.00    -0.327 A  
HETATM    4  N   UNL     1     -11.549  14.894  69.069  1.00  0.00    -0.289 NA 
HETATM    5  C   UNL     1     -11.651  15.434  67.850  1.00  0.00    -0.257 A  
HETATM    6  N   UNL     1     -11.870  14.770  66.716  1.00  0.00    -0.314 NA 
HETATM    7  C   UNL     1     -12.033  13.446  66.857  1.00  0.00    -0.385 A  
HETATM    8  C   UNL     1     -11.962  12.743  68.056  1.00  0.00    -0.264 A  
BRANCH   7   9
HETATM    9  N   UNL     1     -12.307  12.800  65.622  1.00  0.00    -0.445 N  
HETATM   10  H   UNL     1     -13.094  12.161  65.510  1.00  0.00     0.000 HD 
BRANCH   9  11
HETATM   11  S   UNL     1     -11.256  13.151  64.354  1.00  0.00    -0.391 S  
HETATM   12  O   UNL     1     -10.380  14.201  64.837  1.00  0.00    -0.411 OA 
HETATM   13  O   UNL     1     -12.013  13.320  63.133  1.00  0.00    -0.476 OA 
BRANCH  11  14
HETATM   14  C   UNL     1     -10.261  11.685  64.209  1.00  0.00    -0.311 A  
HETATM   15  C   UNL     1      -9.454  11.495  63.086  1.00  0.00    -0.332 A  
HETATM   16  C   UNL     1      -8.661  10.347  62.994  1.00  0.00    -0.189 A  
HETATM   17  C   UNL     1      -8.697   9.370  63.992  1.00  0.00    -0.200 A  
HETATM   18  C   UNL     1      -9.447   9.615  65.148  1.00  0.00    -0.332 A  
HETATM   19  N   UNL     1      -7.820   8.279  63.941  1.00  0.00    -0.141 NA 
HETATM   20  H2  UNL     1      -6.867   8.636  63.876  1.00  0.00     0.000 HD 
HETATM   21  H1  UNL     1      -7.847   7.565  64.670  1.00  0.00     0.000 HD 
HETATM   22  C   UNL     1     -10.243  10.759  65.254  1.00  0.00    -0.351 A  
ENDBRANCH  11  14
ENDBRANCH   9  11
ENDBRANCH   7   9
BRANCH   8  23
HETATM   23  O   UNL     1     -12.191  11.398  67.998  1.00  0.00    -0.607 OA 
HETATM   24  C   UNL     1     -11.135  10.520  68.373  1.00  0.00    -0.281 C  
ENDBRANCH   8  23
ENDBRANCH   2   3
TORSDOF 5
ENDMDL
MODEL      129
REMARK 921   NORMALIZED FREE ENERGY PREDICTED BY IDOCK:   -4.31 KCAL/MOL
REMARK 922        TOTAL FREE ENERGY PREDICTED BY IDOCK:   -6.08 KCAL/MOL
REMARK 923 INTER-LIGAND FREE ENERGY PREDICTED BY IDOCK:   -6.52 KCAL/MOL
REMARK 924 INTRA-LIGAND FREE ENERGY PREDICTED BY IDOCK:    0.44 KCAL/MOL
REMARK 927      BINDING AFFINITY PREDICTED BY RF-SCORE:    0.00 PKD
ROOT
HETATM    1  C   UNL     1      -6.421  20.418  67.088  1.00  0.00    -0.220 C  
HETATM    2  O   UNL     1      -6.638  19.838  68.371  1.00  0.00    -0.254 OA 
ENDROOT
BRANCH   2   3
HETATM    3  C   UNL     1      -7.810  19.120  68.485  1.00  0.00    -0.345 A  
HETATM    4  N   UNL     1      -8.965  19.823  68.489  1.00  0.00    -0.287 NA 
HETATM    5  C   UNL     1     -10.095  19.119  68.619  1.00  0.00    -0.398 A  
HETATM    6  N   UNL     1     -10.182  17.794  68.730  1.00  0.00    -0.379 NA 
HETATM    7  C   UNL     1      -9.006  17.148  68.746  1.00  0.00    -0.233 A  
HETATM    8  C   UNL     1      -7.753  17.742  68.629  1.00  0.00    -0.283 A  
BRANCH   7   9
HETATM    9  N   UNL     1      -9.161  15.746  68.912  1.00  0.00    -0.211 N  
HETATM   10  H   UNL     1      -8.529  15.198  69.495  1.00  0.00     0.000 HD 
BRANCH   9  11
HETATM   11  S   UNL     1     -10.450  15.042  68.088  1.00  0.00    -0.249 S  
HETATM   12  O   UNL     1      -9.930  13.827  67.493  1.00  0.00    -0.228 OA 
HETATM   13  O   UNL     1     -11.109  16.042  67.277  1.00  0.00    -0.257 OA 
BRANCH  11  14
HETATM   14  C   UNL     1     -11.558  14.540  69.384  1.00  0.00    -0.303 A  
HETATM   15  C   UNL     1     -11.652  13.193  69.742  1.00  0.00    -0.291 A  
HETATM   16  C   UNL     1     -12.513  12.814  70.777  1.00  0.00    -0.357 A  
HETATM   17  C   UNL     1     -13.309  13.761  71.429  1.00  0.00    -0.270 A  
HETATM   18  C   UNL     1     -13.141  15.114  71.115  1.00  0.00    -0.515 A  
HETATM   19  N   UNL     1     -14.085  13.387  72.533  1.00  0.00    -0.735 NA 
HETATM   20  H2  UNL     1     -13.473  12.951  73.223  1.00  0.00     0.000 HD 
HETATM   21  H1  UNL     1     -14.666  14.077  73.009  1.00  0.00     0.000 HD 
HETATM   22  C   UNL     1     -12.283  15.507  70.084  1.00  0.00    -0.404 A  
ENDBRANCH  11  14
ENDBRANCH   9  11
ENDBRANCH   7   9
BRANCH   8  23
HETATM   23  O   UNL     1      -6.668  16.915  68.702  1.00  0.00    -0.161 OA 
HETATM   24  C   UNL     1      -6.053  16.725  69.972  1.00  0.00    -0.139 C  
ENDBRANCH   8  23
ENDBRANCH   2   3
TORSDOF 5
ENDMDL
MODEL      130
REMARK 921   NORMALIZED FREE ENERGY PREDICTED BY IDOCK:   -4.30 KCAL/MOL
REMARK 922        TOTAL FREE ENERGY PREDICTED BY IDOCK:   -6.06 KCAL/MOL
REMARK 923 INTER-LIGAND FREE ENERGY PREDICTED BY IDOCK:   -5.72 KCAL/MOL
REMARK 924 INTRA-LIGAND FREE ENERGY PREDICTED BY IDOCK:   -0.34 KCAL/MOL
REMARK 927      BINDING AFFINITY PREDICTED BY RF-SCORE:    0.00 PKD
ROOT
HETATM    1  C   UNL     1     -12.660  15.896  71.966  1.00  0.00    -0.452 C  
HETATM    2  O   UNL     1     -13.612  14.974  71.445  1.00  0.00    -0.394 OA 
ENDROOT
BRANCH   2   3
HETATM    3  C   UNL     1     -13.132  13.694  71.263  1.00  0.00    -0.282 A  
HETATM    4  N   UNL     1     -13.728  12.707  71.969  1.00  0.00    -0.318 NA 
HETATM    5  C   UNL     1     -13.243  11.472  71.799  1.00  0.00    -0.351 A  
HETATM    6  N   UNL     1     -12.240  11.130  70.991  1.00  0.00    -0.354 NA 
HETATM    7  C   UNL     1     -11.668  12.150  70.335  1.00  0.00    -0.059 A  
HETATM    8  C   UNL     1     -12.056  13.485  70.414  1.00  0.00    -0.345 A  
BRANCH   7   9
HETATM    9  N   UNL     1     -10.579  11.731  69.526  1.00  0.00    -0.437 N  
HETATM   10  H   UNL     1      -9.623  11.699  69.882  1.00  0.00     0.000 HD 
BRANCH   9  11
HETATM   11  S   UNL     1     -10.957  11.289  67.946  1.00  0.00    -0.270 S  
HETATM   12  O   UNL     1      -9.998  11.969  67.099  1.00  0.00    -0.194 OA 
HETATM   13  O   UNL     1     -12.379  11.442  67.729  1.00  0.00    -0.308 OA 
BRANCH  11  14
HETATM   14  C   UNL     1     -10.555   9.558  67.882  1.00  0.00    -0.244 A  
HETATM   15  C   UNL     1     -10.439   8.822  69.063  1.00  0.00    -0.220 A  
HETATM   16  C   UNL     1     -10.143   7.457  68.997  1.00  0.00    -0.193 A  
HETATM   17  C   UNL     1      -9.921   6.831  67.767  1.00  0.00    -0.138 A  
HETATM   18  C   UNL     1     -10.122   7.563  66.592  1.00  0.00    -0.263 A  
HETATM   19  N   UNL     1      -9.731   5.445  67.707  1.00  0.00    -0.129 NA 
HETATM   20  H2  UNL     1     -10.525   4.992  68.160  1.00  0.00     0.000 HD 
HETATM   21  H1  UNL     1      -9.569   4.987  66.810  1.00  0.00     0.000 HD 
HETATM   22  C   UNL     1     -10.421   8.928  66.643  1.00  0.00    -0.231 A  
ENDBRANCH  11  14
ENDBRANCH   9  11
ENDBRANCH   7   9
BRANCH   8  23
HETATM   23  O   UNL     1     -11.324  14.385  69.692  1.00  0.00    -0.256 OA 
HETATM   24  C   UNL     1     -11.841  14.819  68.439  1.00  0.00    -0.286 C  
ENDBRANCH   8  23
ENDBRANCH   2   3
TORSDOF 5
ENDMDL
MODEL      131
REMARK 921   NORMALIZED FREE ENERGY PREDICTED BY IDOCK:   -4.29 KCAL/MOL
REMARK 922        TOTAL FREE ENERGY PREDICTED BY IDOCK:   -6.06 KCAL/MOL
REMARK 923 INTER-LIGAND FREE ENERGY PREDICTED BY IDOCK:   -5.41 KCAL/MOL
REMARK 924 INTRA-LIGAND FREE ENERGY PREDICTED BY IDOCK:   -0.65 KCAL/MOL
REMARK 927      BINDING AFFINITY PREDICTED BY RF-SCORE:    0.00 PKD
ROOT
HETATM    1  C   UNL     1      -5.736  17.191  68.915  1.00  0.00    -0.149 C  
HETATM    2  O   UNL     1      -6.957  16.546  69.265  1.00  0.00    -0.215 OA 
ENDROOT
BRANCH   2   3
HETATM    3  C   UNL     1      -6.910  15.168  69.227  1.00  0.00    -0.153 A  
HETATM    4  N   UNL     1      -6.224  14.548  70.215  1.00  0.00    -0.168 NA 
HETATM    5  C   UNL     1      -6.169  13.213  70.158  1.00  0.00    -0.039 A  
HETATM    6  N   UNL     1      -6.738  12.445  69.229  1.00  0.00    -0.094 NA 
HETATM    7  C   UNL     1      -7.383  13.112  68.260  1.00  0.00    -0.116 A  
HETATM    8  C   UNL     1      -7.519  14.495  68.179  1.00  0.00    -0.126 A  
BRANCH   7   9
HETATM    9  N   UNL     1      -7.928  12.244  67.277  1.00  0.00    -0.171 N  
HETATM   10  H   UNL     1      -7.414  11.996  66.431  1.00  0.00     0.000 HD 
BRANCH   9  11
HETATM   11  S   UNL     1      -9.472  11.649  67.589  1.00  0.00    -0.182 S  
HETATM   12  O   UNL     1      -9.946  12.358  68.761  1.00  0.00    -0.152 OA 
HETATM   13  O   UNL     1      -9.447  10.203  67.557  1.00  0.00    -0.149 OA 
BRANCH  11  14
HETATM   14  C   UNL     1     -10.437  12.232  66.215  1.00  0.00    -0.238 A  
HETATM   15  C   UNL     1     -11.666  12.857  66.439  1.00  0.00    -0.454 A  
HETATM   16  C   UNL     1     -12.406  13.330  65.350  1.00  0.00    -0.528 A  
HETATM   17  C   UNL     1     -11.950  13.147  64.041  1.00  0.00    -0.460 A  
HETATM   18  C   UNL     1     -10.681  12.594  63.840  1.00  0.00    -0.465 A  
HETATM   19  N   UNL     1     -12.646  13.718  62.968  1.00  0.00    -0.905 NA 
HETATM   20  H2  UNL     1     -12.736  14.719  63.140  1.00  0.00     0.000 HD 
HETATM   21  H1  UNL     1     -12.314  13.585  62.013  1.00  0.00     0.000 HD 
HETATM   22  C   UNL     1      -9.929  12.120  64.920  1.00  0.00    -0.235 A  
ENDBRANCH  11  14
ENDBRANCH   9  11
ENDBRANCH   7   9
BRANCH   8  23
HETATM   23  O   UNL     1      -8.186  14.988  67.094  1.00  0.00    -0.195 OA 
HETATM   24  C   UNL     1      -9.456  15.595  67.305  1.00  0.00    -0.216 C  
ENDBRANCH   8  23
ENDBRANCH   2   3
TORSDOF 5
ENDMDL
MODEL      132
REMARK 921   NORMALIZED FREE ENERGY PREDICTED BY IDOCK:   -4.29 KCAL/MOL
REMARK 922        TOTAL FREE ENERGY PREDICTED BY IDOCK:   -6.05 KCAL/MOL
REMARK 923 INTER-LIGAND FREE ENERGY PREDICTED BY IDOCK:   -5.83 KCAL/MOL
REMARK 924 INTRA-LIGAND FREE ENERGY PREDICTED BY IDOCK:   -0.22 KCAL/MOL
REMARK 927      BINDING AFFINITY PREDICTED BY RF-SCORE:    0.00 PKD
ROOT
HETATM    1  C   UNL     1     -10.328  19.849  65.793  1.00  0.00    -0.410 C  
HETATM    2  O   UNL     1     -10.793  18.506  65.901  1.00  0.00    -0.297 OA 
ENDROOT
BRANCH   2   3
HETATM    3  C   UNL     1      -9.801  17.570  66.104  1.00  0.00    -0.242 A  
HETATM    4  N   UNL     1      -8.543  18.034  66.277  1.00  0.00    -0.447 NA 
HETATM    5  C   UNL     1      -7.585  17.116  66.454  1.00  0.00    -0.312 A  
HETATM    6  N   UNL     1      -7.764  15.796  66.488  1.00  0.00    -0.113 NA 
HETATM    7  C   UNL     1      -9.026  15.390  66.286  1.00  0.00    -0.306 A  
HETATM    8  C   UNL     1     -10.123  16.221  66.081  1.00  0.00    -0.344 A  
BRANCH   7   9
HETATM    9  N   UNL     1      -9.145  13.975  66.288  1.00  0.00    -0.490 N  
HETATM   10  H   UNL     1      -9.356  13.449  65.440  1.00  0.00     0.000 HD 
BRANCH   9  11
HETATM   11  S   UNL     1      -8.919  13.216  67.774  1.00  0.00    -0.205 S  
HETATM   12  O   UNL     1      -7.578  13.563  68.203  1.00  0.00    -0.112 OA 
HETATM   13  O   UNL     1      -9.331  11.832  67.677  1.00  0.00    -0.173 OA 
BRANCH  11  14
HETATM   14  C   UNL     1     -10.037  14.068  68.861  1.00  0.00    -0.126 A  
HETATM   15  C   UNL     1     -11.348  13.611  69.015  1.00  0.00    -0.333 A  
HETATM   16  C   UNL     1     -12.212  14.279  69.890  1.00  0.00    -0.407 A  
HETATM   17  C   UNL     1     -11.792  15.420  70.578  1.00  0.00    -0.339 A  
HETATM   18  C   UNL     1     -10.453  15.815  70.475  1.00  0.00    -0.071 A  
HETATM   19  N   UNL     1     -12.629  16.016  71.530  1.00  0.00    -0.556 NA 
HETATM   20  H2  UNL     1     -12.893  15.307  72.214  1.00  0.00     0.000 HD 
HETATM   21  H1  UNL     1     -12.323  16.849  72.032  1.00  0.00     0.000 HD 
HETATM   22  C   UNL     1      -9.578  15.155  69.607  1.00  0.00    -0.126 A  
ENDBRANCH  11  14
ENDBRANCH   9  11
ENDBRANCH   7   9
BRANCH   8  23
HETATM   23  O   UNL     1     -11.326  15.613  65.858  1.00  0.00    -0.143 OA 
HETATM   24  C   UNL     1     -11.742  15.421  64.511  1.00  0.00    -0.277 C  
ENDBRANCH   8  23
ENDBRANCH   2   3
TORSDOF 5
ENDMDL
MODEL      133
REMARK 921   NORMALIZED FREE ENERGY PREDICTED BY IDOCK:   -4.28 KCAL/MOL
REMARK 922        TOTAL FREE ENERGY PREDICTED BY IDOCK:   -6.04 KCAL/MOL
REMARK 923 INTER-LIGAND FREE ENERGY PREDICTED BY IDOCK:   -5.69 KCAL/MOL
REMARK 924 INTRA-LIGAND FREE ENERGY PREDICTED BY IDOCK:   -0.36 KCAL/MOL
REMARK 927      BINDING AFFINITY PREDICTED BY RF-SCORE:    0.00 PKD
ROOT
HETATM    1  C   UNL     1     -13.621  13.969  72.605  1.00  0.00    -0.517 C  
HETATM    2  O   UNL     1     -12.369  13.543  72.076  1.00  0.00    -0.028 OA 
ENDROOT
BRANCH   2   3
HETATM    3  C   UNL     1     -12.184  13.824  70.739  1.00  0.00    -0.363 A  
HETATM    4  N   UNL     1     -12.323  15.113  70.356  1.00  0.00    -0.340 NA 
HETATM    5  C   UNL     1     -12.161  15.372  69.053  1.00  0.00    -0.226 A  
HETATM    6  N   UNL     1     -11.862  14.479  68.110  1.00  0.00    -0.329 NA 
HETATM    7  C   UNL     1     -11.761  13.213  68.540  1.00  0.00    -0.352 A  
HETATM    8  C   UNL     1     -11.911  12.789  69.858  1.00  0.00    -0.301 A  
BRANCH   7   9
HETATM    9  N   UNL     1     -11.488  12.304  67.484  1.00  0.00    -0.324 N  
HETATM   10  H   UNL     1     -12.178  11.623  67.164  1.00  0.00     0.000 HD 
BRANCH   9  11
HETATM   11  S   UNL     1      -9.957  12.413  66.791  1.00  0.00    -0.229 S  
HETATM   12  O   UNL     1      -9.050  12.746  67.872  1.00  0.00    -0.187 OA 
HETATM   13  O   UNL     1     -10.024  13.231  65.600  1.00  0.00    -0.280 OA 
BRANCH  11  14
HETATM   14  C   UNL     1      -9.587  10.742  66.313  1.00  0.00    -0.195 A  
HETATM   15  C   UNL     1     -10.021   9.675  67.103  1.00  0.00    -0.249 A  
HETATM   16  C   UNL     1      -9.741   8.364  66.704  1.00  0.00    -0.320 A  
HETATM   17  C   UNL     1      -8.998   8.111  65.547  1.00  0.00    -0.032 A  
HETATM   18  C   UNL     1      -8.643   9.186  64.725  1.00  0.00    -0.209 A  
HETATM   19  N   UNL     1      -8.817   6.796  65.102  1.00  0.00    -0.358 NA 
HETATM   20  H2  UNL     1      -9.734   6.363  64.996  1.00  0.00     0.000 HD 
HETATM   21  H1  UNL     1      -8.274   6.610  64.257  1.00  0.00     0.000 HD 
HETATM   22  C   UNL     1      -8.919  10.501  65.110  1.00  0.00    -0.214 A  
ENDBRANCH  11  14
ENDBRANCH   9  11
ENDBRANCH   7   9
BRANCH   8  23
HETATM   23  O   UNL     1     -11.804  11.447  70.091  1.00  0.00    -0.312 OA 
HETATM   24  C   UNL     1     -12.849  10.806  70.813  1.00  0.00    -0.320 C  
ENDBRANCH   8  23
ENDBRANCH   2   3
TORSDOF 5
ENDMDL
MODEL      134
REMARK 921   NORMALIZED FREE ENERGY PREDICTED BY IDOCK:   -4.28 KCAL/MOL
REMARK 922        TOTAL FREE ENERGY PREDICTED BY IDOCK:   -6.04 KCAL/MOL
REMARK 923 INTER-LIGAND FREE ENERGY PREDICTED BY IDOCK:   -5.56 KCAL/MOL
REMARK 924 INTRA-LIGAND FREE ENERGY PREDICTED BY IDOCK:   -0.48 KCAL/MOL
REMARK 927      BINDING AFFINITY PREDICTED BY RF-SCORE:    0.00 PKD
ROOT
HETATM    1  C   UNL     1      -5.671   9.011  64.813  1.00  0.00    -0.063 C  
HETATM    2  O   UNL     1      -6.093   8.751  66.148  1.00  0.00    -0.050 OA 
ENDROOT
BRANCH   2   3
HETATM    3  C   UNL     1      -6.610   9.844  66.811  1.00  0.00    -0.071 A  
HETATM    4  N   UNL     1      -6.102  11.055  66.489  1.00  0.00    -0.120 NA 
HETATM    5  C   UNL     1      -6.597  12.107  67.152  1.00  0.00    -0.127 A  
HETATM    6  N   UNL     1      -7.550  12.067  68.083  1.00  0.00    -0.111 NA 
HETATM    7  C   UNL     1      -8.000  10.840  68.381  1.00  0.00    -0.124 A  
HETATM    8  C   UNL     1      -7.578   9.654  67.786  1.00  0.00    -0.087 A  
BRANCH   7   9
HETATM    9  N   UNL     1      -8.978  10.858  69.410  1.00  0.00    -0.399 N  
HETATM   10  H   UNL     1      -8.750  10.628  70.377  1.00  0.00     0.000 HD 
BRANCH   9  11
HETATM   11  S   UNL     1     -10.539  11.280  68.940  1.00  0.00    -0.199 S  
HETATM   12  O   UNL     1     -10.808  10.536  67.725  1.00  0.00    -0.249 OA 
HETATM   13  O   UNL     1     -10.680  12.720  68.974  1.00  0.00    -0.197 OA 
BRANCH  11  14
HETATM   14  C   UNL     1     -11.569  10.577  70.206  1.00  0.00    -0.332 A  
HETATM   15  C   UNL     1     -12.549  11.357  70.825  1.00  0.00    -0.409 A  
HETATM   16  C   UNL     1     -13.366  10.785  71.805  1.00  0.00    -0.429 A  
HETATM   17  C   UNL     1     -13.187   9.457  72.201  1.00  0.00    -0.460 A  
HETATM   18  C   UNL     1     -12.258   8.668  71.514  1.00  0.00    -0.368 A  
HETATM   19  N   UNL     1     -14.079   8.866  73.105  1.00  0.00    -1.225 NA 
HETATM   20  H2  UNL     1     -15.024   8.966  72.735  1.00  0.00     0.000 HD 
HETATM   21  H1  UNL     1     -13.948   7.896  73.394  1.00  0.00     0.000 HD 
HETATM   22  C   UNL     1     -11.436   9.226  70.530  1.00  0.00    -0.296 A  
ENDBRANCH  11  14
ENDBRANCH   9  11
ENDBRANCH   7   9
BRANCH   8  23
HETATM   23  O   UNL     1      -8.134   8.497  68.252  1.00  0.00    -0.116 OA 
HETATM   24  C   UNL     1      -9.039   7.798  67.404  1.00  0.00    -0.126 C  
ENDBRANCH   8  23
ENDBRANCH   2   3
TORSDOF 5
ENDMDL
MODEL      135
REMARK 921   NORMALIZED FREE ENERGY PREDICTED BY IDOCK:   -4.26 KCAL/MOL
REMARK 922        TOTAL FREE ENERGY PREDICTED BY IDOCK:   -6.01 KCAL/MOL
REMARK 923 INTER-LIGAND FREE ENERGY PREDICTED BY IDOCK:   -5.57 KCAL/MOL
REMARK 924 INTRA-LIGAND FREE ENERGY PREDICTED BY IDOCK:   -0.44 KCAL/MOL
REMARK 927      BINDING AFFINITY PREDICTED BY RF-SCORE:    0.00 PKD
ROOT
HETATM    1  C   UNL     1     -10.810   5.893  73.472  1.00  0.00    -0.216 C  
HETATM    2  O   UNL     1      -9.895   6.944  73.173  1.00  0.00    -0.164 OA 
ENDROOT
BRANCH   2   3
HETATM    3  C   UNL     1     -10.393   7.916  72.332  1.00  0.00    -0.270 A  
HETATM    4  N   UNL     1     -11.661   8.332  72.554  1.00  0.00    -0.395 NA 
HETATM    5  C   UNL     1     -12.141   9.262  71.720  1.00  0.00    -0.387 A  
HETATM    6  N   UNL     1     -11.479   9.819  70.707  1.00  0.00    -0.314 NA 
HETATM    7  C   UNL     1     -10.236   9.353  70.516  1.00  0.00    -0.271 A  
HETATM    8  C   UNL     1      -9.604   8.385  71.292  1.00  0.00    -0.185 A  
BRANCH   7   9
HETATM    9  N   UNL     1      -9.599   9.951  69.397  1.00  0.00    -0.202 N  
HETATM   10  H   UNL     1      -9.194  10.887  69.442  1.00  0.00     0.000 HD 
BRANCH   9  11
HETATM   11  S   UNL     1      -9.553   9.028  67.989  1.00  0.00    -0.151 S  
HETATM   12  O   UNL     1     -10.600   8.035  68.127  1.00  0.00    -0.193 OA 
HETATM   13  O   UNL     1      -8.189   8.635  67.714  1.00  0.00    -0.116 OA 
BRANCH  11  14
HETATM   14  C   UNL     1     -10.086  10.157  66.724  1.00  0.00    -0.219 A  
HETATM   15  C   UNL     1     -10.998  11.170  67.028  1.00  0.00    -0.348 A  
HETATM   16  C   UNL     1     -11.393  12.064  66.027  1.00  0.00    -0.398 A  
HETATM   17  C   UNL     1     -10.918  11.930  64.719  1.00  0.00    -0.312 A  
HETATM   18  C   UNL     1      -9.944  10.962  64.452  1.00  0.00    -0.381 A  
HETATM   19  N   UNL     1     -11.236  12.893  63.754  1.00  0.00    -0.502 NA 
HETATM   20  H2  UNL     1     -10.953  13.808  64.106  1.00  0.00     0.000 HD 
HETATM   21  H1  UNL     1     -10.890  12.796  62.799  1.00  0.00     0.000 HD 
HETATM   22  C   UNL     1      -9.538  10.064  65.443  1.00  0.00    -0.342 A  
ENDBRANCH  11  14
ENDBRANCH   9  11
ENDBRANCH   7   9
BRANCH   8  23
HETATM   23  O   UNL     1      -8.344   8.017  70.916  1.00  0.00    -0.112 OA 
HETATM   24  C   UNL     1      -7.242   8.598  71.604  1.00  0.00    -0.091 C  
ENDBRANCH   8  23
ENDBRANCH   2   3
TORSDOF 5
ENDMDL
MODEL      136
REMARK 921   NORMALIZED FREE ENERGY PREDICTED BY IDOCK:   -4.25 KCAL/MOL
REMARK 922        TOTAL FREE ENERGY PREDICTED BY IDOCK:   -6.00 KCAL/MOL
REMARK 923 INTER-LIGAND FREE ENERGY PREDICTED BY IDOCK:   -6.09 KCAL/MOL
REMARK 924 INTRA-LIGAND FREE ENERGY PREDICTED BY IDOCK:    0.09 KCAL/MOL
REMARK 927      BINDING AFFINITY PREDICTED BY RF-SCORE:    0.00 PKD
ROOT
HETATM    1  C   UNL     1     -10.675  19.181  65.723  1.00  0.00    -0.307 C  
HETATM    2  O   UNL     1      -9.749  18.118  65.930  1.00  0.00    -0.521 OA 
ENDROOT
BRANCH   2   3
HETATM    3  C   UNL     1     -10.322  16.867  66.022  1.00  0.00    -0.325 A  
HETATM    4  N   UNL     1     -10.332  16.111  64.902  1.00  0.00    -0.526 NA 
HETATM    5  C   UNL     1     -10.907  14.906  64.997  1.00  0.00    -0.423 A  
HETATM    6  N   UNL     1     -11.453  14.386  66.096  1.00  0.00    -0.351 NA 
HETATM    7  C   UNL     1     -11.439  15.188  67.170  1.00  0.00    -0.250 A  
HETATM    8  C   UNL     1     -10.887  16.465  67.223  1.00  0.00    -0.194 A  
BRANCH   7   9
HETATM    9  N   UNL     1     -12.075  14.597  68.294  1.00  0.00    -0.581 N  
HETATM   10  H   UNL     1     -13.080  14.680  68.452  1.00  0.00     0.000 HD 
BRANCH   9  11
HETATM   11  S   UNL     1     -11.074  13.753  69.352  1.00  0.00    -0.097 S  
HETATM   12  O   UNL     1     -11.947  13.168  70.351  1.00  0.00    -0.332 OA 
HETATM   13  O   UNL     1      -9.963  14.594  69.740  1.00  0.00     0.033 OA 
BRANCH  11  14
HETATM   14  C   UNL     1     -10.454  12.409  68.369  1.00  0.00    -0.235 A  
HETATM   15  C   UNL     1      -9.131  12.420  67.922  1.00  0.00    -0.191 A  
HETATM   16  C   UNL     1      -8.650  11.346  67.167  1.00  0.00    -0.151 A  
HETATM   17  C   UNL     1      -9.488  10.283  66.819  1.00  0.00    -0.163 A  
HETATM   18  C   UNL     1     -10.784  10.247  67.344  1.00  0.00    -0.339 A  
HETATM   19  N   UNL     1      -8.967   9.165  66.155  1.00  0.00    -0.162 NA 
HETATM   20  H2  UNL     1      -8.192   8.797  66.706  1.00  0.00     0.000 HD 
HETATM   21  H1  UNL     1      -9.579   8.389  65.902  1.00  0.00     0.000 HD 
HETATM   22  C   UNL     1     -11.277  11.313  68.103  1.00  0.00    -0.351 A  
ENDBRANCH  11  14
ENDBRANCH   9  11
ENDBRANCH   7   9
BRANCH   8  23
HETATM   23  O   UNL     1     -11.002  17.140  68.405  1.00  0.00    -0.337 OA 
HETATM   24  C   UNL     1      -9.843  17.776  68.931  1.00  0.00    -0.290 C  
ENDBRANCH   8  23
ENDBRANCH   2   3
TORSDOF 5
ENDMDL
MODEL      137
REMARK 921   NORMALIZED FREE ENERGY PREDICTED BY IDOCK:   -4.25 KCAL/MOL
REMARK 922        TOTAL FREE ENERGY PREDICTED BY IDOCK:   -6.00 KCAL/MOL
REMARK 923 INTER-LIGAND FREE ENERGY PREDICTED BY IDOCK:   -5.47 KCAL/MOL
REMARK 924 INTRA-LIGAND FREE ENERGY PREDICTED BY IDOCK:   -0.53 KCAL/MOL
REMARK 927      BINDING AFFINITY PREDICTED BY RF-SCORE:    0.00 PKD
ROOT
HETATM    1  C   UNL     1     -12.342  13.190  70.793  1.00  0.00    -0.321 C  
HETATM    2  O   UNL     1     -12.801  11.842  70.833  1.00  0.00    -0.263 OA 
ENDROOT
BRANCH   2   3
HETATM    3  C   UNL     1     -12.009  10.945  70.147  1.00  0.00    -0.352 A  
HETATM    4  N   UNL     1     -11.759  11.214  68.846  1.00  0.00    -0.316 NA 
HETATM    5  C   UNL     1     -11.005  10.328  68.185  1.00  0.00    -0.274 A  
HETATM    6  N   UNL     1     -10.472   9.219  68.697  1.00  0.00    -0.212 NA 
HETATM    7  C   UNL     1     -10.773   8.987  69.983  1.00  0.00    -0.229 A  
HETATM    8  C   UNL     1     -11.548   9.810  70.796  1.00  0.00    -0.339 A  
BRANCH   7   9
HETATM    9  N   UNL     1     -10.215   7.771  70.458  1.00  0.00    -0.200 N  
HETATM   10  H   UNL     1      -9.342   7.747  70.987  1.00  0.00     0.000 HD 
BRANCH   9  11
HETATM   11  S   UNL     1     -11.077   6.371  70.098  1.00  0.00    -0.396 S  
HETATM   12  O   UNL     1     -10.468   5.821  68.903  1.00  0.00    -0.212 OA 
HETATM   13  O   UNL     1     -12.495   6.651  70.146  1.00  0.00    -0.049 OA 
BRANCH  11  14
HETATM   14  C   UNL     1     -10.670   5.267  71.430  1.00  0.00    -0.133 A  
HETATM   15  C   UNL     1     -11.176   5.498  72.711  1.00  0.00    -0.358 A  
HETATM   16  C   UNL     1     -10.865   4.610  73.746  1.00  0.00    -0.378 A  
HETATM   17  C   UNL     1     -10.021   3.519  73.523  1.00  0.00    -0.114 A  
HETATM   18  C   UNL     1      -9.590   3.255  72.218  1.00  0.00    -0.202 A  
HETATM   19  N   UNL     1      -9.803   2.579  74.538  1.00  0.00    -0.102 NA 
HETATM   20  H2  UNL     1     -10.708   2.227  74.849  1.00  0.00     0.000 HD 
HETATM   21  H1  UNL     1      -9.187   1.782  74.376  1.00  0.00     0.000 HD 
HETATM   22  C   UNL     1      -9.896   4.133  71.174  1.00  0.00    -0.244 A  
ENDBRANCH  11  14
ENDBRANCH   9  11
ENDBRANCH   7   9
BRANCH   8  23
HETATM   23  O   UNL     1     -11.769   9.383  72.075  1.00  0.00    -0.355 OA 
HETATM   24  C   UNL     1     -13.086   8.976  72.428  1.00  0.00    -0.423 C  
ENDBRANCH   8  23
ENDBRANCH   2   3
TORSDOF 5
ENDMDL
MODEL      138
REMARK 921   NORMALIZED FREE ENERGY PREDICTED BY IDOCK:   -4.24 KCAL/MOL
REMARK 922        TOTAL FREE ENERGY PREDICTED BY IDOCK:   -5.99 KCAL/MOL
REMARK 923 INTER-LIGAND FREE ENERGY PREDICTED BY IDOCK:   -5.79 KCAL/MOL
REMARK 924 INTRA-LIGAND FREE ENERGY PREDICTED BY IDOCK:   -0.20 KCAL/MOL
REMARK 927      BINDING AFFINITY PREDICTED BY RF-SCORE:    0.00 PKD
ROOT
HETATM    1  C   UNL     1     -12.434  12.237  63.829  1.00  0.00    -0.515 C  
HETATM    2  O   UNL     1     -12.211  12.874  65.084  1.00  0.00    -0.415 OA 
ENDROOT
BRANCH   2   3
HETATM    3  C   UNL     1     -10.993  12.589  65.664  1.00  0.00    -0.288 A  
HETATM    4  N   UNL     1     -10.246  11.623  65.084  1.00  0.00    -0.262 NA 
HETATM    5  C   UNL     1      -9.075  11.341  65.666  1.00  0.00    -0.189 A  
HETATM    6  N   UNL     1      -8.578  11.934  66.750  1.00  0.00    -0.185 NA 
HETATM    7  C   UNL     1      -9.370  12.866  67.300  1.00  0.00    -0.212 A  
HETATM    8  C   UNL     1     -10.614  13.262  66.816  1.00  0.00    -0.276 A  
BRANCH   7   9
HETATM    9  N   UNL     1      -8.808  13.429  68.476  1.00  0.00    -0.333 N  
HETATM   10  H   UNL     1      -9.107  13.143  69.409  1.00  0.00     0.000 HD 
BRANCH   9  11
HETATM   11  S   UNL     1      -7.617  14.597  68.242  1.00  0.00    -0.130 S  
HETATM   12  O   UNL     1      -6.844  14.157  67.097  1.00  0.00    -0.165 OA 
HETATM   13  O   UNL     1      -6.973  14.889  69.503  1.00  0.00    -0.156 OA 
BRANCH  11  14
HETATM   14  C   UNL     1      -8.527  16.032  67.721  1.00  0.00    -0.161 A  
HETATM   15  C   UNL     1      -8.555  16.392  66.372  1.00  0.00    -0.358 A  
HETATM   16  C   UNL     1      -9.292  17.512  65.973  1.00  0.00    -0.080 A  
HETATM   17  C   UNL     1      -9.966  18.298  66.912  1.00  0.00    -0.349 A  
HETATM   18  C   UNL     1      -9.995  17.876  68.246  1.00  0.00    -0.360 A  
HETATM   19  N   UNL     1     -10.785  19.351  66.489  1.00  0.00    -0.437 NA 
HETATM   20  H2  UNL     1     -11.470  18.981  65.830  1.00  0.00     0.000 HD 
HETATM   21  H1  UNL     1     -11.277  19.925  67.175  1.00  0.00     0.000 HD 
HETATM   22  C   UNL     1      -9.265  16.757  68.658  1.00  0.00    -0.257 A  
ENDBRANCH  11  14
ENDBRANCH   9  11
ENDBRANCH   7   9
BRANCH   8  23
HETATM   23  O   UNL     1     -11.286  14.207  67.538  1.00  0.00    -0.293 OA 
HETATM   24  C   UNL     1     -11.986  13.788  68.704  1.00  0.00    -0.366 C  
ENDBRANCH   8  23
ENDBRANCH   2   3
TORSDOF 5
ENDMDL
MODEL      139
REMARK 921   NORMALIZED FREE ENERGY PREDICTED BY IDOCK:   -4.23 KCAL/MOL
REMARK 922        TOTAL FREE ENERGY PREDICTED BY IDOCK:   -5.98 KCAL/MOL
REMARK 923 INTER-LIGAND FREE ENERGY PREDICTED BY IDOCK:   -5.59 KCAL/MOL
REMARK 924 INTRA-LIGAND FREE ENERGY PREDICTED BY IDOCK:   -0.38 KCAL/MOL
REMARK 927      BINDING AFFINITY PREDICTED BY RF-SCORE:    0.00 PKD
ROOT
HETATM    1  C   UNL     1     -14.025  14.094  72.404  1.00  0.00    -0.512 C  
HETATM    2  O   UNL     1     -12.795  13.407  72.197  1.00  0.00    -0.281 OA 
ENDROOT
BRANCH   2   3
HETATM    3  C   UNL     1     -12.450  13.232  70.873  1.00  0.00    -0.342 A  
HETATM    4  N   UNL     1     -12.406  14.339  70.098  1.00  0.00    -0.340 NA 
HETATM    5  C   UNL     1     -12.089  14.156  68.811  1.00  0.00    -0.291 A  
HETATM    6  N   UNL     1     -11.803  12.990  68.234  1.00  0.00    -0.349 NA 
HETATM    7  C   UNL     1     -11.886  11.922  69.042  1.00  0.00    -0.308 A  
HETATM    8  C   UNL     1     -12.210  11.953  70.395  1.00  0.00    -0.314 A  
BRANCH   7   9
HETATM    9  N   UNL     1     -11.615  10.706  68.361  1.00  0.00    -0.469 N  
HETATM   10  H   UNL     1     -12.334   9.997  68.213  1.00  0.00     0.000 HD 
BRANCH   9  11
HETATM   11  S   UNL     1     -10.036  10.502  67.812  1.00  0.00    -0.183 S  
HETATM   12  O   UNL     1      -9.181  11.105  68.815  1.00  0.00    -0.180 OA 
HETATM   13  O   UNL     1      -9.952  10.906  66.425  1.00  0.00    -0.206 OA 
BRANCH  11  14
HETATM   14  C   UNL     1      -9.777   8.747  67.910  1.00  0.00    -0.157 A  
HETATM   15  C   UNL     1      -9.388   8.162  69.117  1.00  0.00    -0.151 A  
HETATM   16  C   UNL     1      -9.208   6.777  69.185  1.00  0.00    -0.137 A  
HETATM   17  C   UNL     1      -9.371   5.977  68.051  1.00  0.00    -0.114 A  
HETATM   18  C   UNL     1      -9.840   6.567  66.872  1.00  0.00    -0.211 A  
HETATM   19  N   UNL     1      -9.292   4.583  68.156  1.00  0.00    -0.133 NA 
HETATM   20  H2  UNL     1      -9.959   4.276  68.865  1.00  0.00     0.000 HD 
HETATM   21  H1  UNL     1      -9.411   3.998  67.329  1.00  0.00     0.000 HD 
HETATM   22  C   UNL     1     -10.027   7.950  66.791  1.00  0.00    -0.333 A  
ENDBRANCH  11  14
ENDBRANCH   9  11
ENDBRANCH   7   9
BRANCH   8  23
HETATM   23  O   UNL     1     -12.277  10.751  71.042  1.00  0.00    -0.342 OA 
HETATM   24  C   UNL     1     -13.502  10.397  71.674  1.00  0.00    -0.240 C  
ENDBRANCH   8  23
ENDBRANCH   2   3
TORSDOF 5
ENDMDL
MODEL      140
REMARK 921   NORMALIZED FREE ENERGY PREDICTED BY IDOCK:   -4.23 KCAL/MOL
REMARK 922        TOTAL FREE ENERGY PREDICTED BY IDOCK:   -5.97 KCAL/MOL
REMARK 923 INTER-LIGAND FREE ENERGY PREDICTED BY IDOCK:   -5.49 KCAL/MOL
REMARK 924 INTRA-LIGAND FREE ENERGY PREDICTED BY IDOCK:   -0.48 KCAL/MOL
REMARK 927      BINDING AFFINITY PREDICTED BY RF-SCORE:    0.00 PKD
ROOT
HETATM    1  C   UNL     1      -6.657   6.851  65.582  1.00  0.00    -0.051 C  
HETATM    2  O   UNL     1      -7.880   7.259  64.974  1.00  0.00    -0.111 OA 
ENDROOT
BRANCH   2   3
HETATM    3  C   UNL     1      -8.745   7.926  65.816  1.00  0.00    -0.135 A  
HETATM    4  N   UNL     1      -9.630   7.176  66.510  1.00  0.00    -0.169 NA 
HETATM    5  C   UNL     1     -10.477   7.835  67.309  1.00  0.00    -0.322 A  
HETATM    6  N   UNL     1     -10.514   9.154  67.490  1.00  0.00    -0.261 NA 
HETATM    7  C   UNL     1      -9.633   9.852  66.759  1.00  0.00    -0.183 A  
HETATM    8  C   UNL     1      -8.697   9.311  65.882  1.00  0.00    -0.154 A  
BRANCH   7   9
HETATM    9  N   UNL     1      -9.752  11.252  66.961  1.00  0.00    -0.185 N  
HETATM   10  H   UNL     1      -9.109  11.768  67.564  1.00  0.00     0.000 HD 
BRANCH   9  11
HETATM   11  S   UNL     1     -11.014  12.013  66.148  1.00  0.00    -0.313 S  
HETATM   12  O   UNL     1     -12.153  11.971  67.044  1.00  0.00    -0.603 OA 
HETATM   13  O   UNL     1     -11.109  11.488  64.803  1.00  0.00    -0.296 OA 
BRANCH  11  14
HETATM   14  C   UNL     1     -10.499  13.712  66.059  1.00  0.00    -0.300 A  
HETATM   15  C   UNL     1      -9.366  14.138  66.755  1.00  0.00    -0.295 A  
HETATM   16  C   UNL     1      -8.960  15.473  66.660  1.00  0.00    -0.320 A  
HETATM   17  C   UNL     1      -9.698  16.394  65.912  1.00  0.00    -0.294 A  
HETATM   18  C   UNL     1     -10.781  15.934  65.155  1.00  0.00    -0.449 A  
HETATM   19  N   UNL     1      -9.223  17.700  65.737  1.00  0.00    -0.444 NA 
HETATM   20  H2  UNL     1      -8.281  17.650  65.349  1.00  0.00     0.000 HD 
HETATM   21  H1  UNL     1      -9.761  18.372  65.191  1.00  0.00     0.000 HD 
HETATM   22  C   UNL     1     -11.196  14.601  65.239  1.00  0.00    -0.358 A  
ENDBRANCH  11  14
ENDBRANCH   9  11
ENDBRANCH   7   9
BRANCH   8  23
HETATM   23  O   UNL     1      -7.906  10.192  65.201  1.00  0.00    -0.132 OA 
HETATM   24  C   UNL     1      -6.722  10.659  65.836  1.00  0.00    -0.116 C  
ENDBRANCH   8  23
ENDBRANCH   2   3
TORSDOF 5
ENDMDL
MODEL      141
REMARK 921   NORMALIZED FREE ENERGY PREDICTED BY IDOCK:   -4.22 KCAL/MOL
REMARK 922        TOTAL FREE ENERGY PREDICTED BY IDOCK:   -5.97 KCAL/MOL
REMARK 923 INTER-LIGAND FREE ENERGY PREDICTED BY IDOCK:   -5.81 KCAL/MOL
REMARK 924 INTRA-LIGAND FREE ENERGY PREDICTED BY IDOCK:   -0.16 KCAL/MOL
REMARK 927      BINDING AFFINITY PREDICTED BY RF-SCORE:    0.00 PKD
ROOT
HETATM    1  C   UNL     1      -5.670  11.515  70.295  1.00  0.00    -0.148 C  
HETATM    2  O   UNL     1      -6.317  12.428  69.414  1.00  0.00    -0.106 OA 
ENDROOT
BRANCH   2   3
HETATM    3  C   UNL     1      -7.274  11.860  68.599  1.00  0.00    -0.109 A  
HETATM    4  N   UNL     1      -7.325  10.509  68.560  1.00  0.00    -0.084 NA 
HETATM    5  C   UNL     1      -8.244   9.968  67.752  1.00  0.00    -0.113 A  
HETATM    6  N   UNL     1      -9.116  10.639  67.000  1.00  0.00    -0.144 NA 
HETATM    7  C   UNL     1      -9.004  11.974  67.057  1.00  0.00    -0.198 A  
HETATM    8  C   UNL     1      -8.096  12.680  67.841  1.00  0.00    -0.165 A  
BRANCH   7   9
HETATM    9  N   UNL     1      -9.928  12.631  66.201  1.00  0.00    -0.257 N  
HETATM   10  H   UNL     1      -9.631  13.102  65.346  1.00  0.00     0.000 HD 
BRANCH   9  11
HETATM   11  S   UNL     1     -11.541  12.589  66.681  1.00  0.00    -0.379 S  
HETATM   12  O   UNL     1     -11.766  11.261  67.218  1.00  0.00    -0.566 OA 
HETATM   13  O   UNL     1     -12.374  13.110  65.620  1.00  0.00    -0.443 OA 
BRANCH  11  14
HETATM   14  C   UNL     1     -11.604  13.711  68.058  1.00  0.00    -0.333 A  
HETATM   15  C   UNL     1     -11.548  15.089  67.841  1.00  0.00    -0.350 A  
HETATM   16  C   UNL     1     -11.620  15.962  68.932  1.00  0.00    -0.392 A  
HETATM   17  C   UNL     1     -11.705  15.470  70.237  1.00  0.00    -0.346 A  
HETATM   18  C   UNL     1     -11.844  14.091  70.431  1.00  0.00    -0.356 A  
HETATM   19  N   UNL     1     -11.884  16.352  71.310  1.00  0.00    -0.628 NA 
HETATM   20  H2  UNL     1     -12.711  16.919  71.126  1.00  0.00     0.000 HD 
HETATM   21  H1  UNL     1     -11.946  15.993  72.264  1.00  0.00     0.000 HD 
HETATM   22  C   UNL     1     -11.776  13.208  69.349  1.00  0.00    -0.386 A  
ENDBRANCH  11  14
ENDBRANCH   9  11
ENDBRANCH   7   9
BRANCH   8  23
HETATM   23  O   UNL     1      -8.116  14.042  67.736  1.00  0.00    -0.139 OA 
HETATM   24  C   UNL     1      -8.169  14.807  68.934  1.00  0.00    -0.165 C  
ENDBRANCH   8  23
ENDBRANCH   2   3
TORSDOF 5
ENDMDL
MODEL      142
REMARK 921   NORMALIZED FREE ENERGY PREDICTED BY IDOCK:   -4.22 KCAL/MOL
REMARK 922        TOTAL FREE ENERGY PREDICTED BY IDOCK:   -5.96 KCAL/MOL
REMARK 923 INTER-LIGAND FREE ENERGY PREDICTED BY IDOCK:   -5.80 KCAL/MOL
REMARK 924 INTRA-LIGAND FREE ENERGY PREDICTED BY IDOCK:   -0.16 KCAL/MOL
REMARK 927      BINDING AFFINITY PREDICTED BY RF-SCORE:    0.00 PKD
ROOT
HETATM    1  C   UNL     1     -10.773  17.119  65.460  1.00  0.00    -0.117 C  
HETATM    2  O   UNL     1     -10.019  15.916  65.344  1.00  0.00    -0.399 OA 
ENDROOT
BRANCH   2   3
HETATM    3  C   UNL     1     -10.762  14.759  65.456  1.00  0.00    -0.357 A  
HETATM    4  N   UNL     1     -12.061  14.825  65.088  1.00  0.00    -0.290 NA 
HETATM    5  C   UNL     1     -12.778  13.702  65.218  1.00  0.00    -0.430 A  
HETATM    6  N   UNL     1     -12.322  12.531  65.662  1.00  0.00    -0.638 NA 
HETATM    7  C   UNL     1     -11.035  12.529  66.037  1.00  0.00    -0.283 A  
HETATM    8  C   UNL     1     -10.168  13.616  65.968  1.00  0.00    -0.307 A  
BRANCH   7   9
HETATM    9  N   UNL     1     -10.621  11.269  66.543  1.00  0.00    -0.257 N  
HETATM   10  H   UNL     1     -10.164  10.573  65.952  1.00  0.00     0.000 HD 
BRANCH   9  11
HETATM   11  S   UNL     1     -10.929  10.987  68.174  1.00  0.00    -0.271 S  
HETATM   12  O   UNL     1     -12.332  11.292  68.376  1.00  0.00    -0.545 OA 
HETATM   13  O   UNL     1      -9.909  11.627  68.975  1.00  0.00    -0.098 OA 
BRANCH  11  14
HETATM   14  C   UNL     1     -10.762   9.226  68.340  1.00  0.00    -0.145 A  
HETATM   15  C   UNL     1     -10.798   8.635  69.605  1.00  0.00    -0.163 A  
HETATM   16  C   UNL     1     -10.686   7.246  69.720  1.00  0.00    -0.253 A  
HETATM   17  C   UNL     1     -10.497   6.446  68.589  1.00  0.00    -0.223 A  
HETATM   18  C   UNL     1     -10.547   7.045  67.325  1.00  0.00    -0.395 A  
HETATM   19  N   UNL     1     -10.494   5.051  68.706  1.00  0.00    -0.053 NA 
HETATM   20  H2  UNL     1     -11.361   4.765  69.161  1.00  0.00     0.000 HD 
HETATM   21  H1  UNL     1     -10.356   4.467  67.881  1.00  0.00     0.000 HD 
HETATM   22  C   UNL     1     -10.661   8.432  67.195  1.00  0.00    -0.326 A  
ENDBRANCH  11  14
ENDBRANCH   9  11
ENDBRANCH   7   9
BRANCH   8  23
HETATM   23  O   UNL     1      -8.897  13.423  66.431  1.00  0.00    -0.055 OA 
HETATM   24  C   UNL     1      -8.388  14.338  67.395  1.00  0.00    -0.198 C  
ENDBRANCH   8  23
ENDBRANCH   2   3
TORSDOF 5
ENDMDL
MODEL      143
REMARK 921   NORMALIZED FREE ENERGY PREDICTED BY IDOCK:   -4.20 KCAL/MOL
REMARK 922        TOTAL FREE ENERGY PREDICTED BY IDOCK:   -5.94 KCAL/MOL
REMARK 923 INTER-LIGAND FREE ENERGY PREDICTED BY IDOCK:   -5.63 KCAL/MOL
REMARK 924 INTRA-LIGAND FREE ENERGY PREDICTED BY IDOCK:   -0.31 KCAL/MOL
REMARK 927      BINDING AFFINITY PREDICTED BY RF-SCORE:    0.00 PKD
ROOT
HETATM    1  C   UNL     1      -6.690   9.792  70.392  1.00  0.00    -0.123 C  
HETATM    2  O   UNL     1      -7.284  10.930  69.775  1.00  0.00    -0.136 OA 
ENDROOT
BRANCH   2   3
HETATM    3  C   UNL     1      -8.423  10.658  69.045  1.00  0.00    -0.145 A  
HETATM    4  N   UNL     1      -9.139   9.569  69.404  1.00  0.00    -0.157 NA 
HETATM    5  C   UNL     1     -10.231   9.304  68.678  1.00  0.00    -0.199 A  
HETATM    6  N   UNL     1     -10.678  10.022  67.648  1.00  0.00    -0.268 NA 
HETATM    7  C   UNL     1      -9.916  11.075  67.318  1.00  0.00    -0.181 A  
HETATM    8  C   UNL     1      -8.753  11.472  67.972  1.00  0.00    -0.151 A  
BRANCH   7   9
HETATM    9  N   UNL     1     -10.418  11.773  66.188  1.00  0.00    -0.237 N  
HETATM   10  H   UNL     1      -9.939  11.759  65.287  1.00  0.00     0.000 HD 
BRANCH   9  11
HETATM   11  S   UNL     1     -11.851  12.626  66.421  1.00  0.00    -0.358 S  
HETATM   12  O   UNL     1     -12.385  12.175  67.691  1.00  0.00    -0.325 OA 
HETATM   13  O   UNL     1     -12.651  12.564  65.216  1.00  0.00    -0.645 OA 
BRANCH  11  14
HETATM   14  C   UNL     1     -11.313  14.302  66.661  1.00  0.00    -0.349 A  
HETATM   15  C   UNL     1     -11.482  14.920  67.902  1.00  0.00    -0.357 A  
HETATM   16  C   UNL     1     -11.035  16.233  68.084  1.00  0.00    -0.343 A  
HETATM   17  C   UNL     1     -10.460  16.947  67.028  1.00  0.00    -0.281 A  
HETATM   18  C   UNL     1     -10.224  16.286  65.818  1.00  0.00    -0.390 A  
HETATM   19  N   UNL     1      -9.921  18.220  67.251  1.00  0.00    -0.320 NA 
HETATM   20  H2  UNL     1      -9.236  18.151  68.003  1.00  0.00     0.000 HD 
HETATM   21  H1  UNL     1      -9.501  18.741  66.480  1.00  0.00     0.000 HD 
HETATM   22  C   UNL     1     -10.663  14.973  65.623  1.00  0.00    -0.365 A  
ENDBRANCH  11  14
ENDBRANCH   9  11
ENDBRANCH   7   9
BRANCH   8  23
HETATM   23  O   UNL     1      -8.097  12.557  67.463  1.00  0.00    -0.154 OA 
HETATM   24  C   UNL     1      -8.025  13.733  68.261  1.00  0.00    -0.146 C  
ENDBRANCH   8  23
ENDBRANCH   2   3
TORSDOF 5
ENDMDL
MODEL      144
REMARK 921   NORMALIZED FREE ENERGY PREDICTED BY IDOCK:   -4.20 KCAL/MOL
REMARK 922        TOTAL FREE ENERGY PREDICTED BY IDOCK:   -5.93 KCAL/MOL
REMARK 923 INTER-LIGAND FREE ENERGY PREDICTED BY IDOCK:   -5.31 KCAL/MOL
REMARK 924 INTRA-LIGAND FREE ENERGY PREDICTED BY IDOCK:   -0.62 KCAL/MOL
REMARK 927      BINDING AFFINITY PREDICTED BY RF-SCORE:    0.00 PKD
ROOT
HETATM    1  C   UNL     1      -7.526   8.358  64.883  1.00  0.00    -0.091 C  
HETATM    2  O   UNL     1      -8.887   8.769  64.973  1.00  0.00    -0.180 OA 
ENDROOT
BRANCH   2   3
HETATM    3  C   UNL     1      -9.393   8.803  66.256  1.00  0.00    -0.222 A  
HETATM    4  N   UNL     1      -9.904   7.651  66.746  1.00  0.00    -0.225 NA 
HETATM    5  C   UNL     1     -10.409   7.700  67.984  1.00  0.00    -0.205 A  
HETATM    6  N   UNL     1     -10.439   8.772  68.775  1.00  0.00    -0.211 NA 
HETATM    7  C   UNL     1      -9.943   9.893  68.230  1.00  0.00    -0.151 A  
HETATM    8  C   UNL     1      -9.392  10.000  66.956  1.00  0.00    -0.154 A  
BRANCH   7   9
HETATM    9  N   UNL     1     -10.044  11.009  69.101  1.00  0.00    -0.350 N  
HETATM   10  H   UNL     1      -9.231  11.393  69.584  1.00  0.00     0.000 HD 
BRANCH   9  11
HETATM   11  S   UNL     1     -11.584  11.661  69.294  1.00  0.00    -0.348 S  
HETATM   12  O   UNL     1     -12.025  11.267  70.617  1.00  0.00    -0.345 OA 
HETATM   13  O   UNL     1     -12.384  11.364  68.126  1.00  0.00    -0.502 OA 
BRANCH  11  14
HETATM   14  C   UNL     1     -11.298  13.414  69.355  1.00  0.00    -0.226 A  
HETATM   15  C   UNL     1     -10.138  13.954  68.794  1.00  0.00    -0.161 A  
HETATM   16  C   UNL     1      -9.935  15.338  68.831  1.00  0.00    -0.225 A  
HETATM   17  C   UNL     1     -10.857  16.181  69.457  1.00  0.00    -0.329 A  
HETATM   18  C   UNL     1     -12.051  15.633  69.939  1.00  0.00    -0.360 A  
HETATM   19  N   UNL     1     -10.697  17.570  69.393  1.00  0.00    -0.310 NA 
HETATM   20  H2  UNL     1     -10.628  17.841  68.413  1.00  0.00     0.000 HD 
HETATM   21  H1  UNL     1     -11.370  18.186  69.851  1.00  0.00     0.000 HD 
HETATM   22  C   UNL     1     -12.268  14.252  69.907  1.00  0.00    -0.407 A  
ENDBRANCH  11  14
ENDBRANCH   9  11
ENDBRANCH   7   9
BRANCH   8  23
HETATM   23  O   UNL     1      -8.969  11.240  66.568  1.00  0.00    -0.172 OA 
HETATM   24  C   UNL     1      -7.637  11.624  66.886  1.00  0.00    -0.138 C  
ENDBRANCH   8  23
ENDBRANCH   2   3
TORSDOF 5
ENDMDL
MODEL      145
REMARK 921   NORMALIZED FREE ENERGY PREDICTED BY IDOCK:   -4.18 KCAL/MOL
REMARK 922        TOTAL FREE ENERGY PREDICTED BY IDOCK:   -5.91 KCAL/MOL
REMARK 923 INTER-LIGAND FREE ENERGY PREDICTED BY IDOCK:   -5.16 KCAL/MOL
REMARK 924 INTRA-LIGAND FREE ENERGY PREDICTED BY IDOCK:   -0.75 KCAL/MOL
REMARK 927      BINDING AFFINITY PREDICTED BY RF-SCORE:    0.00 PKD
ROOT
HETATM    1  C   UNL     1     -11.845  11.538  68.388  1.00  0.00    -0.283 C  
HETATM    2  O   UNL     1     -11.320  11.701  69.702  1.00  0.00    -0.264 OA 
ENDROOT
BRANCH   2   3
HETATM    3  C   UNL     1     -11.750  10.760  70.614  1.00  0.00    -0.342 A  
HETATM    4  N   UNL     1     -12.966  10.956  71.172  1.00  0.00    -0.378 NA 
HETATM    5  C   UNL     1     -13.367  10.048  72.070  1.00  0.00    -0.409 A  
HETATM    6  N   UNL     1     -12.683   8.968  72.447  1.00  0.00    -0.386 NA 
HETATM    7  C   UNL     1     -11.474   8.836  71.882  1.00  0.00    -0.358 A  
HETATM    8  C   UNL     1     -10.919   9.700  70.942  1.00  0.00    -0.342 A  
BRANCH   7   9
HETATM    9  N   UNL     1     -10.777   7.694  72.357  1.00  0.00    -0.256 N  
HETATM   10  H   UNL     1     -10.038   7.764  73.058  1.00  0.00     0.000 HD 
BRANCH   9  11
HETATM   11  S   UNL     1     -11.240   6.216  71.696  1.00  0.00    -0.277 S  
HETATM   12  O   UNL     1     -11.914   6.527  70.451  1.00  0.00    -0.397 OA 
HETATM   13  O   UNL     1     -11.888   5.415  72.711  1.00  0.00    -0.268 OA 
BRANCH  11  14
HETATM   14  C   UNL     1      -9.699   5.444  71.261  1.00  0.00    -0.162 A  
HETATM   15  C   UNL     1      -9.694   4.240  70.554  1.00  0.00    -0.282 A  
HETATM   16  C   UNL     1      -8.474   3.654  70.201  1.00  0.00    -0.095 A  
HETATM   17  C   UNL     1      -7.262   4.237  70.581  1.00  0.00    -0.044 A  
HETATM   18  C   UNL     1      -7.285   5.484  71.216  1.00  0.00    -0.072 A  
HETATM   19  N   UNL     1      -6.050   3.700  70.130  1.00  0.00    -0.022 NA 
HETATM   20  H2  UNL     1      -6.079   3.653  69.112  1.00  0.00     0.000 HD 
HETATM   21  H1  UNL     1      -5.166   4.125  70.408  1.00  0.00     0.000 HD 
HETATM   22  C   UNL     1      -8.497   6.082  71.573  1.00  0.00    -0.128 A  
ENDBRANCH  11  14
ENDBRANCH   9  11
ENDBRANCH   7   9
BRANCH   8  23
HETATM   23  O   UNL     1      -9.656   9.412  70.507  1.00  0.00    -0.239 OA 
HETATM   24  C   UNL     1      -9.510   8.775  69.243  1.00  0.00    -0.161 C  
ENDBRANCH   8  23
ENDBRANCH   2   3
TORSDOF 5
ENDMDL
MODEL      146
REMARK 921   NORMALIZED FREE ENERGY PREDICTED BY IDOCK:   -4.15 KCAL/MOL
REMARK 922        TOTAL FREE ENERGY PREDICTED BY IDOCK:   -5.88 KCAL/MOL
REMARK 923 INTER-LIGAND FREE ENERGY PREDICTED BY IDOCK:   -5.57 KCAL/MOL
REMARK 924 INTRA-LIGAND FREE ENERGY PREDICTED BY IDOCK:   -0.30 KCAL/MOL
REMARK 927      BINDING AFFINITY PREDICTED BY RF-SCORE:    0.00 PKD
ROOT
HETATM    1  C   UNL     1      -9.158   9.630  63.241  1.00  0.00    -0.191 C  
HETATM    2  O   UNL     1      -8.658   9.770  64.568  1.00  0.00    -0.156 OA 
ENDROOT
BRANCH   2   3
HETATM    3  C   UNL     1      -8.978   8.730  65.415  1.00  0.00    -0.160 A  
HETATM    4  N   UNL     1      -8.334   7.558  65.220  1.00  0.00    -0.130 NA 
HETATM    5  C   UNL     1      -8.665   6.550  66.036  1.00  0.00    -0.148 A  
HETATM    6  N   UNL     1      -9.557   6.605  67.024  1.00  0.00    -0.144 NA 
HETATM    7  C   UNL     1     -10.185   7.782  67.156  1.00  0.00    -0.295 A  
HETATM    8  C   UNL     1      -9.954   8.916  66.382  1.00  0.00    -0.284 A  
BRANCH   7   9
HETATM    9  N   UNL     1     -11.153   7.765  68.194  1.00  0.00    -0.392 N  
HETATM   10  H   UNL     1     -12.155   7.742  67.998  1.00  0.00     0.000 HD 
BRANCH   9  11
HETATM   11  S   UNL     1     -10.554   7.785  69.767  1.00  0.00    -0.234 S  
HETATM   12  O   UNL     1      -9.176   8.226  69.666  1.00  0.00    -0.156 OA 
HETATM   13  O   UNL     1     -10.889   6.543  70.428  1.00  0.00    -0.236 OA 
BRANCH  11  14
HETATM   14  C   UNL     1     -11.454   9.105  70.548  1.00  0.00    -0.229 A  
HETATM   15  C   UNL     1     -11.354  10.407  70.054  1.00  0.00    -0.384 A  
HETATM   16  C   UNL     1     -12.084  11.433  70.665  1.00  0.00    -0.469 A  
HETATM   17  C   UNL     1     -12.878  11.177  71.786  1.00  0.00    -0.374 A  
HETATM   18  C   UNL     1     -13.031   9.854  72.216  1.00  0.00    -0.387 A  
HETATM   19  N   UNL     1     -13.685  12.187  72.322  1.00  0.00    -0.437 NA 
HETATM   20  H2  UNL     1     -14.285  12.547  71.579  1.00  0.00     0.000 HD 
HETATM   21  H1  UNL     1     -14.265  12.001  73.141  1.00  0.00     0.000 HD 
HETATM   22  C   UNL     1     -12.310   8.819  71.613  1.00  0.00    -0.394 A  
ENDBRANCH  11  14
ENDBRANCH   9  11
ENDBRANCH   7   9
BRANCH   8  23
HETATM   23  O   UNL     1     -10.722  10.014  66.650  1.00  0.00    -0.157 OA 
HETATM   24  C   UNL     1     -10.080  11.282  66.715  1.00  0.00    -0.219 C  
ENDBRANCH   8  23
ENDBRANCH   2   3
TORSDOF 5
ENDMDL
MODEL      147
REMARK 921   NORMALIZED FREE ENERGY PREDICTED BY IDOCK:   -4.15 KCAL/MOL
REMARK 922        TOTAL FREE ENERGY PREDICTED BY IDOCK:   -5.87 KCAL/MOL
REMARK 923 INTER-LIGAND FREE ENERGY PREDICTED BY IDOCK:   -5.46 KCAL/MOL
REMARK 924 INTRA-LIGAND FREE ENERGY PREDICTED BY IDOCK:   -0.41 KCAL/MOL
REMARK 927      BINDING AFFINITY PREDICTED BY RF-SCORE:    0.00 PKD
ROOT
HETATM    1  C   UNL     1     -10.619   4.174  72.862  1.00  0.00    -0.167 C  
HETATM    2  O   UNL     1     -10.285   5.492  73.288  1.00  0.00    -0.176 OA 
ENDROOT
BRANCH   2   3
HETATM    3  C   UNL     1     -10.863   6.500  72.545  1.00  0.00    -0.239 A  
HETATM    4  N   UNL     1     -12.137   6.307  72.134  1.00  0.00    -0.312 NA 
HETATM    5  C   UNL     1     -12.683   7.283  71.399  1.00  0.00    -0.389 A  
HETATM    6  N   UNL     1     -12.090   8.424  71.050  1.00  0.00    -0.247 NA 
HETATM    7  C   UNL     1     -10.820   8.552  71.462  1.00  0.00    -0.263 A  
HETATM    8  C   UNL     1     -10.117   7.623  72.225  1.00  0.00    -0.208 A  
BRANCH   7   9
HETATM    9  N   UNL     1     -10.229   9.766  71.023  1.00  0.00    -0.315 N  
HETATM   10  H   UNL     1     -10.214  10.602  71.608  1.00  0.00     0.000 HD 
BRANCH   9  11
HETATM   11  S   UNL     1      -9.554   9.745  69.481  1.00  0.00    -0.223 S  
HETATM   12  O   UNL     1     -10.002   8.513  68.863  1.00  0.00    -0.179 OA 
HETATM   13  O   UNL     1      -8.145  10.062  69.566  1.00  0.00    -0.131 OA 
BRANCH  11  14
HETATM   14  C   UNL     1     -10.384  11.070  68.636  1.00  0.00    -0.193 A  
HETATM   15  C   UNL     1     -10.116  11.318  67.288  1.00  0.00    -0.214 A  
HETATM   16  C   UNL     1     -10.792  12.350  66.630  1.00  0.00    -0.281 A  
HETATM   17  C   UNL     1     -11.701  13.161  67.314  1.00  0.00    -0.374 A  
HETATM   18  C   UNL     1     -12.020  12.847  68.640  1.00  0.00    -0.282 A  
HETATM   19  N   UNL     1     -12.450  14.120  66.621  1.00  0.00    -0.548 NA 
HETATM   20  H2  UNL     1     -12.944  13.654  65.860  1.00  0.00     0.000 HD 
HETATM   21  H1  UNL     1     -13.114  14.712  67.120  1.00  0.00     0.000 HD 
HETATM   22  C   UNL     1     -11.354  11.816  69.310  1.00  0.00    -0.348 A  
ENDBRANCH  11  14
ENDBRANCH   9  11
ENDBRANCH   7   9
BRANCH   8  23
HETATM   23  O   UNL     1      -8.816   7.921  72.517  1.00  0.00    -0.133 OA 
HETATM   24  C   UNL     1      -8.479   8.199  73.871  1.00  0.00    -0.241 C  
ENDBRANCH   8  23
ENDBRANCH   2   3
TORSDOF 5
ENDMDL
MODEL      148
REMARK 921   NORMALIZED FREE ENERGY PREDICTED BY IDOCK:   -4.14 KCAL/MOL
REMARK 922        TOTAL FREE ENERGY PREDICTED BY IDOCK:   -5.87 KCAL/MOL
REMARK 923 INTER-LIGAND FREE ENERGY PREDICTED BY IDOCK:   -5.43 KCAL/MOL
REMARK 924 INTRA-LIGAND FREE ENERGY PREDICTED BY IDOCK:   -0.44 KCAL/MOL
REMARK 927      BINDING AFFINITY PREDICTED BY RF-SCORE:    0.00 PKD
ROOT
HETATM    1  C   UNL     1      -5.955   9.769  64.708  1.00  0.00    -0.090 C  
HETATM    2  O   UNL     1      -6.118  10.811  65.665  1.00  0.00    -0.136 OA 
ENDROOT
BRANCH   2   3
HETATM    3  C   UNL     1      -6.912  10.481  66.744  1.00  0.00    -0.104 A  
HETATM    4  N   UNL     1      -6.891   9.192  67.152  1.00  0.00    -0.079 NA 
HETATM    5  C   UNL     1      -7.679   8.879  68.187  1.00  0.00    -0.100 A  
HETATM    6  N   UNL     1      -8.465   9.723  68.855  1.00  0.00    -0.123 NA 
HETATM    7  C   UNL     1      -8.467  10.982  68.392  1.00  0.00    -0.144 A  
HETATM    8  C   UNL     1      -7.710  11.455  67.324  1.00  0.00    -0.145 A  
BRANCH   7   9
HETATM    9  N   UNL     1      -9.356  11.822  69.114  1.00  0.00    -0.351 N  
HETATM   10  H   UNL     1      -9.042  12.392  69.900  1.00  0.00     0.000 HD 
BRANCH   9  11
HETATM   11  S   UNL     1     -10.958  11.821  68.598  1.00  0.00    -0.239 S  
HETATM   12  O   UNL     1     -11.008  10.943  67.445  1.00  0.00    -0.260 OA 
HETATM   13  O   UNL     1     -11.440  13.182  68.515  1.00  0.00    -0.260 OA 
BRANCH  11  14
HETATM   14  C   UNL     1     -11.826  10.990  69.908  1.00  0.00    -0.353 A  
HETATM   15  C   UNL     1     -11.713   9.606  70.054  1.00  0.00    -0.074 A  
HETATM   16  C   UNL     1     -12.385   8.967  71.102  1.00  0.00    -0.306 A  
HETATM   17  C   UNL     1     -13.199   9.691  71.978  1.00  0.00    -0.453 A  
HETATM   18  C   UNL     1     -13.234  11.086  71.867  1.00  0.00    -0.503 A  
HETATM   19  N   UNL     1     -13.779   9.059  73.084  1.00  0.00    -1.092 NA 
HETATM   20  H2  UNL     1     -13.037   8.616  73.627  1.00  0.00     0.000 HD 
HETATM   21  H1  UNL     1     -14.373   9.587  73.724  1.00  0.00     0.000 HD 
HETATM   22  C   UNL     1     -12.566  11.737  70.826  1.00  0.00    -0.344 A  
ENDBRANCH  11  14
ENDBRANCH   9  11
ENDBRANCH   7   9
BRANCH   8  23
HETATM   23  O   UNL     1      -7.876  12.768  66.983  1.00  0.00    -0.125 OA 
HETATM   24  C   UNL     1      -6.969  13.722  67.523  1.00  0.00    -0.145 C  
ENDBRANCH   8  23
ENDBRANCH   2   3
TORSDOF 5
ENDMDL
MODEL      149
REMARK 921   NORMALIZED FREE ENERGY PREDICTED BY IDOCK:   -4.14 KCAL/MOL
REMARK 922        TOTAL FREE ENERGY PREDICTED BY IDOCK:   -5.86 KCAL/MOL
REMARK 923 INTER-LIGAND FREE ENERGY PREDICTED BY IDOCK:   -6.06 KCAL/MOL
REMARK 924 INTRA-LIGAND FREE ENERGY PREDICTED BY IDOCK:    0.20 KCAL/MOL
REMARK 927      BINDING AFFINITY PREDICTED BY RF-SCORE:    0.00 PKD
ROOT
HETATM    1  C   UNL     1     -11.727  10.461  70.719  1.00  0.00    -0.368 C  
HETATM    2  O   UNL     1     -12.293  10.980  69.519  1.00  0.00    -0.324 OA 
ENDROOT
BRANCH   2   3
HETATM    3  C   UNL     1     -12.125  12.338  69.346  1.00  0.00    -0.176 A  
HETATM    4  N   UNL     1     -12.182  13.112  70.453  1.00  0.00    -0.345 NA 
HETATM    5  C   UNL     1     -12.036  14.430  70.272  1.00  0.00    -0.331 A  
HETATM    6  N   UNL     1     -11.827  15.039  69.105  1.00  0.00    -0.312 NA 
HETATM    7  C   UNL     1     -11.804  14.228  68.038  1.00  0.00    -0.344 A  
HETATM    8  C   UNL     1     -11.948  12.844  68.067  1.00  0.00    -0.275 A  
BRANCH   7   9
HETATM    9  N   UNL     1     -11.624  14.940  66.822  1.00  0.00    -0.315 N  
HETATM   10  H   UNL     1     -12.207  14.767  66.003  1.00  0.00     0.000 HD 
BRANCH   9  11
HETATM   11  S   UNL     1     -10.389  16.085  66.811  1.00  0.00    -0.303 S  
HETATM   12  O   UNL     1     -10.834  17.163  67.671  1.00  0.00    -0.332 OA 
HETATM   13  O   UNL     1      -9.983  16.343  65.447  1.00  0.00    -0.534 OA 
BRANCH  11  14
HETATM   14  C   UNL     1      -9.053  15.276  67.659  1.00  0.00    -0.183 A  
HETATM   15  C   UNL     1      -8.604  15.767  68.887  1.00  0.00    -0.220 A  
HETATM   16  C   UNL     1      -7.565  15.109  69.554  1.00  0.00    -0.207 A  
HETATM   17  C   UNL     1      -6.944  13.993  68.987  1.00  0.00    -0.112 A  
HETATM   18  C   UNL     1      -7.460  13.466  67.797  1.00  0.00    -0.160 A  
HETATM   19  N   UNL     1      -5.980  13.280  69.711  1.00  0.00    -0.120 NA 
HETATM   20  H2  UNL     1      -6.389  13.002  70.603  1.00  0.00     0.000 HD 
HETATM   21  H1  UNL     1      -5.527  12.465  69.297  1.00  0.00     0.000 HD 
HETATM   22  C   UNL     1      -8.500  14.112  67.122  1.00  0.00    -0.214 A  
ENDBRANCH  11  14
ENDBRANCH   9  11
ENDBRANCH   7   9
BRANCH   8  23
HETATM   23  O   UNL     1     -11.930  12.195  66.865  1.00  0.00    -0.603 OA 
HETATM   24  C   UNL     1     -10.817  11.360  66.570  1.00  0.00    -0.283 C  
ENDBRANCH   8  23
ENDBRANCH   2   3
TORSDOF 5
ENDMDL
MODEL      150
REMARK 921   NORMALIZED FREE ENERGY PREDICTED BY IDOCK:   -4.14 KCAL/MOL
REMARK 922        TOTAL FREE ENERGY PREDICTED BY IDOCK:   -5.86 KCAL/MOL
REMARK 923 INTER-LIGAND FREE ENERGY PREDICTED BY IDOCK:   -5.53 KCAL/MOL
REMARK 924 INTRA-LIGAND FREE ENERGY PREDICTED BY IDOCK:   -0.33 KCAL/MOL
REMARK 927      BINDING AFFINITY PREDICTED BY RF-SCORE:    0.00 PKD
ROOT
HETATM    1  C   UNL     1     -12.268  15.514  69.750  1.00  0.00    -0.302 C  
HETATM    2  O   UNL     1     -12.158  14.119  70.012  1.00  0.00    -0.306 OA 
ENDROOT
BRANCH   2   3
HETATM    3  C   UNL     1     -11.958  13.338  68.893  1.00  0.00    -0.297 A  
HETATM    4  N   UNL     1     -12.104  13.939  67.690  1.00  0.00    -0.359 NA 
HETATM    5  C   UNL     1     -11.927  13.169  66.610  1.00  0.00    -0.389 A  
HETATM    6  N   UNL     1     -11.608  11.875  66.617  1.00  0.00    -0.528 NA 
HETATM    7  C   UNL     1     -11.501  11.323  67.835  1.00  0.00    -0.288 A  
HETATM    8  C   UNL     1     -11.663  11.992  69.045  1.00  0.00    -0.325 A  
BRANCH   7   9
HETATM    9  N   UNL     1     -11.205   9.936  67.776  1.00  0.00    -0.479 N  
HETATM   10  H   UNL     1     -11.928   9.236  67.611  1.00  0.00     0.000 HD 
BRANCH   9  11
HETATM   11  S   UNL     1      -9.590   9.514  67.996  1.00  0.00    -0.139 S  
HETATM   12  O   UNL     1      -9.596   8.318  68.816  1.00  0.00    -0.148 OA 
HETATM   13  O   UNL     1      -8.835  10.682  68.394  1.00  0.00    -0.132 OA 
BRANCH  11  14
HETATM   14  C   UNL     1      -9.056   9.017  66.375  1.00  0.00    -0.170 A  
HETATM   15  C   UNL     1      -9.217   9.880  65.290  1.00  0.00    -0.280 A  
HETATM   16  C   UNL     1      -8.774   9.485  64.024  1.00  0.00    -0.239 A  
HETATM   17  C   UNL     1      -8.211   8.221  63.824  1.00  0.00    -0.083 A  
HETATM   18  C   UNL     1      -7.982   7.402  64.936  1.00  0.00    -0.128 A  
HETATM   19  N   UNL     1      -7.675   7.879  62.577  1.00  0.00    -0.123 NA 
HETATM   20  H2  UNL     1      -6.983   8.583  62.320  1.00  0.00     0.000 HD 
HETATM   21  H1  UNL     1      -7.264   6.956  62.431  1.00  0.00     0.000 HD 
HETATM   22  C   UNL     1      -8.418   7.786  66.208  1.00  0.00    -0.143 A  
ENDBRANCH  11  14
ENDBRANCH   9  11
ENDBRANCH   7   9
BRANCH   8  23
HETATM   23  O   UNL     1     -11.547  11.246  70.183  1.00  0.00    -0.310 OA 
HETATM   24  C   UNL     1     -12.734  10.719  70.765  1.00  0.00    -0.360 C  
ENDBRANCH   8  23
ENDBRANCH   2   3
TORSDOF 5
ENDMDL
MODEL      151
REMARK 921   NORMALIZED FREE ENERGY PREDICTED BY IDOCK:   -4.13 KCAL/MOL
REMARK 922        TOTAL FREE ENERGY PREDICTED BY IDOCK:   -5.84 KCAL/MOL
REMARK 923 INTER-LIGAND FREE ENERGY PREDICTED BY IDOCK:   -5.52 KCAL/MOL
REMARK 924 INTRA-LIGAND FREE ENERGY PREDICTED BY IDOCK:   -0.32 KCAL/MOL
REMARK 927      BINDING AFFINITY PREDICTED BY RF-SCORE:    0.00 PKD
ROOT
HETATM    1  C   UNL     1      -8.708   6.097  68.328  1.00  0.00    -0.114 C  
HETATM    2  O   UNL     1      -9.890   6.812  68.674  1.00  0.00    -0.140 OA 
ENDROOT
BRANCH   2   3
HETATM    3  C   UNL     1      -9.959   8.090  68.160  1.00  0.00    -0.185 A  
HETATM    4  N   UNL     1      -9.954   8.213  66.813  1.00  0.00    -0.257 NA 
HETATM    5  C   UNL     1     -10.002   9.458  66.325  1.00  0.00    -0.283 A  
HETATM    6  N   UNL     1     -10.069  10.577  67.045  1.00  0.00    -0.204 NA 
HETATM    7  C   UNL     1     -10.046  10.399  68.374  1.00  0.00    -0.163 A  
HETATM    8  C   UNL     1      -9.990   9.171  69.027  1.00  0.00    -0.184 A  
BRANCH   7   9
HETATM    9  N   UNL     1     -10.074  11.628  69.085  1.00  0.00    -0.419 N  
HETATM   10  H   UNL     1      -9.245  12.004  69.547  1.00  0.00     0.000 HD 
BRANCH   9  11
HETATM   11  S   UNL     1     -11.554  12.429  69.121  1.00  0.00    -0.327 S  
HETATM   12  O   UNL     1     -12.059  12.278  70.472  1.00  0.00    -0.364 OA 
HETATM   13  O   UNL     1     -12.350  12.025  67.982  1.00  0.00    -0.329 OA 
BRANCH  11  14
HETATM   14  C   UNL     1     -11.116  14.141  68.930  1.00  0.00    -0.263 A  
HETATM   15  C   UNL     1     -11.492  15.072  69.900  1.00  0.00    -0.320 A  
HETATM   16  C   UNL     1     -11.123  16.413  69.748  1.00  0.00    -0.305 A  
HETATM   17  C   UNL     1     -10.418  16.837  68.618  1.00  0.00    -0.333 A  
HETATM   18  C   UNL     1      -9.978  15.879  67.698  1.00  0.00    -0.237 A  
HETATM   19  N   UNL     1      -9.962  18.158  68.528  1.00  0.00    -0.378 NA 
HETATM   20  H2  UNL     1      -9.397  18.360  69.354  1.00  0.00     0.000 HD 
HETATM   21  H1  UNL     1      -9.447  18.468  67.704  1.00  0.00     0.000 HD 
HETATM   22  C   UNL     1     -10.338  14.535  67.840  1.00  0.00    -0.231 A  
ENDBRANCH  11  14
ENDBRANCH   9  11
ENDBRANCH   7   9
BRANCH   8  23
HETATM   23  O   UNL     1      -9.940   9.199  70.392  1.00  0.00    -0.188 OA 
HETATM   24  C   UNL     1     -11.148   8.981  71.112  1.00  0.00    -0.301 C  
ENDBRANCH   8  23
ENDBRANCH   2   3
TORSDOF 5
ENDMDL
MODEL      152
REMARK 921   NORMALIZED FREE ENERGY PREDICTED BY IDOCK:   -4.12 KCAL/MOL
REMARK 922        TOTAL FREE ENERGY PREDICTED BY IDOCK:   -5.83 KCAL/MOL
REMARK 923 INTER-LIGAND FREE ENERGY PREDICTED BY IDOCK:   -5.97 KCAL/MOL
REMARK 924 INTRA-LIGAND FREE ENERGY PREDICTED BY IDOCK:    0.14 KCAL/MOL
REMARK 927      BINDING AFFINITY PREDICTED BY RF-SCORE:    0.00 PKD
ROOT
HETATM    1  C   UNL     1      -8.205  17.029  66.105  1.00  0.00    -0.249 C  
HETATM    2  O   UNL     1      -9.600  17.309  66.050  1.00  0.00    -0.455 OA 
ENDROOT
BRANCH   2   3
HETATM    3  C   UNL     1     -10.409  16.192  65.999  1.00  0.00    -0.358 A  
HETATM    4  N   UNL     1     -11.005  15.918  64.816  1.00  0.00    -0.552 NA 
HETATM    5  C   UNL     1     -11.801  14.843  64.782  1.00  0.00    -0.384 A  
HETATM    6  N   UNL     1     -12.045  14.019  65.800  1.00  0.00    -0.404 NA 
HETATM    7  C   UNL     1     -11.450  14.351  66.955  1.00  0.00    -0.366 A  
HETATM    8  C   UNL     1     -10.603  15.439  67.147  1.00  0.00    -0.305 A  
BRANCH   7   9
HETATM    9  N   UNL     1     -11.783  13.463  68.011  1.00  0.00    -0.336 N  
HETATM   10  H   UNL     1     -12.122  13.799  68.913  1.00  0.00     0.000 HD 
BRANCH   9  11
HETATM   11  S   UNL     1     -11.587  11.822  67.688  1.00  0.00    -0.260 S  
HETATM   12  O   UNL     1     -12.151  11.601  66.371  1.00  0.00    -0.371 OA 
HETATM   13  O   UNL     1     -12.035  11.049  68.826  1.00  0.00    -0.457 OA 
BRANCH  11  14
HETATM   14  C   UNL     1      -9.827  11.629  67.527  1.00  0.00    -0.188 A  
HETATM   15  C   UNL     1      -9.287  11.070  66.367  1.00  0.00    -0.204 A  
HETATM   16  C   UNL     1      -7.900  10.943  66.245  1.00  0.00    -0.158 A  
HETATM   17  C   UNL     1      -7.051  11.331  67.285  1.00  0.00    -0.114 A  
HETATM   18  C   UNL     1      -7.602  11.965  68.404  1.00  0.00    -0.120 A  
HETATM   19  N   UNL     1      -5.662  11.298  67.109  1.00  0.00    -0.065 NA 
HETATM   20  H2  UNL     1      -5.430  11.849  66.282  1.00  0.00     0.000 HD 
HETATM   21  H1  UNL     1      -5.042  11.581  67.868  1.00  0.00     0.000 HD 
HETATM   22  C   UNL     1      -8.987  12.100  68.538  1.00  0.00    -0.082 A  
ENDBRANCH  11  14
ENDBRANCH   9  11
ENDBRANCH   7   9
BRANCH   8  23
HETATM   23  O   UNL     1     -10.119  15.631  68.410  1.00  0.00    -0.210 OA 
HETATM   24  C   UNL     1     -10.783  16.570  69.247  1.00  0.00    -0.331 C  
ENDBRANCH   8  23
ENDBRANCH   2   3
TORSDOF 5
ENDMDL
MODEL      153
REMARK 921   NORMALIZED FREE ENERGY PREDICTED BY IDOCK:   -4.11 KCAL/MOL
REMARK 922        TOTAL FREE ENERGY PREDICTED BY IDOCK:   -5.82 KCAL/MOL
REMARK 923 INTER-LIGAND FREE ENERGY PREDICTED BY IDOCK:   -5.33 KCAL/MOL
REMARK 924 INTRA-LIGAND FREE ENERGY PREDICTED BY IDOCK:   -0.49 KCAL/MOL
REMARK 927      BINDING AFFINITY PREDICTED BY RF-SCORE:    0.00 PKD
ROOT
HETATM    1  C   UNL     1     -10.706   5.928  72.401  1.00  0.00    -0.232 C  
HETATM    2  O   UNL     1      -9.904   6.538  71.394  1.00  0.00    -0.176 OA 
ENDROOT
BRANCH   2   3
HETATM    3  C   UNL     1     -10.386   7.743  70.927  1.00  0.00    -0.200 A  
HETATM    4  N   UNL     1     -10.826   8.628  71.849  1.00  0.00    -0.323 NA 
HETATM    5  C   UNL     1     -11.309   9.787  71.384  1.00  0.00    -0.337 A  
HETATM    6  N   UNL     1     -11.380  10.146  70.103  1.00  0.00    -0.282 NA 
HETATM    7  C   UNL     1     -10.955   9.220  69.230  1.00  0.00    -0.085 A  
HETATM    8  C   UNL     1     -10.435   7.972  69.560  1.00  0.00    -0.226 A  
BRANCH   7   9
HETATM    9  N   UNL     1     -11.098   9.642  67.882  1.00  0.00    -0.508 N  
HETATM   10  H   UNL     1     -11.958   9.487  67.356  1.00  0.00     0.000 HD 
BRANCH   9  11
HETATM   11  S   UNL     1      -9.765  10.414  67.202  1.00  0.00    -0.177 S  
HETATM   12  O   UNL     1      -9.791  10.091  65.789  1.00  0.00    -0.240 OA 
HETATM   13  O   UNL     1      -8.591  10.144  68.003  1.00  0.00    -0.117 OA 
BRANCH  11  14
HETATM   14  C   UNL     1     -10.160  12.142  67.337  1.00  0.00    -0.199 A  
HETATM   15  C   UNL     1     -11.473  12.542  67.594  1.00  0.00    -0.392 A  
HETATM   16  C   UNL     1     -11.767  13.903  67.717  1.00  0.00    -0.401 A  
HETATM   17  C   UNL     1     -10.771  14.869  67.547  1.00  0.00    -0.276 A  
HETATM   18  C   UNL     1      -9.448  14.449  67.372  1.00  0.00    -0.207 A  
HETATM   19  N   UNL     1     -11.054  16.221  67.779  1.00  0.00    -0.277 NA 
HETATM   20  H2  UNL     1     -11.433  16.312  68.721  1.00  0.00     0.000 HD 
HETATM   21  H1  UNL     1     -10.327  16.926  67.654  1.00  0.00     0.000 HD 
HETATM   22  C   UNL     1      -9.140  13.091  67.249  1.00  0.00    -0.209 A  
ENDBRANCH  11  14
ENDBRANCH   9  11
ENDBRANCH   7   9
BRANCH   8  23
HETATM   23  O   UNL     1     -10.086   7.154  68.523  1.00  0.00    -0.158 OA 
HETATM   24  C   UNL     1     -11.018   6.162  68.108  1.00  0.00    -0.307 C  
ENDBRANCH   8  23
ENDBRANCH   2   3
TORSDOF 5
ENDMDL
MODEL      154
REMARK 921   NORMALIZED FREE ENERGY PREDICTED BY IDOCK:   -4.11 KCAL/MOL
REMARK 922        TOTAL FREE ENERGY PREDICTED BY IDOCK:   -5.82 KCAL/MOL
REMARK 923 INTER-LIGAND FREE ENERGY PREDICTED BY IDOCK:   -5.71 KCAL/MOL
REMARK 924 INTRA-LIGAND FREE ENERGY PREDICTED BY IDOCK:   -0.11 KCAL/MOL
REMARK 927      BINDING AFFINITY PREDICTED BY RF-SCORE:    0.00 PKD
ROOT
HETATM    1  C   UNL     1     -12.952  12.730  72.179  1.00  0.00    -0.239 C  
HETATM    2  O   UNL     1     -13.285  11.893  71.076  1.00  0.00    -0.063 OA 
ENDROOT
BRANCH   2   3
HETATM    3  C   UNL     1     -12.220  11.558  70.267  1.00  0.00    -0.332 A  
HETATM    4  N   UNL     1     -11.608  10.377  70.512  1.00  0.00    -0.321 NA 
HETATM    5  C   UNL     1     -10.564  10.071  69.734  1.00  0.00    -0.267 A  
HETATM    6  N   UNL     1     -10.087  10.815  68.737  1.00  0.00    -0.183 NA 
HETATM    7  C   UNL     1     -10.714  11.986  68.554  1.00  0.00    -0.234 A  
HETATM    8  C   UNL     1     -11.805  12.445  69.285  1.00  0.00    -0.304 A  
BRANCH   7   9
HETATM    9  N   UNL     1     -10.133  12.753  67.509  1.00  0.00    -0.211 N  
HETATM   10  H   UNL     1      -9.256  13.261  67.635  1.00  0.00     0.000 HD 
BRANCH   9  11
HETATM   11  S   UNL     1     -10.974  12.776  66.051  1.00  0.00    -0.286 S  
HETATM   12  O   UNL     1     -10.896  14.139  65.564  1.00  0.00    -0.290 OA 
HETATM   13  O   UNL     1     -12.253  12.121  66.221  1.00  0.00    -0.604 OA 
BRANCH  11  14
HETATM   14  C   UNL     1      -9.970  11.790  64.966  1.00  0.00    -0.254 A  
HETATM   15  C   UNL     1      -8.982  10.955  65.492  1.00  0.00    -0.213 A  
HETATM   16  C   UNL     1      -8.213  10.169  64.628  1.00  0.00    -0.165 A  
HETATM   17  C   UNL     1      -8.393  10.240  63.244  1.00  0.00    -0.168 A  
HETATM   18  C   UNL     1      -9.441  11.017  62.740  1.00  0.00    -0.361 A  
HETATM   19  N   UNL     1      -7.693   9.371  62.398  1.00  0.00    -0.112 NA 
HETATM   20  H2  UNL     1      -7.876   8.413  62.698  1.00  0.00     0.000 HD 
HETATM   21  H1  UNL     1      -7.824   9.422  61.388  1.00  0.00     0.000 HD 
HETATM   22  C   UNL     1     -10.220  11.806  63.592  1.00  0.00    -0.461 A  
ENDBRANCH  11  14
ENDBRANCH   9  11
ENDBRANCH   7   9
BRANCH   8  23
HETATM   23  O   UNL     1     -12.285  13.685  68.968  1.00  0.00    -0.334 OA 
HETATM   24  C   UNL     1     -11.712  14.813  69.620  1.00  0.00    -0.314 C  
ENDBRANCH   8  23
ENDBRANCH   2   3
TORSDOF 5
ENDMDL
MODEL      155
REMARK 921   NORMALIZED FREE ENERGY PREDICTED BY IDOCK:   -4.09 KCAL/MOL
REMARK 922        TOTAL FREE ENERGY PREDICTED BY IDOCK:   -5.80 KCAL/MOL
REMARK 923 INTER-LIGAND FREE ENERGY PREDICTED BY IDOCK:   -5.15 KCAL/MOL
REMARK 924 INTRA-LIGAND FREE ENERGY PREDICTED BY IDOCK:   -0.65 KCAL/MOL
REMARK 927      BINDING AFFINITY PREDICTED BY RF-SCORE:    0.00 PKD
ROOT
HETATM    1  C   UNL     1     -10.433   6.019  73.912  1.00  0.00    -0.272 C  
HETATM    2  O   UNL     1      -9.707   7.131  73.396  1.00  0.00    -0.185 OA 
ENDROOT
BRANCH   2   3
HETATM    3  C   UNL     1     -10.458   8.005  72.639  1.00  0.00    -0.339 A  
HETATM    4  N   UNL     1     -11.784   8.061  72.897  1.00  0.00    -0.294 NA 
HETATM    5  C   UNL     1     -12.506   8.899  72.145  1.00  0.00    -0.389 A  
HETATM    6  N   UNL     1     -12.034   9.687  71.180  1.00  0.00    -0.341 NA 
HETATM    7  C   UNL     1     -10.718   9.574  70.948  1.00  0.00    -0.333 A  
HETATM    8  C   UNL     1      -9.841   8.743  71.640  1.00  0.00    -0.308 A  
BRANCH   7   9
HETATM    9  N   UNL     1     -10.283  10.403  69.881  1.00  0.00    -0.415 N  
HETATM   10  H   UNL     1      -9.769  11.270  70.045  1.00  0.00     0.000 HD 
BRANCH   9  11
HETATM   11  S   UNL     1     -10.666   9.875  68.329  1.00  0.00    -0.222 S  
HETATM   12  O   UNL     1     -11.709  10.760  67.849  1.00  0.00    -0.543 OA 
HETATM   13  O   UNL     1     -10.857   8.441  68.340  1.00  0.00    -0.074 OA 
BRANCH  11  14
HETATM   14  C   UNL     1      -9.208  10.246  67.382  1.00  0.00    -0.141 A  
HETATM   15  C   UNL     1      -8.516  11.439  67.601  1.00  0.00    -0.130 A  
HETATM   16  C   UNL     1      -7.359  11.710  66.864  1.00  0.00    -0.125 A  
HETATM   17  C   UNL     1      -6.910  10.820  65.884  1.00  0.00    -0.084 A  
HETATM   18  C   UNL     1      -7.566   9.593  65.736  1.00  0.00    -0.103 A  
HETATM   19  N   UNL     1      -5.693  11.050  65.229  1.00  0.00    -0.422 NA 
HETATM   20  H2  UNL     1      -4.963  11.147  65.934  1.00  0.00     0.000 HD 
HETATM   21  H1  UNL     1      -5.365  10.401  64.514  1.00  0.00     0.000 HD 
HETATM   22  C   UNL     1      -8.723   9.309  66.468  1.00  0.00    -0.145 A  
ENDBRANCH  11  14
ENDBRANCH   9  11
ENDBRANCH   7   9
BRANCH   8  23
HETATM   23  O   UNL     1      -8.537   8.744  71.232  1.00  0.00    -0.172 OA 
HETATM   24  C   UNL     1      -8.106   7.703  70.362  1.00  0.00    -0.113 C  
ENDBRANCH   8  23
ENDBRANCH   2   3
TORSDOF 5
ENDMDL
MODEL      156
REMARK 921   NORMALIZED FREE ENERGY PREDICTED BY IDOCK:   -4.09 KCAL/MOL
REMARK 922        TOTAL FREE ENERGY PREDICTED BY IDOCK:   -5.79 KCAL/MOL
REMARK 923 INTER-LIGAND FREE ENERGY PREDICTED BY IDOCK:   -5.81 KCAL/MOL
REMARK 924 INTRA-LIGAND FREE ENERGY PREDICTED BY IDOCK:    0.02 KCAL/MOL
REMARK 927      BINDING AFFINITY PREDICTED BY RF-SCORE:    0.00 PKD
ROOT
HETATM    1  C   UNL     1      -6.359  16.251  69.503  1.00  0.00    -0.195 C  
HETATM    2  O   UNL     1      -7.735  15.980  69.254  1.00  0.00    -0.222 OA 
ENDROOT
BRANCH   2   3
HETATM    3  C   UNL     1      -7.975  14.800  68.580  1.00  0.00    -0.136 A  
HETATM    4  N   UNL     1      -7.324  13.699  69.016  1.00  0.00    -0.063 NA 
HETATM    5  C   UNL     1      -7.550  12.564  68.344  1.00  0.00    -0.129 A  
HETATM    6  N   UNL     1      -8.364  12.423  67.299  1.00  0.00    -0.177 NA 
HETATM    7  C   UNL     1      -8.964  13.552  66.892  1.00  0.00    -0.209 A  
HETATM    8  C   UNL     1      -8.823  14.804  67.483  1.00  0.00    -0.190 A  
BRANCH   7   9
HETATM    9  N   UNL     1      -9.782  13.347  65.749  1.00  0.00    -0.465 N  
HETATM   10  H   UNL     1      -9.392  13.300  64.807  1.00  0.00     0.000 HD 
BRANCH   9  11
HETATM   11  S   UNL     1     -11.433  13.188  66.039  1.00  0.00    -0.351 S  
HETATM   12  O   UNL     1     -11.938  12.304  65.007  1.00  0.00    -0.385 OA 
HETATM   13  O   UNL     1     -12.015  14.496  66.246  1.00  0.00    -0.382 OA 
BRANCH  11  14
HETATM   14  C   UNL     1     -11.510  12.282  67.566  1.00  0.00    -0.347 A  
HETATM   15  C   UNL     1     -11.184  10.924  67.592  1.00  0.00    -0.379 A  
HETATM   16  C   UNL     1     -11.229  10.228  68.805  1.00  0.00    -0.260 A  
HETATM   17  C   UNL     1     -11.635  10.865  69.981  1.00  0.00    -0.341 A  
HETATM   18  C   UNL     1     -11.878  12.242  69.953  1.00  0.00    -0.383 A  
HETATM   19  N   UNL     1     -11.574  10.187  71.205  1.00  0.00    -0.364 NA 
HETATM   20  H2  UNL     1     -10.621   9.847  71.336  1.00  0.00     0.000 HD 
HETATM   21  H1  UNL     1     -11.870  10.651  72.064  1.00  0.00     0.000 HD 
HETATM   22  C   UNL     1     -11.834  12.951  68.748  1.00  0.00    -0.353 A  
ENDBRANCH  11  14
ENDBRANCH   9  11
ENDBRANCH   7   9
BRANCH   8  23
HETATM   23  O   UNL     1      -9.494  15.841  66.899  1.00  0.00    -0.216 OA 
HETATM   24  C   UNL     1      -8.752  16.753  66.096  1.00  0.00    -0.264 C  
ENDBRANCH   8  23
ENDBRANCH   2   3
TORSDOF 5
ENDMDL
MODEL      157
REMARK 921   NORMALIZED FREE ENERGY PREDICTED BY IDOCK:   -4.09 KCAL/MOL
REMARK 922        TOTAL FREE ENERGY PREDICTED BY IDOCK:   -5.79 KCAL/MOL
REMARK 923 INTER-LIGAND FREE ENERGY PREDICTED BY IDOCK:   -6.59 KCAL/MOL
REMARK 924 INTRA-LIGAND FREE ENERGY PREDICTED BY IDOCK:    0.80 KCAL/MOL
REMARK 927      BINDING AFFINITY PREDICTED BY RF-SCORE:    0.00 PKD
ROOT
HETATM    1  C   UNL     1     -12.516  11.791  63.431  1.00  0.00    -0.372 C  
HETATM    2  O   UNL     1     -11.320  12.162  64.110  1.00  0.00    -0.331 OA 
ENDROOT
BRANCH   2   3
HETATM    3  C   UNL     1     -11.457  12.317  65.473  1.00  0.00    -0.361 A  
HETATM    4  N   UNL     1     -11.197  11.238  66.245  1.00  0.00    -0.210 NA 
HETATM    5  C   UNL     1     -11.352  11.394  67.565  1.00  0.00    -0.292 A  
HETATM    6  N   UNL     1     -11.724  12.515  68.181  1.00  0.00    -0.336 NA 
HETATM    7  C   UNL     1     -11.993  13.547  67.367  1.00  0.00    -0.357 A  
HETATM    8  C   UNL     1     -11.886  13.535  65.979  1.00  0.00    -0.379 A  
BRANCH   7   9
HETATM    9  N   UNL     1     -12.427  14.697  68.078  1.00  0.00    -0.472 N  
HETATM   10  H   UNL     1     -13.129  15.334  67.699  1.00  0.00     0.000 HD 
BRANCH   9  11
HETATM   11  S   UNL     1     -11.714  14.951  69.582  1.00  0.00    -0.341 S  
HETATM   12  O   UNL     1     -11.166  13.671  69.987  1.00  0.00    -0.068 OA 
HETATM   13  O   UNL     1     -12.633  15.668  70.437  1.00  0.00    -0.426 OA 
BRANCH  11  14
HETATM   14  C   UNL     1     -10.329  16.006  69.223  1.00  0.00    -0.251 A  
HETATM   15  C   UNL     1      -9.029  15.500  69.283  1.00  0.00    -0.267 A  
HETATM   16  C   UNL     1      -7.950  16.336  68.978  1.00  0.00    -0.238 A  
HETATM   17  C   UNL     1      -8.155  17.681  68.655  1.00  0.00    -0.269 A  
HETATM   18  C   UNL     1      -9.466  18.149  68.519  1.00  0.00    -0.339 A  
HETATM   19  N   UNL     1      -7.078  18.478  68.248  1.00  0.00    -0.249 NA 
HETATM   20  H2  UNL     1      -6.622  18.023  67.457  1.00  0.00     0.000 HD 
HETATM   21  H1  UNL     1      -7.227  19.459  68.012  1.00  0.00     0.000 HD 
HETATM   22  C   UNL     1     -10.554  17.323  68.818  1.00  0.00    -0.305 A  
ENDBRANCH  11  14
ENDBRANCH   9  11
ENDBRANCH   7   9
BRANCH   8  23
HETATM   23  O   UNL     1     -12.240  14.679  65.322  1.00  0.00    -0.336 OA 
HETATM   24  C   UNL     1     -11.204  15.563  64.908  1.00  0.00    -0.389 C  
ENDBRANCH   8  23
ENDBRANCH   2   3
TORSDOF 5
ENDMDL
MODEL      158
REMARK 921   NORMALIZED FREE ENERGY PREDICTED BY IDOCK:   -4.06 KCAL/MOL
REMARK 922        TOTAL FREE ENERGY PREDICTED BY IDOCK:   -5.76 KCAL/MOL
REMARK 923 INTER-LIGAND FREE ENERGY PREDICTED BY IDOCK:   -5.37 KCAL/MOL
REMARK 924 INTRA-LIGAND FREE ENERGY PREDICTED BY IDOCK:   -0.39 KCAL/MOL
REMARK 927      BINDING AFFINITY PREDICTED BY RF-SCORE:    0.00 PKD
ROOT
HETATM    1  C   UNL     1     -10.510  11.462  63.645  1.00  0.00    -0.414 C  
HETATM    2  O   UNL     1     -11.173  11.397  64.904  1.00  0.00    -0.224 OA 
ENDROOT
BRANCH   2   3
HETATM    3  C   UNL     1     -10.380  10.971  65.949  1.00  0.00    -0.257 A  
HETATM    4  N   UNL     1      -9.241  10.315  65.630  1.00  0.00    -0.172 NA 
HETATM    5  C   UNL     1      -8.489   9.889  66.651  1.00  0.00    -0.125 A  
HETATM    6  N   UNL     1      -8.754  10.067  67.945  1.00  0.00    -0.125 NA 
HETATM    7  C   UNL     1      -9.907  10.701  68.205  1.00  0.00    -0.163 A  
HETATM    8  C   UNL     1     -10.795  11.194  67.253  1.00  0.00    -0.274 A  
BRANCH   7   9
HETATM    9  N   UNL     1     -10.156  10.820  69.598  1.00  0.00    -0.442 N  
HETATM   10  H   UNL     1      -9.706  11.537  70.168  1.00  0.00     0.000 HD 
BRANCH   9  11
HETATM   11  S   UNL     1     -11.238   9.709  70.254  1.00  0.00    -0.275 S  
HETATM   12  O   UNL     1     -11.496   8.736  69.212  1.00  0.00     0.264 OA 
HETATM   13  O   UNL     1     -12.326  10.416  70.895  1.00  0.00    -0.317 OA 
BRANCH  11  14
HETATM   14  C   UNL     1     -10.286   8.877  71.504  1.00  0.00    -0.324 A  
HETATM   15  C   UNL     1      -8.892   8.960  71.493  1.00  0.00    -0.253 A  
HETATM   16  C   UNL     1      -8.157   8.318  72.494  1.00  0.00    -0.209 A  
HETATM   17  C   UNL     1      -8.797   7.561  73.480  1.00  0.00    -0.209 A  
HETATM   18  C   UNL     1     -10.195   7.556  73.523  1.00  0.00    -0.380 A  
HETATM   19  N   UNL     1      -8.059   7.012  74.536  1.00  0.00    -0.144 NA 
HETATM   20  H2  UNL     1      -7.544   7.765  74.993  1.00  0.00     0.000 HD 
HETATM   21  H1  UNL     1      -8.526   6.460  75.255  1.00  0.00     0.000 HD 
HETATM   22  C   UNL     1     -10.943   8.197  72.531  1.00  0.00    -0.439 A  
ENDBRANCH  11  14
ENDBRANCH   9  11
ENDBRANCH   7   9
BRANCH   8  23
HETATM   23  O   UNL     1     -11.937  11.782  67.719  1.00  0.00    -0.586 OA 
HETATM   24  C   UNL     1     -11.918  13.184  67.961  1.00  0.00    -0.304 C  
ENDBRANCH   8  23
ENDBRANCH   2   3
TORSDOF 5
ENDMDL
MODEL      159
REMARK 921   NORMALIZED FREE ENERGY PREDICTED BY IDOCK:   -4.06 KCAL/MOL
REMARK 922        TOTAL FREE ENERGY PREDICTED BY IDOCK:   -5.75 KCAL/MOL
REMARK 923 INTER-LIGAND FREE ENERGY PREDICTED BY IDOCK:   -5.12 KCAL/MOL
REMARK 924 INTRA-LIGAND FREE ENERGY PREDICTED BY IDOCK:   -0.63 KCAL/MOL
REMARK 927      BINDING AFFINITY PREDICTED BY RF-SCORE:    0.00 PKD
ROOT
HETATM    1  C   UNL     1     -12.340   6.350  71.891  1.00  0.00    -0.225 C  
HETATM    2  O   UNL     1     -11.826   6.797  70.639  1.00  0.00    -0.370 OA 
ENDROOT
BRANCH   2   3
HETATM    3  C   UNL     1     -10.720   7.615  70.732  1.00  0.00    -0.226 A  
HETATM    4  N   UNL     1     -10.230   7.849  71.970  1.00  0.00    -0.199 NA 
HETATM    5  C   UNL     1      -9.167   8.659  72.051  1.00  0.00    -0.268 A  
HETATM    6  N   UNL     1      -8.547   9.239  71.024  1.00  0.00    -0.290 NA 
HETATM    7  C   UNL     1      -9.090   8.994  69.822  1.00  0.00    -0.159 A  
HETATM    8  C   UNL     1     -10.194   8.182  69.581  1.00  0.00    -0.205 A  
BRANCH   7   9
HETATM    9  N   UNL     1      -8.414   9.675  68.775  1.00  0.00    -0.120 N  
HETATM   10  H   UNL     1      -7.615   9.264  68.291  1.00  0.00     0.000 HD 
BRANCH   9  11
HETATM   11  S   UNL     1      -9.006  11.200  68.380  1.00  0.00    -0.168 S  
HETATM   12  O   UNL     1      -7.862  12.090  68.389  1.00  0.00    -0.136 OA 
HETATM   13  O   UNL     1     -10.175  11.487  69.183  1.00  0.00    -0.141 OA 
BRANCH  11  14
HETATM   14  C   UNL     1      -9.509  11.035  66.684  1.00  0.00    -0.184 A  
HETATM   15  C   UNL     1     -10.531  11.838  66.174  1.00  0.00    -0.284 A  
HETATM   16  C   UNL     1     -10.903  11.712  64.832  1.00  0.00    -0.359 A  
HETATM   17  C   UNL     1     -10.292  10.764  64.006  1.00  0.00    -0.286 A  
HETATM   18  C   UNL     1      -9.215  10.026  64.509  1.00  0.00    -0.313 A  
HETATM   19  N   UNL     1     -10.596  10.721  62.640  1.00  0.00    -0.637 NA 
HETATM   20  H2  UNL     1     -10.431  11.646  62.244  1.00  0.00     0.000 HD 
HETATM   21  H1  UNL     1     -10.151  10.029  62.037  1.00  0.00     0.000 HD 
HETATM   22  C   UNL     1      -8.831  10.144  65.849  1.00  0.00    -0.167 A  
ENDBRANCH  11  14
ENDBRANCH   9  11
ENDBRANCH   7   9
BRANCH   8  23
HETATM   23  O   UNL     1     -10.618   8.084  68.286  1.00  0.00    -0.183 OA 
HETATM   24  C   UNL     1     -10.281   6.910  67.557  1.00  0.00    -0.194 C  
ENDBRANCH   8  23
ENDBRANCH   2   3
TORSDOF 5
ENDMDL
MODEL      160
REMARK 921   NORMALIZED FREE ENERGY PREDICTED BY IDOCK:   -4.02 KCAL/MOL
REMARK 922        TOTAL FREE ENERGY PREDICTED BY IDOCK:   -5.71 KCAL/MOL
REMARK 923 INTER-LIGAND FREE ENERGY PREDICTED BY IDOCK:   -5.50 KCAL/MOL
REMARK 924 INTRA-LIGAND FREE ENERGY PREDICTED BY IDOCK:   -0.21 KCAL/MOL
REMARK 927      BINDING AFFINITY PREDICTED BY RF-SCORE:    0.00 PKD
ROOT
HETATM    1  C   UNL     1     -10.067  18.276  66.174  1.00  0.00    -0.346 C  
HETATM    2  O   UNL     1     -11.018  17.318  66.628  1.00  0.00    -0.026 OA 
ENDROOT
BRANCH   2   3
HETATM    3  C   UNL     1     -10.478  16.108  67.010  1.00  0.00    -0.306 A  
HETATM    4  N   UNL     1     -10.128  15.974  68.309  1.00  0.00    -0.226 NA 
HETATM    5  C   UNL     1      -9.587  14.802  68.666  1.00  0.00    -0.218 A  
HETATM    6  N   UNL     1      -9.379  13.761  67.861  1.00  0.00    -0.203 NA 
HETATM    7  C   UNL     1      -9.721  13.957  66.579  1.00  0.00    -0.294 A  
HETATM    8  C   UNL     1     -10.284  15.118  66.059  1.00  0.00    -0.307 A  
BRANCH   7   9
HETATM    9  N   UNL     1      -9.434  12.830  65.765  1.00  0.00    -0.460 N  
HETATM   10  H   UNL     1      -8.572  12.760  65.223  1.00  0.00     0.000 HD 
BRANCH   9  11
HETATM   11  S   UNL     1     -10.599  11.615  65.744  1.00  0.00    -0.279 S  
HETATM   12  O   UNL     1     -10.578  11.061  64.405  1.00  0.00    -0.352 OA 
HETATM   13  O   UNL     1     -11.828  12.115  66.321  1.00  0.00    -0.553 OA 
BRANCH  11  14
HETATM   14  C   UNL     1      -9.932  10.368  66.821  1.00  0.00    -0.206 A  
HETATM   15  C   UNL     1      -9.913   9.032  66.418  1.00  0.00    -0.370 A  
HETATM   16  C   UNL     1      -9.366   8.064  67.267  1.00  0.00    -0.177 A  
HETATM   17  C   UNL     1      -8.877   8.412  68.529  1.00  0.00    -0.136 A  
HETATM   18  C   UNL     1      -8.827   9.765  68.882  1.00  0.00    -0.140 A  
HETATM   19  N   UNL     1      -8.235   7.454  69.323  1.00  0.00    -0.129 NA 
HETATM   20  H2  UNL     1      -7.472   7.047  68.783  1.00  0.00     0.000 HD 
HETATM   21  H1  UNL     1      -7.878   7.708  70.245  1.00  0.00     0.000 HD 
HETATM   22  C   UNL     1      -9.368  10.743  68.042  1.00  0.00    -0.152 A  
ENDBRANCH  11  14
ENDBRANCH   9  11
ENDBRANCH   7   9
BRANCH   8  23
HETATM   23  O   UNL     1     -10.532  15.136  64.715  1.00  0.00    -0.368 OA 
HETATM   24  C   UNL     1     -11.887  15.139  64.282  1.00  0.00    -0.251 C  
ENDBRANCH   8  23
ENDBRANCH   2   3
TORSDOF 5
ENDMDL
MODEL      161
REMARK 921   NORMALIZED FREE ENERGY PREDICTED BY IDOCK:   -4.01 KCAL/MOL
REMARK 922        TOTAL FREE ENERGY PREDICTED BY IDOCK:   -5.69 KCAL/MOL
REMARK 923 INTER-LIGAND FREE ENERGY PREDICTED BY IDOCK:   -5.17 KCAL/MOL
REMARK 924 INTRA-LIGAND FREE ENERGY PREDICTED BY IDOCK:   -0.52 KCAL/MOL
REMARK 927      BINDING AFFINITY PREDICTED BY RF-SCORE:    0.00 PKD
ROOT
HETATM    1  C   UNL     1      -9.837   3.976  64.896  1.00  0.00    -0.200 C  
HETATM    2  O   UNL     1      -9.274   5.242  65.229  1.00  0.00    -0.137 OA 
ENDROOT
BRANCH   2   3
HETATM    3  C   UNL     1      -8.879   5.367  66.544  1.00  0.00    -0.118 A  
HETATM    4  N   UNL     1      -7.958   4.486  66.996  1.00  0.00    -0.101 NA 
HETATM    5  C   UNL     1      -7.595   4.604  68.279  1.00  0.00    -0.076 A  
HETATM    6  N   UNL     1      -8.048   5.515  69.139  1.00  0.00    -0.094 NA 
HETATM    7  C   UNL     1      -8.978   6.346  68.646  1.00  0.00    -0.125 A  
HETATM    8  C   UNL     1      -9.460   6.342  67.340  1.00  0.00    -0.116 A  
BRANCH   7   9
HETATM    9  N   UNL     1      -9.454   7.263  69.620  1.00  0.00    -0.156 N  
HETATM   10  H   UNL     1      -9.042   8.189  69.738  1.00  0.00     0.000 HD 
BRANCH   9  11
HETATM   11  S   UNL     1     -10.738   6.733  70.571  1.00  0.00    -0.252 S  
HETATM   12  O   UNL     1     -10.150   6.230  71.796  1.00  0.00    -0.185 OA 
HETATM   13  O   UNL     1     -11.618   5.904  69.776  1.00  0.00    -0.190 OA 
BRANCH  11  14
HETATM   14  C   UNL     1     -11.598   8.229  70.996  1.00  0.00    -0.275 A  
HETATM   15  C   UNL     1     -12.660   8.193  71.903  1.00  0.00    -0.368 A  
HETATM   16  C   UNL     1     -13.314   9.381  72.244  1.00  0.00    -0.539 A  
HETATM   17  C   UNL     1     -12.946  10.596  71.659  1.00  0.00    -0.477 A  
HETATM   18  C   UNL     1     -11.829  10.626  70.817  1.00  0.00    -0.459 A  
HETATM   19  N   UNL     1     -13.536  11.791  72.087  1.00  0.00    -0.523 NA 
HETATM   20  H2  UNL     1     -13.407  11.869  73.096  1.00  0.00     0.000 HD 
HETATM   21  H1  UNL     1     -13.267  12.678  71.660  1.00  0.00     0.000 HD 
HETATM   22  C   UNL     1     -11.164   9.447  70.469  1.00  0.00    -0.329 A  
ENDBRANCH  11  14
ENDBRANCH   9  11
ENDBRANCH   7   9
BRANCH   8  23
HETATM   23  O   UNL     1     -10.435   7.250  67.039  1.00  0.00    -0.278 OA 
HETATM   24  C   UNL     1     -10.055   8.444  66.364  1.00  0.00    -0.172 C  
ENDBRANCH   8  23
ENDBRANCH   2   3
TORSDOF 5
ENDMDL
MODEL      162
REMARK 921   NORMALIZED FREE ENERGY PREDICTED BY IDOCK:   -3.99 KCAL/MOL
REMARK 922        TOTAL FREE ENERGY PREDICTED BY IDOCK:   -5.67 KCAL/MOL
REMARK 923 INTER-LIGAND FREE ENERGY PREDICTED BY IDOCK:   -5.39 KCAL/MOL
REMARK 924 INTRA-LIGAND FREE ENERGY PREDICTED BY IDOCK:   -0.28 KCAL/MOL
REMARK 927      BINDING AFFINITY PREDICTED BY RF-SCORE:    0.00 PKD
ROOT
HETATM    1  C   UNL     1     -11.147   7.080  73.219  1.00  0.00    -0.182 C  
HETATM    2  O   UNL     1     -11.797   7.245  71.962  1.00  0.00    -0.282 OA 
ENDROOT
BRANCH   2   3
HETATM    3  C   UNL     1     -11.844   8.546  71.506  1.00  0.00    -0.299 A  
HETATM    4  N   UNL     1     -12.931   9.276  71.841  1.00  0.00    -0.378 NA 
HETATM    5  C   UNL     1     -12.976  10.531  71.378  1.00  0.00    -0.440 A  
HETATM    6  N   UNL     1     -12.042  11.123  70.634  1.00  0.00    -0.364 NA 
HETATM    7  C   UNL     1     -10.998  10.346  70.310  1.00  0.00    -0.284 A  
HETATM    8  C   UNL     1     -10.816   9.025  70.708  1.00  0.00    -0.251 A  
BRANCH   7   9
HETATM    9  N   UNL     1     -10.061  11.017  69.480  1.00  0.00    -0.441 N  
HETATM   10  H   UNL     1      -9.103  11.196  69.782  1.00  0.00     0.000 HD 
BRANCH   9  11
HETATM   11  S   UNL     1     -10.624  11.502  67.969  1.00  0.00    -0.201 S  
HETATM   12  O   UNL     1     -10.379  12.928  67.888  1.00  0.00    -0.220 OA 
HETATM   13  O   UNL     1     -11.949  10.964  67.752  1.00  0.00    -0.553 OA 
BRANCH  11  14
HETATM   14  C   UNL     1      -9.502  10.726  66.830  1.00  0.00    -0.173 A  
HETATM   15  C   UNL     1      -8.264  11.313  66.558  1.00  0.00    -0.165 A  
HETATM   16  C   UNL     1      -7.382  10.681  65.675  1.00  0.00    -0.087 A  
HETATM   17  C   UNL     1      -7.741   9.494  65.031  1.00  0.00    -0.114 A  
HETATM   18  C   UNL     1      -8.949   8.878  65.377  1.00  0.00    -0.232 A  
HETATM   19  N   UNL     1      -6.810   8.817  64.234  1.00  0.00    -0.078 NA 
HETATM   20  H2  UNL     1      -5.976   8.639  64.794  1.00  0.00     0.000 HD 
HETATM   21  H1  UNL     1      -7.072   7.950  63.764  1.00  0.00     0.000 HD 
HETATM   22  C   UNL     1      -9.839   9.497  66.261  1.00  0.00    -0.334 A  
ENDBRANCH  11  14
ENDBRANCH   9  11
ENDBRANCH   7   9
BRANCH   8  23
HETATM   23  O   UNL     1      -9.699   8.389  70.246  1.00  0.00    -0.170 OA 
HETATM   24  C   UNL     1      -8.513   8.460  71.029  1.00  0.00    -0.143 C  
ENDBRANCH   8  23
ENDBRANCH   2   3
TORSDOF 5
ENDMDL
MODEL      163
REMARK 921   NORMALIZED FREE ENERGY PREDICTED BY IDOCK:   -3.95 KCAL/MOL
REMARK 922        TOTAL FREE ENERGY PREDICTED BY IDOCK:   -5.62 KCAL/MOL
REMARK 923 INTER-LIGAND FREE ENERGY PREDICTED BY IDOCK:   -5.14 KCAL/MOL
REMARK 924 INTRA-LIGAND FREE ENERGY PREDICTED BY IDOCK:   -0.48 KCAL/MOL
REMARK 927      BINDING AFFINITY PREDICTED BY RF-SCORE:    0.00 PKD
ROOT
HETATM    1  C   UNL     1     -10.703  19.685  66.677  1.00  0.00    -0.440 C  
HETATM    2  O   UNL     1     -10.948  18.502  67.432  1.00  0.00    -0.376 OA 
ENDROOT
BRANCH   2   3
HETATM    3  C   UNL     1      -9.844  17.693  67.606  1.00  0.00    -0.294 A  
HETATM    4  N   UNL     1      -8.852  18.167  68.394  1.00  0.00    -0.289 NA 
HETATM    5  C   UNL     1      -7.778  17.383  68.541  1.00  0.00    -0.267 A  
HETATM    6  N   UNL     1      -7.608  16.179  67.995  1.00  0.00    -0.130 NA 
HETATM    7  C   UNL     1      -8.609  15.770  67.202  1.00  0.00    -0.201 A  
HETATM    8  C   UNL     1      -9.782  16.474  66.947  1.00  0.00    -0.251 A  
BRANCH   7   9
HETATM    9  N   UNL     1      -8.350  14.504  66.614  1.00  0.00    -0.395 N  
HETATM   10  H   UNL     1      -8.028  14.411  65.650  1.00  0.00     0.000 HD 
BRANCH   9  11
HETATM   11  S   UNL     1      -8.607  13.163  67.600  1.00  0.00    -0.207 S  
HETATM   12  O   UNL     1      -9.980  13.256  68.055  1.00  0.00    -0.220 OA 
HETATM   13  O   UNL     1      -7.518  13.043  68.545  1.00  0.00    -0.119 OA 
BRANCH  11  14
HETATM   14  C   UNL     1      -8.537  11.789  66.474  1.00  0.00    -0.148 A  
HETATM   15  C   UNL     1      -7.395  10.986  66.420  1.00  0.00    -0.128 A  
HETATM   16  C   UNL     1      -7.362   9.896  65.544  1.00  0.00    -0.122 A  
HETATM   17  C   UNL     1      -8.438   9.625  64.695  1.00  0.00    -0.174 A  
HETATM   18  C   UNL     1      -9.604  10.389  64.822  1.00  0.00    -0.352 A  
HETATM   19  N   UNL     1      -8.436   8.471  63.902  1.00  0.00    -0.380 NA 
HETATM   20  H2  UNL     1      -8.295   7.664  64.510  1.00  0.00     0.000 HD 
HETATM   21  H1  UNL     1      -9.222   8.273  63.283  1.00  0.00     0.000 HD 
HETATM   22  C   UNL     1      -9.653  11.480  65.695  1.00  0.00    -0.256 A  
ENDBRANCH  11  14
ENDBRANCH   9  11
ENDBRANCH   7   9
BRANCH   8  23
HETATM   23  O   UNL     1     -10.672  15.902  66.083  1.00  0.00    -0.314 OA 
HETATM   24  C   UNL     1     -10.760  16.430  64.764  1.00  0.00    -0.076 C  
ENDBRANCH   8  23
ENDBRANCH   2   3
TORSDOF 5
ENDMDL
MODEL      164
REMARK 921   NORMALIZED FREE ENERGY PREDICTED BY IDOCK:   -3.95 KCAL/MOL
REMARK 922        TOTAL FREE ENERGY PREDICTED BY IDOCK:   -5.62 KCAL/MOL
REMARK 923 INTER-LIGAND FREE ENERGY PREDICTED BY IDOCK:   -4.97 KCAL/MOL
REMARK 924 INTRA-LIGAND FREE ENERGY PREDICTED BY IDOCK:   -0.65 KCAL/MOL
REMARK 927      BINDING AFFINITY PREDICTED BY RF-SCORE:    0.00 PKD
ROOT
HETATM    1  C   UNL     1     -12.083  14.934  71.101  1.00  0.00    -0.327 C  
HETATM    2  O   UNL     1     -12.558  13.616  70.843  1.00  0.00    -0.341 OA 
ENDROOT
BRANCH   2   3
HETATM    3  C   UNL     1     -11.818  12.910  69.918  1.00  0.00    -0.303 A  
HETATM    4  N   UNL     1     -10.947  13.613  69.160  1.00  0.00    -0.229 NA 
HETATM    5  C   UNL     1     -10.248  12.921  68.253  1.00  0.00    -0.245 A  
HETATM    6  N   UNL     1     -10.325  11.608  68.043  1.00  0.00    -0.186 NA 
HETATM    7  C   UNL     1     -11.222  10.963  68.803  1.00  0.00    -0.270 A  
HETATM    8  C   UNL     1     -12.025  11.546  69.779  1.00  0.00    -0.346 A  
BRANCH   7   9
HETATM    9  N   UNL     1     -11.290   9.578  68.501  1.00  0.00    -0.458 N  
HETATM   10  H   UNL     1     -11.925   9.209  67.792  1.00  0.00     0.000 HD 
BRANCH   9  11
HETATM   11  S   UNL     1     -10.263   8.577  69.383  1.00  0.00    -0.213 S  
HETATM   12  O   UNL     1     -11.107   7.559  69.978  1.00  0.00    -0.257 OA 
HETATM   13  O   UNL     1      -9.387   9.386  70.203  1.00  0.00    -0.205 OA 
BRANCH  11  14
HETATM   14  C   UNL     1      -9.288   7.765  68.138  1.00  0.00    -0.145 A  
HETATM   15  C   UNL     1      -8.498   6.664  68.475  1.00  0.00    -0.122 A  
HETATM   16  C   UNL     1      -7.752   6.022  67.481  1.00  0.00    -0.097 A  
HETATM   17  C   UNL     1      -7.756   6.494  66.165  1.00  0.00    -0.092 A  
HETATM   18  C   UNL     1      -8.616   7.545  65.829  1.00  0.00    -0.158 A  
HETATM   19  N   UNL     1      -7.092   5.780  65.160  1.00  0.00    -0.063 NA 
HETATM   20  H2  UNL     1      -7.444   4.823  65.159  1.00  0.00     0.000 HD 
HETATM   21  H1  UNL     1      -7.095   6.125  64.200  1.00  0.00     0.000 HD 
HETATM   22  C   UNL     1      -9.369   8.195  66.812  1.00  0.00    -0.233 A  
ENDBRANCH  11  14
ENDBRANCH   9  11
ENDBRANCH   7   9
BRANCH   8  23
HETATM   23  O   UNL     1     -12.904  10.725  70.426  1.00  0.00    -0.313 OA 
HETATM   24  C   UNL     1     -12.621  10.367  71.774  1.00  0.00    -0.367 C  
ENDBRANCH   8  23
ENDBRANCH   2   3
TORSDOF 5
ENDMDL
MODEL      165
REMARK 921   NORMALIZED FREE ENERGY PREDICTED BY IDOCK:   -3.95 KCAL/MOL
REMARK 922        TOTAL FREE ENERGY PREDICTED BY IDOCK:   -5.61 KCAL/MOL
REMARK 923 INTER-LIGAND FREE ENERGY PREDICTED BY IDOCK:   -5.09 KCAL/MOL
REMARK 924 INTRA-LIGAND FREE ENERGY PREDICTED BY IDOCK:   -0.52 KCAL/MOL
REMARK 927      BINDING AFFINITY PREDICTED BY RF-SCORE:    0.00 PKD
ROOT
HETATM    1  C   UNL     1     -10.428   5.133  70.517  1.00  0.00    -0.208 C  
HETATM    2  O   UNL     1     -10.592   6.257  71.376  1.00  0.00    -0.223 OA 
ENDROOT
BRANCH   2   3
HETATM    3  C   UNL     1      -9.960   7.405  70.946  1.00  0.00    -0.184 A  
HETATM    4  N   UNL     1      -8.608   7.386  70.908  1.00  0.00    -0.134 NA 
HETATM    5  C   UNL     1      -8.004   8.511  70.507  1.00  0.00    -0.095 A  
HETATM    6  N   UNL     1      -8.614   9.634  70.132  1.00  0.00    -0.208 NA 
HETATM    7  C   UNL     1      -9.952   9.608  70.214  1.00  0.00    -0.270 A  
HETATM    8  C   UNL     1     -10.719   8.518  70.618  1.00  0.00    -0.220 A  
BRANCH   7   9
HETATM    9  N   UNL     1     -10.541  10.846  69.845  1.00  0.00    -0.451 N  
HETATM   10  H   UNL     1     -10.766  11.564  70.535  1.00  0.00     0.000 HD 
BRANCH   9  11
HETATM   11  S   UNL     1     -10.849  11.060  68.204  1.00  0.00    -0.248 S  
HETATM   12  O   UNL     1     -12.279  11.264  68.087  1.00  0.00    -0.622 OA 
HETATM   13  O   UNL     1     -10.183  10.022  67.448  1.00  0.00    -0.192 OA 
BRANCH  11  14
HETATM   14  C   UNL     1     -10.080  12.619  67.828  1.00  0.00    -0.220 A  
HETATM   15  C   UNL     1      -8.697  12.692  67.650  1.00  0.00    -0.179 A  
HETATM   16  C   UNL     1      -8.108  13.920  67.334  1.00  0.00    -0.190 A  
HETATM   17  C   UNL     1      -8.880  15.081  67.236  1.00  0.00    -0.201 A  
HETATM   18  C   UNL     1     -10.272  14.975  67.336  1.00  0.00    -0.234 A  
HETATM   19  N   UNL     1      -8.296  16.282  66.815  1.00  0.00    -0.224 NA 
HETATM   20  H2  UNL     1      -7.842  16.121  65.916  1.00  0.00     0.000 HD 
HETATM   21  H1  UNL     1      -8.859  17.129  66.744  1.00  0.00     0.000 HD 
HETATM   22  C   UNL     1     -10.875  13.753  67.649  1.00  0.00    -0.264 A  
ENDBRANCH  11  14
ENDBRANCH   9  11
ENDBRANCH   7   9
BRANCH   8  23
HETATM   23  O   UNL     1     -12.072   8.699  70.667  1.00  0.00    -0.144 OA 
HETATM   24  C   UNL     1     -12.667   8.978  71.929  1.00  0.00    -0.382 C  
ENDBRANCH   8  23
ENDBRANCH   2   3
TORSDOF 5
ENDMDL
MODEL      166
REMARK 921   NORMALIZED FREE ENERGY PREDICTED BY IDOCK:   -3.95 KCAL/MOL
REMARK 922        TOTAL FREE ENERGY PREDICTED BY IDOCK:   -5.61 KCAL/MOL
REMARK 923 INTER-LIGAND FREE ENERGY PREDICTED BY IDOCK:   -5.32 KCAL/MOL
REMARK 924 INTRA-LIGAND FREE ENERGY PREDICTED BY IDOCK:   -0.29 KCAL/MOL
REMARK 927      BINDING AFFINITY PREDICTED BY RF-SCORE:    0.00 PKD
ROOT
HETATM    1  C   UNL     1     -11.772  12.832  67.890  1.00  0.00    -0.357 C  
HETATM    2  O   UNL     1     -11.104  12.720  69.144  1.00  0.00    -0.242 OA 
ENDROOT
BRANCH   2   3
HETATM    3  C   UNL     1     -11.554  11.690  69.944  1.00  0.00    -0.288 A  
HETATM    4  N   UNL     1     -12.470  12.001  70.889  1.00  0.00    -0.347 NA 
HETATM    5  C   UNL     1     -12.886  10.998  71.672  1.00  0.00    -0.435 A  
HETATM    6  N   UNL     1     -12.490   9.728  71.592  1.00  0.00    -0.384 NA 
HETATM    7  C   UNL     1     -11.563   9.481  70.655  1.00  0.00    -0.283 A  
HETATM    8  C   UNL     1     -11.029  10.418  69.775  1.00  0.00    -0.293 A  
BRANCH   7   9
HETATM    9  N   UNL     1     -11.148   8.123  70.650  1.00  0.00    -0.253 N  
HETATM   10  H   UNL     1     -11.716   7.386  70.230  1.00  0.00     0.000 HD 
BRANCH   9  11
HETATM   11  S   UNL     1      -9.665   7.798  71.377  1.00  0.00    -0.168 S  
HETATM   12  O   UNL     1      -9.501   8.795  72.417  1.00  0.00    -0.293 OA 
HETATM   13  O   UNL     1      -8.656   7.619  70.356  1.00  0.00    -0.135 OA 
BRANCH  11  14
HETATM   14  C   UNL     1      -9.926   6.244  72.198  1.00  0.00    -0.166 A  
HETATM   15  C   UNL     1      -8.841   5.414  72.488  1.00  0.00    -0.130 A  
HETATM   16  C   UNL     1      -9.058   4.203  73.154  1.00  0.00    -0.120 A  
HETATM   17  C   UNL     1     -10.351   3.795  73.495  1.00  0.00    -0.160 A  
HETATM   18  C   UNL     1     -11.416   4.675  73.271  1.00  0.00    -0.346 A  
HETATM   19  N   UNL     1     -10.545   2.635  74.254  1.00  0.00    -0.159 NA 
HETATM   20  H2  UNL     1      -9.997   2.716  75.110  1.00  0.00     0.000 HD 
HETATM   21  H1  UNL     1     -11.488   2.337  74.503  1.00  0.00     0.000 HD 
HETATM   22  C   UNL     1     -11.213   5.890  72.610  1.00  0.00    -0.335 A  
ENDBRANCH  11  14
ENDBRANCH   9  11
ENDBRANCH   7   9
BRANCH   8  23
HETATM   23  O   UNL     1     -10.067   9.977  68.912  1.00  0.00    -0.173 OA 
HETATM   24  C   UNL     1     -10.483   9.328  67.716  1.00  0.00    -0.255 C  
ENDBRANCH   8  23
ENDBRANCH   2   3
TORSDOF 5
ENDMDL
MODEL      167
REMARK 921   NORMALIZED FREE ENERGY PREDICTED BY IDOCK:   -3.94 KCAL/MOL
REMARK 922        TOTAL FREE ENERGY PREDICTED BY IDOCK:   -5.60 KCAL/MOL
REMARK 923 INTER-LIGAND FREE ENERGY PREDICTED BY IDOCK:   -5.58 KCAL/MOL
REMARK 924 INTRA-LIGAND FREE ENERGY PREDICTED BY IDOCK:   -0.03 KCAL/MOL
REMARK 927      BINDING AFFINITY PREDICTED BY RF-SCORE:    0.00 PKD
ROOT
HETATM    1  C   UNL     1     -10.625  16.886  65.440  1.00  0.00    -0.162 C  
HETATM    2  O   UNL     1     -10.204  16.975  66.798  1.00  0.00    -0.284 OA 
ENDROOT
BRANCH   2   3
HETATM    3  C   UNL     1      -9.638  15.821  67.300  1.00  0.00    -0.217 A  
HETATM    4  N   UNL     1      -8.322  15.625  67.056  1.00  0.00    -0.207 NA 
HETATM    5  C   UNL     1      -7.787  14.494  67.531  1.00  0.00    -0.193 A  
HETATM    6  N   UNL     1      -8.430  13.559  68.230  1.00  0.00    -0.167 NA 
HETATM    7  C   UNL     1      -9.737  13.791  68.420  1.00  0.00    -0.219 A  
HETATM    8  C   UNL     1     -10.434  14.913  67.982  1.00  0.00    -0.246 A  
BRANCH   7   9
HETATM    9  N   UNL     1     -10.375  12.740  69.130  1.00  0.00    -0.426 N  
HETATM   10  H   UNL     1     -10.936  12.914  69.964  1.00  0.00     0.000 HD 
BRANCH   9  11
HETATM   11  S   UNL     1     -10.151  11.188  68.514  1.00  0.00    -0.206 S  
HETATM   12  O   UNL     1     -11.123  10.347  69.184  1.00  0.00    -0.222 OA 
HETATM   13  O   UNL     1      -8.743  10.858  68.538  1.00  0.00    -0.139 OA 
BRANCH  11  14
HETATM   14  C   UNL     1     -10.675  11.323  66.821  1.00  0.00    -0.275 A  
HETATM   15  C   UNL     1      -9.946  10.694  65.810  1.00  0.00    -0.315 A  
HETATM   16  C   UNL     1     -10.382  10.791  64.485  1.00  0.00    -0.401 A  
HETATM   17  C   UNL     1     -11.513  11.543  64.156  1.00  0.00    -0.216 A  
HETATM   18  C   UNL     1     -12.277  12.097  65.188  1.00  0.00    -0.218 A  
HETATM   19  N   UNL     1     -11.999  11.545  62.843  1.00  0.00    -0.778 NA 
HETATM   20  H2  UNL     1     -12.162  10.578  62.559  1.00  0.00     0.000 HD 
HETATM   21  H1  UNL     1     -12.825  12.094  62.602  1.00  0.00     0.000 HD 
HETATM   22  C   UNL     1     -11.855  12.006  66.518  1.00  0.00    -0.237 A  
ENDBRANCH  11  14
ENDBRANCH   9  11
ENDBRANCH   7   9
BRANCH   8  23
HETATM   23  O   UNL     1     -11.773  14.951  68.246  1.00  0.00    -0.321 OA 
HETATM   24  C   UNL     1     -12.221  15.749  69.336  1.00  0.00    -0.127 C  
ENDBRANCH   8  23
ENDBRANCH   2   3
TORSDOF 5
ENDMDL
MODEL      168
REMARK 921   NORMALIZED FREE ENERGY PREDICTED BY IDOCK:   -3.92 KCAL/MOL
REMARK 922        TOTAL FREE ENERGY PREDICTED BY IDOCK:   -5.58 KCAL/MOL
REMARK 923 INTER-LIGAND FREE ENERGY PREDICTED BY IDOCK:   -5.62 KCAL/MOL
REMARK 924 INTRA-LIGAND FREE ENERGY PREDICTED BY IDOCK:    0.04 KCAL/MOL
REMARK 927      BINDING AFFINITY PREDICTED BY RF-SCORE:    0.00 PKD
ROOT
HETATM    1  C   UNL     1     -13.961   8.740  72.011  1.00  0.00    -0.451 C  
HETATM    2  O   UNL     1     -12.565   8.955  72.196  1.00  0.00    -0.359 OA 
ENDROOT
BRANCH   2   3
HETATM    3  C   UNL     1     -11.976   9.758  71.242  1.00  0.00    -0.386 A  
HETATM    4  N   UNL     1     -12.536  10.970  71.028  1.00  0.00    -0.388 NA 
HETATM    5  C   UNL     1     -11.969  11.734  70.087  1.00  0.00    -0.339 A  
HETATM    6  N   UNL     1     -10.900  11.413  69.358  1.00  0.00    -0.203 NA 
HETATM    7  C   UNL     1     -10.401  10.191  69.593  1.00  0.00    -0.247 A  
HETATM    8  C   UNL     1     -10.885   9.283  70.531  1.00  0.00    -0.263 A  
BRANCH   7   9
HETATM    9  N   UNL     1      -9.294   9.889  68.757  1.00  0.00    -0.151 N  
HETATM   10  H   UNL     1      -8.357   9.741  69.133  1.00  0.00     0.000 HD 
BRANCH   9  11
HETATM   11  S   UNL     1      -9.618   9.790  67.107  1.00  0.00    -0.176 S  
HETATM   12  O   UNL     1      -8.424  10.263  66.435  1.00  0.00    -0.126 OA 
HETATM   13  O   UNL     1     -10.908  10.382  66.832  1.00  0.00    -0.236 OA 
BRANCH  11  14
HETATM   14  C   UNL     1      -9.716   8.042  66.798  1.00  0.00    -0.237 A  
HETATM   15  C   UNL     1     -10.870   7.334  67.142  1.00  0.00    -0.378 A  
HETATM   16  C   UNL     1     -10.942   5.964  66.874  1.00  0.00    -0.304 A  
HETATM   17  C   UNL     1      -9.860   5.287  66.306  1.00  0.00    -0.182 A  
HETATM   18  C   UNL     1      -8.745   6.025  65.893  1.00  0.00    -0.157 A  
HETATM   19  N   UNL     1      -9.983   3.939  65.945  1.00  0.00    -0.395 NA 
HETATM   20  H2  UNL     1     -10.784   3.846  65.321  1.00  0.00     0.000 HD 
HETATM   21  H1  UNL     1      -9.193   3.445  65.530  1.00  0.00     0.000 HD 
HETATM   22  C   UNL     1      -8.661   7.396  66.152  1.00  0.00    -0.154 A  
ENDBRANCH  11  14
ENDBRANCH   9  11
ENDBRANCH   7   9
BRANCH   8  23
HETATM   23  O   UNL     1     -10.259   8.070  70.597  1.00  0.00    -0.194 OA 
HETATM   24  C   UNL     1     -11.057   6.896  70.505  1.00  0.00    -0.288 C  
ENDBRANCH   8  23
ENDBRANCH   2   3
TORSDOF 5
ENDMDL
MODEL      169
REMARK 921   NORMALIZED FREE ENERGY PREDICTED BY IDOCK:   -3.92 KCAL/MOL
REMARK 922        TOTAL FREE ENERGY PREDICTED BY IDOCK:   -5.58 KCAL/MOL
REMARK 923 INTER-LIGAND FREE ENERGY PREDICTED BY IDOCK:   -5.20 KCAL/MOL
REMARK 924 INTRA-LIGAND FREE ENERGY PREDICTED BY IDOCK:   -0.38 KCAL/MOL
REMARK 927      BINDING AFFINITY PREDICTED BY RF-SCORE:    0.00 PKD
ROOT
HETATM    1  C   UNL     1     -10.011  19.856  66.260  1.00  0.00    -0.486 C  
HETATM    2  O   UNL     1     -10.494  18.598  65.797  1.00  0.00    -0.586 OA 
ENDROOT
BRANCH   2   3
HETATM    3  C   UNL     1      -9.677  17.527  66.093  1.00  0.00    -0.209 A  
HETATM    4  N   UNL     1      -8.414  17.805  66.485  1.00  0.00    -0.262 NA 
HETATM    5  C   UNL     1      -7.625  16.758  66.752  1.00  0.00    -0.248 A  
HETATM    6  N   UNL     1      -7.977  15.475  66.678  1.00  0.00    -0.183 NA 
HETATM    7  C   UNL     1      -9.232  15.255  66.259  1.00  0.00    -0.315 A  
HETATM    8  C   UNL     1     -10.164  16.237  65.939  1.00  0.00    -0.364 A  
BRANCH   7   9
HETATM    9  N   UNL     1      -9.533  13.871  66.157  1.00  0.00    -0.472 N  
HETATM   10  H   UNL     1      -9.158  13.290  65.407  1.00  0.00     0.000 HD 
BRANCH   9  11
HETATM   11  S   UNL     1     -10.545  13.244  67.348  1.00  0.00    -0.247 S  
HETATM   12  O   UNL     1     -11.646  12.613  66.647  1.00  0.00    -0.339 OA 
HETATM   13  O   UNL     1     -10.789  14.253  68.355  1.00  0.00    -0.240 OA 
BRANCH  11  14
HETATM   14  C   UNL     1      -9.587  11.935  68.074  1.00  0.00    -0.193 A  
HETATM   15  C   UNL     1      -8.207  12.080  68.227  1.00  0.00    -0.161 A  
HETATM   16  C   UNL     1      -7.468  11.050  68.819  1.00  0.00    -0.116 A  
HETATM   17  C   UNL     1      -8.087   9.863  69.220  1.00  0.00    -0.128 A  
HETATM   18  C   UNL     1      -9.481   9.769  69.135  1.00  0.00    -0.191 A  
HETATM   19  N   UNL     1      -7.357   8.886  69.907  1.00  0.00    -0.051 NA 
HETATM   20  H2  UNL     1      -6.931   9.319  70.726  1.00  0.00     0.000 HD 
HETATM   21  H1  UNL     1      -7.809   8.020  70.200  1.00  0.00     0.000 HD 
HETATM   22  C   UNL     1     -10.232  10.791  68.548  1.00  0.00    -0.192 A  
ENDBRANCH  11  14
ENDBRANCH   9  11
ENDBRANCH   7   9
BRANCH   8  23
HETATM   23  O   UNL     1     -11.385  15.811  65.498  1.00  0.00    -0.145 OA 
HETATM   24  C   UNL     1     -11.636  15.828  64.097  1.00  0.00    -0.076 C  
ENDBRANCH   8  23
ENDBRANCH   2   3
TORSDOF 5
ENDMDL
MODEL      170
REMARK 921   NORMALIZED FREE ENERGY PREDICTED BY IDOCK:   -3.92 KCAL/MOL
REMARK 922        TOTAL FREE ENERGY PREDICTED BY IDOCK:   -5.57 KCAL/MOL
REMARK 923 INTER-LIGAND FREE ENERGY PREDICTED BY IDOCK:   -4.99 KCAL/MOL
REMARK 924 INTRA-LIGAND FREE ENERGY PREDICTED BY IDOCK:   -0.58 KCAL/MOL
REMARK 927      BINDING AFFINITY PREDICTED BY RF-SCORE:    0.00 PKD
ROOT
HETATM    1  C   UNL     1      -7.827   3.563  66.690  1.00  0.00    -0.081 C  
HETATM    2  O   UNL     1      -8.825   4.526  67.016  1.00  0.00    -0.110 OA 
ENDROOT
BRANCH   2   3
HETATM    3  C   UNL     1      -9.133   4.601  68.358  1.00  0.00    -0.120 A  
HETATM    4  N   UNL     1      -9.255   3.433  69.028  1.00  0.00    -0.148 NA 
HETATM    5  C   UNL     1      -9.573   3.516  70.325  1.00  0.00    -0.162 A  
HETATM    6  N   UNL     1      -9.764   4.642  71.012  1.00  0.00    -0.175 NA 
HETATM    7  C   UNL     1      -9.655   5.770  70.294  1.00  0.00    -0.164 A  
HETATM    8  C   UNL     1      -9.339   5.843  68.941  1.00  0.00    -0.126 A  
BRANCH   7   9
HETATM    9  N   UNL     1      -9.913   6.931  71.069  1.00  0.00    -0.189 N  
HETATM   10  H   UNL     1      -9.164   7.549  71.383  1.00  0.00     0.000 HD 
BRANCH   9  11
HETATM   11  S   UNL     1     -11.528   7.229  71.442  1.00  0.00    -0.279 S  
HETATM   12  O   UNL     1     -11.647   7.056  72.877  1.00  0.00    -0.177 OA 
HETATM   13  O   UNL     1     -12.378   6.491  70.533  1.00  0.00    -0.259 OA 
BRANCH  11  14
HETATM   14  C   UNL     1     -11.725   8.966  71.121  1.00  0.00    -0.298 A  
HETATM   15  C   UNL     1     -10.924   9.596  70.166  1.00  0.00    -0.320 A  
HETATM   16  C   UNL     1     -11.103  10.959  69.909  1.00  0.00    -0.311 A  
HETATM   17  C   UNL     1     -12.045  11.705  70.624  1.00  0.00    -0.335 A  
HETATM   18  C   UNL     1     -12.894  11.042  71.516  1.00  0.00    -0.555 A  
HETATM   19  N   UNL     1     -12.289  13.041  70.283  1.00  0.00    -0.284 NA 
HETATM   20  H2  UNL     1     -12.532  13.081  69.293  1.00  0.00     0.000 HD 
HETATM   21  H1  UNL     1     -12.976  13.586  70.804  1.00  0.00     0.000 HD 
HETATM   22  C   UNL     1     -12.727   9.679  71.781  1.00  0.00    -0.510 A  
ENDBRANCH  11  14
ENDBRANCH   9  11
ENDBRANCH   7   9
BRANCH   8  23
HETATM   23  O   UNL     1      -9.309   7.088  68.379  1.00  0.00    -0.132 OA 
HETATM   24  C   UNL     1     -10.359   7.448  67.488  1.00  0.00    -0.251 C  
ENDBRANCH   8  23
ENDBRANCH   2   3
TORSDOF 5
ENDMDL
MODEL      171
REMARK 921   NORMALIZED FREE ENERGY PREDICTED BY IDOCK:   -3.92 KCAL/MOL
REMARK 922        TOTAL FREE ENERGY PREDICTED BY IDOCK:   -5.57 KCAL/MOL
REMARK 923 INTER-LIGAND FREE ENERGY PREDICTED BY IDOCK:   -5.23 KCAL/MOL
REMARK 924 INTRA-LIGAND FREE ENERGY PREDICTED BY IDOCK:   -0.34 KCAL/MOL
REMARK 927      BINDING AFFINITY PREDICTED BY RF-SCORE:    0.00 PKD
ROOT
HETATM    1  C   UNL     1     -11.154  13.830  64.268  1.00  0.00    -0.283 C  
HETATM    2  O   UNL     1     -10.259  13.656  65.363  1.00  0.00    -0.310 OA 
ENDROOT
BRANCH   2   3
HETATM    3  C   UNL     1     -10.832  13.112  66.493  1.00  0.00    -0.280 A  
HETATM    4  N   UNL     1     -11.506  13.956  67.308  1.00  0.00    -0.326 NA 
HETATM    5  C   UNL     1     -12.042  13.421  68.411  1.00  0.00    -0.235 A  
HETATM    6  N   UNL     1     -11.982  12.138  68.767  1.00  0.00    -0.288 NA 
HETATM    7  C   UNL     1     -11.280  11.352  67.938  1.00  0.00    -0.288 A  
HETATM    8  C   UNL     1     -10.661  11.762  66.760  1.00  0.00    -0.253 A  
BRANCH   7   9
HETATM    9  N   UNL     1     -11.214  10.009  68.393  1.00  0.00    -0.490 N  
HETATM   10  H   UNL     1     -11.810   9.276  68.004  1.00  0.00     0.000 HD 
BRANCH   9  11
HETATM   11  S   UNL     1     -10.097   9.694  69.612  1.00  0.00    -0.242 S  
HETATM   12  O   UNL     1     -10.746  10.060  70.856  1.00  0.00    -0.300 OA 
HETATM   13  O   UNL     1      -8.816  10.260  69.251  1.00  0.00    -0.164 OA 
BRANCH  11  14
HETATM   14  C   UNL     1      -9.957   7.922  69.613  1.00  0.00    -0.191 A  
HETATM   15  C   UNL     1      -9.774   7.235  70.815  1.00  0.00    -0.171 A  
HETATM   16  C   UNL     1      -9.686   5.839  70.803  1.00  0.00    -0.220 A  
HETATM   17  C   UNL     1      -9.738   5.128  69.601  1.00  0.00    -0.185 A  
HETATM   18  C   UNL     1     -10.004   5.825  68.417  1.00  0.00    -0.193 A  
HETATM   19  N   UNL     1      -9.757   3.728  69.612  1.00  0.00    -0.172 NA 
HETATM   20  H2  UNL     1     -10.531   3.422  70.200  1.00  0.00     0.000 HD 
HETATM   21  H1  UNL     1      -9.795   3.209  68.734  1.00  0.00     0.000 HD 
HETATM   22  C   UNL     1     -10.097   7.220  68.414  1.00  0.00    -0.188 A  
ENDBRANCH  11  14
ENDBRANCH   9  11
ENDBRANCH   7   9
BRANCH   8  23
HETATM   23  O   UNL     1      -9.963  10.815  66.067  1.00  0.00    -0.223 OA 
HETATM   24  C   UNL     1     -10.397  10.491  64.751  1.00  0.00    -0.230 C  
ENDBRANCH   8  23
ENDBRANCH   2   3
TORSDOF 5
ENDMDL
MODEL      172
REMARK 921   NORMALIZED FREE ENERGY PREDICTED BY IDOCK:   -3.91 KCAL/MOL
REMARK 922        TOTAL FREE ENERGY PREDICTED BY IDOCK:   -5.56 KCAL/MOL
REMARK 923 INTER-LIGAND FREE ENERGY PREDICTED BY IDOCK:   -5.85 KCAL/MOL
REMARK 924 INTRA-LIGAND FREE ENERGY PREDICTED BY IDOCK:    0.29 KCAL/MOL
REMARK 927      BINDING AFFINITY PREDICTED BY RF-SCORE:    0.00 PKD
ROOT
HETATM    1  C   UNL     1     -11.312  16.108  70.871  1.00  0.00    -0.359 C  
HETATM    2  O   UNL     1     -12.370  15.416  70.216  1.00  0.00    -0.357 OA 
ENDROOT
BRANCH   2   3
HETATM    3  C   UNL     1     -11.993  14.735  69.077  1.00  0.00    -0.273 A  
HETATM    4  N   UNL     1     -11.711  15.477  67.983  1.00  0.00    -0.271 NA 
HETATM    5  C   UNL     1     -11.365  14.807  66.878  1.00  0.00    -0.355 A  
HETATM    6  N   UNL     1     -11.261  13.483  66.767  1.00  0.00    -0.303 NA 
HETATM    7  C   UNL     1     -11.576  12.795  67.875  1.00  0.00    -0.351 A  
HETATM    8  C   UNL     1     -11.960  13.349  69.092  1.00  0.00    -0.317 A  
BRANCH   7   9
HETATM    9  N   UNL     1     -11.490  11.391  67.682  1.00  0.00    -0.289 N  
HETATM   10  H   UNL     1     -12.298  10.833  67.403  1.00  0.00     0.000 HD 
BRANCH   9  11
HETATM   11  S   UNL     1      -9.977  10.699  67.941  1.00  0.00    -0.170 S  
HETATM   12  O   UNL     1      -9.203  11.687  68.666  1.00  0.00    -0.179 OA 
HETATM   13  O   UNL     1      -9.486  10.134  66.704  1.00  0.00    -0.161 OA 
BRANCH  11  14
HETATM   14  C   UNL     1     -10.306   9.375  69.080  1.00  0.00    -0.211 A  
HETATM   15  C   UNL     1     -10.548   9.654  70.427  1.00  0.00    -0.354 A  
HETATM   16  C   UNL     1     -10.826   8.604  71.309  1.00  0.00    -0.327 A  
HETATM   17  C   UNL     1     -10.823   7.278  70.867  1.00  0.00    -0.243 A  
HETATM   18  C   UNL     1     -10.660   7.023  69.500  1.00  0.00    -0.253 A  
HETATM   19  N   UNL     1     -11.207   6.247  71.733  1.00  0.00    -0.271 NA 
HETATM   20  H2  UNL     1     -12.134   6.462  72.097  1.00  0.00     0.000 HD 
HETATM   21  H1  UNL     1     -11.205   5.279  71.410  1.00  0.00     0.000 HD 
HETATM   22  C   UNL     1     -10.385   8.063  68.608  1.00  0.00    -0.224 A  
ENDBRANCH  11  14
ENDBRANCH   9  11
ENDBRANCH   7   9
BRANCH   8  23
HETATM   23  O   UNL     1     -12.275  12.478  70.096  1.00  0.00    -0.302 OA 
HETATM   24  C   UNL     1     -12.703  13.016  71.342  1.00  0.00    -0.281 C  
ENDBRANCH   8  23
ENDBRANCH   2   3
TORSDOF 5
ENDMDL
MODEL      173
REMARK 921   NORMALIZED FREE ENERGY PREDICTED BY IDOCK:   -3.90 KCAL/MOL
REMARK 922        TOTAL FREE ENERGY PREDICTED BY IDOCK:   -5.55 KCAL/MOL
REMARK 923 INTER-LIGAND FREE ENERGY PREDICTED BY IDOCK:   -5.03 KCAL/MOL
REMARK 924 INTRA-LIGAND FREE ENERGY PREDICTED BY IDOCK:   -0.51 KCAL/MOL
REMARK 927      BINDING AFFINITY PREDICTED BY RF-SCORE:    0.00 PKD
ROOT
HETATM    1  C   UNL     1      -8.585   2.697  67.480  1.00  0.00    -0.103 C  
HETATM    2  O   UNL     1      -9.109   3.518  68.519  1.00  0.00    -0.120 OA 
ENDROOT
BRANCH   2   3
HETATM    3  C   UNL     1      -9.760   4.652  68.082  1.00  0.00    -0.138 A  
HETATM    4  N   UNL     1     -10.129   4.687  66.782  1.00  0.00    -0.224 NA 
HETATM    5  C   UNL     1     -10.743   5.800  66.363  1.00  0.00    -0.125 A  
HETATM    6  N   UNL     1     -11.034   6.862  67.114  1.00  0.00    -0.375 NA 
HETATM    7  C   UNL     1     -10.624   6.785  68.388  1.00  0.00    -0.227 A  
HETATM    8  C   UNL     1      -9.968   5.701  68.965  1.00  0.00    -0.174 A  
BRANCH   7   9
HETATM    9  N   UNL     1     -10.922   7.962  69.124  1.00  0.00    -0.428 N  
HETATM   10  H   UNL     1     -11.799   8.074  69.633  1.00  0.00     0.000 HD 
BRANCH   9  11
HETATM   11  S   UNL     1      -9.742   9.163  69.108  1.00  0.00    -0.168 S  
HETATM   12  O   UNL     1      -8.750   8.739  68.140  1.00  0.00    -0.133 OA 
HETATM   13  O   UNL     1      -9.363   9.487  70.466  1.00  0.00    -0.252 OA 
BRANCH  11  14
HETATM   14  C   UNL     1     -10.574  10.566  68.400  1.00  0.00    -0.199 A  
HETATM   15  C   UNL     1     -11.283  11.446  69.220  1.00  0.00    -0.342 A  
HETATM   16  C   UNL     1     -11.916  12.557  68.653  1.00  0.00    -0.268 A  
HETATM   17  C   UNL     1     -11.882  12.773  67.273  1.00  0.00    -0.350 A  
HETATM   18  C   UNL     1     -11.100  11.929  66.478  1.00  0.00    -0.357 A  
HETATM   19  N   UNL     1     -12.427  13.944  66.731  1.00  0.00    -0.478 NA 
HETATM   20  H2  UNL     1     -11.994  14.744  67.192  1.00  0.00     0.000 HD 
HETATM   21  H1  UNL     1     -12.403  14.102  65.723  1.00  0.00     0.000 HD 
HETATM   22  C   UNL     1     -10.460  10.816  67.031  1.00  0.00    -0.297 A  
ENDBRANCH  11  14
ENDBRANCH   9  11
ENDBRANCH   7   9
BRANCH   8  23
HETATM   23  O   UNL     1      -9.601   5.827  70.275  1.00  0.00    -0.157 OA 
HETATM   24  C   UNL     1      -8.214   5.934  70.575  1.00  0.00    -0.119 C  
ENDBRANCH   8  23
ENDBRANCH   2   3
TORSDOF 5
ENDMDL
MODEL      174
REMARK 921   NORMALIZED FREE ENERGY PREDICTED BY IDOCK:   -3.90 KCAL/MOL
REMARK 922        TOTAL FREE ENERGY PREDICTED BY IDOCK:   -5.55 KCAL/MOL
REMARK 923 INTER-LIGAND FREE ENERGY PREDICTED BY IDOCK:   -5.25 KCAL/MOL
REMARK 924 INTRA-LIGAND FREE ENERGY PREDICTED BY IDOCK:   -0.29 KCAL/MOL
REMARK 927      BINDING AFFINITY PREDICTED BY RF-SCORE:    0.00 PKD
ROOT
HETATM    1  C   UNL     1     -11.383   7.076  71.456  1.00  0.00    -0.258 C  
HETATM    2  O   UNL     1     -11.392   7.969  70.347  1.00  0.00    -0.261 OA 
ENDROOT
BRANCH   2   3
HETATM    3  C   UNL     1     -10.148   8.433  69.973  1.00  0.00    -0.192 A  
HETATM    4  N   UNL     1      -9.301   8.790  70.966  1.00  0.00    -0.200 NA 
HETATM    5  C   UNL     1      -8.103   9.257  70.592  1.00  0.00    -0.176 A  
HETATM    6  N   UNL     1      -7.672   9.386  69.338  1.00  0.00    -0.080 NA 
HETATM    7  C   UNL     1      -8.560   9.043  68.394  1.00  0.00    -0.130 A  
HETATM    8  C   UNL     1      -9.841   8.550  68.626  1.00  0.00    -0.170 A  
BRANCH   7   9
HETATM    9  N   UNL     1      -8.059   9.245  67.081  1.00  0.00    -0.109 N  
HETATM   10  H   UNL     1      -7.844   8.465  66.458  1.00  0.00     0.000 HD 
BRANCH   9  11
HETATM   11  S   UNL     1      -7.839  10.847  66.611  1.00  0.00    -0.150 S  
HETATM   12  O   UNL     1      -6.955  10.811  65.463  1.00  0.00    -0.090 OA 
HETATM   13  O   UNL     1      -7.518  11.651  67.770  1.00  0.00    -0.099 OA 
BRANCH  11  14
HETATM   14  C   UNL     1      -9.438  11.335  66.006  1.00  0.00    -0.216 A  
HETATM   15  C   UNL     1     -10.289  12.094  66.811  1.00  0.00    -0.237 A  
HETATM   16  C   UNL     1     -11.536  12.489  66.315  1.00  0.00    -0.449 A  
HETATM   17  C   UNL     1     -11.956  12.098  65.040  1.00  0.00    -0.281 A  
HETATM   18  C   UNL     1     -11.059  11.409  64.217  1.00  0.00    -0.356 A  
HETATM   19  N   UNL     1     -13.158  12.588  64.514  1.00  0.00    -0.839 NA 
HETATM   20  H2  UNL     1     -13.131  13.607  64.545  1.00  0.00     0.000 HD 
HETATM   21  H1  UNL     1     -13.465  12.303  63.584  1.00  0.00     0.000 HD 
HETATM   22  C   UNL     1      -9.808  11.010  64.699  1.00  0.00    -0.338 A  
ENDBRANCH  11  14
ENDBRANCH   9  11
ENDBRANCH   7   9
BRANCH   8  23
HETATM   23  O   UNL     1     -10.611   8.288  67.528  1.00  0.00    -0.257 OA 
HETATM   24  C   UNL     1     -10.712   6.940  67.086  1.00  0.00    -0.366 C  
ENDBRANCH   8  23
ENDBRANCH   2   3
TORSDOF 5
ENDMDL
MODEL      175
REMARK 921   NORMALIZED FREE ENERGY PREDICTED BY IDOCK:   -3.89 KCAL/MOL
REMARK 922        TOTAL FREE ENERGY PREDICTED BY IDOCK:   -5.53 KCAL/MOL
REMARK 923 INTER-LIGAND FREE ENERGY PREDICTED BY IDOCK:   -5.36 KCAL/MOL
REMARK 924 INTRA-LIGAND FREE ENERGY PREDICTED BY IDOCK:   -0.17 KCAL/MOL
REMARK 927      BINDING AFFINITY PREDICTED BY RF-SCORE:    0.00 PKD
ROOT
HETATM    1  C   UNL     1      -6.552  18.801  65.432  1.00  0.00    -0.247 C  
HETATM    2  O   UNL     1      -7.133  19.623  66.440  1.00  0.00    -0.214 OA 
ENDROOT
BRANCH   2   3
HETATM    3  C   UNL     1      -8.408  19.256  66.815  1.00  0.00    -0.296 A  
HETATM    4  N   UNL     1      -9.396  19.453  65.912  1.00  0.00    -0.405 NA 
HETATM    5  C   UNL     1     -10.632  19.111  66.293  1.00  0.00    -0.434 A  
HETATM    6  N   UNL     1     -10.970  18.586  67.470  1.00  0.00    -0.284 NA 
HETATM    7  C   UNL     1      -9.958  18.436  68.337  1.00  0.00    -0.379 A  
HETATM    8  C   UNL     1      -8.625  18.752  68.089  1.00  0.00    -0.309 A  
BRANCH   7   9
HETATM    9  N   UNL     1     -10.387  17.916  69.586  1.00  0.00    -0.148 N  
HETATM   10  H   UNL     1     -10.409  18.487  70.431  1.00  0.00     0.000 HD 
BRANCH   9  11
HETATM   11  S   UNL     1     -10.859  16.299  69.591  1.00  0.00    -0.348 S  
HETATM   12  O   UNL     1     -11.918  16.187  68.608  1.00  0.00    -0.254 OA 
HETATM   13  O   UNL     1     -11.064  15.861  70.955  1.00  0.00    -0.333 OA 
BRANCH  11  14
HETATM   14  C   UNL     1      -9.451  15.444  68.924  1.00  0.00    -0.219 A  
HETATM   15  C   UNL     1      -9.538  14.819  67.678  1.00  0.00    -0.208 A  
HETATM   16  C   UNL     1      -8.416  14.167  67.156  1.00  0.00    -0.214 A  
HETATM   17  C   UNL     1      -7.224  14.098  67.883  1.00  0.00    -0.158 A  
HETATM   18  C   UNL     1      -7.130  14.799  69.090  1.00  0.00    -0.143 A  
HETATM   19  N   UNL     1      -6.079  13.537  67.305  1.00  0.00    -0.422 NA 
HETATM   20  H2  UNL     1      -5.892  14.021  66.427  1.00  0.00     0.000 HD 
HETATM   21  H1  UNL     1      -5.209  13.486  67.835  1.00  0.00     0.000 HD 
HETATM   22  C   UNL     1      -8.243  15.457  69.623  1.00  0.00    -0.127 A  
ENDBRANCH  11  14
ENDBRANCH   9  11
ENDBRANCH   7   9
BRANCH   8  23
HETATM   23  O   UNL     1      -7.743  18.558  69.114  1.00  0.00    -0.202 OA 
HETATM   24  C   UNL     1      -7.212  19.705  69.768  1.00  0.00    -0.012 C  
ENDBRANCH   8  23
ENDBRANCH   2   3
TORSDOF 5
ENDMDL
MODEL      176
REMARK 921   NORMALIZED FREE ENERGY PREDICTED BY IDOCK:   -3.85 KCAL/MOL
REMARK 922        TOTAL FREE ENERGY PREDICTED BY IDOCK:   -5.49 KCAL/MOL
REMARK 923 INTER-LIGAND FREE ENERGY PREDICTED BY IDOCK:   -5.81 KCAL/MOL
REMARK 924 INTRA-LIGAND FREE ENERGY PREDICTED BY IDOCK:    0.33 KCAL/MOL
REMARK 927      BINDING AFFINITY PREDICTED BY RF-SCORE:    0.00 PKD
ROOT
HETATM    1  C   UNL     1     -11.806  12.446  69.157  1.00  0.00    -0.300 C  
HETATM    2  O   UNL     1     -12.057  13.372  68.105  1.00  0.00    -0.335 OA 
ENDROOT
BRANCH   2   3
HETATM    3  C   UNL     1     -11.583  14.647  68.337  1.00  0.00    -0.323 A  
HETATM    4  N   UNL     1     -11.545  15.064  69.622  1.00  0.00    -0.284 NA 
HETATM    5  C   UNL     1     -11.101  16.309  69.835  1.00  0.00    -0.347 A  
HETATM    6  N   UNL     1     -10.684  17.161  68.898  1.00  0.00    -0.302 NA 
HETATM    7  C   UNL     1     -10.768  16.705  67.640  1.00  0.00    -0.306 A  
HETATM    8  C   UNL     1     -11.214  15.442  67.262  1.00  0.00    -0.270 A  
BRANCH   7   9
HETATM    9  N   UNL     1     -10.354  17.672  66.686  1.00  0.00    -0.343 N  
HETATM   10  H   UNL     1     -10.863  17.825  65.815  1.00  0.00     0.000 HD 
BRANCH   9  11
HETATM   11  S   UNL     1      -8.972  18.552  67.076  1.00  0.00    -0.281 S  
HETATM   12  O   UNL     1      -9.342  19.409  68.185  1.00  0.00    -0.316 OA 
HETATM   13  O   UNL     1      -8.396  19.105  65.870  1.00  0.00    -0.451 OA 
BRANCH  11  14
HETATM   14  C   UNL     1      -7.860  17.328  67.728  1.00  0.00    -0.188 A  
HETATM   15  C   UNL     1      -7.343  17.468  69.018  1.00  0.00    -0.197 A  
HETATM   16  C   UNL     1      -6.485  16.487  69.526  1.00  0.00    -0.223 A  
HETATM   17  C   UNL     1      -6.107  15.392  68.745  1.00  0.00    -0.098 A  
HETATM   18  C   UNL     1      -6.698  15.225  67.488  1.00  0.00    -0.197 A  
HETATM   19  N   UNL     1      -5.335  14.364  69.301  1.00  0.00    -0.085 NA 
HETATM   20  H2  UNL     1      -5.814  14.016  70.132  1.00  0.00     0.000 HD 
HETATM   21  H1  UNL     1      -5.059  13.565  68.731  1.00  0.00     0.000 HD 
HETATM   22  C   UNL     1      -7.559  16.196  66.968  1.00  0.00    -0.260 A  
ENDBRANCH  11  14
ENDBRANCH   9  11
ENDBRANCH   7   9
BRANCH   8  23
HETATM   23  O   UNL     1     -11.257  15.176  65.923  1.00  0.00    -0.338 OA 
HETATM   24  C   UNL     1     -10.271  14.307  65.379  1.00  0.00    -0.371 C  
ENDBRANCH   8  23
ENDBRANCH   2   3
TORSDOF 5
ENDMDL
MODEL      177
REMARK 921   NORMALIZED FREE ENERGY PREDICTED BY IDOCK:   -3.85 KCAL/MOL
REMARK 922        TOTAL FREE ENERGY PREDICTED BY IDOCK:   -5.48 KCAL/MOL
REMARK 923 INTER-LIGAND FREE ENERGY PREDICTED BY IDOCK:   -6.11 KCAL/MOL
REMARK 924 INTRA-LIGAND FREE ENERGY PREDICTED BY IDOCK:    0.63 KCAL/MOL
REMARK 927      BINDING AFFINITY PREDICTED BY RF-SCORE:    0.00 PKD
ROOT
HETATM    1  C   UNL     1      -6.720   9.121  65.636  1.00  0.00    -0.072 C  
HETATM    2  O   UNL     1      -6.725  10.465  66.106  1.00  0.00    -0.101 OA 
ENDROOT
BRANCH   2   3
HETATM    3  C   UNL     1      -7.979  10.984  66.351  1.00  0.00    -0.161 A  
HETATM    4  N   UNL     1      -8.806  11.119  65.290  1.00  0.00    -0.132 NA 
HETATM    5  C   UNL     1     -10.014  11.641  65.535  1.00  0.00    -0.242 A  
HETATM    6  N   UNL     1     -10.474  12.022  66.726  1.00  0.00    -0.210 NA 
HETATM    7  C   UNL     1      -9.604  11.889  67.738  1.00  0.00    -0.190 A  
HETATM    8  C   UNL     1      -8.316  11.372  67.639  1.00  0.00    -0.129 A  
BRANCH   7   9
HETATM    9  N   UNL     1     -10.135  12.353  68.971  1.00  0.00    -0.423 N  
HETATM   10  H   UNL     1      -9.570  12.880  69.638  1.00  0.00     0.000 HD 
BRANCH   9  11
HETATM   11  S   UNL     1     -11.750  11.982  69.268  1.00  0.00    -0.332 S  
HETATM   12  O   UNL     1     -12.266  11.420  68.036  1.00  0.00    -0.607 OA 
HETATM   13  O   UNL     1     -12.398  13.113  69.896  1.00  0.00    -0.241 OA 
BRANCH  11  14
HETATM   14  C   UNL     1     -11.670  10.649  70.441  1.00  0.00    -0.353 A  
HETATM   15  C   UNL     1     -10.492   9.913  70.586  1.00  0.00    -0.301 A  
HETATM   16  C   UNL     1     -10.436   8.880  71.528  1.00  0.00    -0.393 A  
HETATM   17  C   UNL     1     -11.557   8.549  72.295  1.00  0.00    -0.374 A  
HETATM   18  C   UNL     1     -12.701   9.348  72.195  1.00  0.00    -0.460 A  
HETATM   19  N   UNL     1     -11.458   7.586  73.307  1.00  0.00    -0.632 NA 
HETATM   20  H2  UNL     1     -10.706   7.861  73.939  1.00  0.00     0.000 HD 
HETATM   21  H1  UNL     1     -12.276   7.344  73.866  1.00  0.00     0.000 HD 
HETATM   22  C   UNL     1     -12.770  10.386  71.261  1.00  0.00    -0.536 A  
ENDBRANCH  11  14
ENDBRANCH   9  11
ENDBRANCH   7   9
BRANCH   8  23
HETATM   23  O   UNL     1      -7.568  11.350  68.782  1.00  0.00    -0.122 OA 
HETATM   24  C   UNL     1      -6.611  12.385  68.979  1.00  0.00    -0.100 C  
ENDBRANCH   8  23
ENDBRANCH   2   3
TORSDOF 5
ENDMDL
MODEL      178
REMARK 921   NORMALIZED FREE ENERGY PREDICTED BY IDOCK:   -3.84 KCAL/MOL
REMARK 922        TOTAL FREE ENERGY PREDICTED BY IDOCK:   -5.47 KCAL/MOL
REMARK 923 INTER-LIGAND FREE ENERGY PREDICTED BY IDOCK:   -5.52 KCAL/MOL
REMARK 924 INTRA-LIGAND FREE ENERGY PREDICTED BY IDOCK:    0.06 KCAL/MOL
REMARK 927      BINDING AFFINITY PREDICTED BY RF-SCORE:    0.00 PKD
ROOT
HETATM    1  C   UNL     1     -12.241  13.864  64.554  1.00  0.00    -0.417 C  
HETATM    2  O   UNL     1     -12.376  13.479  65.919  1.00  0.00    -0.438 OA 
ENDROOT
BRANCH   2   3
HETATM    3  C   UNL     1     -11.489  12.506  66.332  1.00  0.00    -0.365 A  
HETATM    4  N   UNL     1     -10.992  11.684  65.381  1.00  0.00    -0.292 NA 
HETATM    5  C   UNL     1     -10.147  10.732  65.794  1.00  0.00    -0.261 A  
HETATM    6  N   UNL     1      -9.745  10.535  67.049  1.00  0.00    -0.173 NA 
HETATM    7  C   UNL     1     -10.289  11.362  67.955  1.00  0.00    -0.182 A  
HETATM    8  C   UNL     1     -11.184  12.391  67.679  1.00  0.00    -0.288 A  
BRANCH   7   9
HETATM    9  N   UNL     1      -9.858  11.074  69.277  1.00  0.00    -0.414 N  
HETATM   10  H   UNL     1      -9.098  11.590  69.722  1.00  0.00     0.000 HD 
BRANCH   9  11
HETATM   11  S   UNL     1     -10.674   9.831  70.067  1.00  0.00    -0.304 S  
HETATM   12  O   UNL     1     -10.980   8.843  69.052  1.00  0.00    -0.102 OA 
HETATM   13  O   UNL     1     -11.719  10.390  70.897  1.00  0.00    -0.335 OA 
BRANCH  11  14
HETATM   14  C   UNL     1      -9.435   9.113  71.120  1.00  0.00    -0.261 A  
HETATM   15  C   UNL     1      -9.813   8.380  72.247  1.00  0.00    -0.383 A  
HETATM   16  C   UNL     1      -8.829   7.802  73.055  1.00  0.00    -0.247 A  
HETATM   17  C   UNL     1      -7.472   7.984  72.772  1.00  0.00    -0.114 A  
HETATM   18  C   UNL     1      -7.113   8.650  71.595  1.00  0.00    -0.105 A  
HETATM   19  N   UNL     1      -6.500   7.313  73.525  1.00  0.00    -0.064 NA 
HETATM   20  H2  UNL     1      -6.704   6.314  73.496  1.00  0.00     0.000 HD 
HETATM   21  H1  UNL     1      -5.510   7.446  73.319  1.00  0.00     0.000 HD 
HETATM   22  C   UNL     1      -8.087   9.230  70.777  1.00  0.00    -0.194 A  
ENDBRANCH  11  14
ENDBRANCH   9  11
ENDBRANCH   7   9
BRANCH   8  23
HETATM   23  O   UNL     1     -11.653  13.105  68.746  1.00  0.00    -0.265 OA 
HETATM   24  C   UNL     1     -11.810  14.511  68.596  1.00  0.00    -0.320 C  
ENDBRANCH   8  23
ENDBRANCH   2   3
TORSDOF 5
ENDMDL
MODEL      179
REMARK 921   NORMALIZED FREE ENERGY PREDICTED BY IDOCK:   -3.84 KCAL/MOL
REMARK 922        TOTAL FREE ENERGY PREDICTED BY IDOCK:   -5.47 KCAL/MOL
REMARK 923 INTER-LIGAND FREE ENERGY PREDICTED BY IDOCK:   -5.54 KCAL/MOL
REMARK 924 INTRA-LIGAND FREE ENERGY PREDICTED BY IDOCK:    0.08 KCAL/MOL
REMARK 927      BINDING AFFINITY PREDICTED BY RF-SCORE:    0.00 PKD
ROOT
HETATM    1  C   UNL     1      -7.694   6.306  63.996  1.00  0.00    -0.104 C  
HETATM    2  O   UNL     1      -7.370   7.350  63.082  1.00  0.00    -0.077 OA 
ENDROOT
BRANCH   2   3
HETATM    3  C   UNL     1      -7.984   8.556  63.347  1.00  0.00    -0.161 A  
HETATM    4  N   UNL     1      -8.816   9.044  62.400  1.00  0.00    -0.211 NA 
HETATM    5  C   UNL     1      -9.392  10.224  62.659  1.00  0.00    -0.309 A  
HETATM    6  N   UNL     1      -9.228  10.948  63.766  1.00  0.00    -0.217 NA 
HETATM    7  C   UNL     1      -8.372  10.431  64.659  1.00  0.00    -0.155 A  
HETATM    8  C   UNL     1      -7.694   9.222  64.529  1.00  0.00    -0.114 A  
BRANCH   7   9
HETATM    9  N   UNL     1      -8.205  11.267  65.794  1.00  0.00    -0.366 N  
HETATM   10  H   UNL     1      -7.314  11.717  66.007  1.00  0.00     0.000 HD 
BRANCH   9  11
HETATM   11  S   UNL     1      -9.562  11.474  66.769  1.00  0.00    -0.190 S  
HETATM   12  O   UNL     1      -9.084  12.063  68.004  1.00  0.00    -0.175 OA 
HETATM   13  O   UNL     1     -10.338  10.253  66.782  1.00  0.00    -0.221 OA 
BRANCH  11  14
HETATM   14  C   UNL     1     -10.497  12.733  65.933  1.00  0.00    -0.277 A  
HETATM   15  C   UNL     1      -9.991  14.031  65.833  1.00  0.00    -0.325 A  
HETATM   16  C   UNL     1     -10.728  15.007  65.154  1.00  0.00    -0.434 A  
HETATM   17  C   UNL     1     -11.981  14.710  64.612  1.00  0.00    -0.462 A  
HETATM   18  C   UNL     1     -12.435  13.387  64.649  1.00  0.00    -0.385 A  
HETATM   19  N   UNL     1     -12.660  15.664  63.844  1.00  0.00    -0.807 NA 
HETATM   20  H2  UNL     1     -12.045  15.964  63.087  1.00  0.00     0.000 HD 
HETATM   21  H1  UNL     1     -13.575  15.447  63.448  1.00  0.00     0.000 HD 
HETATM   22  C   UNL     1     -11.708  12.400  65.321  1.00  0.00    -0.437 A  
ENDBRANCH  11  14
ENDBRANCH   9  11
ENDBRANCH   7   9
BRANCH   8  23
HETATM   23  O   UNL     1      -6.837   8.882  65.536  1.00  0.00    -0.074 OA 
HETATM   24  C   UNL     1      -5.504   9.377  65.480  1.00  0.00    -0.044 C  
ENDBRANCH   8  23
ENDBRANCH   2   3
TORSDOF 5
ENDMDL
MODEL      180
REMARK 921   NORMALIZED FREE ENERGY PREDICTED BY IDOCK:   -3.83 KCAL/MOL
REMARK 922        TOTAL FREE ENERGY PREDICTED BY IDOCK:   -5.46 KCAL/MOL
REMARK 923 INTER-LIGAND FREE ENERGY PREDICTED BY IDOCK:   -5.12 KCAL/MOL
REMARK 924 INTRA-LIGAND FREE ENERGY PREDICTED BY IDOCK:   -0.33 KCAL/MOL
REMARK 927      BINDING AFFINITY PREDICTED BY RF-SCORE:    0.00 PKD
ROOT
HETATM    1  C   UNL     1      -8.078   3.982  66.562  1.00  0.00    -0.097 C  
HETATM    2  O   UNL     1      -8.521   3.644  67.873  1.00  0.00    -0.090 OA 
ENDROOT
BRANCH   2   3
HETATM    3  C   UNL     1      -9.445   4.516  68.409  1.00  0.00    -0.151 A  
HETATM    4  N   UNL     1     -10.034   5.388  67.559  1.00  0.00    -0.153 NA 
HETATM    5  C   UNL     1     -10.915   6.242  68.093  1.00  0.00    -0.323 A  
HETATM    6  N   UNL     1     -11.270   6.299  69.376  1.00  0.00    -0.415 NA 
HETATM    7  C   UNL     1     -10.638   5.430  70.178  1.00  0.00    -0.274 A  
HETATM    8  C   UNL     1      -9.695   4.489  69.773  1.00  0.00    -0.215 A  
BRANCH   7   9
HETATM    9  N   UNL     1     -11.025   5.568  71.537  1.00  0.00    -0.198 N  
HETATM   10  H   UNL     1     -11.722   4.958  71.966  1.00  0.00     0.000 HD 
BRANCH   9  11
HETATM   11  S   UNL     1     -10.266   6.799  72.401  1.00  0.00    -0.183 S  
HETATM   12  O   UNL     1      -8.908   6.864  71.899  1.00  0.00    -0.127 OA 
HETATM   13  O   UNL     1     -10.527   6.628  73.814  1.00  0.00    -0.303 OA 
BRANCH  11  14
HETATM   14  C   UNL     1     -11.086   8.275  71.845  1.00  0.00    -0.292 A  
HETATM   15  C   UNL     1     -12.373   8.573  72.296  1.00  0.00    -0.450 A  
HETATM   16  C   UNL     1     -12.998   9.748  71.868  1.00  0.00    -0.535 A  
HETATM   17  C   UNL     1     -12.367  10.606  70.962  1.00  0.00    -0.403 A  
HETATM   18  C   UNL     1     -11.047  10.335  70.586  1.00  0.00    -0.358 A  
HETATM   19  N   UNL     1     -12.957  11.830  70.624  1.00  0.00     0.014 NA 
HETATM   20  H2  UNL     1     -13.139  12.347  71.484  1.00  0.00     0.000 HD 
HETATM   21  H1  UNL     1     -12.496  12.456  69.964  1.00  0.00     0.000 HD 
HETATM   22  C   UNL     1     -10.409   9.165  71.009  1.00  0.00    -0.363 A  
ENDBRANCH  11  14
ENDBRANCH   9  11
ENDBRANCH   7   9
BRANCH   8  23
HETATM   23  O   UNL     1      -9.137   3.713  70.749  1.00  0.00    -0.091 OA 
HETATM   24  C   UNL     1      -9.592   2.371  70.881  1.00  0.00    -0.118 C  
ENDBRANCH   8  23
ENDBRANCH   2   3
TORSDOF 5
ENDMDL
MODEL      181
REMARK 921   NORMALIZED FREE ENERGY PREDICTED BY IDOCK:   -3.82 KCAL/MOL
REMARK 922        TOTAL FREE ENERGY PREDICTED BY IDOCK:   -5.45 KCAL/MOL
REMARK 923 INTER-LIGAND FREE ENERGY PREDICTED BY IDOCK:   -5.07 KCAL/MOL
REMARK 924 INTRA-LIGAND FREE ENERGY PREDICTED BY IDOCK:   -0.38 KCAL/MOL
REMARK 927      BINDING AFFINITY PREDICTED BY RF-SCORE:    0.00 PKD
ROOT
HETATM    1  C   UNL     1     -11.887  11.877  69.299  1.00  0.00    -0.318 C  
HETATM    2  O   UNL     1     -10.921  10.915  69.713  1.00  0.00    -0.255 OA 
ENDROOT
BRANCH   2   3
HETATM    3  C   UNL     1     -11.436   9.860  70.436  1.00  0.00    -0.301 A  
HETATM    4  N   UNL     1     -12.241  10.164  71.479  1.00  0.00    -0.386 NA 
HETATM    5  C   UNL     1     -12.720   9.133  72.186  1.00  0.00    -0.395 A  
HETATM    6  N   UNL     1     -12.485   7.844  71.945  1.00  0.00    -0.313 NA 
HETATM    7  C   UNL     1     -11.659   7.600  70.917  1.00  0.00    -0.280 A  
HETATM    8  C   UNL     1     -11.079   8.563  70.097  1.00  0.00    -0.188 A  
BRANCH   7   9
HETATM    9  N   UNL     1     -11.412   6.213  70.739  1.00  0.00    -0.304 N  
HETATM   10  H   UNL     1     -11.655   5.727  69.875  1.00  0.00     0.000 HD 
BRANCH   9  11
HETATM   11  S   UNL     1     -10.695   5.417  72.038  1.00  0.00    -0.195 S  
HETATM   12  O   UNL     1     -10.098   4.214  71.491  1.00  0.00    -0.179 OA 
HETATM   13  O   UNL     1     -11.631   5.347  73.138  1.00  0.00    -0.270 OA 
BRANCH  11  14
HETATM   14  C   UNL     1      -9.352   6.485  72.501  1.00  0.00    -0.141 A  
HETATM   15  C   UNL     1      -8.247   6.627  71.659  1.00  0.00    -0.111 A  
HETATM   16  C   UNL     1      -7.207   7.487  72.026  1.00  0.00    -0.068 A  
HETATM   17  C   UNL     1      -7.240   8.172  73.244  1.00  0.00    -0.127 A  
HETATM   18  C   UNL     1      -8.390   8.082  74.036  1.00  0.00    -0.323 A  
HETATM   19  N   UNL     1      -6.247   9.109  73.551  1.00  0.00    -0.321 NA 
HETATM   20  H2  UNL     1      -6.208   9.795  72.797  1.00  0.00     0.000 HD 
HETATM   21  H1  UNL     1      -6.271   9.610  74.440  1.00  0.00     0.000 HD 
HETATM   22  C   UNL     1      -9.439   7.229  73.680  1.00  0.00    -0.293 A  
ENDBRANCH  11  14
ENDBRANCH   9  11
ENDBRANCH   7   9
BRANCH   8  23
HETATM   23  O   UNL     1     -10.237   8.116  69.119  1.00  0.00    -0.205 OA 
HETATM   24  C   UNL     1     -10.707   8.117  67.776  1.00  0.00    -0.096 C  
ENDBRANCH   8  23
ENDBRANCH   2   3
TORSDOF 5
ENDMDL
MODEL      182
REMARK 921   NORMALIZED FREE ENERGY PREDICTED BY IDOCK:   -3.81 KCAL/MOL
REMARK 922        TOTAL FREE ENERGY PREDICTED BY IDOCK:   -5.43 KCAL/MOL
REMARK 923 INTER-LIGAND FREE ENERGY PREDICTED BY IDOCK:   -5.33 KCAL/MOL
REMARK 924 INTRA-LIGAND FREE ENERGY PREDICTED BY IDOCK:   -0.10 KCAL/MOL
REMARK 927      BINDING AFFINITY PREDICTED BY RF-SCORE:    0.00 PKD
ROOT
HETATM    1  C   UNL     1     -13.267  12.869  71.440  1.00  0.00    -0.176 C  
HETATM    2  O   UNL     1     -11.945  13.094  70.961  1.00  0.00    -0.161 OA 
ENDROOT
BRANCH   2   3
HETATM    3  C   UNL     1     -11.876  13.588  69.675  1.00  0.00    -0.336 A  
HETATM    4  N   UNL     1     -11.655  14.914  69.536  1.00  0.00    -0.285 NA 
HETATM    5  C   UNL     1     -11.609  15.386  68.285  1.00  0.00    -0.348 A  
HETATM    6  N   UNL     1     -11.746  14.666  67.172  1.00  0.00    -0.385 NA 
HETATM    7  C   UNL     1     -11.988  13.361  67.368  1.00  0.00    -0.346 A  
HETATM    8  C   UNL     1     -12.072  12.728  68.604  1.00  0.00    -0.113 A  
BRANCH   7   9
HETATM    9  N   UNL     1     -12.170  12.656  66.148  1.00  0.00    -0.325 N  
HETATM   10  H   UNL     1     -13.061  12.226  65.901  1.00  0.00     0.000 HD 
BRANCH   9  11
HETATM   11  S   UNL     1     -10.828  12.572  65.135  1.00  0.00    -0.299 S  
HETATM   12  O   UNL     1     -10.393  13.940  64.930  1.00  0.00    -0.397 OA 
HETATM   13  O   UNL     1     -11.125  11.711  64.011  1.00  0.00    -0.351 OA 
BRANCH  11  14
HETATM   14  C   UNL     1      -9.587  11.789  66.138  1.00  0.00    -0.232 A  
HETATM   15  C   UNL     1      -8.782  12.558  66.983  1.00  0.00    -0.205 A  
HETATM   16  C   UNL     1      -7.824  11.927  67.782  1.00  0.00    -0.138 A  
HETATM   17  C   UNL     1      -7.633  10.543  67.715  1.00  0.00    -0.088 A  
HETATM   18  C   UNL     1      -8.502   9.781  66.927  1.00  0.00    -0.120 A  
HETATM   19  N   UNL     1      -6.747   9.912  68.596  1.00  0.00    -0.050 NA 
HETATM   20  H2  UNL     1      -7.015  10.154  69.550  1.00  0.00     0.000 HD 
HETATM   21  H1  UNL     1      -6.608   8.902  68.548  1.00  0.00     0.000 HD 
HETATM   22  C   UNL     1      -9.467  10.399  66.125  1.00  0.00    -0.227 A  
ENDBRANCH  11  14
ENDBRANCH   9  11
ENDBRANCH   7   9
BRANCH   8  23
HETATM   23  O   UNL     1     -12.360  11.393  68.597  1.00  0.00    -0.491 OA 
HETATM   24  C   UNL     1     -11.388  10.493  69.117  1.00  0.00    -0.257 C  
ENDBRANCH   8  23
ENDBRANCH   2   3
TORSDOF 5
ENDMDL
MODEL      183
REMARK 921   NORMALIZED FREE ENERGY PREDICTED BY IDOCK:   -3.80 KCAL/MOL
REMARK 922        TOTAL FREE ENERGY PREDICTED BY IDOCK:   -5.41 KCAL/MOL
REMARK 923 INTER-LIGAND FREE ENERGY PREDICTED BY IDOCK:   -4.90 KCAL/MOL
REMARK 924 INTRA-LIGAND FREE ENERGY PREDICTED BY IDOCK:   -0.51 KCAL/MOL
REMARK 927      BINDING AFFINITY PREDICTED BY RF-SCORE:    0.00 PKD
ROOT
HETATM    1  C   UNL     1     -10.138  14.115  66.342  1.00  0.00    -0.293 C  
HETATM    2  O   UNL     1     -11.136  13.123  66.119  1.00  0.00    -0.278 OA 
ENDROOT
BRANCH   2   3
HETATM    3  C   UNL     1     -10.664  11.827  66.110  1.00  0.00    -0.277 A  
HETATM    4  N   UNL     1      -9.852  11.475  65.089  1.00  0.00    -0.251 NA 
HETATM    5  C   UNL     1      -9.415  10.210  65.079  1.00  0.00    -0.271 A  
HETATM    6  N   UNL     1      -9.698   9.278  65.990  1.00  0.00    -0.275 NA 
HETATM    7  C   UNL     1     -10.528   9.674  66.966  1.00  0.00    -0.232 A  
HETATM    8  C   UNL     1     -11.068  10.949  67.105  1.00  0.00    -0.240 A  
BRANCH   7   9
HETATM    9  N   UNL     1     -10.827   8.627  67.878  1.00  0.00    -0.487 N  
HETATM   10  H   UNL     1     -11.755   8.205  67.931  1.00  0.00     0.000 HD 
BRANCH   9  11
HETATM   11  S   UNL     1      -9.562   8.123  68.868  1.00  0.00    -0.155 S  
HETATM   12  O   UNL     1     -10.154   7.831  70.158  1.00  0.00    -0.193 OA 
HETATM   13  O   UNL     1      -8.458   9.051  68.751  1.00  0.00    -0.127 OA 
BRANCH  11  14
HETATM   14  C   UNL     1      -9.071   6.565  68.168  1.00  0.00    -0.114 A  
HETATM   15  C   UNL     1     -10.039   5.633  67.786  1.00  0.00    -0.209 A  
HETATM   16  C   UNL     1      -9.639   4.419  67.218  1.00  0.00    -0.220 A  
HETATM   17  C   UNL     1      -8.284   4.110  67.067  1.00  0.00    -0.100 A  
HETATM   18  C   UNL     1      -7.332   5.087  67.378  1.00  0.00    -0.082 A  
HETATM   19  N   UNL     1      -7.899   2.941  66.400  1.00  0.00    -0.077 NA 
HETATM   20  H2  UNL     1      -8.334   2.939  65.478  1.00  0.00     0.000 HD 
HETATM   21  H1  UNL     1      -6.911   2.715  66.290  1.00  0.00     0.000 HD 
HETATM   22  C   UNL     1      -7.717   6.306  67.944  1.00  0.00    -0.103 A  
ENDBRANCH  11  14
ENDBRANCH   9  11
ENDBRANCH   7   9
BRANCH   8  23
HETATM   23  O   UNL     1     -11.923  11.147  68.152  1.00  0.00    -0.615 OA 
HETATM   24  C   UNL     1     -11.424  11.806  69.310  1.00  0.00    -0.306 C  
ENDBRANCH   8  23
ENDBRANCH   2   3
TORSDOF 5
ENDMDL
MODEL      184
REMARK 921   NORMALIZED FREE ENERGY PREDICTED BY IDOCK:   -3.79 KCAL/MOL
REMARK 922        TOTAL FREE ENERGY PREDICTED BY IDOCK:   -5.41 KCAL/MOL
REMARK 923 INTER-LIGAND FREE ENERGY PREDICTED BY IDOCK:   -5.05 KCAL/MOL
REMARK 924 INTRA-LIGAND FREE ENERGY PREDICTED BY IDOCK:   -0.36 KCAL/MOL
REMARK 927      BINDING AFFINITY PREDICTED BY RF-SCORE:    0.00 PKD
ROOT
HETATM    1  C   UNL     1     -13.599   8.526  71.785  1.00  0.00    -0.388 C  
HETATM    2  O   UNL     1     -12.854   7.327  71.589  1.00  0.00    -0.352 OA 
ENDROOT
BRANCH   2   3
HETATM    3  C   UNL     1     -11.491   7.466  71.742  1.00  0.00    -0.265 A  
HETATM    4  N   UNL     1     -11.027   7.626  73.003  1.00  0.00    -0.400 NA 
HETATM    5  C   UNL     1      -9.704   7.779  73.139  1.00  0.00    -0.285 A  
HETATM    6  N   UNL     1      -8.811   7.773  72.151  1.00  0.00    -0.125 NA 
HETATM    7  C   UNL     1      -9.327   7.638  70.920  1.00  0.00    -0.157 A  
HETATM    8  C   UNL     1     -10.677   7.477  70.620  1.00  0.00    -0.230 A  
BRANCH   7   9
HETATM    9  N   UNL     1      -8.332   7.685  69.908  1.00  0.00    -0.130 N  
HETATM   10  H   UNL     1      -8.044   6.851  69.394  1.00  0.00     0.000 HD 
BRANCH   9  11
HETATM   11  S   UNL     1      -7.655   9.196  69.606  1.00  0.00    -0.087 S  
HETATM   12  O   UNL     1      -6.556   8.967  68.688  1.00  0.00    -0.053 OA 
HETATM   13  O   UNL     1      -7.443   9.890  70.858  1.00  0.00    -0.314 OA 
BRANCH  11  14
HETATM   14  C   UNL     1      -8.915  10.050  68.688  1.00  0.00    -0.136 A  
HETATM   15  C   UNL     1      -9.008   9.883  67.305  1.00  0.00    -0.145 A  
HETATM   16  C   UNL     1     -10.017  10.545  66.598  1.00  0.00    -0.260 A  
HETATM   17  C   UNL     1     -10.906  11.403  67.252  1.00  0.00    -0.263 A  
HETATM   18  C   UNL     1     -10.850  11.494  68.648  1.00  0.00    -0.253 A  
HETATM   19  N   UNL     1     -11.976  11.975  66.553  1.00  0.00    -0.601 NA 
HETATM   20  H2  UNL     1     -12.514  11.224  66.119  1.00  0.00     0.000 HD 
HETATM   21  H1  UNL     1     -12.624  12.601  67.031  1.00  0.00     0.000 HD 
HETATM   22  C   UNL     1      -9.848  10.836  69.367  1.00  0.00    -0.112 A  
ENDBRANCH  11  14
ENDBRANCH   9  11
ENDBRANCH   7   9
BRANCH   8  23
HETATM   23  O   UNL     1     -11.009   7.388  69.298  1.00  0.00    -0.180 OA 
HETATM   24  C   UNL     1     -11.156   6.093  68.728  1.00  0.00    -0.319 C  
ENDBRANCH   8  23
ENDBRANCH   2   3
TORSDOF 5
ENDMDL
MODEL      185
REMARK 921   NORMALIZED FREE ENERGY PREDICTED BY IDOCK:   -3.79 KCAL/MOL
REMARK 922        TOTAL FREE ENERGY PREDICTED BY IDOCK:   -5.41 KCAL/MOL
REMARK 923 INTER-LIGAND FREE ENERGY PREDICTED BY IDOCK:   -6.19 KCAL/MOL
REMARK 924 INTRA-LIGAND FREE ENERGY PREDICTED BY IDOCK:    0.78 KCAL/MOL
REMARK 927      BINDING AFFINITY PREDICTED BY RF-SCORE:    0.00 PKD
ROOT
HETATM    1  C   UNL     1     -11.260  17.015  64.847  1.00  0.00     0.260 C  
HETATM    2  O   UNL     1     -10.581  15.823  64.465  1.00  0.00    -0.406 OA 
ENDROOT
BRANCH   2   3
HETATM    3  C   UNL     1     -11.032  14.679  65.090  1.00  0.00    -0.386 A  
HETATM    4  N   UNL     1     -12.320  14.327  64.874  1.00  0.00    -0.492 NA 
HETATM    5  C   UNL     1     -12.753  13.226  65.500  1.00  0.00    -0.367 A  
HETATM    6  N   UNL     1     -12.027  12.445  66.300  1.00  0.00    -0.607 NA 
HETATM    7  C   UNL     1     -10.765  12.854  66.499  1.00  0.00    -0.269 A  
HETATM    8  C   UNL     1     -10.176  13.978  65.926  1.00  0.00    -0.320 A  
BRANCH   7   9
HETATM    9  N   UNL     1     -10.058  12.009  67.394  1.00  0.00    -0.193 N  
HETATM   10  H   UNL     1      -9.068  11.796  67.268  1.00  0.00     0.000 HD 
BRANCH   9  11
HETATM   11  S   UNL     1     -10.949  11.376  68.675  1.00  0.00    -0.240 S  
HETATM   12  O   UNL     1      -9.995  10.698  69.531  1.00  0.00    -0.197 OA 
HETATM   13  O   UNL     1     -12.109  10.682  68.161  1.00  0.00    -0.403 OA 
BRANCH  11  14
HETATM   14  C   UNL     1     -11.495  12.815  69.564  1.00  0.00    -0.225 A  
HETATM   15  C   UNL     1     -12.496  12.703  70.531  1.00  0.00    -0.273 A  
HETATM   16  C   UNL     1     -12.902  13.840  71.238  1.00  0.00    -0.434 A  
HETATM   17  C   UNL     1     -12.348  15.092  70.959  1.00  0.00    -0.347 A  
HETATM   18  C   UNL     1     -11.290  15.173  70.047  1.00  0.00    -0.304 A  
HETATM   19  N   UNL     1     -12.684  16.201  71.744  1.00  0.00    -0.500 NA 
HETATM   20  H2  UNL     1     -12.491  15.974  72.720  1.00  0.00     0.000 HD 
HETATM   21  H1  UNL     1     -12.280  17.115  71.541  1.00  0.00     0.000 HD 
HETATM   22  C   UNL     1     -10.872  14.044  69.335  1.00  0.00    -0.141 A  
ENDBRANCH  11  14
ENDBRANCH   9  11
ENDBRANCH   7   9
BRANCH   8  23
HETATM   23  O   UNL     1      -8.885  14.247  66.281  1.00  0.00    -0.071 OA 
HETATM   24  C   UNL     1      -8.584  15.543  66.786  1.00  0.00    -0.272 C  
ENDBRANCH   8  23
ENDBRANCH   2   3
TORSDOF 5
ENDMDL
MODEL      186
REMARK 921   NORMALIZED FREE ENERGY PREDICTED BY IDOCK:   -3.78 KCAL/MOL
REMARK 922        TOTAL FREE ENERGY PREDICTED BY IDOCK:   -5.40 KCAL/MOL
REMARK 923 INTER-LIGAND FREE ENERGY PREDICTED BY IDOCK:   -4.80 KCAL/MOL
REMARK 924 INTRA-LIGAND FREE ENERGY PREDICTED BY IDOCK:   -0.60 KCAL/MOL
REMARK 927      BINDING AFFINITY PREDICTED BY RF-SCORE:    0.00 PKD
ROOT
HETATM    1  C   UNL     1      -9.340  19.064  66.280  1.00  0.00    -0.298 C  
HETATM    2  O   UNL     1     -10.291  18.223  66.927  1.00  0.00    -0.355 OA 
ENDROOT
BRANCH   2   3
HETATM    3  C   UNL     1     -10.349  16.937  66.433  1.00  0.00    -0.300 A  
HETATM    4  N   UNL     1     -10.624  16.795  65.116  1.00  0.00    -0.682 NA 
HETATM    5  C   UNL     1     -10.697  15.543  64.651  1.00  0.00    -0.165 A  
HETATM    6  N   UNL     1     -10.510  14.432  65.363  1.00  0.00    -0.348 NA 
HETATM    7  C   UNL     1     -10.267  14.629  66.667  1.00  0.00    -0.274 A  
HETATM    8  C   UNL     1     -10.169  15.867  67.296  1.00  0.00    -0.278 A  
BRANCH   7   9
HETATM    9  N   UNL     1     -10.123  13.410  67.380  1.00  0.00    -0.235 N  
HETATM   10  H   UNL     1     -10.924  12.919  67.779  1.00  0.00     0.000 HD 
BRANCH   9  11
HETATM   11  S   UNL     1      -8.552  12.822  67.531  1.00  0.00    -0.199 S  
HETATM   12  O   UNL     1      -8.449  12.294  68.878  1.00  0.00     0.051 OA 
HETATM   13  O   UNL     1      -7.616  13.814  67.050  1.00  0.00    -0.017 OA 
BRANCH  11  14
HETATM   14  C   UNL     1      -8.515  11.424  66.433  1.00  0.00    -0.160 A  
HETATM   15  C   UNL     1      -9.661  10.649  66.247  1.00  0.00    -0.245 A  
HETATM   16  C   UNL     1      -9.624   9.565  65.365  1.00  0.00    -0.342 A  
HETATM   17  C   UNL     1      -8.443   9.224  64.699  1.00  0.00    -0.178 A  
HETATM   18  C   UNL     1      -7.329  10.059  64.833  1.00  0.00    -0.140 A  
HETATM   19  N   UNL     1      -8.446   8.205  63.739  1.00  0.00    -0.395 NA 
HETATM   20  H2  UNL     1      -9.157   8.423  63.041  1.00  0.00     0.000 HD 
HETATM   21  H1  UNL     1      -7.584   7.955  63.253  1.00  0.00     0.000 HD 
HETATM   22  C   UNL     1      -7.353  11.148  65.710  1.00  0.00     0.178 A  
ENDBRANCH  11  14
ENDBRANCH   9  11
ENDBRANCH   7   9
BRANCH   8  23
HETATM   23  O   UNL     1      -9.948  15.859  68.644  1.00  0.00    -0.204 OA 
HETATM   24  C   UNL     1      -8.685  16.311  69.120  1.00  0.00    -0.212 C  
ENDBRANCH   8  23
ENDBRANCH   2   3
TORSDOF 5
ENDMDL
MODEL      187
REMARK 921   NORMALIZED FREE ENERGY PREDICTED BY IDOCK:   -3.78 KCAL/MOL
REMARK 922        TOTAL FREE ENERGY PREDICTED BY IDOCK:   -5.39 KCAL/MOL
REMARK 923 INTER-LIGAND FREE ENERGY PREDICTED BY IDOCK:   -5.66 KCAL/MOL
REMARK 924 INTRA-LIGAND FREE ENERGY PREDICTED BY IDOCK:    0.26 KCAL/MOL
REMARK 927      BINDING AFFINITY PREDICTED BY RF-SCORE:    0.00 PKD
ROOT
HETATM    1  C   UNL     1     -12.213  12.442  70.573  1.00  0.00    -0.295 C  
HETATM    2  O   UNL     1     -12.514  11.050  70.565  1.00  0.00    -0.326 OA 
ENDROOT
BRANCH   2   3
HETATM    3  C   UNL     1     -11.430  10.227  70.792  1.00  0.00    -0.351 A  
HETATM    4  N   UNL     1     -10.350  10.399  69.997  1.00  0.00    -0.198 NA 
HETATM    5  C   UNL     1      -9.312   9.583  70.213  1.00  0.00    -0.259 A  
HETATM    6  N   UNL     1      -9.244   8.634  71.146  1.00  0.00    -0.192 NA 
HETATM    7  C   UNL     1     -10.351   8.490  71.889  1.00  0.00    -0.308 A  
HETATM    8  C   UNL     1     -11.509   9.255  71.777  1.00  0.00    -0.378 A  
BRANCH   7   9
HETATM    9  N   UNL     1     -10.235   7.435  72.833  1.00  0.00    -0.232 N  
HETATM   10  H   UNL     1      -9.886   7.592  73.779  1.00  0.00     0.000 HD 
BRANCH   9  11
HETATM   11  S   UNL     1     -10.708   5.909  72.299  1.00  0.00    -0.246 S  
HETATM   12  O   UNL     1     -12.145   5.848  72.481  1.00  0.00    -0.241 OA 
HETATM   13  O   UNL     1      -9.843   4.906  72.880  1.00  0.00    -0.146 OA 
BRANCH  11  14
HETATM   14  C   UNL     1     -10.418   5.964  70.547  1.00  0.00    -0.254 A  
HETATM   15  C   UNL     1      -9.184   5.566  70.028  1.00  0.00    -0.172 A  
HETATM   16  C   UNL     1      -8.977   5.594  68.645  1.00  0.00    -0.113 A  
HETATM   17  C   UNL     1      -9.975   6.054  67.781  1.00  0.00    -0.131 A  
HETATM   18  C   UNL     1     -11.231   6.369  68.309  1.00  0.00    -0.276 A  
HETATM   19  N   UNL     1      -9.795   5.976  66.394  1.00  0.00    -0.288 NA 
HETATM   20  H2  UNL     1      -9.579   5.009  66.152  1.00  0.00     0.000 HD 
HETATM   21  H1  UNL     1     -10.523   6.311  65.763  1.00  0.00     0.000 HD 
HETATM   22  C   UNL     1     -11.453   6.343  69.689  1.00  0.00    -0.446 A  
ENDBRANCH  11  14
ENDBRANCH   9  11
ENDBRANCH   7   9
BRANCH   8  23
HETATM   23  O   UNL     1     -12.546   8.931  72.606  1.00  0.00    -0.352 OA 
HETATM   24  C   UNL     1     -13.828   8.720  72.025  1.00  0.00    -0.451 C  
ENDBRANCH   8  23
ENDBRANCH   2   3
TORSDOF 5
ENDMDL
MODEL      188
REMARK 921   NORMALIZED FREE ENERGY PREDICTED BY IDOCK:   -3.78 KCAL/MOL
REMARK 922        TOTAL FREE ENERGY PREDICTED BY IDOCK:   -5.39 KCAL/MOL
REMARK 923 INTER-LIGAND FREE ENERGY PREDICTED BY IDOCK:   -4.95 KCAL/MOL
REMARK 924 INTRA-LIGAND FREE ENERGY PREDICTED BY IDOCK:   -0.45 KCAL/MOL
REMARK 927      BINDING AFFINITY PREDICTED BY RF-SCORE:    0.00 PKD
ROOT
HETATM    1  C   UNL     1      -6.970  17.043  66.454  1.00  0.00    -0.232 C  
HETATM    2  O   UNL     1      -7.740  16.201  67.307  1.00  0.00    -0.148 OA 
ENDROOT
BRANCH   2   3
HETATM    3  C   UNL     1      -8.720  15.475  66.664  1.00  0.00    -0.291 A  
HETATM    4  N   UNL     1      -9.412  16.105  65.688  1.00  0.00    -0.443 NA 
HETATM    5  C   UNL     1     -10.374  15.398  65.084  1.00  0.00    -0.374 A  
HETATM    6  N   UNL     1     -10.697  14.133  65.348  1.00  0.00    -0.322 NA 
HETATM    7  C   UNL     1      -9.998  13.565  66.342  1.00  0.00    -0.295 A  
HETATM    8  C   UNL     1      -8.976  14.173  67.066  1.00  0.00    -0.237 A  
BRANCH   7   9
HETATM    9  N   UNL     1     -10.418  12.235  66.607  1.00  0.00    -0.220 N  
HETATM   10  H   UNL     1     -11.027  12.006  67.394  1.00  0.00     0.000 HD 
BRANCH   9  11
HETATM   11  S   UNL     1      -9.853  11.055  65.547  1.00  0.00    -0.259 S  
HETATM   12  O   UNL     1      -8.441  11.324  65.362  1.00  0.00    -0.039 OA 
HETATM   13  O   UNL     1     -10.745  10.958  64.412  1.00  0.00    -0.340 OA 
BRANCH  11  14
HETATM   14  C   UNL     1      -9.965   9.550  66.487  1.00  0.00    -0.261 A  
HETATM   15  C   UNL     1     -10.551   9.559  67.755  1.00  0.00    -0.318 A  
HETATM   16  C   UNL     1     -10.651   8.365  68.475  1.00  0.00    -0.149 A  
HETATM   17  C   UNL     1     -10.136   7.172  67.960  1.00  0.00    -0.169 A  
HETATM   18  C   UNL     1      -9.628   7.165  66.656  1.00  0.00    -0.226 A  
HETATM   19  N   UNL     1     -10.338   5.966  68.642  1.00  0.00    -0.192 NA 
HETATM   20  H2  UNL     1     -11.340   5.845  68.792  1.00  0.00     0.000 HD 
HETATM   21  H1  UNL     1      -9.962   5.095  68.266  1.00  0.00     0.000 HD 
HETATM   22  C   UNL     1      -9.524   8.352  65.924  1.00  0.00    -0.169 A  
ENDBRANCH  11  14
ENDBRANCH   9  11
ENDBRANCH   7   9
BRANCH   8  23
HETATM   23  O   UNL     1      -8.405  13.438  68.065  1.00  0.00    -0.144 OA 
HETATM   24  C   UNL     1      -7.004  13.197  68.005  1.00  0.00    -0.116 C  
ENDBRANCH   8  23
ENDBRANCH   2   3
TORSDOF 5
ENDMDL
MODEL      189
REMARK 921   NORMALIZED FREE ENERGY PREDICTED BY IDOCK:   -3.78 KCAL/MOL
REMARK 922        TOTAL FREE ENERGY PREDICTED BY IDOCK:   -5.39 KCAL/MOL
REMARK 923 INTER-LIGAND FREE ENERGY PREDICTED BY IDOCK:   -4.74 KCAL/MOL
REMARK 924 INTRA-LIGAND FREE ENERGY PREDICTED BY IDOCK:   -0.65 KCAL/MOL
REMARK 927      BINDING AFFINITY PREDICTED BY RF-SCORE:    0.00 PKD
ROOT
HETATM    1  C   UNL     1     -11.525  14.699  66.793  1.00  0.00    -0.364 C  
HETATM    2  O   UNL     1     -12.336  13.648  66.276  1.00  0.00    -0.432 OA 
ENDROOT
BRANCH   2   3
HETATM    3  C   UNL     1     -11.676  12.770  65.443  1.00  0.00    -0.387 A  
HETATM    4  N   UNL     1     -11.559  13.123  64.143  1.00  0.00    -0.388 NA 
HETATM    5  C   UNL     1     -10.933  12.255  63.340  1.00  0.00    -0.405 A  
HETATM    6  N   UNL     1     -10.406  11.089  63.710  1.00  0.00    -0.363 NA 
HETATM    7  C   UNL     1     -10.572  10.776  65.003  1.00  0.00    -0.173 A  
HETATM    8  C   UNL     1     -11.205  11.570  65.955  1.00  0.00    -0.177 A  
BRANCH   7   9
HETATM    9  N   UNL     1     -10.030   9.504  65.325  1.00  0.00    -0.404 N  
HETATM   10  H   UNL     1     -10.624   8.699  65.531  1.00  0.00     0.000 HD 
BRANCH   9  11
HETATM   11  S   UNL     1      -8.350   9.399  65.350  1.00  0.00    -0.146 S  
HETATM   12  O   UNL     1      -7.876  10.673  65.853  1.00  0.00    -0.151 OA 
HETATM   13  O   UNL     1      -7.880   8.880  64.084  1.00  0.00    -0.121 OA 
BRANCH  11  14
HETATM   14  C   UNL     1      -8.018   8.197  66.616  1.00  0.00    -0.102 A  
HETATM   15  C   UNL     1      -6.856   8.294  67.386  1.00  0.00    -0.070 A  
HETATM   16  C   UNL     1      -6.618   7.353  68.393  1.00  0.00    -0.046 A  
HETATM   17  C   UNL     1      -7.505   6.295  68.610  1.00  0.00    -0.088 A  
HETATM   18  C   UNL     1      -8.702   6.261  67.886  1.00  0.00    -0.114 A  
HETATM   19  N   UNL     1      -7.310   5.423  69.688  1.00  0.00    -0.064 NA 
HETATM   20  H2  UNL     1      -7.255   5.977  70.543  1.00  0.00     0.000 HD 
HETATM   21  H1  UNL     1      -7.958   4.651  69.847  1.00  0.00     0.000 HD 
HETATM   22  C   UNL     1      -8.955   7.196  66.879  1.00  0.00    -0.145 A  
ENDBRANCH  11  14
ENDBRANCH   9  11
ENDBRANCH   7   9
BRANCH   8  23
HETATM   23  O   UNL     1     -11.304  11.059  67.218  1.00  0.00    -0.408 OA 
HETATM   24  C   UNL     1     -10.366  11.498  68.195  1.00  0.00    -0.195 C  
ENDBRANCH   8  23
ENDBRANCH   2   3
TORSDOF 5
ENDMDL
MODEL      190
REMARK 921   NORMALIZED FREE ENERGY PREDICTED BY IDOCK:   -3.76 KCAL/MOL
REMARK 922        TOTAL FREE ENERGY PREDICTED BY IDOCK:   -5.37 KCAL/MOL
REMARK 923 INTER-LIGAND FREE ENERGY PREDICTED BY IDOCK:   -4.94 KCAL/MOL
REMARK 924 INTRA-LIGAND FREE ENERGY PREDICTED BY IDOCK:   -0.43 KCAL/MOL
REMARK 927      BINDING AFFINITY PREDICTED BY RF-SCORE:    0.00 PKD
ROOT
HETATM    1  C   UNL     1     -10.623  18.594  67.058  1.00  0.00    -0.397 C  
HETATM    2  O   UNL     1     -10.124  17.550  67.890  1.00  0.00    -0.299 OA 
ENDROOT
BRANCH   2   3
HETATM    3  C   UNL     1     -10.115  16.302  67.303  1.00  0.00    -0.264 A  
HETATM    4  N   UNL     1     -10.096  16.258  65.951  1.00  0.00    -0.344 NA 
HETATM    5  C   UNL     1     -10.107  15.043  65.391  1.00  0.00    -0.362 A  
HETATM    6  N   UNL     1     -10.121  13.881  66.045  1.00  0.00    -0.304 NA 
HETATM    7  C   UNL     1     -10.166  13.983  67.381  1.00  0.00    -0.248 A  
HETATM    8  C   UNL     1     -10.168  15.172  68.105  1.00  0.00    -0.227 A  
BRANCH   7   9
HETATM    9  N   UNL     1     -10.226  12.716  68.018  1.00  0.00    -0.224 N  
HETATM   10  H   UNL     1     -11.109  12.303  68.321  1.00  0.00     0.000 HD 
BRANCH   9  11
HETATM   11  S   UNL     1      -8.753  11.932  68.246  1.00  0.00    -0.156 S  
HETATM   12  O   UNL     1      -7.904  12.870  68.954  1.00  0.00    -0.012 OA 
HETATM   13  O   UNL     1      -8.324  11.338  66.999  1.00  0.00    -0.140 OA 
BRANCH  11  14
HETATM   14  C   UNL     1      -9.139  10.630  69.393  1.00  0.00    -0.043 A  
HETATM   15  C   UNL     1     -10.453  10.445  69.826  1.00  0.00    -0.284 A  
HETATM   16  C   UNL     1     -10.746   9.403  70.713  1.00  0.00    -0.373 A  
HETATM   17  C   UNL     1      -9.733   8.573  71.202  1.00  0.00    -0.201 A  
HETATM   18  C   UNL     1      -8.438   8.720  70.694  1.00  0.00    -0.193 A  
HETATM   19  N   UNL     1     -10.054   7.470  72.002  1.00  0.00    -0.184 NA 
HETATM   20  H2  UNL     1     -10.728   6.893  71.500  1.00  0.00     0.000 HD 
HETATM   21  H1  UNL     1      -9.315   6.863  72.359  1.00  0.00     0.000 HD 
HETATM   22  C   UNL     1      -8.132   9.755  69.805  1.00  0.00    -0.174 A  
ENDBRANCH  11  14
ENDBRANCH   9  11
ENDBRANCH   7   9
BRANCH   8  23
HETATM   23  O   UNL     1     -10.252  15.068  69.464  1.00  0.00    -0.225 OA 
HETATM   24  C   UNL     1     -11.535  15.183  70.068  1.00  0.00    -0.286 C  
ENDBRANCH   8  23
ENDBRANCH   2   3
TORSDOF 5
ENDMDL
MODEL      191
REMARK 921   NORMALIZED FREE ENERGY PREDICTED BY IDOCK:   -3.75 KCAL/MOL
REMARK 922        TOTAL FREE ENERGY PREDICTED BY IDOCK:   -5.36 KCAL/MOL
REMARK 923 INTER-LIGAND FREE ENERGY PREDICTED BY IDOCK:   -4.89 KCAL/MOL
REMARK 924 INTRA-LIGAND FREE ENERGY PREDICTED BY IDOCK:   -0.47 KCAL/MOL
REMARK 927      BINDING AFFINITY PREDICTED BY RF-SCORE:    0.00 PKD
ROOT
HETATM    1  C   UNL     1     -10.464  10.578  65.486  1.00  0.00    -0.150 C  
HETATM    2  O   UNL     1     -10.742  10.555  66.883  1.00  0.00    -0.253 OA 
ENDROOT
BRANCH   2   3
HETATM    3  C   UNL     1     -10.385   9.385  67.520  1.00  0.00    -0.255 A  
HETATM    4  N   UNL     1     -10.128   8.312  66.738  1.00  0.00    -0.283 NA 
HETATM    5  C   UNL     1      -9.801   7.177  67.367  1.00  0.00    -0.155 A  
HETATM    6  N   UNL     1      -9.693   7.017  68.686  1.00  0.00    -0.138 NA 
HETATM    7  C   UNL     1      -9.983   8.105  69.414  1.00  0.00    -0.188 A  
HETATM    8  C   UNL     1     -10.345   9.350  68.906  1.00  0.00    -0.213 A  
BRANCH   7   9
HETATM    9  N   UNL     1      -9.895   7.861  70.810  1.00  0.00    -0.180 N  
HETATM   10  H   UNL     1      -9.042   8.047  71.338  1.00  0.00     0.000 HD 
BRANCH   9  11
HETATM   11  S   UNL     1     -11.279   7.244  71.543  1.00  0.00    -0.252 S  
HETATM   12  O   UNL     1     -12.204   6.944  70.467  1.00  0.00    -0.340 OA 
HETATM   13  O   UNL     1     -11.670   8.105  72.638  1.00  0.00    -0.399 OA 
BRANCH  11  14
HETATM   14  C   UNL     1     -10.749   5.684  72.208  1.00  0.00    -0.230 A  
HETATM   15  C   UNL     1     -10.882   5.423  73.573  1.00  0.00    -0.342 A  
HETATM   16  C   UNL     1     -10.480   4.183  74.080  1.00  0.00    -0.292 A  
HETATM   17  C   UNL     1      -9.909   3.219  73.244  1.00  0.00    -0.111 A  
HETATM   18  C   UNL     1      -9.859   3.465  71.868  1.00  0.00    -0.238 A  
HETATM   19  N   UNL     1      -9.609   1.945  73.742  1.00  0.00    -0.074 NA 
HETATM   20  H2  UNL     1     -10.457   1.553  74.152  1.00  0.00     0.000 HD 
HETATM   21  H1  UNL     1      -9.192   1.241  73.132  1.00  0.00     0.000 HD 
HETATM   22  C   UNL     1     -10.260   4.699  71.347  1.00  0.00    -0.212 A  
ENDBRANCH  11  14
ENDBRANCH   9  11
ENDBRANCH   7   9
BRANCH   8  23
HETATM   23  O   UNL     1     -10.635  10.328  69.814  1.00  0.00    -0.242 OA 
HETATM   24  C   UNL     1     -11.975  10.804  69.883  1.00  0.00    -0.342 C  
ENDBRANCH   8  23
ENDBRANCH   2   3
TORSDOF 5
ENDMDL
MODEL      192
REMARK 921   NORMALIZED FREE ENERGY PREDICTED BY IDOCK:   -3.74 KCAL/MOL
REMARK 922        TOTAL FREE ENERGY PREDICTED BY IDOCK:   -5.34 KCAL/MOL
REMARK 923 INTER-LIGAND FREE ENERGY PREDICTED BY IDOCK:   -4.83 KCAL/MOL
REMARK 924 INTRA-LIGAND FREE ENERGY PREDICTED BY IDOCK:   -0.51 KCAL/MOL
REMARK 927      BINDING AFFINITY PREDICTED BY RF-SCORE:    0.00 PKD
ROOT
HETATM    1  C   UNL     1     -11.679  12.959  69.126  1.00  0.00    -0.324 C  
HETATM    2  O   UNL     1     -12.315  11.760  69.558  1.00  0.00    -0.190 OA 
ENDROOT
BRANCH   2   3
HETATM    3  C   UNL     1     -11.506  10.643  69.546  1.00  0.00    -0.291 A  
HETATM    4  N   UNL     1     -10.843  10.377  68.397  1.00  0.00    -0.227 NA 
HETATM    5  C   UNL     1     -10.075   9.281  68.390  1.00  0.00    -0.191 A  
HETATM    6  N   UNL     1      -9.897   8.444  69.411  1.00  0.00    -0.181 NA 
HETATM    7  C   UNL     1     -10.598   8.741  70.516  1.00  0.00    -0.215 A  
HETATM    8  C   UNL     1     -11.440   9.838  70.672  1.00  0.00    -0.324 A  
BRANCH   7   9
HETATM    9  N   UNL     1     -10.402   7.789  71.551  1.00  0.00    -0.192 N  
HETATM   10  H   UNL     1      -9.820   7.988  72.365  1.00  0.00     0.000 HD 
BRANCH   9  11
HETATM   11  S   UNL     1     -11.187   6.312  71.358  1.00  0.00    -0.292 S  
HETATM   12  O   UNL     1     -12.127   6.497  70.269  1.00  0.00    -0.348 OA 
HETATM   13  O   UNL     1     -11.631   5.829  72.647  1.00  0.00    -0.300 OA 
BRANCH  11  14
HETATM   14  C   UNL     1      -9.913   5.231  70.753  1.00  0.00    -0.211 A  
HETATM   15  C   UNL     1      -8.872   4.835  71.595  1.00  0.00    -0.145 A  
HETATM   16  C   UNL     1      -7.888   3.967  71.112  1.00  0.00    -0.063 A  
HETATM   17  C   UNL     1      -7.911   3.524  69.787  1.00  0.00    -0.050 A  
HETATM   18  C   UNL     1      -9.004   3.863  68.982  1.00  0.00    -0.175 A  
HETATM   19  N   UNL     1      -6.982   2.573  69.346  1.00  0.00    -0.036 NA 
HETATM   20  H2  UNL     1      -7.041   1.759  69.958  1.00  0.00     0.000 HD 
HETATM   21  H1  UNL     1      -6.999   2.250  68.379  1.00  0.00     0.000 HD 
HETATM   22  C   UNL     1      -9.997   4.728  69.453  1.00  0.00    -0.269 A  
ENDBRANCH  11  14
ENDBRANCH   9  11
ENDBRANCH   7   9
BRANCH   8  23
HETATM   23  O   UNL     1     -12.094   9.949  71.866  1.00  0.00    -0.357 OA 
HETATM   24  C   UNL     1     -13.418   9.435  71.958  1.00  0.00    -0.449 C  
ENDBRANCH   8  23
ENDBRANCH   2   3
TORSDOF 5
ENDMDL
MODEL      193
REMARK 921   NORMALIZED FREE ENERGY PREDICTED BY IDOCK:   -3.72 KCAL/MOL
REMARK 922        TOTAL FREE ENERGY PREDICTED BY IDOCK:   -5.31 KCAL/MOL
REMARK 923 INTER-LIGAND FREE ENERGY PREDICTED BY IDOCK:   -4.68 KCAL/MOL
REMARK 924 INTRA-LIGAND FREE ENERGY PREDICTED BY IDOCK:   -0.63 KCAL/MOL
REMARK 927      BINDING AFFINITY PREDICTED BY RF-SCORE:    0.00 PKD
ROOT
HETATM    1  C   UNL     1     -11.771  14.985  69.432  1.00  0.00    -0.326 C  
HETATM    2  O   UNL     1     -12.274  13.839  68.752  1.00  0.00    -0.350 OA 
ENDROOT
BRANCH   2   3
HETATM    3  C   UNL     1     -11.306  12.964  68.307  1.00  0.00    -0.291 A  
HETATM    4  N   UNL     1     -10.931  11.977  69.153  1.00  0.00    -0.210 NA 
HETATM    5  C   UNL     1      -9.978  11.145  68.718  1.00  0.00    -0.198 A  
HETATM    6  N   UNL     1      -9.380  11.195  67.528  1.00  0.00    -0.166 NA 
HETATM    7  C   UNL     1      -9.770  12.207  66.739  1.00  0.00    -0.207 A  
HETATM    8  C   UNL     1     -10.742  13.153  67.054  1.00  0.00    -0.262 A  
BRANCH   7   9
HETATM    9  N   UNL     1      -9.067  12.234  65.506  1.00  0.00    -0.410 N  
HETATM   10  H   UNL     1      -8.229  12.801  65.374  1.00  0.00     0.000 HD 
BRANCH   9  11
HETATM   11  S   UNL     1      -9.697  11.276  64.273  1.00  0.00    -0.252 S  
HETATM   12  O   UNL     1      -9.714  12.109  63.087  1.00  0.00    -0.379 OA 
HETATM   13  O   UNL     1     -10.901  10.622  64.737  1.00  0.00    -0.132 OA 
BRANCH  11  14
HETATM   14  C   UNL     1      -8.444  10.043  64.011  1.00  0.00    -0.177 A  
HETATM   15  C   UNL     1      -7.328   9.990  64.849  1.00  0.00    -0.140 A  
HETATM   16  C   UNL     1      -6.360   9.002  64.644  1.00  0.00    -0.070 A  
HETATM   17  C   UNL     1      -6.475   8.094  63.588  1.00  0.00    -0.072 A  
HETATM   18  C   UNL     1      -7.639   8.109  62.811  1.00  0.00    -0.122 A  
HETATM   19  N   UNL     1      -5.558   7.044  63.458  1.00  0.00    -0.035 NA 
HETATM   20  H2  UNL     1      -5.544   6.520  64.333  1.00  0.00     0.000 HD 
HETATM   21  H1  UNL     1      -5.642   6.381  62.687  1.00  0.00     0.000 HD 
HETATM   22  C   UNL     1      -8.616   9.090  63.006  1.00  0.00    -0.166 A  
ENDBRANCH  11  14
ENDBRANCH   9  11
ENDBRANCH   7   9
BRANCH   8  23
HETATM   23  O   UNL     1     -10.976  14.130  66.129  1.00  0.00    -0.302 OA 
HETATM   24  C   UNL     1     -12.077  13.965  65.243  1.00  0.00    -0.410 C  
ENDBRANCH   8  23
ENDBRANCH   2   3
TORSDOF 5
ENDMDL
MODEL      194
REMARK 921   NORMALIZED FREE ENERGY PREDICTED BY IDOCK:   -3.71 KCAL/MOL
REMARK 922        TOTAL FREE ENERGY PREDICTED BY IDOCK:   -5.31 KCAL/MOL
REMARK 923 INTER-LIGAND FREE ENERGY PREDICTED BY IDOCK:   -5.09 KCAL/MOL
REMARK 924 INTRA-LIGAND FREE ENERGY PREDICTED BY IDOCK:   -0.22 KCAL/MOL
REMARK 927      BINDING AFFINITY PREDICTED BY RF-SCORE:    0.00 PKD
ROOT
HETATM    1  C   UNL     1     -10.796  15.341  70.516  1.00  0.00    -0.257 C  
HETATM    2  O   UNL     1     -11.794  14.654  69.766  1.00  0.00    -0.280 OA 
ENDROOT
BRANCH   2   3
HETATM    3  C   UNL     1     -12.215  13.465  70.323  1.00  0.00    -0.335 A  
HETATM    4  N   UNL     1     -12.919  13.541  71.475  1.00  0.00    -0.360 NA 
HETATM    5  C   UNL     1     -13.307  12.381  72.018  1.00  0.00    -0.407 A  
HETATM    6  N   UNL     1     -13.073  11.168  71.518  1.00  0.00    -0.424 NA 
HETATM    7  C   UNL     1     -12.349  11.149  70.390  1.00  0.00    -0.344 A  
HETATM    8  C   UNL     1     -11.870  12.268  69.714  1.00  0.00    -0.318 A  
BRANCH   7   9
HETATM    9  N   UNL     1     -12.094   9.829  69.933  1.00  0.00    -0.451 N  
HETATM   10  H   UNL     1     -12.433   9.495  69.030  1.00  0.00     0.000 HD 
BRANCH   9  11
HETATM   11  S   UNL     1     -11.201   8.846  70.967  1.00  0.00    -0.301 S  
HETATM   12  O   UNL     1     -11.911   7.584  71.034  1.00  0.00    -0.292 OA 
HETATM   13  O   UNL     1     -10.878   9.580  72.172  1.00  0.00     0.067 OA 
BRANCH  11  14
HETATM   14  C   UNL     1      -9.699   8.539  70.069  1.00  0.00    -0.170 A  
HETATM   15  C   UNL     1      -8.471   8.545  70.735  1.00  0.00    -0.166 A  
HETATM   16  C   UNL     1      -7.298   8.281  70.020  1.00  0.00    -0.063 A  
HETATM   17  C   UNL     1      -7.336   8.052  68.641  1.00  0.00    -0.089 A  
HETATM   18  C   UNL     1      -8.580   7.967  68.006  1.00  0.00    -0.129 A  
HETATM   19  N   UNL     1      -6.172   7.684  67.957  1.00  0.00    -0.043 NA 
HETATM   20  H2  UNL     1      -5.781   6.857  68.409  1.00  0.00     0.000 HD 
HETATM   21  H1  UNL     1      -6.199   7.516  66.951  1.00  0.00     0.000 HD 
HETATM   22  C   UNL     1      -9.761   8.226  68.709  1.00  0.00    -0.160 A  
ENDBRANCH  11  14
ENDBRANCH   9  11
ENDBRANCH   7   9
BRANCH   8  23
HETATM   23  O   UNL     1     -11.120  12.041  68.595  1.00  0.00    -0.218 OA 
HETATM   24  C   UNL     1     -11.688  12.362  67.330  1.00  0.00    -0.347 C  
ENDBRANCH   8  23
ENDBRANCH   2   3
TORSDOF 5
ENDMDL
MODEL      195
REMARK 921   NORMALIZED FREE ENERGY PREDICTED BY IDOCK:   -3.67 KCAL/MOL
REMARK 922        TOTAL FREE ENERGY PREDICTED BY IDOCK:   -5.25 KCAL/MOL
REMARK 923 INTER-LIGAND FREE ENERGY PREDICTED BY IDOCK:   -5.46 KCAL/MOL
REMARK 924 INTRA-LIGAND FREE ENERGY PREDICTED BY IDOCK:    0.21 KCAL/MOL
REMARK 927      BINDING AFFINITY PREDICTED BY RF-SCORE:    0.00 PKD
ROOT
HETATM    1  C   UNL     1      -8.720  10.238  62.608  1.00  0.00    -0.212 C  
HETATM    2  O   UNL     1      -9.847  10.135  63.474  1.00  0.00    -0.215 OA 
ENDROOT
BRANCH   2   3
HETATM    3  C   UNL     1     -10.094  11.261  64.231  1.00  0.00    -0.313 A  
HETATM    4  N   UNL     1     -10.412  12.394  63.564  1.00  0.00    -0.429 NA 
HETATM    5  C   UNL     1     -10.631  13.485  64.307  1.00  0.00    -0.287 A  
HETATM    6  N   UNL     1     -10.578  13.549  65.637  1.00  0.00    -0.278 NA 
HETATM    7  C   UNL     1     -10.233  12.405  66.246  1.00  0.00    -0.238 A  
HETATM    8  C   UNL     1      -9.968  11.195  65.611  1.00  0.00    -0.249 A  
BRANCH   7   9
HETATM    9  N   UNL     1     -10.149  12.547  67.656  1.00  0.00    -0.213 N  
HETATM   10  H   UNL     1      -9.461  12.036  68.211  1.00  0.00     0.000 HD 
BRANCH   9  11
HETATM   11  S   UNL     1     -11.251  13.607  68.361  1.00  0.00    -0.296 S  
HETATM   12  O   UNL     1     -11.399  13.177  69.737  1.00  0.00    -0.176 OA 
HETATM   13  O   UNL     1     -12.405  13.747  67.499  1.00  0.00    -0.287 OA 
BRANCH  11  14
HETATM   14  C   UNL     1     -10.382  15.157  68.403  1.00  0.00    -0.229 A  
HETATM   15  C   UNL     1     -11.093  16.358  68.436  1.00  0.00    -0.351 A  
HETATM   16  C   UNL     1     -10.397  17.570  68.490  1.00  0.00    -0.380 A  
HETATM   17  C   UNL     1      -8.999  17.594  68.470  1.00  0.00    -0.289 A  
HETATM   18  C   UNL     1      -8.304  16.381  68.520  1.00  0.00    -0.202 A  
HETATM   19  N   UNL     1      -8.314  18.804  68.633  1.00  0.00    -0.337 NA 
HETATM   20  H2  UNL     1      -8.631  19.239  69.499  1.00  0.00     0.000 HD 
HETATM   21  H1  UNL     1      -7.294  18.823  68.618  1.00  0.00     0.000 HD 
HETATM   22  C   UNL     1      -8.987  15.163  68.470  1.00  0.00    -0.186 A  
ENDBRANCH  11  14
ENDBRANCH   9  11
ENDBRANCH   7   9
BRANCH   8  23
HETATM   23  O   UNL     1      -9.599  10.147  66.405  1.00  0.00    -0.175 OA 
HETATM   24  C   UNL     1      -8.227   9.771  66.426  1.00  0.00    -0.120 C  
ENDBRANCH   8  23
ENDBRANCH   2   3
TORSDOF 5
ENDMDL
MODEL      196
REMARK 921   NORMALIZED FREE ENERGY PREDICTED BY IDOCK:   -3.67 KCAL/MOL
REMARK 922        TOTAL FREE ENERGY PREDICTED BY IDOCK:   -5.25 KCAL/MOL
REMARK 923 INTER-LIGAND FREE ENERGY PREDICTED BY IDOCK:   -4.67 KCAL/MOL
REMARK 924 INTRA-LIGAND FREE ENERGY PREDICTED BY IDOCK:   -0.58 KCAL/MOL
REMARK 927      BINDING AFFINITY PREDICTED BY RF-SCORE:    0.00 PKD
ROOT
HETATM    1  C   UNL     1      -5.851  10.150  64.194  1.00  0.00    -0.140 C  
HETATM    2  O   UNL     1      -6.215  10.912  65.341  1.00  0.00    -0.064 OA 
ENDROOT
BRANCH   2   3
HETATM    3  C   UNL     1      -6.746  10.172  66.377  1.00  0.00    -0.092 A  
HETATM    4  N   UNL     1      -6.498   8.843  66.374  1.00  0.00    -0.065 NA 
HETATM    5  C   UNL     1      -7.034   8.132  67.373  1.00  0.00    -0.075 A  
HETATM    6  N   UNL     1      -7.772   8.618  68.370  1.00  0.00    -0.099 NA 
HETATM    7  C   UNL     1      -8.009   9.936  68.310  1.00  0.00    -0.100 A  
HETATM    8  C   UNL     1      -7.528  10.803  67.333  1.00  0.00    -0.098 A  
BRANCH   7   9
HETATM    9  N   UNL     1      -8.837  10.386  69.372  1.00  0.00    -0.292 N  
HETATM   10  H   UNL     1      -8.450  10.802  70.220  1.00  0.00     0.000 HD 
BRANCH   9  11
HETATM   11  S   UNL     1     -10.494  10.192  69.152  1.00  0.00    -0.237 S  
HETATM   12  O   UNL     1     -10.665   9.704  67.797  1.00  0.00    -0.258 OA 
HETATM   13  O   UNL     1     -11.184  11.380  69.605  1.00  0.00    -0.258 OA 
BRANCH  11  14
HETATM   14  C   UNL     1     -10.912   8.845  70.234  1.00  0.00    -0.241 A  
HETATM   15  C   UNL     1     -11.178   9.087  71.583  1.00  0.00    -0.431 A  
HETATM   16  C   UNL     1     -11.526   8.021  72.419  1.00  0.00    -0.449 A  
HETATM   17  C   UNL     1     -11.569   6.712  71.930  1.00  0.00    -0.303 A  
HETATM   18  C   UNL     1     -11.380   6.498  70.560  1.00  0.00    -0.426 A  
HETATM   19  N   UNL     1     -12.021   5.670  72.748  1.00  0.00    -0.521 NA 
HETATM   20  H2  UNL     1     -12.948   5.914  73.096  1.00  0.00     0.000 HD 
HETATM   21  H1  UNL     1     -12.053   4.715  72.391  1.00  0.00     0.000 HD 
HETATM   22  C   UNL     1     -11.035   7.555  69.712  1.00  0.00    -0.195 A  
ENDBRANCH  11  14
ENDBRANCH   9  11
ENDBRANCH   7   9
BRANCH   8  23
HETATM   23  O   UNL     1      -7.908  12.112  67.427  1.00  0.00    -0.149 OA 
HETATM   24  C   UNL     1      -8.959  12.568  66.582  1.00  0.00    -0.174 C  
ENDBRANCH   8  23
ENDBRANCH   2   3
TORSDOF 5
ENDMDL
MODEL      197
REMARK 921   NORMALIZED FREE ENERGY PREDICTED BY IDOCK:   -3.66 KCAL/MOL
REMARK 922        TOTAL FREE ENERGY PREDICTED BY IDOCK:   -5.24 KCAL/MOL
REMARK 923 INTER-LIGAND FREE ENERGY PREDICTED BY IDOCK:   -4.86 KCAL/MOL
REMARK 924 INTRA-LIGAND FREE ENERGY PREDICTED BY IDOCK:   -0.38 KCAL/MOL
REMARK 927      BINDING AFFINITY PREDICTED BY RF-SCORE:    0.00 PKD
ROOT
HETATM    1  C   UNL     1     -11.972  13.259  63.424  1.00  0.00    -0.427 C  
HETATM    2  O   UNL     1     -11.017  13.339  64.478  1.00  0.00    -0.343 OA 
ENDROOT
BRANCH   2   3
HETATM    3  C   UNL     1     -10.356  12.157  64.744  1.00  0.00    -0.288 A  
HETATM    4  N   UNL     1     -10.246  11.272  63.729  1.00  0.00    -0.340 NA 
HETATM    5  C   UNL     1      -9.620  10.121  64.003  1.00  0.00    -0.257 A  
HETATM    6  N   UNL     1      -9.088   9.781  65.176  1.00  0.00    -0.205 NA 
HETATM    7  C   UNL     1      -9.249  10.684  66.155  1.00  0.00    -0.172 A  
HETATM    8  C   UNL     1      -9.881  11.917  66.025  1.00  0.00    -0.235 A  
BRANCH   7   9
HETATM    9  N   UNL     1      -8.702  10.246  67.390  1.00  0.00    -0.129 N  
HETATM   10  H   UNL     1      -7.731  10.428  67.645  1.00  0.00     0.000 HD 
BRANCH   9  11
HETATM   11  S   UNL     1      -9.749   9.409  68.408  1.00  0.00    -0.152 S  
HETATM   12  O   UNL     1     -11.084   9.860  68.070  1.00  0.00    -0.249 OA 
HETATM   13  O   UNL     1      -9.263   9.484  69.768  1.00  0.00    -0.177 OA 
BRANCH  11  14
HETATM   14  C   UNL     1      -9.626   7.725  67.853  1.00  0.00    -0.146 A  
HETATM   15  C   UNL     1     -10.720   7.107  67.244  1.00  0.00    -0.399 A  
HETATM   16  C   UNL     1     -10.602   5.788  66.793  1.00  0.00    -0.373 A  
HETATM   17  C   UNL     1      -9.418   5.069  66.981  1.00  0.00    -0.142 A  
HETATM   18  C   UNL     1      -8.307   5.730  67.517  1.00  0.00    -0.104 A  
HETATM   19  N   UNL     1      -9.277   3.789  66.431  1.00  0.00    -0.159 NA 
HETATM   20  H2  UNL     1      -9.462   3.848  65.430  1.00  0.00     0.000 HD 
HETATM   21  H1  UNL     1      -8.413   3.265  66.568  1.00  0.00     0.000 HD 
HETATM   22  C   UNL     1      -8.410   7.049  67.970  1.00  0.00    -0.119 A  
ENDBRANCH  11  14
ENDBRANCH   9  11
ENDBRANCH   7   9
BRANCH   8  23
HETATM   23  O   UNL     1      -9.973  12.686  67.150  1.00  0.00    -0.213 OA 
HETATM   24  C   UNL     1      -9.041  13.748  67.316  1.00  0.00    -0.232 C  
ENDBRANCH   8  23
ENDBRANCH   2   3
TORSDOF 5
ENDMDL
MODEL      198
REMARK 921   NORMALIZED FREE ENERGY PREDICTED BY IDOCK:   -3.66 KCAL/MOL
REMARK 922        TOTAL FREE ENERGY PREDICTED BY IDOCK:   -5.24 KCAL/MOL
REMARK 923 INTER-LIGAND FREE ENERGY PREDICTED BY IDOCK:   -5.36 KCAL/MOL
REMARK 924 INTRA-LIGAND FREE ENERGY PREDICTED BY IDOCK:    0.12 KCAL/MOL
REMARK 927      BINDING AFFINITY PREDICTED BY RF-SCORE:    0.00 PKD
ROOT
HETATM    1  C   UNL     1      -5.636  14.086  70.749  1.00  0.00    -0.177 C  
HETATM    2  O   UNL     1      -6.332  14.900  69.811  1.00  0.00    -0.129 OA 
ENDROOT
BRANCH   2   3
HETATM    3  C   UNL     1      -7.083  14.200  68.889  1.00  0.00    -0.110 A  
HETATM    4  N   UNL     1      -7.076  12.851  68.987  1.00  0.00    -0.067 NA 
HETATM    5  C   UNL     1      -7.793  12.181  68.077  1.00  0.00    -0.145 A  
HETATM    6  N   UNL     1      -8.518  12.723  67.100  1.00  0.00    -0.190 NA 
HETATM    7  C   UNL     1      -8.470  14.062  67.033  1.00  0.00    -0.147 A  
HETATM    8  C   UNL     1      -7.765  14.892  67.900  1.00  0.00    -0.141 A  
BRANCH   7   9
HETATM    9  N   UNL     1      -9.225  14.577  65.947  1.00  0.00    -0.517 N  
HETATM   10  H   UNL     1      -8.822  15.224  65.267  1.00  0.00     0.000 HD 
BRANCH   9  11
HETATM   11  S   UNL     1     -10.823  14.059  65.844  1.00  0.00    -0.294 S  
HETATM   12  O   UNL     1     -10.769  12.660  65.467  1.00  0.00    -0.265 OA 
HETATM   13  O   UNL     1     -11.589  15.007  65.066  1.00  0.00    -0.366 OA 
BRANCH  11  14
HETATM   14  C   UNL     1     -11.395  14.110  67.526  1.00  0.00    -0.322 A  
HETATM   15  C   UNL     1     -11.671  12.923  68.208  1.00  0.00    -0.390 A  
HETATM   16  C   UNL     1     -12.100  12.977  69.538  1.00  0.00    -0.289 A  
HETATM   17  C   UNL     1     -12.296  14.204  70.179  1.00  0.00    -0.351 A  
HETATM   18  C   UNL     1     -11.936  15.379  69.508  1.00  0.00    -0.358 A  
HETATM   19  N   UNL     1     -12.622  14.243  71.540  1.00  0.00    -0.338 NA 
HETATM   20  H2  UNL     1     -11.913  13.722  72.055  1.00  0.00     0.000 HD 
HETATM   21  H1  UNL     1     -12.765  15.139  72.007  1.00  0.00     0.000 HD 
HETATM   22  C   UNL     1     -11.503  15.339  68.180  1.00  0.00    -0.357 A  
ENDBRANCH  11  14
ENDBRANCH   9  11
ENDBRANCH   7   9
BRANCH   8  23
HETATM   23  O   UNL     1      -7.813  16.234  67.647  1.00  0.00    -0.137 OA 
HETATM   24  C   UNL     1      -8.401  17.082  68.627  1.00  0.00    -0.264 C  
ENDBRANCH   8  23
ENDBRANCH   2   3
TORSDOF 5
ENDMDL
MODEL      199
REMARK 921   NORMALIZED FREE ENERGY PREDICTED BY IDOCK:   -3.66 KCAL/MOL
REMARK 922        TOTAL FREE ENERGY PREDICTED BY IDOCK:   -5.24 KCAL/MOL
REMARK 923 INTER-LIGAND FREE ENERGY PREDICTED BY IDOCK:   -6.37 KCAL/MOL
REMARK 924 INTRA-LIGAND FREE ENERGY PREDICTED BY IDOCK:    1.13 KCAL/MOL
REMARK 927      BINDING AFFINITY PREDICTED BY RF-SCORE:    0.00 PKD
ROOT
HETATM    1  C   UNL     1      -6.743   9.828  65.856  1.00  0.00    -0.091 C  
HETATM    2  O   UNL     1      -6.752  10.789  66.907  1.00  0.00    -0.085 OA 
ENDROOT
BRANCH   2   3
HETATM    3  C   UNL     1      -8.005  11.097  67.394  1.00  0.00    -0.125 A  
HETATM    4  N   UNL     1      -8.961  10.147  67.277  1.00  0.00    -0.135 NA 
HETATM    5  C   UNL     1     -10.178  10.463  67.735  1.00  0.00    -0.193 A  
HETATM    6  N   UNL     1     -10.524  11.618  68.304  1.00  0.00    -0.196 NA 
HETATM    7  C   UNL     1      -9.545  12.532  68.371  1.00  0.00    -0.176 A  
HETATM    8  C   UNL     1      -8.236  12.354  67.932  1.00  0.00    -0.163 A  
BRANCH   7   9
HETATM    9  N   UNL     1      -9.986  13.754  68.944  1.00  0.00    -0.416 N  
HETATM   10  H   UNL     1      -9.342  14.397  69.406  1.00  0.00     0.000 HD 
BRANCH   9  11
HETATM   11  S   UNL     1     -11.632  14.081  68.817  1.00  0.00    -0.355 S  
HETATM   12  O   UNL     1     -12.281  12.800  68.613  1.00  0.00    -0.189 OA 
HETATM   13  O   UNL     1     -11.839  15.172  67.890  1.00  0.00    -0.320 OA 
BRANCH  11  14
HETATM   14  C   UNL     1     -12.084  14.626  70.447  1.00  0.00    -0.319 A  
HETATM   15  C   UNL     1     -12.882  13.818  71.260  1.00  0.00    -0.434 A  
HETATM   16  C   UNL     1     -13.213  14.250  72.548  1.00  0.00    -0.581 A  
HETATM   17  C   UNL     1     -12.789  15.497  73.016  1.00  0.00    -0.472 A  
HETATM   18  C   UNL     1     -11.923  16.256  72.221  1.00  0.00    -0.605 A  
HETATM   19  N   UNL     1     -13.036  15.872  74.342  1.00  0.00    -0.880 NA 
HETATM   20  H2  UNL     1     -12.654  15.152  74.956  1.00  0.00     0.000 HD 
HETATM   21  H1  UNL     1     -12.727  16.782  74.684  1.00  0.00     0.000 HD 
HETATM   22  C   UNL     1     -11.582  15.835  70.932  1.00  0.00    -0.440 A  
ENDBRANCH  11  14
ENDBRANCH   9  11
ENDBRANCH   7   9
BRANCH   8  23
HETATM   23  O   UNL     1      -7.392  13.420  68.057  1.00  0.00    -0.098 OA 
HETATM   24  C   UNL     1      -6.360  13.348  69.034  1.00  0.00    -0.097 C  
ENDBRANCH   8  23
ENDBRANCH   2   3
TORSDOF 5
ENDMDL
MODEL      200
REMARK 921   NORMALIZED FREE ENERGY PREDICTED BY IDOCK:   -3.64 KCAL/MOL
REMARK 922        TOTAL FREE ENERGY PREDICTED BY IDOCK:   -5.22 KCAL/MOL
REMARK 923 INTER-LIGAND FREE ENERGY PREDICTED BY IDOCK:   -5.42 KCAL/MOL
REMARK 924 INTRA-LIGAND FREE ENERGY PREDICTED BY IDOCK:    0.21 KCAL/MOL
REMARK 927      BINDING AFFINITY PREDICTED BY RF-SCORE:    0.00 PKD
ROOT
HETATM    1  C   UNL     1      -6.587   7.698  69.394  1.00  0.00    -0.039 C  
HETATM    2  O   UNL     1      -7.807   8.039  68.743  1.00  0.00    -0.110 OA 
ENDROOT
BRANCH   2   3
HETATM    3  C   UNL     1      -7.940   9.377  68.434  1.00  0.00    -0.094 A  
HETATM    4  N   UNL     1      -6.942   9.945  67.719  1.00  0.00    -0.084 NA 
HETATM    5  C   UNL     1      -7.071  11.247  67.441  1.00  0.00    -0.109 A  
HETATM    6  N   UNL     1      -8.096  12.024  67.792  1.00  0.00    -0.139 NA 
HETATM    7  C   UNL     1      -9.043  11.417  68.521  1.00  0.00    -0.169 A  
HETATM    8  C   UNL     1      -9.045  10.076  68.895  1.00  0.00    -0.159 A  
BRANCH   7   9
HETATM    9  N   UNL     1     -10.084  12.304  68.903  1.00  0.00    -0.427 N  
HETATM   10  H   UNL     1     -10.004  12.911  69.720  1.00  0.00     0.000 HD 
BRANCH   9  11
HETATM   11  S   UNL     1     -11.457  12.298  67.929  1.00  0.00    -0.350 S  
HETATM   12  O   UNL     1     -11.994  13.643  67.984  1.00  0.00    -0.360 OA 
HETATM   13  O   UNL     1     -12.280  11.157  68.263  1.00  0.00    -0.613 OA 
BRANCH  11  14
HETATM   14  C   UNL     1     -10.813  12.074  66.288  1.00  0.00    -0.279 A  
HETATM   15  C   UNL     1     -10.563  13.183  65.477  1.00  0.00    -0.299 A  
HETATM   16  C   UNL     1     -10.036  12.994  64.195  1.00  0.00    -0.146 A  
HETATM   17  C   UNL     1      -9.796  11.708  63.702  1.00  0.00    -0.345 A  
HETATM   18  C   UNL     1      -9.974  10.615  64.557  1.00  0.00    -0.410 A  
HETATM   19  N   UNL     1      -9.170  11.536  62.461  1.00  0.00    -0.541 NA 
HETATM   20  H2  UNL     1      -8.287  12.046  62.473  1.00  0.00     0.000 HD 
HETATM   21  H1  UNL     1      -8.995  10.598  62.101  1.00  0.00     0.000 HD 
HETATM   22  C   UNL     1     -10.497  10.790  65.841  1.00  0.00    -0.270 A  
ENDBRANCH  11  14
ENDBRANCH   9  11
ENDBRANCH   7   9
BRANCH   8  23
HETATM   23  O   UNL     1     -10.087   9.651  69.669  1.00  0.00    -0.196 OA 
HETATM   24  C   UNL     1      -9.817   9.288  71.018  1.00  0.00    -0.285 C  
ENDBRANCH   8  23
ENDBRANCH   2   3
TORSDOF 5
ENDMDL
MODEL      201
REMARK 921   NORMALIZED FREE ENERGY PREDICTED BY IDOCK:   -3.63 KCAL/MOL
REMARK 922        TOTAL FREE ENERGY PREDICTED BY IDOCK:   -5.21 KCAL/MOL
REMARK 923 INTER-LIGAND FREE ENERGY PREDICTED BY IDOCK:   -4.75 KCAL/MOL
REMARK 924 INTRA-LIGAND FREE ENERGY PREDICTED BY IDOCK:   -0.46 KCAL/MOL
REMARK 927      BINDING AFFINITY PREDICTED BY RF-SCORE:    0.00 PKD
ROOT
HETATM    1  C   UNL     1     -11.864  14.840  64.531  1.00  0.00    -0.419 C  
HETATM    2  O   UNL     1     -10.785  14.141  65.143  1.00  0.00    -0.340 OA 
ENDROOT
BRANCH   2   3
HETATM    3  C   UNL     1     -11.143  13.364  66.225  1.00  0.00    -0.293 A  
HETATM    4  N   UNL     1     -11.703  13.998  67.279  1.00  0.00    -0.368 NA 
HETATM    5  C   UNL     1     -12.031  13.238  68.331  1.00  0.00    -0.301 A  
HETATM    6  N   UNL     1     -11.867  11.919  68.423  1.00  0.00    -0.416 NA 
HETATM    7  C   UNL     1     -11.284  11.344  67.360  1.00  0.00    -0.305 A  
HETATM    8  C   UNL     1     -10.883  12.002  66.201  1.00  0.00    -0.286 A  
BRANCH   7   9
HETATM    9  N   UNL     1     -11.096   9.948  67.536  1.00  0.00    -0.401 N  
HETATM   10  H   UNL     1     -11.678   9.260  67.058  1.00  0.00     0.000 HD 
BRANCH   9  11
HETATM   11  S   UNL     1      -9.855   9.494  68.579  1.00  0.00    -0.163 S  
HETATM   12  O   UNL     1     -10.499   9.049  69.799  1.00  0.00    -0.207 OA 
HETATM   13  O   UNL     1      -8.845  10.529  68.608  1.00  0.00    -0.132 OA 
BRANCH  11  14
HETATM   14  C   UNL     1      -9.164   8.047  67.812  1.00  0.00    -0.134 A  
HETATM   15  C   UNL     1      -7.985   8.143  67.070  1.00  0.00    -0.104 A  
HETATM   16  C   UNL     1      -7.441   6.993  66.489  1.00  0.00    -0.081 A  
HETATM   17  C   UNL     1      -8.084   5.758  66.609  1.00  0.00    -0.102 A  
HETATM   18  C   UNL     1      -9.217   5.664  67.424  1.00  0.00    -0.109 A  
HETATM   19  N   UNL     1      -7.475   4.597  66.115  1.00  0.00    -0.081 NA 
HETATM   20  H2  UNL     1      -6.548   4.518  66.533  1.00  0.00     0.000 HD 
HETATM   21  H1  UNL     1      -7.944   3.695  66.202  1.00  0.00     0.000 HD 
HETATM   22  C   UNL     1      -9.770   6.805  68.012  1.00  0.00    -0.130 A  
ENDBRANCH  11  14
ENDBRANCH   9  11
ENDBRANCH   7   9
BRANCH   8  23
HETATM   23  O   UNL     1     -10.275  11.245  65.240  1.00  0.00    -0.249 OA 
HETATM   24  C   UNL     1      -8.864  11.070  65.316  1.00  0.00    -0.129 C  
ENDBRANCH   8  23
ENDBRANCH   2   3
TORSDOF 5
ENDMDL
MODEL      202
REMARK 921   NORMALIZED FREE ENERGY PREDICTED BY IDOCK:   -3.58 KCAL/MOL
REMARK 922        TOTAL FREE ENERGY PREDICTED BY IDOCK:   -5.13 KCAL/MOL
REMARK 923 INTER-LIGAND FREE ENERGY PREDICTED BY IDOCK:   -4.73 KCAL/MOL
REMARK 924 INTRA-LIGAND FREE ENERGY PREDICTED BY IDOCK:   -0.40 KCAL/MOL
REMARK 927      BINDING AFFINITY PREDICTED BY RF-SCORE:    0.00 PKD
ROOT
HETATM    1  C   UNL     1     -12.043  13.050  63.240  1.00  0.00    -0.422 C  
HETATM    2  O   UNL     1     -12.034  13.418  64.616  1.00  0.00    -0.366 OA 
ENDROOT
BRANCH   2   3
HETATM    3  C   UNL     1     -11.135  12.717  65.392  1.00  0.00    -0.284 A  
HETATM    4  N   UNL     1     -10.185  12.007  64.742  1.00  0.00    -0.272 NA 
HETATM    5  C   UNL     1      -9.328  11.316  65.504  1.00  0.00    -0.221 A  
HETATM    6  N   UNL     1      -9.322  11.278  66.836  1.00  0.00    -0.175 NA 
HETATM    7  C   UNL     1     -10.301  11.979  67.428  1.00  0.00    -0.207 A  
HETATM    8  C   UNL     1     -11.266  12.738  66.772  1.00  0.00    -0.295 A  
BRANCH   7   9
HETATM    9  N   UNL     1     -10.269  11.863  68.843  1.00  0.00    -0.391 N  
HETATM   10  H   UNL     1      -9.755  12.523  69.428  1.00  0.00     0.000 HD 
BRANCH   9  11
HETATM   11  S   UNL     1     -11.129  10.573  69.499  1.00  0.00    -0.287 S  
HETATM   12  O   UNL     1     -12.223  10.312  68.584  1.00  0.00    -0.015 OA 
HETATM   13  O   UNL     1     -11.380  10.824  70.902  1.00  0.00    -0.186 OA 
BRANCH  11  14
HETATM   14  C   UNL     1     -10.009   9.200  69.359  1.00  0.00    -0.191 A  
HETATM   15  C   UNL     1     -10.347   8.099  68.570  1.00  0.00    -0.230 A  
HETATM   16  C   UNL     1      -9.447   7.035  68.452  1.00  0.00    -0.133 A  
HETATM   17  C   UNL     1      -8.234   7.042  69.146  1.00  0.00    -0.122 A  
HETATM   18  C   UNL     1      -7.876   8.188  69.864  1.00  0.00    -0.104 A  
HETATM   19  N   UNL     1      -7.297   6.023  68.936  1.00  0.00    -0.083 NA 
HETATM   20  H2  UNL     1      -7.096   5.972  67.937  1.00  0.00     0.000 HD 
HETATM   21  H1  UNL     1      -6.412   6.028  69.442  1.00  0.00     0.000 HD 
HETATM   22  C   UNL     1      -8.764   9.260  69.989  1.00  0.00    -0.208 A  
ENDBRANCH  11  14
ENDBRANCH   9  11
ENDBRANCH   7   9
BRANCH   8  23
HETATM   23  O   UNL     1     -12.202  13.354  67.552  1.00  0.00    -0.311 OA 
HETATM   24  C   UNL     1     -12.010  14.728  67.873  1.00  0.00    -0.227 C  
ENDBRANCH   8  23
ENDBRANCH   2   3
TORSDOF 5
ENDMDL
MODEL      203
REMARK 921   NORMALIZED FREE ENERGY PREDICTED BY IDOCK:   -3.56 KCAL/MOL
REMARK 922        TOTAL FREE ENERGY PREDICTED BY IDOCK:   -5.11 KCAL/MOL
REMARK 923 INTER-LIGAND FREE ENERGY PREDICTED BY IDOCK:   -4.61 KCAL/MOL
REMARK 924 INTRA-LIGAND FREE ENERGY PREDICTED BY IDOCK:   -0.50 KCAL/MOL
REMARK 927      BINDING AFFINITY PREDICTED BY RF-SCORE:    0.00 PKD
ROOT
HETATM    1  C   UNL     1     -12.474  12.072  63.541  1.00  0.00    -0.540 C  
HETATM    2  O   UNL     1     -11.924  12.412  64.810  1.00  0.00    -0.378 OA 
ENDROOT
BRANCH   2   3
HETATM    3  C   UNL     1     -10.896  11.593  65.228  1.00  0.00    -0.283 A  
HETATM    4  N   UNL     1      -9.960  11.263  64.309  1.00  0.00    -0.273 NA 
HETATM    5  C   UNL     1      -8.978  10.452  64.720  1.00  0.00    -0.202 A  
HETATM    6  N   UNL     1      -8.835   9.958  65.949  1.00  0.00    -0.143 NA 
HETATM    7  C   UNL     1      -9.804  10.296  66.813  1.00  0.00    -0.197 A  
HETATM    8  C   UNL     1     -10.889  11.121  66.531  1.00  0.00    -0.245 A  
BRANCH   7   9
HETATM    9  N   UNL     1      -9.621   9.703  68.090  1.00  0.00    -0.143 N  
HETATM   10  H   UNL     1      -9.141  10.190  68.847  1.00  0.00     0.000 HD 
BRANCH   9  11
HETATM   11  S   UNL     1     -10.243   8.151  68.281  1.00  0.00    -0.202 S  
HETATM   12  O   UNL     1     -10.893   7.821  67.028  1.00  0.00    -0.316 OA 
HETATM   13  O   UNL     1     -10.963   8.070  69.533  1.00  0.00    -0.179 OA 
BRANCH  11  14
HETATM   14  C   UNL     1      -8.796   7.124  68.390  1.00  0.00    -0.127 A  
HETATM   15  C   UNL     1      -8.448   6.290  67.326  1.00  0.00    -0.108 A  
HETATM   16  C   UNL     1      -7.295   5.503  67.416  1.00  0.00    -0.076 A  
HETATM   17  C   UNL     1      -6.512   5.510  68.574  1.00  0.00    -0.043 A  
HETATM   18  C   UNL     1      -6.830   6.411  69.597  1.00  0.00    -0.065 A  
HETATM   19  N   UNL     1      -5.306   4.801  68.612  1.00  0.00    -0.007 NA 
HETATM   20  H2  UNL     1      -4.727   5.110  67.831  1.00  0.00     0.000 HD 
HETATM   21  H1  UNL     1      -4.734   4.806  69.457  1.00  0.00     0.000 HD 
HETATM   22  C   UNL     1      -7.977   7.206  69.518  1.00  0.00    -0.128 A  
ENDBRANCH  11  14
ENDBRANCH   9  11
ENDBRANCH   7   9
BRANCH   8  23
HETATM   23  O   UNL     1     -11.791  11.321  67.538  1.00  0.00    -0.613 OA 
HETATM   24  C   UNL     1     -11.753  12.559  68.238  1.00  0.00    -0.340 C  
ENDBRANCH   8  23
ENDBRANCH   2   3
TORSDOF 5
ENDMDL
MODEL      204
REMARK 921   NORMALIZED FREE ENERGY PREDICTED BY IDOCK:   -3.54 KCAL/MOL
REMARK 922        TOTAL FREE ENERGY PREDICTED BY IDOCK:   -5.09 KCAL/MOL
REMARK 923 INTER-LIGAND FREE ENERGY PREDICTED BY IDOCK:   -4.52 KCAL/MOL
REMARK 924 INTRA-LIGAND FREE ENERGY PREDICTED BY IDOCK:   -0.57 KCAL/MOL
REMARK 927      BINDING AFFINITY PREDICTED BY RF-SCORE:    0.00 PKD
ROOT
HETATM    1  C   UNL     1      -9.876  11.967  66.696  1.00  0.00    -0.201 C  
HETATM    2  O   UNL     1      -9.410  11.963  68.042  1.00  0.00    -0.180 OA 
ENDROOT
BRANCH   2   3
HETATM    3  C   UNL     1     -10.252  11.340  68.940  1.00  0.00    -0.180 A  
HETATM    4  N   UNL     1     -11.423  11.958  69.214  1.00  0.00    -0.284 NA 
HETATM    5  C   UNL     1     -12.225  11.356  70.100  1.00  0.00    -0.321 A  
HETATM    6  N   UNL     1     -11.977  10.202  70.720  1.00  0.00    -0.322 NA 
HETATM    7  C   UNL     1     -10.792   9.646  70.431  1.00  0.00    -0.295 A  
HETATM    8  C   UNL     1      -9.852  10.156  69.539  1.00  0.00    -0.232 A  
BRANCH   7   9
HETATM    9  N   UNL     1     -10.567   8.446  71.155  1.00  0.00    -0.208 N  
HETATM   10  H   UNL     1      -9.942   8.410  71.962  1.00  0.00     0.000 HD 
BRANCH   9  11
HETATM   11  S   UNL     1     -11.391   7.084  70.606  1.00  0.00    -0.323 S  
HETATM   12  O   UNL     1     -11.280   7.104  69.160  1.00  0.00    -0.098 OA 
HETATM   13  O   UNL     1     -12.684   7.010  71.249  1.00  0.00    -0.377 OA 
BRANCH  11  14
HETATM   14  C   UNL     1     -10.394   5.727  71.174  1.00  0.00    -0.227 A  
HETATM   15  C   UNL     1     -10.318   5.437  72.538  1.00  0.00    -0.251 A  
HETATM   16  C   UNL     1      -9.546   4.353  72.969  1.00  0.00    -0.156 A  
HETATM   17  C   UNL     1      -8.819   3.583  72.057  1.00  0.00    -0.095 A  
HETATM   18  C   UNL     1      -8.973   3.836  70.689  1.00  0.00    -0.159 A  
HETATM   19  N   UNL     1      -8.138   2.438  72.488  1.00  0.00    -0.054 NA 
HETATM   20  H2  UNL     1      -8.803   1.829  72.965  1.00  0.00     0.000 HD 
HETATM   21  H1  UNL     1      -7.607   1.876  71.823  1.00  0.00     0.000 HD 
HETATM   22  C   UNL     1      -9.743   4.914  70.244  1.00  0.00    -0.287 A  
ENDBRANCH  11  14
ENDBRANCH   9  11
ENDBRANCH   7   9
BRANCH   8  23
HETATM   23  O   UNL     1      -8.686   9.458  69.405  1.00  0.00    -0.139 OA 
HETATM   24  C   UNL     1      -8.481   8.716  68.208  1.00  0.00    -0.131 C  
ENDBRANCH   8  23
ENDBRANCH   2   3
TORSDOF 5
ENDMDL
MODEL      205
REMARK 921   NORMALIZED FREE ENERGY PREDICTED BY IDOCK:   -3.50 KCAL/MOL
REMARK 922        TOTAL FREE ENERGY PREDICTED BY IDOCK:   -5.04 KCAL/MOL
REMARK 923 INTER-LIGAND FREE ENERGY PREDICTED BY IDOCK:   -4.77 KCAL/MOL
REMARK 924 INTRA-LIGAND FREE ENERGY PREDICTED BY IDOCK:   -0.26 KCAL/MOL
REMARK 927      BINDING AFFINITY PREDICTED BY RF-SCORE:    0.00 PKD
ROOT
HETATM    1  C   UNL     1     -10.071  16.141  67.143  1.00  0.00    -0.269 C  
HETATM    2  O   UNL     1      -9.183  15.052  66.911  1.00  0.00    -0.218 OA 
ENDROOT
BRANCH   2   3
HETATM    3  C   UNL     1      -9.805  13.845  66.669  1.00  0.00    -0.284 A  
HETATM    4  N   UNL     1     -11.117  13.884  66.344  1.00  0.00    -0.306 NA 
HETATM    5  C   UNL     1     -11.716  12.706  66.129  1.00  0.00    -0.406 A  
HETATM    6  N   UNL     1     -11.133  11.510  66.194  1.00  0.00    -0.279 NA 
HETATM    7  C   UNL     1      -9.838  11.528  66.545  1.00  0.00    -0.202 A  
HETATM    8  C   UNL     1      -9.084  12.669  66.806  1.00  0.00    -0.214 A  
BRANCH   7   9
HETATM    9  N   UNL     1      -9.286  10.224  66.641  1.00  0.00    -0.153 N  
HETATM   10  H   UNL     1      -8.783   9.791  65.865  1.00  0.00     0.000 HD 
BRANCH   9  11
HETATM   11  S   UNL     1      -9.509   9.431  68.109  1.00  0.00    -0.134 S  
HETATM   12  O   UNL     1     -10.818   9.832  68.587  1.00  0.00    -0.222 OA 
HETATM   13  O   UNL     1      -8.333   9.603  68.935  1.00  0.00    -0.108 OA 
BRANCH  11  14
HETATM   14  C   UNL     1      -9.637   7.718  67.652  1.00  0.00    -0.146 A  
HETATM   15  C   UNL     1     -10.822   7.228  67.098  1.00  0.00    -0.378 A  
HETATM   16  C   UNL     1     -10.902   5.883  66.724  1.00  0.00    -0.347 A  
HETATM   17  C   UNL     1      -9.826   5.015  66.935  1.00  0.00    -0.188 A  
HETATM   18  C   UNL     1      -8.621   5.540  67.414  1.00  0.00    -0.108 A  
HETATM   19  N   UNL     1      -9.880   3.699  66.459  1.00  0.00    -0.410 NA 
HETATM   20  H2  UNL     1     -10.079   3.727  65.459  1.00  0.00     0.000 HD 
HETATM   21  H1  UNL     1      -9.095   3.066  66.613  1.00  0.00     0.000 HD 
HETATM   22  C   UNL     1      -8.526   6.884  67.790  1.00  0.00    -0.123 A  
ENDBRANCH  11  14
ENDBRANCH   9  11
ENDBRANCH   7   9
BRANCH   8  23
HETATM   23  O   UNL     1      -7.785  12.478  67.183  1.00  0.00    -0.162 OA 
HETATM   24  C   UNL     1      -7.395  12.900  68.485  1.00  0.00    -0.115 C  
ENDBRANCH   8  23
ENDBRANCH   2   3
TORSDOF 5
ENDMDL
MODEL      206
REMARK 921   NORMALIZED FREE ENERGY PREDICTED BY IDOCK:   -3.50 KCAL/MOL
REMARK 922        TOTAL FREE ENERGY PREDICTED BY IDOCK:   -5.04 KCAL/MOL
REMARK 923 INTER-LIGAND FREE ENERGY PREDICTED BY IDOCK:   -4.39 KCAL/MOL
REMARK 924 INTRA-LIGAND FREE ENERGY PREDICTED BY IDOCK:   -0.64 KCAL/MOL
REMARK 927      BINDING AFFINITY PREDICTED BY RF-SCORE:    0.00 PKD
ROOT
HETATM    1  C   UNL     1      -9.092   4.588  64.514  1.00  0.00    -0.148 C  
HETATM    2  O   UNL     1      -8.516   5.885  64.643  1.00  0.00    -0.118 OA 
ENDROOT
BRANCH   2   3
HETATM    3  C   UNL     1      -8.275   6.280  65.942  1.00  0.00    -0.129 A  
HETATM    4  N   UNL     1      -7.777   5.348  66.786  1.00  0.00    -0.099 NA 
HETATM    5  C   UNL     1      -7.565   5.736  68.049  1.00  0.00    -0.085 A  
HETATM    6  N   UNL     1      -7.786   6.955  68.540  1.00  0.00    -0.116 NA 
HETATM    7  C   UNL     1      -8.304   7.832  67.668  1.00  0.00    -0.121 A  
HETATM    8  C   UNL     1      -8.586   7.575  66.329  1.00  0.00    -0.145 A  
BRANCH   7   9
HETATM    9  N   UNL     1      -8.560   9.097  68.260  1.00  0.00    -0.128 N  
HETATM   10  H   UNL     1      -7.948   9.899  68.106  1.00  0.00     0.000 HD 
BRANCH   9  11
HETATM   11  S   UNL     1      -9.931   9.196  69.231  1.00  0.00    -0.195 S  
HETATM   12  O   UNL     1      -9.451   9.401  70.584  1.00  0.00    -0.251 OA 
HETATM   13  O   UNL     1     -10.824   8.101  68.919  1.00  0.00    -0.115 OA 
BRANCH  11  14
HETATM   14  C   UNL     1     -10.699  10.718  68.728  1.00  0.00    -0.208 A  
HETATM   15  C   UNL     1     -11.405  11.487  69.656  1.00  0.00    -0.329 A  
HETATM   16  C   UNL     1     -11.987  12.692  69.251  1.00  0.00    -0.301 A  
HETATM   17  C   UNL     1     -11.906  13.115  67.921  1.00  0.00    -0.348 A  
HETATM   18  C   UNL     1     -11.127  12.376  67.025  1.00  0.00    -0.327 A  
HETATM   19  N   UNL     1     -12.399  14.373  67.552  1.00  0.00    -0.600 NA 
HETATM   20  H2  UNL     1     -11.955  15.077  68.141  1.00  0.00     0.000 HD 
HETATM   21  H1  UNL     1     -12.340  14.682  66.581  1.00  0.00     0.000 HD 
HETATM   22  C   UNL     1     -10.537  11.170  67.417  1.00  0.00    -0.272 A  
ENDBRANCH  11  14
ENDBRANCH   9  11
ENDBRANCH   7   9
BRANCH   8  23
HETATM   23  O   UNL     1      -9.144   8.592  65.608  1.00  0.00    -0.198 OA 
HETATM   24  C   UNL     1      -8.308   9.319  64.715  1.00  0.00    -0.162 C  
ENDBRANCH   8  23
ENDBRANCH   2   3
TORSDOF 5
ENDMDL
MODEL      207
REMARK 921   NORMALIZED FREE ENERGY PREDICTED BY IDOCK:   -3.49 KCAL/MOL
REMARK 922        TOTAL FREE ENERGY PREDICTED BY IDOCK:   -5.02 KCAL/MOL
REMARK 923 INTER-LIGAND FREE ENERGY PREDICTED BY IDOCK:   -4.35 KCAL/MOL
REMARK 924 INTRA-LIGAND FREE ENERGY PREDICTED BY IDOCK:   -0.67 KCAL/MOL
REMARK 927      BINDING AFFINITY PREDICTED BY RF-SCORE:    0.00 PKD
ROOT
HETATM    1  C   UNL     1     -13.994   8.640  72.253  1.00  0.00    -0.409 C  
HETATM    2  O   UNL     1     -13.665   7.689  71.245  1.00  0.00    -0.314 OA 
ENDROOT
BRANCH   2   3
HETATM    3  C   UNL     1     -12.414   7.124  71.375  1.00  0.00    -0.388 A  
HETATM    4  N   UNL     1     -12.283   6.119  72.271  1.00  0.00    -0.229 NA 
HETATM    5  C   UNL     1     -11.060   5.591  72.404  1.00  0.00    -0.256 A  
HETATM    6  N   UNL     1      -9.973   5.955  71.725  1.00  0.00    -0.164 NA 
HETATM    7  C   UNL     1     -10.154   6.972  70.869  1.00  0.00    -0.193 A  
HETATM    8  C   UNL     1     -11.359   7.626  70.628  1.00  0.00    -0.272 A  
BRANCH   7   9
HETATM    9  N   UNL     1      -8.952   7.343  70.210  1.00  0.00    -0.147 N  
HETATM   10  H   UNL     1      -8.699   6.969  69.295  1.00  0.00     0.000 HD 
BRANCH   9  11
HETATM   11  S   UNL     1      -7.967   8.437  71.028  1.00  0.00    -0.118 S  
HETATM   12  O   UNL     1      -6.720   7.744  71.281  1.00  0.00    -0.044 OA 
HETATM   13  O   UNL     1      -8.712   9.042  72.111  1.00  0.00    -0.368 OA 
BRANCH  11  14
HETATM   14  C   UNL     1      -7.618   9.686  69.812  1.00  0.00    -0.123 A  
HETATM   15  C   UNL     1      -6.714  10.711  70.100  1.00  0.00    -0.143 A  
HETATM   16  C   UNL     1      -6.433  11.674  69.126  1.00  0.00    -0.095 A  
HETATM   17  C   UNL     1      -7.076  11.648  67.885  1.00  0.00    -0.081 A  
HETATM   18  C   UNL     1      -7.915  10.569  67.584  1.00  0.00    -0.106 A  
HETATM   19  N   UNL     1      -6.708  12.553  66.883  1.00  0.00    -0.427 NA 
HETATM   20  H2  UNL     1      -5.703  12.468  66.726  1.00  0.00     0.000 HD 
HETATM   21  H1  UNL     1      -7.177  12.534  65.977  1.00  0.00     0.000 HD 
HETATM   22  C   UNL     1      -8.203   9.597  68.547  1.00  0.00    -0.105 A  
ENDBRANCH  11  14
ENDBRANCH   9  11
ENDBRANCH   7   9
BRANCH   8  23
HETATM   23  O   UNL     1     -11.332   8.663  69.741  1.00  0.00    -0.066 OA 
HETATM   24  C   UNL     1     -11.441   9.987  70.252  1.00  0.00    -0.300 C  
ENDBRANCH   8  23
ENDBRANCH   2   3
TORSDOF 5
ENDMDL
MODEL      208
REMARK 921   NORMALIZED FREE ENERGY PREDICTED BY IDOCK:   -3.49 KCAL/MOL
REMARK 922        TOTAL FREE ENERGY PREDICTED BY IDOCK:   -5.01 KCAL/MOL
REMARK 923 INTER-LIGAND FREE ENERGY PREDICTED BY IDOCK:   -4.53 KCAL/MOL
REMARK 924 INTRA-LIGAND FREE ENERGY PREDICTED BY IDOCK:   -0.48 KCAL/MOL
REMARK 927      BINDING AFFINITY PREDICTED BY RF-SCORE:    0.00 PKD
ROOT
HETATM    1  C   UNL     1      -6.101  14.507  68.268  1.00  0.00    -0.118 C  
HETATM    2  O   UNL     1      -6.581  13.625  67.257  1.00  0.00    -0.254 OA 
ENDROOT
BRANCH   2   3
HETATM    3  C   UNL     1      -7.639  12.830  67.645  1.00  0.00    -0.152 A  
HETATM    4  N   UNL     1      -8.802  13.454  67.939  1.00  0.00    -0.184 NA 
HETATM    5  C   UNL     1      -9.817  12.675  68.332  1.00  0.00    -0.200 A  
HETATM    6  N   UNL     1      -9.786  11.347  68.444  1.00  0.00    -0.198 NA 
HETATM    7  C   UNL     1      -8.602  10.782  68.164  1.00  0.00    -0.129 A  
HETATM    8  C   UNL     1      -7.457  11.459  67.752  1.00  0.00    -0.100 A  
BRANCH   7   9
HETATM    9  N   UNL     1      -8.618   9.374  68.345  1.00  0.00    -0.123 N  
HETATM   10  H   UNL     1      -8.849   8.735  67.584  1.00  0.00     0.000 HD 
BRANCH   9  11
HETATM   11  S   UNL     1      -8.235   8.821  69.888  1.00  0.00    -0.125 S  
HETATM   12  O   UNL     1      -7.932  10.001  70.674  1.00  0.00    -0.203 OA 
HETATM   13  O   UNL     1      -7.288   7.732  69.790  1.00  0.00    -0.076 OA 
BRANCH  11  14
HETATM   14  C   UNL     1      -9.775   8.182  70.504  1.00  0.00    -0.174 A  
HETATM   15  C   UNL     1     -10.368   7.075  69.893  1.00  0.00    -0.225 A  
HETATM   16  C   UNL     1     -11.569   6.569  70.401  1.00  0.00    -0.470 A  
HETATM   17  C   UNL     1     -12.203   7.182  71.485  1.00  0.00    -0.360 A  
HETATM   18  C   UNL     1     -11.554   8.237  72.136  1.00  0.00    -0.428 A  
HETATM   19  N   UNL     1     -13.346   6.604  72.051  1.00  0.00    -0.470 NA 
HETATM   20  H2  UNL     1     -13.126   5.643  72.309  1.00  0.00     0.000 HD 
HETATM   21  H1  UNL     1     -13.809   7.052  72.842  1.00  0.00     0.000 HD 
HETATM   22  C   UNL     1     -10.352   8.751  71.641  1.00  0.00    -0.391 A  
ENDBRANCH  11  14
ENDBRANCH   9  11
ENDBRANCH   7   9
BRANCH   8  23
HETATM   23  O   UNL     1      -6.335  10.708  67.548  1.00  0.00    -0.056 OA 
HETATM   24  C   UNL     1      -5.922  10.468  66.207  1.00  0.00    -0.094 C  
ENDBRANCH   8  23
ENDBRANCH   2   3
TORSDOF 5
ENDMDL
MODEL      209
REMARK 921   NORMALIZED FREE ENERGY PREDICTED BY IDOCK:   -3.45 KCAL/MOL
REMARK 922        TOTAL FREE ENERGY PREDICTED BY IDOCK:   -4.96 KCAL/MOL
REMARK 923 INTER-LIGAND FREE ENERGY PREDICTED BY IDOCK:   -4.61 KCAL/MOL
REMARK 924 INTRA-LIGAND FREE ENERGY PREDICTED BY IDOCK:   -0.35 KCAL/MOL
REMARK 927      BINDING AFFINITY PREDICTED BY RF-SCORE:    0.00 PKD
ROOT
HETATM    1  C   UNL     1      -6.180   7.342  68.498  1.00  0.00    -0.035 C  
HETATM    2  O   UNL     1      -6.997   7.737  67.399  1.00  0.00    -0.074 OA 
ENDROOT
BRANCH   2   3
HETATM    3  C   UNL     1      -7.378   9.062  67.415  1.00  0.00    -0.084 A  
HETATM    4  N   UNL     1      -6.859   9.863  66.458  1.00  0.00    -0.083 NA 
HETATM    5  C   UNL     1      -7.220  11.151  66.493  1.00  0.00    -0.124 A  
HETATM    6  N   UNL     1      -8.053  11.705  67.374  1.00  0.00    -0.145 NA 
HETATM    7  C   UNL     1      -8.518  10.872  68.316  1.00  0.00    -0.134 A  
HETATM    8  C   UNL     1      -8.227   9.514  68.414  1.00  0.00    -0.113 A  
BRANCH   7   9
HETATM    9  N   UNL     1      -9.362  11.529  69.250  1.00  0.00    -0.339 N  
HETATM   10  H   UNL     1      -9.031  11.807  70.175  1.00  0.00     0.000 HD 
BRANCH   9  11
HETATM   11  S   UNL     1     -10.940  11.823  68.744  1.00  0.00    -0.248 S  
HETATM   12  O   UNL     1     -11.684  12.181  69.935  1.00  0.00    -0.314 OA 
HETATM   13  O   UNL     1     -11.383  10.741  67.891  1.00  0.00    -0.323 OA 
BRANCH  11  14
HETATM   14  C   UNL     1     -10.804  13.300  67.765  1.00  0.00    -0.252 A  
HETATM   15  C   UNL     1     -11.288  13.318  66.455  1.00  0.00    -0.341 A  
HETATM   16  C   UNL     1     -11.193  14.494  65.703  1.00  0.00    -0.335 A  
HETATM   17  C   UNL     1     -10.584  15.635  66.231  1.00  0.00    -0.307 A  
HETATM   18  C   UNL     1     -10.180  15.625  67.571  1.00  0.00    -0.263 A  
HETATM   19  N   UNL     1     -10.591  16.835  65.509  1.00  0.00    -0.535 NA 
HETATM   20  H2  UNL     1     -11.557  17.064  65.277  1.00  0.00     0.000 HD 
HETATM   21  H1  UNL     1     -10.147  17.668  65.895  1.00  0.00     0.000 HD 
HETATM   22  C   UNL     1     -10.272  14.457  68.335  1.00  0.00    -0.243 A  
ENDBRANCH  11  14
ENDBRANCH   9  11
ENDBRANCH   7   9
BRANCH   8  23
HETATM   23  O   UNL     1      -8.774   8.839  69.468  1.00  0.00    -0.133 OA 
HETATM   24  C   UNL     1      -9.918   8.028  69.225  1.00  0.00    -0.191 C  
ENDBRANCH   8  23
ENDBRANCH   2   3
TORSDOF 5
ENDMDL
MODEL      210
REMARK 921   NORMALIZED FREE ENERGY PREDICTED BY IDOCK:   -3.44 KCAL/MOL
REMARK 922        TOTAL FREE ENERGY PREDICTED BY IDOCK:   -4.96 KCAL/MOL
REMARK 923 INTER-LIGAND FREE ENERGY PREDICTED BY IDOCK:   -4.60 KCAL/MOL
REMARK 924 INTRA-LIGAND FREE ENERGY PREDICTED BY IDOCK:   -0.36 KCAL/MOL
REMARK 927      BINDING AFFINITY PREDICTED BY RF-SCORE:    0.00 PKD
ROOT
HETATM    1  C   UNL     1     -10.886  11.492  68.873  1.00  0.00    -0.218 C  
HETATM    2  O   UNL     1      -9.978  10.793  68.027  1.00  0.00    -0.159 OA 
ENDROOT
BRANCH   2   3
HETATM    3  C   UNL     1      -9.125   9.933  68.687  1.00  0.00    -0.132 A  
HETATM    4  N   UNL     1      -8.056  10.482  69.306  1.00  0.00    -0.155 NA 
HETATM    5  C   UNL     1      -7.225   9.637  69.928  1.00  0.00    -0.106 A  
HETATM    6  N   UNL     1      -7.366   8.314  70.000  1.00  0.00    -0.062 NA 
HETATM    7  C   UNL     1      -8.428   7.820  69.347  1.00  0.00    -0.134 A  
HETATM    8  C   UNL     1      -9.373   8.569  68.653  1.00  0.00    -0.142 A  
BRANCH   7   9
HETATM    9  N   UNL     1      -8.498   6.404  69.423  1.00  0.00    -0.125 N  
HETATM   10  H   UNL     1      -8.304   5.810  68.617  1.00  0.00     0.000 HD 
BRANCH   9  11
HETATM   11  S   UNL     1      -8.922   5.763  70.921  1.00  0.00    -0.146 S  
HETATM   12  O   UNL     1      -7.828   6.080  71.817  1.00  0.00    -0.100 OA 
HETATM   13  O   UNL     1      -9.371   4.398  70.752  1.00  0.00    -0.130 OA 
BRANCH  11  14
HETATM   14  C   UNL     1     -10.304   6.757  71.433  1.00  0.00    -0.202 A  
HETATM   15  C   UNL     1     -11.582   6.486  70.940  1.00  0.00    -0.417 A  
HETATM   16  C   UNL     1     -12.664   7.263  71.368  1.00  0.00    -0.427 A  
HETATM   17  C   UNL     1     -12.474   8.332  72.248  1.00  0.00    -0.335 A  
HETATM   18  C   UNL     1     -11.203   8.537  72.795  1.00  0.00    -0.071 A  
HETATM   19  N   UNL     1     -13.577   9.033  72.751  1.00  0.00    -0.845 NA 
HETATM   20  H2  UNL     1     -14.211   8.364  73.189  1.00  0.00     0.000 HD 
HETATM   21  H1  UNL     1     -13.439   9.813  73.394  1.00  0.00     0.000 HD 
HETATM   22  C   UNL     1     -10.113   7.766  72.379  1.00  0.00    -0.284 A  
ENDBRANCH  11  14
ENDBRANCH   9  11
ENDBRANCH   7   9
BRANCH   8  23
HETATM   23  O   UNL     1     -10.368   7.877  68.023  1.00  0.00    -0.203 OA 
HETATM   24  C   UNL     1     -10.270   7.693  66.615  1.00  0.00    -0.202 C  
ENDBRANCH   8  23
ENDBRANCH   2   3
TORSDOF 5
ENDMDL
MODEL      211
REMARK 921   NORMALIZED FREE ENERGY PREDICTED BY IDOCK:   -3.41 KCAL/MOL
REMARK 922        TOTAL FREE ENERGY PREDICTED BY IDOCK:   -4.91 KCAL/MOL
REMARK 923 INTER-LIGAND FREE ENERGY PREDICTED BY IDOCK:   -5.33 KCAL/MOL
REMARK 924 INTRA-LIGAND FREE ENERGY PREDICTED BY IDOCK:    0.42 KCAL/MOL
REMARK 927      BINDING AFFINITY PREDICTED BY RF-SCORE:    0.00 PKD
ROOT
HETATM    1  C   UNL     1     -13.077  12.190  71.381  1.00  0.00    -0.187 C  
HETATM    2  O   UNL     1     -11.925  12.999  71.155  1.00  0.00    -0.039 OA 
ENDROOT
BRANCH   2   3
HETATM    3  C   UNL     1     -11.902  13.635  69.932  1.00  0.00    -0.320 A  
HETATM    4  N   UNL     1     -11.867  14.987  69.942  1.00  0.00    -0.303 NA 
HETATM    5  C   UNL     1     -11.863  15.594  68.749  1.00  0.00    -0.321 A  
HETATM    6  N   UNL     1     -11.876  14.988  67.563  1.00  0.00    -0.259 NA 
HETATM    7  C   UNL     1     -11.936  13.649  67.611  1.00  0.00    -0.351 A  
HETATM    8  C   UNL     1     -11.954  12.879  68.770  1.00  0.00    -0.253 A  
BRANCH   7   9
HETATM    9  N   UNL     1     -11.993  13.064  66.319  1.00  0.00    -0.410 N  
HETATM   10  H   UNL     1     -12.728  12.406  66.055  1.00  0.00     0.000 HD 
BRANCH   9  11
HETATM   11  S   UNL     1     -10.776  13.516  65.247  1.00  0.00    -0.339 S  
HETATM   12  O   UNL     1     -11.115  14.851  64.795  1.00  0.00    -0.391 OA 
HETATM   13  O   UNL     1     -10.546  12.448  64.299  1.00  0.00    -0.313 OA 
BRANCH  11  14
HETATM   14  C   UNL     1      -9.339  13.679  66.280  1.00  0.00    -0.133 A  
HETATM   15  C   UNL     1      -8.746  12.544  66.839  1.00  0.00    -0.182 A  
HETATM   16  C   UNL     1      -7.603  12.685  67.633  1.00  0.00    -0.152 A  
HETATM   17  C   UNL     1      -7.073  13.949  67.907  1.00  0.00    -0.163 A  
HETATM   18  C   UNL     1      -7.629  15.065  67.273  1.00  0.00    -0.227 A  
HETATM   19  N   UNL     1      -5.869  14.068  68.613  1.00  0.00    -0.081 NA 
HETATM   20  H2  UNL     1      -5.158  13.518  68.131  1.00  0.00     0.000 HD 
HETATM   21  H1  UNL     1      -5.482  14.990  68.813  1.00  0.00     0.000 HD 
HETATM   22  C   UNL     1      -8.770  14.939  66.474  1.00  0.00    -0.204 A  
ENDBRANCH  11  14
ENDBRANCH   9  11
ENDBRANCH   7   9
BRANCH   8  23
HETATM   23  O   UNL     1     -12.052  11.526  68.612  1.00  0.00    -0.483 OA 
HETATM   24  C   UNL     1     -10.866  10.748  68.735  1.00  0.00    -0.221 C  
ENDBRANCH   8  23
ENDBRANCH   2   3
TORSDOF 5
ENDMDL
MODEL      212
REMARK 921   NORMALIZED FREE ENERGY PREDICTED BY IDOCK:   -3.40 KCAL/MOL
REMARK 922        TOTAL FREE ENERGY PREDICTED BY IDOCK:   -4.90 KCAL/MOL
REMARK 923 INTER-LIGAND FREE ENERGY PREDICTED BY IDOCK:   -4.52 KCAL/MOL
REMARK 924 INTRA-LIGAND FREE ENERGY PREDICTED BY IDOCK:   -0.38 KCAL/MOL
REMARK 927      BINDING AFFINITY PREDICTED BY RF-SCORE:    0.00 PKD
ROOT
HETATM    1  C   UNL     1      -8.362   3.633  67.938  1.00  0.00    -0.092 C  
HETATM    2  O   UNL     1      -8.897   4.650  68.780  1.00  0.00    -0.095 OA 
ENDROOT
BRANCH   2   3
HETATM    3  C   UNL     1      -9.405   5.742  68.109  1.00  0.00    -0.109 A  
HETATM    4  N   UNL     1     -10.597   5.585  67.490  1.00  0.00    -0.207 NA 
HETATM    5  C   UNL     1     -11.073   6.645  66.826  1.00  0.00    -0.123 A  
HETATM    6  N   UNL     1     -10.484   7.837  66.734  1.00  0.00    -0.308 NA 
HETATM    7  C   UNL     1      -9.293   7.931  67.344  1.00  0.00    -0.141 A  
HETATM    8  C   UNL     1      -8.669   6.916  68.064  1.00  0.00    -0.125 A  
BRANCH   7   9
HETATM    9  N   UNL     1      -8.697   9.208  67.172  1.00  0.00    -0.123 N  
HETATM   10  H   UNL     1      -8.627   9.879  67.937  1.00  0.00     0.000 HD 
BRANCH   9  11
HETATM   11  S   UNL     1      -8.111   9.550  65.631  1.00  0.00    -0.115 S  
HETATM   12  O   UNL     1      -8.271   8.333  64.861  1.00  0.00    -0.146 OA 
HETATM   13  O   UNL     1      -6.821  10.197  65.737  1.00  0.00    -0.103 OA 
BRANCH  11  14
HETATM   14  C   UNL     1      -9.282  10.720  64.982  1.00  0.00    -0.211 A  
HETATM   15  C   UNL     1     -10.059  11.488  65.852  1.00  0.00    -0.271 A  
HETATM   16  C   UNL     1     -10.961  12.420  65.328  1.00  0.00    -0.335 A  
HETATM   17  C   UNL     1     -11.124  12.561  63.947  1.00  0.00    -0.423 A  
HETATM   18  C   UNL     1     -10.279  11.844  63.092  1.00  0.00    -0.334 A  
HETATM   19  N   UNL     1     -11.949  13.570  63.435  1.00  0.00    -0.795 NA 
HETATM   20  H2  UNL     1     -11.639  14.464  63.816  1.00  0.00     0.000 HD 
HETATM   21  H1  UNL     1     -12.068  13.673  62.427  1.00  0.00     0.000 HD 
HETATM   22  C   UNL     1      -9.371  10.912  63.602  1.00  0.00    -0.285 A  
ENDBRANCH  11  14
ENDBRANCH   9  11
ENDBRANCH   7   9
BRANCH   8  23
HETATM   23  O   UNL     1      -7.437   7.196  68.584  1.00  0.00    -0.097 OA 
HETATM   24  C   UNL     1      -7.361   7.608  69.944  1.00  0.00    -0.081 C  
ENDBRANCH   8  23
ENDBRANCH   2   3
TORSDOF 5
ENDMDL
MODEL      213
REMARK 921   NORMALIZED FREE ENERGY PREDICTED BY IDOCK:   -3.38 KCAL/MOL
REMARK 922        TOTAL FREE ENERGY PREDICTED BY IDOCK:   -4.88 KCAL/MOL
REMARK 923 INTER-LIGAND FREE ENERGY PREDICTED BY IDOCK:   -4.39 KCAL/MOL
REMARK 924 INTRA-LIGAND FREE ENERGY PREDICTED BY IDOCK:   -0.49 KCAL/MOL
REMARK 927      BINDING AFFINITY PREDICTED BY RF-SCORE:    0.00 PKD
ROOT
HETATM    1  C   UNL     1     -12.371  12.188  63.558  1.00  0.00    -0.574 C  
HETATM    2  O   UNL     1     -10.996  12.156  63.928  1.00  0.00    -0.329 OA 
ENDROOT
BRANCH   2   3
HETATM    3  C   UNL     1     -10.733  11.483  65.103  1.00  0.00    -0.289 A  
HETATM    4  N   UNL     1     -11.589  11.682  66.130  1.00  0.00    -0.382 NA 
HETATM    5  C   UNL     1     -11.315  11.039  67.271  1.00  0.00    -0.188 A  
HETATM    6  N   UNL     1     -10.288  10.215  67.477  1.00  0.00    -0.214 NA 
HETATM    7  C   UNL     1      -9.456  10.074  66.434  1.00  0.00    -0.186 A  
HETATM    8  C   UNL     1      -9.605  10.681  65.190  1.00  0.00    -0.251 A  
BRANCH   7   9
HETATM    9  N   UNL     1      -8.359   9.222  66.728  1.00  0.00    -0.122 N  
HETATM   10  H   UNL     1      -7.471   9.586  67.075  1.00  0.00     0.000 HD 
BRANCH   9  11
HETATM   11  S   UNL     1      -8.609   7.577  66.471  1.00  0.00    -0.138 S  
HETATM   12  O   UNL     1      -7.293   6.991  66.314  1.00  0.00    -0.073 OA 
HETATM   13  O   UNL     1      -9.627   7.396  65.459  1.00  0.00     0.410 OA 
BRANCH  11  14
HETATM   14  C   UNL     1      -9.243   6.996  68.026  1.00  0.00    -0.129 A  
HETATM   15  C   UNL     1     -10.575   6.589  68.131  1.00  0.00    -0.307 A  
HETATM   16  C   UNL     1     -11.056   6.115  69.356  1.00  0.00    -0.479 A  
HETATM   17  C   UNL     1     -10.232   6.081  70.484  1.00  0.00    -0.206 A  
HETATM   18  C   UNL     1      -8.880   6.414  70.342  1.00  0.00    -0.151 A  
HETATM   19  N   UNL     1     -10.692   5.505  71.675  1.00  0.00    -0.245 NA 
HETATM   20  H2  UNL     1     -10.999   4.554  71.473  1.00  0.00     0.000 HD 
HETATM   21  H1  UNL     1     -10.090   5.481  72.499  1.00  0.00     0.000 HD 
HETATM   22  C   UNL     1      -8.386   6.888  69.123  1.00  0.00    -0.125 A  
ENDBRANCH  11  14
ENDBRANCH   9  11
ENDBRANCH   7   9
BRANCH   8  23
HETATM   23  O   UNL     1      -8.631  10.439  64.264  1.00  0.00    -0.180 OA 
HETATM   24  C   UNL     1      -8.948   9.595  63.162  1.00  0.00    -0.232 C  
ENDBRANCH   8  23
ENDBRANCH   2   3
TORSDOF 5
ENDMDL
MODEL      214
REMARK 921   NORMALIZED FREE ENERGY PREDICTED BY IDOCK:   -3.37 KCAL/MOL
REMARK 922        TOTAL FREE ENERGY PREDICTED BY IDOCK:   -4.86 KCAL/MOL
REMARK 923 INTER-LIGAND FREE ENERGY PREDICTED BY IDOCK:   -4.16 KCAL/MOL
REMARK 924 INTRA-LIGAND FREE ENERGY PREDICTED BY IDOCK:   -0.70 KCAL/MOL
REMARK 927      BINDING AFFINITY PREDICTED BY RF-SCORE:    0.00 PKD
ROOT
HETATM    1  C   UNL     1     -13.320   8.913  72.045  1.00  0.00    -0.421 C  
HETATM    2  O   UNL     1     -12.600   8.071  71.149  1.00  0.00    -0.268 OA 
ENDROOT
BRANCH   2   3
HETATM    3  C   UNL     1     -11.373   7.649  71.619  1.00  0.00    -0.251 A  
HETATM    4  N   UNL     1     -10.796   8.395  72.588  1.00  0.00    -0.310 NA 
HETATM    5  C   UNL     1      -9.598   7.988  73.023  1.00  0.00    -0.277 A  
HETATM    6  N   UNL     1      -8.936   6.912  72.598  1.00  0.00    -0.128 NA 
HETATM    7  C   UNL     1      -9.541   6.224  71.618  1.00  0.00    -0.154 A  
HETATM    8  C   UNL     1     -10.780   6.528  71.060  1.00  0.00    -0.243 A  
BRANCH   7   9
HETATM    9  N   UNL     1      -8.768   5.119  71.176  1.00  0.00    -0.128 N  
HETATM   10  H   UNL     1      -8.907   4.179  71.548  1.00  0.00     0.000 HD 
BRANCH   9  11
HETATM   11  S   UNL     1      -7.606   5.449  70.004  1.00  0.00    -0.070 S  
HETATM   12  O   UNL     1      -6.374   4.852  70.479  1.00  0.00    -0.024 OA 
HETATM   13  O   UNL     1      -7.662   6.851  69.650  1.00  0.00    -0.105 OA 
BRANCH  11  14
HETATM   14  C   UNL     1      -8.130   4.488  68.604  1.00  0.00    -0.081 A  
HETATM   15  C   UNL     1      -8.802   3.279  68.797  1.00  0.00    -0.165 A  
HETATM   16  C   UNL     1      -9.228   2.543  67.686  1.00  0.00    -0.225 A  
HETATM   17  C   UNL     1      -8.953   2.981  66.388  1.00  0.00    -0.152 A  
HETATM   18  C   UNL     1      -8.353   4.233  66.213  1.00  0.00    -0.108 A  
HETATM   19  N   UNL     1      -9.476   2.292  65.287  1.00  0.00    -0.339 NA 
HETATM   20  H2  UNL     1     -10.488   2.230  65.398  1.00  0.00     0.000 HD 
HETATM   21  H1  UNL     1      -9.275   2.612  64.339  1.00  0.00     0.000 HD 
HETATM   22  C   UNL     1      -7.925   4.981  67.314  1.00  0.00    -0.099 A  
ENDBRANCH  11  14
ENDBRANCH   9  11
ENDBRANCH   7   9
BRANCH   8  23
HETATM   23  O   UNL     1     -11.213   5.723  70.045  1.00  0.00    -0.335 OA 
HETATM   24  C   UNL     1     -11.171   6.234  68.718  1.00  0.00    -0.273 C  
ENDBRANCH   8  23
ENDBRANCH   2   3
TORSDOF 5
ENDMDL
MODEL      215
REMARK 921   NORMALIZED FREE ENERGY PREDICTED BY IDOCK:   -3.36 KCAL/MOL
REMARK 922        TOTAL FREE ENERGY PREDICTED BY IDOCK:   -4.86 KCAL/MOL
REMARK 923 INTER-LIGAND FREE ENERGY PREDICTED BY IDOCK:   -4.76 KCAL/MOL
REMARK 924 INTRA-LIGAND FREE ENERGY PREDICTED BY IDOCK:   -0.10 KCAL/MOL
REMARK 927      BINDING AFFINITY PREDICTED BY RF-SCORE:    0.00 PKD
ROOT
HETATM    1  C   UNL     1      -9.814  10.215  67.448  1.00  0.00    -0.187 C  
HETATM    2  O   UNL     1      -9.643  10.935  68.665  1.00  0.00    -0.176 OA 
ENDROOT
BRANCH   2   3
HETATM    3  C   UNL     1      -9.285  10.158  69.747  1.00  0.00    -0.144 A  
HETATM    4  N   UNL     1      -7.962   9.999  69.978  1.00  0.00    -0.176 NA 
HETATM    5  C   UNL     1      -7.625   9.228  71.019  1.00  0.00    -0.059 A  
HETATM    6  N   UNL     1      -8.473   8.620  71.848  1.00  0.00    -0.285 NA 
HETATM    7  C   UNL     1      -9.771   8.790  71.558  1.00  0.00    -0.291 A  
HETATM    8  C   UNL     1     -10.274   9.554  70.508  1.00  0.00    -0.287 A  
BRANCH   7   9
HETATM    9  N   UNL     1     -10.621   8.083  72.448  1.00  0.00    -0.281 N  
HETATM   10  H   UNL     1     -11.162   8.559  73.171  1.00  0.00     0.000 HD 
BRANCH   9  11
HETATM   11  S   UNL     1     -10.686   6.414  72.241  1.00  0.00    -0.232 S  
HETATM   12  O   UNL     1     -12.070   6.036  72.452  1.00  0.00    -0.280 OA 
HETATM   13  O   UNL     1      -9.623   5.791  73.000  1.00  0.00    -0.150 OA 
BRANCH  11  14
HETATM   14  C   UNL     1     -10.356   6.188  70.509  1.00  0.00    -0.215 A  
HETATM   15  C   UNL     1     -11.390   6.303  69.578  1.00  0.00    -0.475 A  
HETATM   16  C   UNL     1     -11.112   6.143  68.216  1.00  0.00    -0.336 A  
HETATM   17  C   UNL     1      -9.822   5.829  67.781  1.00  0.00    -0.126 A  
HETATM   18  C   UNL     1      -8.783   5.799  68.718  1.00  0.00    -0.108 A  
HETATM   19  N   UNL     1      -9.535   5.778  66.411  1.00  0.00    -0.155 NA 
HETATM   20  H2  UNL     1      -9.808   6.667  65.992  1.00  0.00     0.000 HD 
HETATM   21  H1  UNL     1      -8.593   5.549  66.093  1.00  0.00     0.000 HD 
HETATM   22  C   UNL     1      -9.046   5.960  70.082  1.00  0.00    -0.155 A  
ENDBRANCH  11  14
ENDBRANCH   9  11
ENDBRANCH   7   9
BRANCH   8  23
HETATM   23  O   UNL     1     -11.631   9.577  70.356  1.00  0.00    -0.258 OA 
HETATM   24  C   UNL     1     -12.331  10.753  70.747  1.00  0.00    -0.383 C  
ENDBRANCH   8  23
ENDBRANCH   2   3
TORSDOF 5
ENDMDL
MODEL      216
REMARK 921   NORMALIZED FREE ENERGY PREDICTED BY IDOCK:   -3.34 KCAL/MOL
REMARK 922        TOTAL FREE ENERGY PREDICTED BY IDOCK:   -4.83 KCAL/MOL
REMARK 923 INTER-LIGAND FREE ENERGY PREDICTED BY IDOCK:   -4.33 KCAL/MOL
REMARK 924 INTRA-LIGAND FREE ENERGY PREDICTED BY IDOCK:   -0.50 KCAL/MOL
REMARK 927      BINDING AFFINITY PREDICTED BY RF-SCORE:    0.00 PKD
ROOT
HETATM    1  C   UNL     1      -9.843  10.520  65.357  1.00  0.00    -0.274 C  
HETATM    2  O   UNL     1     -10.113  10.649  66.749  1.00  0.00    -0.207 OA 
ENDROOT
BRANCH   2   3
HETATM    3  C   UNL     1      -9.971   9.483  67.472  1.00  0.00    -0.186 A  
HETATM    4  N   UNL     1     -10.652   8.400  67.033  1.00  0.00    -0.300 NA 
HETATM    5  C   UNL     1     -10.522   7.279  67.752  1.00  0.00    -0.228 A  
HETATM    6  N   UNL     1      -9.774   7.134  68.846  1.00  0.00    -0.145 NA 
HETATM    7  C   UNL     1      -9.141   8.244  69.251  1.00  0.00    -0.151 A  
HETATM    8  C   UNL     1      -9.186   9.482  68.615  1.00  0.00    -0.135 A  
BRANCH   7   9
HETATM    9  N   UNL     1      -8.399   8.039  70.444  1.00  0.00    -0.118 N  
HETATM   10  H   UNL     1      -7.420   7.754  70.429  1.00  0.00     0.000 HD 
BRANCH   9  11
HETATM   11  S   UNL     1      -9.231   8.293  71.886  1.00  0.00    -0.231 S  
HETATM   12  O   UNL     1     -10.407   9.067  71.541  1.00  0.00    -0.291 OA 
HETATM   13  O   UNL     1      -8.309   8.756  72.900  1.00  0.00    -0.414 OA 
BRANCH  11  14
HETATM   14  C   UNL     1      -9.803   6.671  72.337  1.00  0.00    -0.158 A  
HETATM   15  C   UNL     1      -8.891   5.626  72.496  1.00  0.00    -0.130 A  
HETATM   16  C   UNL     1      -9.353   4.360  72.871  1.00  0.00    -0.146 A  
HETATM   17  C   UNL     1     -10.719   4.120  73.049  1.00  0.00    -0.173 A  
HETATM   18  C   UNL     1     -11.609   5.196  72.967  1.00  0.00    -0.301 A  
HETATM   19  N   UNL     1     -11.158   2.880  73.527  1.00  0.00    -0.219 NA 
HETATM   20  H2  UNL     1     -10.681   2.688  74.408  1.00  0.00     0.000 HD 
HETATM   21  H1  UNL     1     -12.155   2.704  73.657  1.00  0.00     0.000 HD 
HETATM   22  C   UNL     1     -11.160   6.468  72.595  1.00  0.00    -0.291 A  
ENDBRANCH  11  14
ENDBRANCH   9  11
ENDBRANCH   7   9
BRANCH   8  23
HETATM   23  O   UNL     1      -8.497  10.504  69.203  1.00  0.00    -0.146 OA 
HETATM   24  C   UNL     1      -7.244  10.879  68.644  1.00  0.00    -0.088 C  
ENDBRANCH   8  23
ENDBRANCH   2   3
TORSDOF 5
ENDMDL
MODEL      217
REMARK 921   NORMALIZED FREE ENERGY PREDICTED BY IDOCK:   -3.33 KCAL/MOL
REMARK 922        TOTAL FREE ENERGY PREDICTED BY IDOCK:   -4.82 KCAL/MOL
REMARK 923 INTER-LIGAND FREE ENERGY PREDICTED BY IDOCK:   -5.40 KCAL/MOL
REMARK 924 INTRA-LIGAND FREE ENERGY PREDICTED BY IDOCK:    0.58 KCAL/MOL
REMARK 927      BINDING AFFINITY PREDICTED BY RF-SCORE:    0.00 PKD
ROOT
HETATM    1  C   UNL     1      -7.808   5.411  69.813  1.00  0.00    -0.081 C  
HETATM    2  O   UNL     1      -8.032   6.301  70.903  1.00  0.00    -0.108 OA 
ENDROOT
BRANCH   2   3
HETATM    3  C   UNL     1      -9.287   6.871  70.931  1.00  0.00    -0.157 A  
HETATM    4  N   UNL     1     -10.344   6.039  70.782  1.00  0.00    -0.213 NA 
HETATM    5  C   UNL     1     -11.557   6.605  70.792  1.00  0.00    -0.376 A  
HETATM    6  N   UNL     1     -11.812   7.903  70.948  1.00  0.00    -0.267 NA 
HETATM    7  C   UNL     1     -10.729   8.685  71.066  1.00  0.00    -0.228 A  
HETATM    8  C   UNL     1      -9.408   8.245  71.066  1.00  0.00    -0.162 A  
BRANCH   7   9
HETATM    9  N   UNL     1     -11.064  10.059  71.184  1.00  0.00    -0.289 N  
HETATM   10  H   UNL     1     -10.595  10.675  71.849  1.00  0.00     0.000 HD 
BRANCH   9  11
HETATM   11  S   UNL     1     -12.281  10.615  70.162  1.00  0.00    -0.304 S  
HETATM   12  O   UNL     1     -13.532  10.198  70.764  1.00  0.00    -0.311 OA 
HETATM   13  O   UNL     1     -11.962  10.264  68.795  1.00  0.00    -0.125 OA 
BRANCH  11  14
HETATM   14  C   UNL     1     -12.201  12.383  70.328  1.00  0.00    -0.267 A  
HETATM   15  C   UNL     1     -12.818  13.013  71.411  1.00  0.00    -0.385 A  
HETATM   16  C   UNL     1     -12.729  14.403  71.541  1.00  0.00    -0.417 A  
HETATM   17  C   UNL     1     -12.066  15.171  70.579  1.00  0.00    -0.343 A  
HETATM   18  C   UNL     1     -11.384  14.517  69.547  1.00  0.00    -0.313 A  
HETATM   19  N   UNL     1     -11.892  16.547  70.776  1.00  0.00    -0.402 NA 
HETATM   20  H2  UNL     1     -11.430  16.687  71.674  1.00  0.00     0.000 HD 
HETATM   21  H1  UNL     1     -11.409  17.108  70.074  1.00  0.00     0.000 HD 
HETATM   22  C   UNL     1     -11.462  13.129  69.407  1.00  0.00    -0.321 A  
ENDBRANCH  11  14
ENDBRANCH   9  11
ENDBRANCH   7   9
BRANCH   8  23
HETATM   23  O   UNL     1      -8.438   9.203  71.164  1.00  0.00    -0.239 OA 
HETATM   24  C   UNL     1      -7.087   8.778  71.303  1.00  0.00    -0.092 C  
ENDBRANCH   8  23
ENDBRANCH   2   3
TORSDOF 5
ENDMDL
MODEL      218
REMARK 921   NORMALIZED FREE ENERGY PREDICTED BY IDOCK:   -3.30 KCAL/MOL
REMARK 922        TOTAL FREE ENERGY PREDICTED BY IDOCK:   -4.78 KCAL/MOL
REMARK 923 INTER-LIGAND FREE ENERGY PREDICTED BY IDOCK:   -4.26 KCAL/MOL
REMARK 924 INTRA-LIGAND FREE ENERGY PREDICTED BY IDOCK:   -0.52 KCAL/MOL
REMARK 927      BINDING AFFINITY PREDICTED BY RF-SCORE:    0.00 PKD
ROOT
HETATM    1  C   UNL     1      -8.987  13.423  66.911  1.00  0.00    -0.209 C  
HETATM    2  O   UNL     1      -8.969  12.067  66.476  1.00  0.00    -0.206 OA 
ENDROOT
BRANCH   2   3
HETATM    3  C   UNL     1      -8.031  11.275  67.104  1.00  0.00    -0.151 A  
HETATM    4  N   UNL     1      -6.749  11.705  67.081  1.00  0.00    -0.129 NA 
HETATM    5  C   UNL     1      -5.844  10.920  67.677  1.00  0.00    -0.043 A  
HETATM    6  N   UNL     1      -6.096   9.767  68.297  1.00  0.00    -0.050 NA 
HETATM    7  C   UNL     1      -7.378   9.376  68.267  1.00  0.00    -0.078 A  
HETATM    8  C   UNL     1      -8.427  10.078  67.682  1.00  0.00    -0.114 A  
BRANCH   7   9
HETATM    9  N   UNL     1      -7.575   8.122  68.904  1.00  0.00    -0.096 N  
HETATM   10  H   UNL     1      -7.632   7.251  68.375  1.00  0.00     0.000 HD 
BRANCH   9  11
HETATM   11  S   UNL     1      -7.712   8.156  70.581  1.00  0.00    -0.089 S  
HETATM   12  O   UNL     1      -7.338   9.497  70.987  1.00  0.00    -0.283 OA 
HETATM   13  O   UNL     1      -7.050   7.000  71.144  1.00  0.00    -0.071 OA 
BRANCH  11  14
HETATM   14  C   UNL     1      -9.460   8.007  70.868  1.00  0.00    -0.161 A  
HETATM   15  C   UNL     1     -10.208   7.066  70.157  1.00  0.00    -0.206 A  
HETATM   16  C   UNL     1     -11.578   6.944  70.408  1.00  0.00    -0.385 A  
HETATM   17  C   UNL     1     -12.215   7.780  71.330  1.00  0.00    -0.303 A  
HETATM   18  C   UNL     1     -11.437   8.658  72.092  1.00  0.00    -0.443 A  
HETATM   19  N   UNL     1     -13.563   7.577  71.650  1.00  0.00    -0.402 NA 
HETATM   20  H2  UNL     1     -13.678   6.611  71.957  1.00  0.00     0.000 HD 
HETATM   21  H1  UNL     1     -14.028   8.186  72.323  1.00  0.00     0.000 HD 
HETATM   22  C   UNL     1     -10.065   8.788  71.854  1.00  0.00    -0.409 A  
ENDBRANCH  11  14
ENDBRANCH   9  11
ENDBRANCH   7   9
BRANCH   8  23
HETATM   23  O   UNL     1      -9.662   9.496  67.727  1.00  0.00    -0.141 OA 
HETATM   24  C   UNL     1     -10.090   8.743  66.598  1.00  0.00    -0.288 C  
ENDBRANCH   8  23
ENDBRANCH   2   3
TORSDOF 5
ENDMDL
MODEL      219
REMARK 921   NORMALIZED FREE ENERGY PREDICTED BY IDOCK:   -3.30 KCAL/MOL
REMARK 922        TOTAL FREE ENERGY PREDICTED BY IDOCK:   -4.77 KCAL/MOL
REMARK 923 INTER-LIGAND FREE ENERGY PREDICTED BY IDOCK:   -5.35 KCAL/MOL
REMARK 924 INTRA-LIGAND FREE ENERGY PREDICTED BY IDOCK:    0.59 KCAL/MOL
REMARK 927      BINDING AFFINITY PREDICTED BY RF-SCORE:    0.00 PKD
ROOT
HETATM    1  C   UNL     1      -6.790   7.797  69.873  1.00  0.00    -0.049 C  
HETATM    2  O   UNL     1      -8.046   7.825  69.202  1.00  0.00    -0.120 OA 
ENDROOT
BRANCH   2   3
HETATM    3  C   UNL     1      -8.290   8.981  68.490  1.00  0.00    -0.124 A  
HETATM    4  N   UNL     1      -7.749   9.068  67.254  1.00  0.00    -0.095 NA 
HETATM    5  C   UNL     1      -7.977  10.202  66.579  1.00  0.00    -0.118 A  
HETATM    6  N   UNL     1      -8.696  11.237  67.010  1.00  0.00    -0.147 NA 
HETATM    7  C   UNL     1      -9.188  11.108  68.251  1.00  0.00    -0.169 A  
HETATM    8  C   UNL     1      -9.030   9.998  69.075  1.00  0.00    -0.163 A  
BRANCH   7   9
HETATM    9  N   UNL     1      -9.905  12.260  68.671  1.00  0.00    -0.381 N  
HETATM   10  H   UNL     1      -9.455  13.020  69.183  1.00  0.00     0.000 HD 
BRANCH   9  11
HETATM   11  S   UNL     1     -11.541  12.298  68.274  1.00  0.00    -0.347 S  
HETATM   12  O   UNL     1     -11.972  10.916  68.214  1.00  0.00    -0.561 OA 
HETATM   13  O   UNL     1     -11.745  13.188  67.152  1.00  0.00    -0.339 OA 
BRANCH  11  14
HETATM   14  C   UNL     1     -12.309  13.009  69.711  1.00  0.00    -0.078 A  
HETATM   15  C   UNL     1     -12.624  12.203  70.808  1.00  0.00    -0.305 A  
HETATM   16  C   UNL     1     -13.209  12.779  71.940  1.00  0.00    -0.511 A  
HETATM   17  C   UNL     1     -13.520  14.141  71.971  1.00  0.00    -0.431 A  
HETATM   18  C   UNL     1     -13.123  14.948  70.898  1.00  0.00    -0.430 A  
HETATM   19  N   UNL     1     -14.006  14.725  73.147  1.00  0.00    -0.364 NA 
HETATM   20  H2  UNL     1     -13.346  14.529  73.900  1.00  0.00     0.000 HD 
HETATM   21  H1  UNL     1     -14.233  15.720  73.170  1.00  0.00     0.000 HD 
HETATM   22  C   UNL     1     -12.535  14.386  69.761  1.00  0.00    -0.262 A  
ENDBRANCH  11  14
ENDBRANCH   9  11
ENDBRANCH   7   9
BRANCH   8  23
HETATM   23  O   UNL     1      -9.580  10.071  70.324  1.00  0.00    -0.196 OA 
HETATM   24  C   UNL     1      -9.085   9.193  71.328  1.00  0.00    -0.162 C  
ENDBRANCH   8  23
ENDBRANCH   2   3
TORSDOF 5
ENDMDL
MODEL      220
REMARK 921   NORMALIZED FREE ENERGY PREDICTED BY IDOCK:   -3.28 KCAL/MOL
REMARK 922        TOTAL FREE ENERGY PREDICTED BY IDOCK:   -4.75 KCAL/MOL
REMARK 923 INTER-LIGAND FREE ENERGY PREDICTED BY IDOCK:   -4.20 KCAL/MOL
REMARK 924 INTRA-LIGAND FREE ENERGY PREDICTED BY IDOCK:   -0.55 KCAL/MOL
REMARK 927      BINDING AFFINITY PREDICTED BY RF-SCORE:    0.00 PKD
ROOT
HETATM    1  C   UNL     1      -5.362   4.022  67.978  1.00  0.00    -0.012 C  
HETATM    2  O   UNL     1      -6.652   3.784  67.423  1.00  0.00    -0.040 OA 
ENDROOT
BRANCH   2   3
HETATM    3  C   UNL     1      -7.645   3.563  68.354  1.00  0.00    -0.056 A  
HETATM    4  N   UNL     1      -7.729   2.321  68.881  1.00  0.00    -0.043 NA 
HETATM    5  C   UNL     1      -8.708   2.112  69.769  1.00  0.00    -0.067 A  
HETATM    6  N   UNL     1      -9.592   3.018  70.186  1.00  0.00    -0.134 NA 
HETATM    7  C   UNL     1      -9.480   4.225  69.612  1.00  0.00    -0.188 A  
HETATM    8  C   UNL     1      -8.522   4.590  68.671  1.00  0.00    -0.085 A  
BRANCH   7   9
HETATM    9  N   UNL     1     -10.475   5.132  70.062  1.00  0.00    -0.283 N  
HETATM   10  H   UNL     1     -11.270   5.395  69.479  1.00  0.00     0.000 HD 
BRANCH   9  11
HETATM   11  S   UNL     1     -10.267   5.749  71.615  1.00  0.00    -0.210 S  
HETATM   12  O   UNL     1      -8.844   5.980  71.767  1.00  0.00    -0.138 OA 
HETATM   13  O   UNL     1     -10.991   4.928  72.561  1.00  0.00    -0.202 OA 
BRANCH  11  14
HETATM   14  C   UNL     1     -11.038   7.349  71.543  1.00  0.00    -0.239 A  
HETATM   15  C   UNL     1     -12.334   7.524  72.034  1.00  0.00    -0.305 A  
HETATM   16  C   UNL     1     -12.921   8.793  71.990  1.00  0.00    -0.437 A  
HETATM   17  C   UNL     1     -12.243   9.876  71.424  1.00  0.00    -0.408 A  
HETATM   18  C   UNL     1     -10.917   9.701  71.013  1.00  0.00    -0.431 A  
HETATM   19  N   UNL     1     -12.797  11.161  71.482  1.00  0.00    -0.440 NA 
HETATM   20  H2  UNL     1     -12.996  11.381  72.458  1.00  0.00     0.000 HD 
HETATM   21  H1  UNL     1     -12.303  11.952  71.069  1.00  0.00     0.000 HD 
HETATM   22  C   UNL     1     -10.317   8.439  71.053  1.00  0.00    -0.244 A  
ENDBRANCH  11  14
ENDBRANCH   9  11
ENDBRANCH   7   9
BRANCH   8  23
HETATM   23  O   UNL     1      -8.593   5.862  68.177  1.00  0.00    -0.114 OA 
HETATM   24  C   UNL     1      -9.256   6.063  66.934  1.00  0.00    -0.126 C  
ENDBRANCH   8  23
ENDBRANCH   2   3
TORSDOF 5
ENDMDL
MODEL      221
REMARK 921   NORMALIZED FREE ENERGY PREDICTED BY IDOCK:   -3.27 KCAL/MOL
REMARK 922        TOTAL FREE ENERGY PREDICTED BY IDOCK:   -4.74 KCAL/MOL
REMARK 923 INTER-LIGAND FREE ENERGY PREDICTED BY IDOCK:   -4.76 KCAL/MOL
REMARK 924 INTRA-LIGAND FREE ENERGY PREDICTED BY IDOCK:    0.03 KCAL/MOL
REMARK 927      BINDING AFFINITY PREDICTED BY RF-SCORE:    0.00 PKD
ROOT
HETATM    1  C   UNL     1      -8.115   7.058  64.192  1.00  0.00    -0.029 C  
HETATM    2  O   UNL     1      -7.689   8.320  63.688  1.00  0.00    -0.130 OA 
ENDROOT
BRANCH   2   3
HETATM    3  C   UNL     1      -8.497   9.382  64.038  1.00  0.00    -0.195 A  
HETATM    4  N   UNL     1      -9.391   9.804  63.115  1.00  0.00    -0.200 NA 
HETATM    5  C   UNL     1     -10.158  10.846  63.458  1.00  0.00    -0.347 A  
HETATM    6  N   UNL     1     -10.127  11.489  64.625  1.00  0.00    -0.257 NA 
HETATM    7  C   UNL     1      -9.206  11.046  65.493  1.00  0.00    -0.213 A  
HETATM    8  C   UNL     1      -8.335   9.981  65.278  1.00  0.00    -0.154 A  
BRANCH   7   9
HETATM    9  N   UNL     1      -9.191  11.797  66.697  1.00  0.00    -0.193 N  
HETATM   10  H   UNL     1      -8.356  12.289  67.017  1.00  0.00     0.000 HD 
BRANCH   9  11
HETATM   11  S   UNL     1     -10.632  11.830  67.567  1.00  0.00    -0.223 S  
HETATM   12  O   UNL     1     -11.609  11.133  66.753  1.00  0.00    -0.381 OA 
HETATM   13  O   UNL     1     -10.883  13.175  68.036  1.00  0.00    -0.230 OA 
BRANCH  11  14
HETATM   14  C   UNL     1     -10.304  10.790  68.970  1.00  0.00    -0.215 A  
HETATM   15  C   UNL     1      -9.052  10.190  69.120  1.00  0.00    -0.189 A  
HETATM   16  C   UNL     1      -8.801   9.390  70.240  1.00  0.00    -0.269 A  
HETATM   17  C   UNL     1      -9.800   9.152  71.188  1.00  0.00    -0.301 A  
HETATM   18  C   UNL     1     -11.019   9.826  71.066  1.00  0.00    -0.402 A  
HETATM   19  N   UNL     1      -9.504   8.439  72.356  1.00  0.00    -0.280 NA 
HETATM   20  H2  UNL     1      -8.721   8.897  72.823  1.00  0.00     0.000 HD 
HETATM   21  H1  UNL     1     -10.233   8.265  73.049  1.00  0.00     0.000 HD 
HETATM   22  C   UNL     1     -11.283  10.630  69.953  1.00  0.00    -0.378 A  
ENDBRANCH  11  14
ENDBRANCH   9  11
ENDBRANCH   7   9
BRANCH   8  23
HETATM   23  O   UNL     1      -7.442   9.702  66.274  1.00  0.00    -0.096 OA 
HETATM   24  C   UNL     1      -6.152  10.298  66.205  1.00  0.00    -0.082 C  
ENDBRANCH   8  23
ENDBRANCH   2   3
TORSDOF 5
ENDMDL
MODEL      222
REMARK 921   NORMALIZED FREE ENERGY PREDICTED BY IDOCK:   -3.27 KCAL/MOL
REMARK 922        TOTAL FREE ENERGY PREDICTED BY IDOCK:   -4.74 KCAL/MOL
REMARK 923 INTER-LIGAND FREE ENERGY PREDICTED BY IDOCK:   -4.42 KCAL/MOL
REMARK 924 INTRA-LIGAND FREE ENERGY PREDICTED BY IDOCK:   -0.32 KCAL/MOL
REMARK 927      BINDING AFFINITY PREDICTED BY RF-SCORE:    0.00 PKD
ROOT
HETATM    1  C   UNL     1      -7.273   9.975  63.713  1.00  0.00    -0.128 C  
HETATM    2  O   UNL     1      -8.034  10.577  64.755  1.00  0.00    -0.135 OA 
ENDROOT
BRANCH   2   3
HETATM    3  C   UNL     1      -8.657   9.683  65.601  1.00  0.00    -0.136 A  
HETATM    4  N   UNL     1      -8.383   8.372  65.421  1.00  0.00    -0.150 NA 
HETATM    5  C   UNL     1      -9.007   7.512  66.234  1.00  0.00    -0.167 A  
HETATM    6  N   UNL     1      -9.858   7.834  67.208  1.00  0.00    -0.172 NA 
HETATM    7  C   UNL     1     -10.114   9.145  67.326  1.00  0.00    -0.233 A  
HETATM    8  C   UNL     1      -9.550  10.155  66.552  1.00  0.00    -0.187 A  
BRANCH   7   9
HETATM    9  N   UNL     1     -11.060   9.421  68.348  1.00  0.00    -0.478 N  
HETATM   10  H   UNL     1     -12.052   9.550  68.146  1.00  0.00     0.000 HD 
BRANCH   9  11
HETATM   11  S   UNL     1     -10.450   9.525  69.914  1.00  0.00    -0.259 S  
HETATM   12  O   UNL     1     -11.535  10.025  70.735  1.00  0.00    -0.303 OA 
HETATM   13  O   UNL     1      -9.168  10.196  69.889  1.00  0.00    -0.192 OA 
BRANCH  11  14
HETATM   14  C   UNL     1     -10.196   7.830  70.384  1.00  0.00    -0.197 A  
HETATM   15  C   UNL     1     -11.208   6.889  70.183  1.00  0.00    -0.361 A  
HETATM   16  C   UNL     1     -10.987   5.554  70.538  1.00  0.00    -0.196 A  
HETATM   17  C   UNL     1      -9.783   5.160  71.129  1.00  0.00    -0.174 A  
HETATM   18  C   UNL     1      -8.751   6.098  71.246  1.00  0.00    -0.132 A  
HETATM   19  N   UNL     1      -9.533   3.805  71.381  1.00  0.00    -0.143 NA 
HETATM   20  H2  UNL     1      -9.647   3.290  70.508  1.00  0.00     0.000 HD 
HETATM   21  H1  UNL     1      -8.654   3.517  71.811  1.00  0.00     0.000 HD 
HETATM   22  C   UNL     1      -8.957   7.435  70.892  1.00  0.00    -0.149 A  
ENDBRANCH  11  14
ENDBRANCH   9  11
ENDBRANCH   7   9
BRANCH   8  23
HETATM   23  O   UNL     1      -9.965  11.432  66.804  1.00  0.00    -0.202 OA 
HETATM   24  C   UNL     1     -11.105  11.918  66.104  1.00  0.00    -0.326 C  
ENDBRANCH   8  23
ENDBRANCH   2   3
TORSDOF 5
ENDMDL
MODEL      223
REMARK 921   NORMALIZED FREE ENERGY PREDICTED BY IDOCK:   -3.26 KCAL/MOL
REMARK 922        TOTAL FREE ENERGY PREDICTED BY IDOCK:   -4.73 KCAL/MOL
REMARK 923 INTER-LIGAND FREE ENERGY PREDICTED BY IDOCK:   -6.40 KCAL/MOL
REMARK 924 INTRA-LIGAND FREE ENERGY PREDICTED BY IDOCK:    1.68 KCAL/MOL
REMARK 927      BINDING AFFINITY PREDICTED BY RF-SCORE:    0.00 PKD
ROOT
HETATM    1  C   UNL     1      -8.240  18.339  66.081  1.00  0.00    -0.139 C  
HETATM    2  O   UNL     1      -9.639  18.235  66.329  1.00  0.00    -0.378 OA 
ENDROOT
BRANCH   2   3
HETATM    3  C   UNL     1     -10.196  17.022  65.982  1.00  0.00    -0.325 A  
HETATM    4  N   UNL     1     -11.052  17.016  64.936  1.00  0.00    -0.743 NA 
HETATM    5  C   UNL     1     -11.601  15.837  64.618  1.00  0.00    -0.218 A  
HETATM    6  N   UNL     1     -11.369  14.677  65.230  1.00  0.00    -0.341 NA 
HETATM    7  C   UNL     1     -10.532  14.744  66.276  1.00  0.00    -0.296 A  
HETATM    8  C   UNL     1      -9.891  15.894  66.729  1.00  0.00    -0.244 A  
BRANCH   7   9
HETATM    9  N   UNL     1     -10.359  13.487  66.912  1.00  0.00    -0.263 N  
HETATM   10  H   UNL     1      -9.672  13.347  67.654  1.00  0.00     0.000 HD 
BRANCH   9  11
HETATM   11  S   UNL     1     -11.354  12.241  66.373  1.00  0.00    -0.370 S  
HETATM   12  O   UNL     1     -12.273  12.842  65.426  1.00  0.00    -0.444 OA 
HETATM   13  O   UNL     1     -11.845  11.489  67.507  1.00  0.00    -0.605 OA 
BRANCH  11  14
HETATM   14  C   UNL     1     -10.261  11.202  65.432  1.00  0.00    -0.271 A  
HETATM   15  C   UNL     1      -9.925  11.545  64.121  1.00  0.00    -0.327 A  
HETATM   16  C   UNL     1      -9.047  10.729  63.399  1.00  0.00    -0.244 A  
HETATM   17  C   UNL     1      -8.536   9.555  63.960  1.00  0.00    -0.207 A  
HETATM   18  C   UNL     1      -8.818   9.271  65.300  1.00  0.00    -0.237 A  
HETATM   19  N   UNL     1      -7.577   8.805  63.268  1.00  0.00    -0.108 NA 
HETATM   20  H2  UNL     1      -6.795   9.418  63.037  1.00  0.00     0.000 HD 
HETATM   21  H1  UNL     1      -7.204   7.948  63.677  1.00  0.00     0.000 HD 
HETATM   22  C   UNL     1      -9.691  10.079  66.035  1.00  0.00    -0.301 A  
ENDBRANCH  11  14
ENDBRANCH   9  11
ENDBRANCH   7   9
BRANCH   8  23
HETATM   23  O   UNL     1      -9.100  15.766  67.835  1.00  0.00    -0.184 OA 
HETATM   24  C   UNL     1      -7.816  15.172  67.676  1.00  0.00    -0.160 C  
ENDBRANCH   8  23
ENDBRANCH   2   3
TORSDOF 5
ENDMDL
MODEL      224
REMARK 921   NORMALIZED FREE ENERGY PREDICTED BY IDOCK:   -3.25 KCAL/MOL
REMARK 922        TOTAL FREE ENERGY PREDICTED BY IDOCK:   -4.71 KCAL/MOL
REMARK 923 INTER-LIGAND FREE ENERGY PREDICTED BY IDOCK:   -4.23 KCAL/MOL
REMARK 924 INTRA-LIGAND FREE ENERGY PREDICTED BY IDOCK:   -0.48 KCAL/MOL
REMARK 927      BINDING AFFINITY PREDICTED BY RF-SCORE:    0.00 PKD
ROOT
HETATM    1  C   UNL     1      -8.434   4.424  62.946  1.00  0.00    -0.101 C  
HETATM    2  O   UNL     1      -7.632   5.430  63.558  1.00  0.00    -0.056 OA 
ENDROOT
BRANCH   2   3
HETATM    3  C   UNL     1      -7.861   5.603  64.908  1.00  0.00    -0.110 A  
HETATM    4  N   UNL     1      -7.826   4.497  65.684  1.00  0.00    -0.094 NA 
HETATM    5  C   UNL     1      -8.068   4.674  66.989  1.00  0.00    -0.102 A  
HETATM    6  N   UNL     1      -8.323   5.837  67.586  1.00  0.00    -0.105 NA 
HETATM    7  C   UNL     1      -8.371   6.897  66.766  1.00  0.00    -0.116 A  
HETATM    8  C   UNL     1      -8.150   6.870  65.392  1.00  0.00    -0.133 A  
BRANCH   7   9
HETATM    9  N   UNL     1      -8.691   8.098  67.452  1.00  0.00    -0.124 N  
HETATM   10  H   UNL     1      -7.973   8.687  67.875  1.00  0.00     0.000 HD 
BRANCH   9  11
HETATM   11  S   UNL     1     -10.326   8.494  67.528  1.00  0.00    -0.268 S  
HETATM   12  O   UNL     1     -11.025   7.454  66.800  1.00  0.00    -0.249 OA 
HETATM   13  O   UNL     1     -10.502   9.888  67.182  1.00  0.00    -0.230 OA 
BRANCH  11  14
HETATM   14  C   UNL     1     -10.736   8.278  69.244  1.00  0.00    -0.128 A  
HETATM   15  C   UNL     1     -11.285   7.072  69.686  1.00  0.00    -0.222 A  
HETATM   16  C   UNL     1     -11.584   6.908  71.042  1.00  0.00    -0.374 A  
HETATM   17  C   UNL     1     -11.379   7.949  71.952  1.00  0.00    -0.276 A  
HETATM   18  C   UNL     1     -10.752   9.119  71.507  1.00  0.00    -0.437 A  
HETATM   19  N   UNL     1     -11.580   7.737  73.321  1.00  0.00    -0.606 NA 
HETATM   20  H2  UNL     1     -11.012   6.941  73.610  1.00  0.00     0.000 HD 
HETATM   21  H1  UNL     1     -11.430   8.497  73.985  1.00  0.00     0.000 HD 
HETATM   22  C   UNL     1     -10.445   9.295  70.155  1.00  0.00    -0.265 A  
ENDBRANCH  11  14
ENDBRANCH   9  11
ENDBRANCH   7   9
BRANCH   8  23
HETATM   23  O   UNL     1      -8.277   8.054  64.722  1.00  0.00    -0.149 OA 
HETATM   24  C   UNL     1      -7.092   8.704  64.277  1.00  0.00    -0.089 C  
ENDBRANCH   8  23
ENDBRANCH   2   3
TORSDOF 5
ENDMDL
MODEL      225
REMARK 921   NORMALIZED FREE ENERGY PREDICTED BY IDOCK:   -3.25 KCAL/MOL
REMARK 922        TOTAL FREE ENERGY PREDICTED BY IDOCK:   -4.71 KCAL/MOL
REMARK 923 INTER-LIGAND FREE ENERGY PREDICTED BY IDOCK:   -4.07 KCAL/MOL
REMARK 924 INTRA-LIGAND FREE ENERGY PREDICTED BY IDOCK:   -0.64 KCAL/MOL
REMARK 927      BINDING AFFINITY PREDICTED BY RF-SCORE:    0.00 PKD
ROOT
HETATM    1  C   UNL     1      -9.812   4.067  64.478  1.00  0.00    -0.186 C  
HETATM    2  O   UNL     1      -8.569   4.401  65.090  1.00  0.00    -0.119 OA 
ENDROOT
BRANCH   2   3
HETATM    3  C   UNL     1      -8.398   5.745  65.345  1.00  0.00    -0.142 A  
HETATM    4  N   UNL     1      -8.156   6.547  64.283  1.00  0.00    -0.092 NA 
HETATM    5  C   UNL     1      -7.973   7.847  64.543  1.00  0.00    -0.140 A  
HETATM    6  N   UNL     1      -8.020   8.417  65.746  1.00  0.00    -0.103 NA 
HETATM    7  C   UNL     1      -8.236   7.573  66.766  1.00  0.00    -0.124 A  
HETATM    8  C   UNL     1      -8.438   6.201  66.654  1.00  0.00    -0.116 A  
BRANCH   7   9
HETATM    9  N   UNL     1      -8.231   8.232  68.023  1.00  0.00    -0.127 N  
HETATM   10  H   UNL     1      -7.424   8.200  68.647  1.00  0.00     0.000 HD 
BRANCH   9  11
HETATM   11  S   UNL     1      -9.635   9.070  68.427  1.00  0.00    -0.155 S  
HETATM   12  O   UNL     1     -10.666   8.577  67.535  1.00  0.00    -0.248 OA 
HETATM   13  O   UNL     1      -9.345  10.484  68.515  1.00  0.00    -0.154 OA 
BRANCH  11  14
HETATM   14  C   UNL     1     -10.036   8.469  70.051  1.00  0.00    -0.188 A  
HETATM   15  C   UNL     1      -9.296   8.893  71.157  1.00  0.00    -0.326 A  
HETATM   16  C   UNL     1      -9.635   8.428  72.431  1.00  0.00    -0.373 A  
HETATM   17  C   UNL     1     -10.679   7.515  72.606  1.00  0.00    -0.303 A  
HETATM   18  C   UNL     1     -11.461   7.166  71.500  1.00  0.00    -0.298 A  
HETATM   19  N   UNL     1     -11.077   7.141  73.895  1.00  0.00    -0.389 NA 
HETATM   20  H2  UNL     1     -11.299   7.986  74.421  1.00  0.00     0.000 HD 
HETATM   21  H1  UNL     1     -11.839   6.474  74.024  1.00  0.00     0.000 HD 
HETATM   22  C   UNL     1     -11.135   7.624  70.221  1.00  0.00    -0.256 A  
ENDBRANCH  11  14
ENDBRANCH   9  11
ENDBRANCH   7   9
BRANCH   8  23
HETATM   23  O   UNL     1      -8.609   5.505  67.817  1.00  0.00    -0.109 OA 
HETATM   24  C   UNL     1      -9.913   5.023  68.125  1.00  0.00    -0.128 C  
ENDBRANCH   8  23
ENDBRANCH   2   3
TORSDOF 5
ENDMDL
MODEL      226
REMARK 921   NORMALIZED FREE ENERGY PREDICTED BY IDOCK:   -3.22 KCAL/MOL
REMARK 922        TOTAL FREE ENERGY PREDICTED BY IDOCK:   -4.68 KCAL/MOL
REMARK 923 INTER-LIGAND FREE ENERGY PREDICTED BY IDOCK:   -4.16 KCAL/MOL
REMARK 924 INTRA-LIGAND FREE ENERGY PREDICTED BY IDOCK:   -0.52 KCAL/MOL
REMARK 927      BINDING AFFINITY PREDICTED BY RF-SCORE:    0.00 PKD
ROOT
HETATM    1  C   UNL     1      -8.860   9.401  62.391  1.00  0.00    -0.247 C  
HETATM    2  O   UNL     1      -8.467  10.420  63.305  1.00  0.00    -0.166 OA 
ENDROOT
BRANCH   2   3
HETATM    3  C   UNL     1      -8.936  10.251  64.591  1.00  0.00    -0.211 A  
HETATM    4  N   UNL     1     -10.205  10.645  64.839  1.00  0.00    -0.331 NA 
HETATM    5  C   UNL     1     -10.644  10.493  66.094  1.00  0.00    -0.112 A  
HETATM    6  N   UNL     1      -9.950   9.978  67.108  1.00  0.00    -0.191 NA 
HETATM    7  C   UNL     1      -8.690   9.628  66.813  1.00  0.00    -0.134 A  
HETATM    8  C   UNL     1      -8.091   9.732  65.561  1.00  0.00    -0.125 A  
BRANCH   7   9
HETATM    9  N   UNL     1      -7.988   9.129  67.942  1.00  0.00    -0.100 N  
HETATM   10  H   UNL     1      -7.462   9.743  68.566  1.00  0.00     0.000 HD 
BRANCH   9  11
HETATM   11  S   UNL     1      -8.074   7.467  68.193  1.00  0.00    -0.125 S  
HETATM   12  O   UNL     1      -6.855   7.102  68.888  1.00  0.00    -0.064 OA 
HETATM   13  O   UNL     1      -8.448   6.811  66.959  1.00  0.00    -0.112 OA 
BRANCH  11  14
HETATM   14  C   UNL     1      -9.400   7.281  69.361  1.00  0.00    -0.151 A  
HETATM   15  C   UNL     1     -10.572   6.618  68.990  1.00  0.00    -0.273 A  
HETATM   16  C   UNL     1     -11.600   6.461  69.925  1.00  0.00    -0.422 A  
HETATM   17  C   UNL     1     -11.485   6.994  71.212  1.00  0.00    -0.286 A  
HETATM   18  C   UNL     1     -10.274   7.582  71.592  1.00  0.00    -0.209 A  
HETATM   19  N   UNL     1     -12.473   6.738  72.171  1.00  0.00    -0.529 NA 
HETATM   20  H2  UNL     1     -12.589   5.728  72.251  1.00  0.00     0.000 HD 
HETATM   21  H1  UNL     1     -12.390   7.127  73.110  1.00  0.00     0.000 HD 
HETATM   22  C   UNL     1      -9.237   7.743  70.668  1.00  0.00    -0.161 A  
ENDBRANCH  11  14
ENDBRANCH   9  11
ENDBRANCH   7   9
BRANCH   8  23
HETATM   23  O   UNL     1      -6.782   9.353  65.468  1.00  0.00    -0.072 OA 
HETATM   24  C   UNL     1      -5.804  10.364  65.254  1.00  0.00    -0.134 C  
ENDBRANCH   8  23
ENDBRANCH   2   3
TORSDOF 5
ENDMDL
MODEL      227
REMARK 921   NORMALIZED FREE ENERGY PREDICTED BY IDOCK:   -3.22 KCAL/MOL
REMARK 922        TOTAL FREE ENERGY PREDICTED BY IDOCK:   -4.68 KCAL/MOL
REMARK 923 INTER-LIGAND FREE ENERGY PREDICTED BY IDOCK:   -4.05 KCAL/MOL
REMARK 924 INTRA-LIGAND FREE ENERGY PREDICTED BY IDOCK:   -0.63 KCAL/MOL
REMARK 927      BINDING AFFINITY PREDICTED BY RF-SCORE:    0.00 PKD
ROOT
HETATM    1  C   UNL     1     -12.427  11.163  70.720  1.00  0.00    -0.384 C  
HETATM    2  O   UNL     1     -11.270  10.348  70.872  1.00  0.00    -0.311 OA 
ENDROOT
BRANCH   2   3
HETATM    3  C   UNL     1     -11.515   8.991  70.842  1.00  0.00    -0.291 A  
HETATM    4  N   UNL     1     -12.245   8.476  71.857  1.00  0.00    -0.329 NA 
HETATM    5  C   UNL     1     -12.462   7.155  71.829  1.00  0.00    -0.350 A  
HETATM    6  N   UNL     1     -12.036   6.313  70.888  1.00  0.00    -0.172 NA 
HETATM    7  C   UNL     1     -11.296   6.872  69.920  1.00  0.00    -0.271 A  
HETATM    8  C   UNL     1     -10.980   8.224  69.818  1.00  0.00    -0.129 A  
BRANCH   7   9
HETATM    9  N   UNL     1     -10.834   5.919  68.974  1.00  0.00    -0.316 N  
HETATM   10  H   UNL     1     -11.355   5.707  68.122  1.00  0.00     0.000 HD 
BRANCH   9  11
HETATM   11  S   UNL     1      -9.377   5.159  69.339  1.00  0.00    -0.136 S  
HETATM   12  O   UNL     1      -9.718   3.807  69.736  1.00  0.00    -0.200 OA 
HETATM   13  O   UNL     1      -8.592   6.011  70.205  1.00  0.00    -0.137 OA 
BRANCH  11  14
HETATM   14  C   UNL     1      -8.557   5.036  67.767  1.00  0.00    -0.103 A  
HETATM   15  C   UNL     1      -7.434   4.218  67.625  1.00  0.00    -0.069 A  
HETATM   16  C   UNL     1      -6.811   4.115  66.377  1.00  0.00    -0.055 A  
HETATM   17  C   UNL     1      -7.272   4.851  65.283  1.00  0.00    -0.067 A  
HETATM   18  C   UNL     1      -8.446   5.600  65.421  1.00  0.00    -0.147 A  
HETATM   19  N   UNL     1      -6.708   4.658  64.016  1.00  0.00    -0.042 NA 
HETATM   20  H2  UNL     1      -6.768   3.666  63.785  1.00  0.00     0.000 HD 
HETATM   21  H1  UNL     1      -7.044   5.195  63.217  1.00  0.00     0.000 HD 
HETATM   22  C   UNL     1      -9.081   5.711  66.662  1.00  0.00    -0.129 A  
ENDBRANCH  11  14
ENDBRANCH   9  11
ENDBRANCH   7   9
BRANCH   8  23
HETATM   23  O   UNL     1     -10.183   8.596  68.773  1.00  0.00    -0.198 OA 
HETATM   24  C   UNL     1     -10.784   9.285  67.682  1.00  0.00    -0.209 C  
ENDBRANCH   8  23
ENDBRANCH   2   3
TORSDOF 5
ENDMDL
MODEL      228
REMARK 921   NORMALIZED FREE ENERGY PREDICTED BY IDOCK:   -3.21 KCAL/MOL
REMARK 922        TOTAL FREE ENERGY PREDICTED BY IDOCK:   -4.66 KCAL/MOL
REMARK 923 INTER-LIGAND FREE ENERGY PREDICTED BY IDOCK:   -4.44 KCAL/MOL
REMARK 924 INTRA-LIGAND FREE ENERGY PREDICTED BY IDOCK:   -0.21 KCAL/MOL
REMARK 927      BINDING AFFINITY PREDICTED BY RF-SCORE:    0.00 PKD
ROOT
HETATM    1  C   UNL     1      -8.991  17.053  66.803  1.00  0.00    -0.244 C  
HETATM    2  O   UNL     1      -9.568  16.087  67.677  1.00  0.00    -0.217 OA 
ENDROOT
BRANCH   2   3
HETATM    3  C   UNL     1     -10.138  15.004  67.040  1.00  0.00    -0.244 A  
HETATM    4  N   UNL     1     -11.448  15.098  66.719  1.00  0.00    -0.258 NA 
HETATM    5  C   UNL     1     -11.995  14.035  66.118  1.00  0.00    -0.420 A  
HETATM    6  N   UNL     1     -11.363  12.906  65.798  1.00  0.00    -0.304 NA 
HETATM    7  C   UNL     1     -10.073  12.857  66.161  1.00  0.00    -0.276 A  
HETATM    8  C   UNL     1      -9.369  13.876  66.797  1.00  0.00    -0.275 A  
BRANCH   7   9
HETATM    9  N   UNL     1      -9.466  11.615  65.834  1.00  0.00    -0.227 N  
HETATM   10  H   UNL     1      -8.762  11.535  65.100  1.00  0.00     0.000 HD 
BRANCH   9  11
HETATM   11  S   UNL     1      -9.978  10.283  66.728  1.00  0.00    -0.217 S  
HETATM   12  O   UNL     1      -9.770   9.127  65.879  1.00  0.00    -0.270 OA 
HETATM   13  O   UNL     1     -11.277  10.557  67.303  1.00  0.00    -0.307 OA 
BRANCH  11  14
HETATM   14  C   UNL     1      -8.787  10.171  68.042  1.00  0.00    -0.125 A  
HETATM   15  C   UNL     1      -9.203   9.873  69.341  1.00  0.00    -0.225 A  
HETATM   16  C   UNL     1      -8.253   9.767  70.362  1.00  0.00    -0.119 A  
HETATM   17  C   UNL     1      -6.898   9.996  70.106  1.00  0.00    -0.137 A  
HETATM   18  C   UNL     1      -6.489  10.212  68.786  1.00  0.00    -0.052 A  
HETATM   19  N   UNL     1      -5.947   9.782  71.111  1.00  0.00    -0.141 NA 
HETATM   20  H2  UNL     1      -6.052   8.828  71.455  1.00  0.00     0.000 HD 
HETATM   21  H1  UNL     1      -4.958   9.950  70.924  1.00  0.00     0.000 HD 
HETATM   22  C   UNL     1      -7.428  10.317  67.755  1.00  0.00    -0.088 A  
ENDBRANCH  11  14
ENDBRANCH   9  11
ENDBRANCH   7   9
BRANCH   8  23
HETATM   23  O   UNL     1      -8.065  13.621  67.116  1.00  0.00    -0.160 OA 
HETATM   24  C   UNL     1      -7.668  13.758  68.475  1.00  0.00    -0.138 C  
ENDBRANCH   8  23
ENDBRANCH   2   3
TORSDOF 5
ENDMDL
MODEL      229
REMARK 921   NORMALIZED FREE ENERGY PREDICTED BY IDOCK:   -3.21 KCAL/MOL
REMARK 922        TOTAL FREE ENERGY PREDICTED BY IDOCK:   -4.66 KCAL/MOL
REMARK 923 INTER-LIGAND FREE ENERGY PREDICTED BY IDOCK:   -4.46 KCAL/MOL
REMARK 924 INTRA-LIGAND FREE ENERGY PREDICTED BY IDOCK:   -0.19 KCAL/MOL
REMARK 927      BINDING AFFINITY PREDICTED BY RF-SCORE:    0.00 PKD
ROOT
HETATM    1  C   UNL     1     -10.108   4.219  66.148  1.00  0.00    -0.187 C  
HETATM    2  O   UNL     1      -9.498   4.604  67.376  1.00  0.00    -0.135 OA 
ENDROOT
BRANCH   2   3
HETATM    3  C   UNL     1      -8.802   5.793  67.324  1.00  0.00    -0.106 A  
HETATM    4  N   UNL     1      -8.613   6.342  66.103  1.00  0.00    -0.139 NA 
HETATM    5  C   UNL     1      -7.920   7.487  66.061  1.00  0.00    -0.113 A  
HETATM    6  N   UNL     1      -7.416   8.134  67.111  1.00  0.00    -0.088 NA 
HETATM    7  C   UNL     1      -7.610   7.532  68.294  1.00  0.00    -0.114 A  
HETATM    8  C   UNL     1      -8.301   6.341  68.495  1.00  0.00    -0.115 A  
BRANCH   7   9
HETATM    9  N   UNL     1      -7.012   8.244  69.367  1.00  0.00    -0.050 N  
HETATM   10  H   UNL     1      -6.208   7.877  69.879  1.00  0.00     0.000 HD 
BRANCH   9  11
HETATM   11  S   UNL     1      -7.705   9.731  69.747  1.00  0.00    -0.161 S  
HETATM   12  O   UNL     1      -8.195  10.276  68.497  1.00  0.00    -0.103 OA 
HETATM   13  O   UNL     1      -6.798  10.488  70.582  1.00  0.00    -0.330 OA 
BRANCH  11  14
HETATM   14  C   UNL     1      -9.136   9.298  70.709  1.00  0.00    -0.244 A  
HETATM   15  C   UNL     1     -10.413   9.642  70.258  1.00  0.00    -0.338 A  
HETATM   16  C   UNL     1     -11.531   9.277  71.014  1.00  0.00    -0.387 A  
HETATM   17  C   UNL     1     -11.385   8.610  72.234  1.00  0.00    -0.340 A  
HETATM   18  C   UNL     1     -10.106   8.201  72.629  1.00  0.00    -0.379 A  
HETATM   19  N   UNL     1     -12.513   8.156  72.928  1.00  0.00    -0.653 NA 
HETATM   20  H2  UNL     1     -13.059   7.565  72.301  1.00  0.00     0.000 HD 
HETATM   21  H1  UNL     1     -12.406   7.669  73.818  1.00  0.00     0.000 HD 
HETATM   22  C   UNL     1      -8.979   8.556  71.881  1.00  0.00    -0.301 A  
ENDBRANCH  11  14
ENDBRANCH   9  11
ENDBRANCH   7   9
BRANCH   8  23
HETATM   23  O   UNL     1      -8.361   5.870  69.776  1.00  0.00    -0.120 OA 
HETATM   24  C   UNL     1      -7.445   4.852  70.161  1.00  0.00    -0.059 C  
ENDBRANCH   8  23
ENDBRANCH   2   3
TORSDOF 5
ENDMDL
MODEL      230
REMARK 921   NORMALIZED FREE ENERGY PREDICTED BY IDOCK:   -3.20 KCAL/MOL
REMARK 922        TOTAL FREE ENERGY PREDICTED BY IDOCK:   -4.65 KCAL/MOL
REMARK 923 INTER-LIGAND FREE ENERGY PREDICTED BY IDOCK:   -4.18 KCAL/MOL
REMARK 924 INTRA-LIGAND FREE ENERGY PREDICTED BY IDOCK:   -0.47 KCAL/MOL
REMARK 927      BINDING AFFINITY PREDICTED BY RF-SCORE:    0.00 PKD
ROOT
HETATM    1  C   UNL     1      -6.154   7.356  68.623  1.00  0.00    -0.027 C  
HETATM    2  O   UNL     1      -6.828   7.872  67.479  1.00  0.00    -0.066 OA 
ENDROOT
BRANCH   2   3
HETATM    3  C   UNL     1      -7.665   8.937  67.738  1.00  0.00    -0.101 A  
HETATM    4  N   UNL     1      -7.362   9.713  68.804  1.00  0.00    -0.073 NA 
HETATM    5  C   UNL     1      -8.191  10.733  69.057  1.00  0.00    -0.138 A  
HETATM    6  N   UNL     1      -9.272  11.055  68.348  1.00  0.00    -0.168 NA 
HETATM    7  C   UNL     1      -9.540  10.239  67.319  1.00  0.00    -0.159 A  
HETATM    8  C   UNL     1      -8.779   9.138  66.937  1.00  0.00    -0.123 A  
BRANCH   7   9
HETATM    9  N   UNL     1     -10.727  10.607  66.632  1.00  0.00    -0.217 N  
HETATM   10  H   UNL     1     -11.624  10.160  66.825  1.00  0.00     0.000 HD 
BRANCH   9  11
HETATM   11  S   UNL     1     -10.567  11.823  65.478  1.00  0.00    -0.285 S  
HETATM   12  O   UNL     1     -11.756  11.751  64.652  1.00  0.00    -0.267 OA 
HETATM   13  O   UNL     1      -9.248  11.758  64.887  1.00  0.00    -0.031 OA 
BRANCH  11  14
HETATM   14  C   UNL     1     -10.694  13.323  66.422  1.00  0.00    -0.285 A  
HETATM   15  C   UNL     1      -9.833  14.391  66.158  1.00  0.00    -0.340 A  
HETATM   16  C   UNL     1      -9.958  15.574  66.895  1.00  0.00    -0.251 A  
HETATM   17  C   UNL     1     -10.903  15.684  67.918  1.00  0.00    -0.306 A  
HETATM   18  C   UNL     1     -11.811  14.637  68.113  1.00  0.00    -0.332 A  
HETATM   19  N   UNL     1     -11.090  16.907  68.575  1.00  0.00    -0.287 NA 
HETATM   20  H2  UNL     1     -11.289  17.621  67.874  1.00  0.00     0.000 HD 
HETATM   21  H1  UNL     1     -11.780  16.988  69.322  1.00  0.00     0.000 HD 
HETATM   22  C   UNL     1     -11.700  13.450  67.382  1.00  0.00    -0.415 A  
ENDBRANCH  11  14
ENDBRANCH   9  11
ENDBRANCH   7   9
BRANCH   8  23
HETATM   23  O   UNL     1      -9.237   8.407  65.877  1.00  0.00    -0.195 OA 
HETATM   24  C   UNL     1      -8.534   8.502  64.643  1.00  0.00    -0.108 C  
ENDBRANCH   8  23
ENDBRANCH   2   3
TORSDOF 5
ENDMDL
MODEL      231
REMARK 921   NORMALIZED FREE ENERGY PREDICTED BY IDOCK:   -3.15 KCAL/MOL
REMARK 922        TOTAL FREE ENERGY PREDICTED BY IDOCK:   -4.58 KCAL/MOL
REMARK 923 INTER-LIGAND FREE ENERGY PREDICTED BY IDOCK:   -3.90 KCAL/MOL
REMARK 924 INTRA-LIGAND FREE ENERGY PREDICTED BY IDOCK:   -0.67 KCAL/MOL
REMARK 927      BINDING AFFINITY PREDICTED BY RF-SCORE:    0.00 PKD
ROOT
HETATM    1  C   UNL     1      -9.074   3.223  64.467  1.00  0.00    -0.132 C  
HETATM    2  O   UNL     1      -8.362   4.366  64.931  1.00  0.00    -0.111 OA 
ENDROOT
BRANCH   2   3
HETATM    3  C   UNL     1      -7.872   4.255  66.215  1.00  0.00    -0.095 A  
HETATM    4  N   UNL     1      -6.966   3.278  66.446  1.00  0.00    -0.053 NA 
HETATM    5  C   UNL     1      -6.511   3.167  67.700  1.00  0.00    -0.037 A  
HETATM    6  N   UNL     1      -6.860   3.938  68.729  1.00  0.00    -0.046 NA 
HETATM    7  C   UNL     1      -7.780   4.874  68.450  1.00  0.00    -0.082 A  
HETATM    8  C   UNL     1      -8.349   5.105  67.202  1.00  0.00    -0.107 A  
BRANCH   7   9
HETATM    9  N   UNL     1      -8.143   5.632  69.594  1.00  0.00    -0.101 N  
HETATM   10  H   UNL     1      -7.837   6.598  69.723  1.00  0.00     0.000 HD 
BRANCH   9  11
HETATM   11  S   UNL     1      -9.108   4.846  70.728  1.00  0.00    -0.142 S  
HETATM   12  O   UNL     1      -8.238   4.523  71.841  1.00  0.00    -0.099 OA 
HETATM   13  O   UNL     1      -9.885   3.817  70.071  1.00  0.00    -0.181 OA 
BRANCH  11  14
HETATM   14  C   UNL     1     -10.214   6.116  71.298  1.00  0.00    -0.207 A  
HETATM   15  C   UNL     1      -9.801   7.010  72.288  1.00  0.00    -0.170 A  
HETATM   16  C   UNL     1     -10.674   8.017  72.713  1.00  0.00    -0.431 A  
HETATM   17  C   UNL     1     -11.966   8.114  72.189  1.00  0.00    -0.359 A  
HETATM   18  C   UNL     1     -12.333   7.263  71.141  1.00  0.00    -0.381 A  
HETATM   19  N   UNL     1     -12.790   9.189  72.543  1.00  0.00    -0.363 NA 
HETATM   20  H2  UNL     1     -12.294  10.056  72.337  1.00  0.00     0.000 HD 
HETATM   21  H1  UNL     1     -13.733   9.260  72.161  1.00  0.00     0.000 HD 
HETATM   22  C   UNL     1     -11.470   6.253  70.704  1.00  0.00    -0.397 A  
ENDBRANCH  11  14
ENDBRANCH   9  11
ENDBRANCH   7   9
BRANCH   8  23
HETATM   23  O   UNL     1      -9.297   6.086  67.127  1.00  0.00    -0.115 OA 
HETATM   24  C   UNL     1     -10.652   5.697  66.933  1.00  0.00    -0.296 C  
ENDBRANCH   8  23
ENDBRANCH   2   3
TORSDOF 5
ENDMDL
MODEL      232
REMARK 921   NORMALIZED FREE ENERGY PREDICTED BY IDOCK:   -3.11 KCAL/MOL
REMARK 922        TOTAL FREE ENERGY PREDICTED BY IDOCK:   -4.53 KCAL/MOL
REMARK 923 INTER-LIGAND FREE ENERGY PREDICTED BY IDOCK:   -3.88 KCAL/MOL
REMARK 924 INTRA-LIGAND FREE ENERGY PREDICTED BY IDOCK:   -0.65 KCAL/MOL
REMARK 927      BINDING AFFINITY PREDICTED BY RF-SCORE:    0.00 PKD
ROOT
HETATM    1  C   UNL     1     -11.449   9.491  71.401  1.00  0.00    -0.392 C  
HETATM    2  O   UNL     1     -10.576   8.604  72.094  1.00  0.00    -0.321 OA 
ENDROOT
BRANCH   2   3
HETATM    3  C   UNL     1      -9.363   8.391  71.473  1.00  0.00    -0.200 A  
HETATM    4  N   UNL     1      -8.328   9.171  71.860  1.00  0.00    -0.278 NA 
HETATM    5  C   UNL     1      -7.160   8.968  71.239  1.00  0.00    -0.079 A  
HETATM    6  N   UNL     1      -6.927   8.064  70.289  1.00  0.00    -0.044 NA 
HETATM    7  C   UNL     1      -7.993   7.336  69.925  1.00  0.00    -0.122 A  
HETATM    8  C   UNL     1      -9.269   7.436  70.472  1.00  0.00    -0.157 A  
BRANCH   7   9
HETATM    9  N   UNL     1      -7.693   6.423  68.879  1.00  0.00    -0.106 N  
HETATM   10  H   UNL     1      -7.470   5.444  69.064  1.00  0.00     0.000 HD 
BRANCH   9  11
HETATM   11  S   UNL     1      -7.727   7.049  67.317  1.00  0.00    -0.111 S  
HETATM   12  O   UNL     1      -6.375   6.930  66.807  1.00  0.00    -0.042 OA 
HETATM   13  O   UNL     1      -8.407   8.325  67.323  1.00  0.00    -0.122 OA 
BRANCH  11  14
HETATM   14  C   UNL     1      -8.716   5.881  66.413  1.00  0.00    -0.131 A  
HETATM   15  C   UNL     1     -10.103   5.867  66.572  1.00  0.00    -0.206 A  
HETATM   16  C   UNL     1     -10.871   4.957  65.839  1.00  0.00    -0.140 A  
HETATM   17  C   UNL     1     -10.265   4.035  64.981  1.00  0.00    -0.181 A  
HETATM   18  C   UNL     1      -8.884   4.118  64.772  1.00  0.00    -0.135 A  
HETATM   19  N   UNL     1     -11.049   3.203  64.174  1.00  0.00    -0.592 NA 
HETATM   20  H2  UNL     1     -11.678   3.788  63.624  1.00  0.00     0.000 HD 
HETATM   21  H1  UNL     1     -10.607   2.530  63.548  1.00  0.00     0.000 HD 
HETATM   22  C   UNL     1      -8.104   5.025  65.496  1.00  0.00    -0.115 A  
ENDBRANCH  11  14
ENDBRANCH   9  11
ENDBRANCH   7   9
BRANCH   8  23
HETATM   23  O   UNL     1     -10.234   6.628  69.942  1.00  0.00    -0.180 OA 
HETATM   24  C   UNL     1     -10.589   5.449  70.655  1.00  0.00    -0.232 C  
ENDBRANCH   8  23
ENDBRANCH   2   3
TORSDOF 5
ENDMDL
MODEL      233
REMARK 921   NORMALIZED FREE ENERGY PREDICTED BY IDOCK:   -3.11 KCAL/MOL
REMARK 922        TOTAL FREE ENERGY PREDICTED BY IDOCK:   -4.53 KCAL/MOL
REMARK 923 INTER-LIGAND FREE ENERGY PREDICTED BY IDOCK:   -4.11 KCAL/MOL
REMARK 924 INTRA-LIGAND FREE ENERGY PREDICTED BY IDOCK:   -0.42 KCAL/MOL
REMARK 927      BINDING AFFINITY PREDICTED BY RF-SCORE:    0.00 PKD
ROOT
HETATM    1  C   UNL     1      -6.983   9.874  70.255  1.00  0.00    -0.146 C  
HETATM    2  O   UNL     1      -6.146   9.144  71.147  1.00  0.00    -0.054 OA 
ENDROOT
BRANCH   2   3
HETATM    3  C   UNL     1      -6.822   8.332  72.034  1.00  0.00    -0.085 A  
HETATM    4  N   UNL     1      -6.936   8.773  73.307  1.00  0.00    -0.344 NA 
HETATM    5  C   UNL     1      -7.577   7.970  74.164  1.00  0.00    -0.191 A  
HETATM    6  N   UNL     1      -8.121   6.789  73.871  1.00  0.00    -0.112 NA 
HETATM    7  C   UNL     1      -7.956   6.388  72.602  1.00  0.00    -0.104 A  
HETATM    8  C   UNL     1      -7.308   7.108  71.601  1.00  0.00    -0.085 A  
BRANCH   7   9
HETATM    9  N   UNL     1      -8.516   5.106  72.363  1.00  0.00    -0.121 N  
HETATM   10  H   UNL     1      -7.942   4.262  72.335  1.00  0.00     0.000 HD 
BRANCH   9  11
HETATM   11  S   UNL     1     -10.182   5.057  72.127  1.00  0.00    -0.205 S  
HETATM   12  O   UNL     1     -10.706   6.274  72.715  1.00  0.00    -0.220 OA 
HETATM   13  O   UNL     1     -10.689   3.763  72.527  1.00  0.00    -0.092 OA 
BRANCH  11  14
HETATM   14  C   UNL     1     -10.368   5.222  70.367  1.00  0.00    -0.275 A  
HETATM   15  C   UNL     1     -11.136   6.262  69.839  1.00  0.00    -0.469 A  
HETATM   16  C   UNL     1     -11.256   6.392  68.451  1.00  0.00    -0.297 A  
HETATM   17  C   UNL     1     -10.652   5.472  67.590  1.00  0.00    -0.164 A  
HETATM   18  C   UNL     1      -9.819   4.487  68.133  1.00  0.00    -0.152 A  
HETATM   19  N   UNL     1     -10.690   5.674  66.205  1.00  0.00    -0.613 NA 
HETATM   20  H2  UNL     1     -10.311   6.599  66.005  1.00  0.00     0.000 HD 
HETATM   21  H1  UNL     1     -10.249   5.002  65.576  1.00  0.00     0.000 HD 
HETATM   22  C   UNL     1      -9.688   4.347  69.518  1.00  0.00    -0.280 A  
ENDBRANCH  11  14
ENDBRANCH   9  11
ENDBRANCH   7   9
BRANCH   8  23
HETATM   23  O   UNL     1      -7.214   6.513  70.375  1.00  0.00    -0.075 OA 
HETATM   24  C   UNL     1      -5.985   5.887  70.026  1.00  0.00    -0.025 C  
ENDBRANCH   8  23
ENDBRANCH   2   3
TORSDOF 5
ENDMDL
MODEL      234
REMARK 921   NORMALIZED FREE ENERGY PREDICTED BY IDOCK:   -3.07 KCAL/MOL
REMARK 922        TOTAL FREE ENERGY PREDICTED BY IDOCK:   -4.47 KCAL/MOL
REMARK 923 INTER-LIGAND FREE ENERGY PREDICTED BY IDOCK:   -4.17 KCAL/MOL
REMARK 924 INTRA-LIGAND FREE ENERGY PREDICTED BY IDOCK:   -0.30 KCAL/MOL
REMARK 927      BINDING AFFINITY PREDICTED BY RF-SCORE:    0.00 PKD
ROOT
HETATM    1  C   UNL     1     -11.783  13.848  68.191  1.00  0.00    -0.353 C  
HETATM    2  O   UNL     1     -12.301  12.606  68.658  1.00  0.00    -0.039 OA 
ENDROOT
BRANCH   2   3
HETATM    3  C   UNL     1     -11.450  11.533  68.499  1.00  0.00    -0.292 A  
HETATM    4  N   UNL     1     -11.041  11.254  67.241  1.00  0.00    -0.291 NA 
HETATM    5  C   UNL     1     -10.230  10.199  67.094  1.00  0.00    -0.225 A  
HETATM    6  N   UNL     1      -9.784   9.414  68.075  1.00  0.00    -0.142 NA 
HETATM    7  C   UNL     1     -10.241   9.720  69.298  1.00  0.00    -0.204 A  
HETATM    8  C   UNL     1     -11.092  10.778  69.606  1.00  0.00    -0.279 A  
BRANCH   7   9
HETATM    9  N   UNL     1      -9.768   8.823  70.291  1.00  0.00    -0.170 N  
HETATM   10  H   UNL     1      -8.963   9.043  70.880  1.00  0.00     0.000 HD 
BRANCH   9  11
HETATM   11  S   UNL     1     -10.610   7.373  70.443  1.00  0.00    -0.232 S  
HETATM   12  O   UNL     1     -11.993   7.679  70.134  1.00  0.00     0.071 OA 
HETATM   13  O   UNL     1     -10.253   6.734  71.690  1.00  0.00    -0.192 OA 
BRANCH  11  14
HETATM   14  C   UNL     1      -9.996   6.383  69.100  1.00  0.00    -0.149 A  
HETATM   15  C   UNL     1      -8.657   5.988  69.077  1.00  0.00    -0.120 A  
HETATM   16  C   UNL     1      -8.192   5.192  68.026  1.00  0.00    -0.098 A  
HETATM   17  C   UNL     1      -9.040   4.821  66.978  1.00  0.00    -0.118 A  
HETATM   18  C   UNL     1     -10.396   5.156  67.060  1.00  0.00    -0.267 A  
HETATM   19  N   UNL     1      -8.591   3.937  65.990  1.00  0.00    -0.110 NA 
HETATM   20  H2  UNL     1      -8.254   3.089  66.445  1.00  0.00     0.000 HD 
HETATM   21  H1  UNL     1      -9.210   3.667  65.225  1.00  0.00     0.000 HD 
HETATM   22  C   UNL     1     -10.875   5.949  68.106  1.00  0.00    -0.323 A  
ENDBRANCH  11  14
ENDBRANCH   9  11
ENDBRANCH   7   9
BRANCH   8  23
HETATM   23  O   UNL     1     -11.473  10.905  70.911  1.00  0.00    -0.205 OA 
HETATM   24  C   UNL     1     -12.796  10.519  71.265  1.00  0.00    -0.431 C  
ENDBRANCH   8  23
ENDBRANCH   2   3
TORSDOF 5
ENDMDL
MODEL      235
REMARK 921   NORMALIZED FREE ENERGY PREDICTED BY IDOCK:   -3.04 KCAL/MOL
REMARK 922        TOTAL FREE ENERGY PREDICTED BY IDOCK:   -4.44 KCAL/MOL
REMARK 923 INTER-LIGAND FREE ENERGY PREDICTED BY IDOCK:   -4.76 KCAL/MOL
REMARK 924 INTRA-LIGAND FREE ENERGY PREDICTED BY IDOCK:    0.32 KCAL/MOL
REMARK 927      BINDING AFFINITY PREDICTED BY RF-SCORE:    0.00 PKD
ROOT
HETATM    1  C   UNL     1      -6.306  15.530  67.980  1.00  0.00    -0.138 C  
HETATM    2  O   UNL     1      -7.221  15.093  66.980  1.00  0.00    -0.170 OA 
ENDROOT
BRANCH   2   3
HETATM    3  C   UNL     1      -8.318  14.412  67.464  1.00  0.00    -0.187 A  
HETATM    4  N   UNL     1      -9.251  15.137  68.122  1.00  0.00    -0.182 NA 
HETATM    5  C   UNL     1     -10.302  14.463  68.604  1.00  0.00    -0.245 A  
HETATM    6  N   UNL     1     -10.515  13.154  68.480  1.00  0.00    -0.254 NA 
HETATM    7  C   UNL     1      -9.547  12.480  67.842  1.00  0.00    -0.206 A  
HETATM    8  C   UNL     1      -8.396  13.038  67.294  1.00  0.00    -0.185 A  
BRANCH   7   9
HETATM    9  N   UNL     1      -9.809  11.085  67.782  1.00  0.00    -0.171 N  
HETATM   10  H   UNL     1     -10.395  10.676  67.053  1.00  0.00     0.000 HD 
BRANCH   9  11
HETATM   11  S   UNL     1      -9.096  10.146  68.983  1.00  0.00    -0.183 S  
HETATM   12  O   UNL     1      -8.133  11.004  69.646  1.00  0.00     0.077 OA 
HETATM   13  O   UNL     1      -8.695   8.872  68.427  1.00  0.00    -0.133 OA 
BRANCH  11  14
HETATM   14  C   UNL     1     -10.414   9.870  70.144  1.00  0.00    -0.285 A  
HETATM   15  C   UNL     1     -11.669  10.443  69.927  1.00  0.00    -0.341 A  
HETATM   16  C   UNL     1     -12.703  10.200  70.837  1.00  0.00    -0.448 A  
HETATM   17  C   UNL     1     -12.484   9.427  71.981  1.00  0.00    -0.365 A  
HETATM   18  C   UNL     1     -11.246   8.794  72.139  1.00  0.00    -0.408 A  
HETATM   19  N   UNL     1     -13.552   9.104  72.827  1.00  0.00    -0.823 NA 
HETATM   20  H2  UNL     1     -14.279   8.655  72.269  1.00  0.00     0.000 HD 
HETATM   21  H1  UNL     1     -13.393   8.539  73.661  1.00  0.00     0.000 HD 
HETATM   22  C   UNL     1     -10.205   9.025  71.236  1.00  0.00    -0.384 A  
ENDBRANCH  11  14
ENDBRANCH   9  11
ENDBRANCH   7   9
BRANCH   8  23
HETATM   23  O   UNL     1      -7.509  12.177  66.711  1.00  0.00    -0.067 OA 
HETATM   24  C   UNL     1      -7.961  11.388  65.616  1.00  0.00     0.338 C  
ENDBRANCH   8  23
ENDBRANCH   2   3
TORSDOF 5
ENDMDL
MODEL      236
REMARK 921   NORMALIZED FREE ENERGY PREDICTED BY IDOCK:   -3.03 KCAL/MOL
REMARK 922        TOTAL FREE ENERGY PREDICTED BY IDOCK:   -4.43 KCAL/MOL
REMARK 923 INTER-LIGAND FREE ENERGY PREDICTED BY IDOCK:   -3.81 KCAL/MOL
REMARK 924 INTRA-LIGAND FREE ENERGY PREDICTED BY IDOCK:   -0.62 KCAL/MOL
REMARK 927      BINDING AFFINITY PREDICTED BY RF-SCORE:    0.00 PKD
ROOT
HETATM    1  C   UNL     1      -8.467   4.510  68.734  1.00  0.00    -0.084 C  
HETATM    2  O   UNL     1      -7.984   5.569  69.554  1.00  0.00    -0.091 OA 
ENDROOT
BRANCH   2   3
HETATM    3  C   UNL     1      -8.620   6.778  69.364  1.00  0.00    -0.132 A  
HETATM    4  N   UNL     1      -9.947   6.822  69.620  1.00  0.00    -0.171 NA 
HETATM    5  C   UNL     1     -10.558   7.995  69.414  1.00  0.00    -0.205 A  
HETATM    6  N   UNL     1      -9.975   9.118  68.997  1.00  0.00    -0.178 NA 
HETATM    7  C   UNL     1      -8.664   9.012  68.734  1.00  0.00    -0.136 A  
HETATM    8  C   UNL     1      -7.895   7.862  68.891  1.00  0.00    -0.117 A  
BRANCH   7   9
HETATM    9  N   UNL     1      -8.109  10.226  68.251  1.00  0.00    -0.105 N  
HETATM   10  H   UNL     1      -7.631  10.885  68.867  1.00  0.00     0.000 HD 
BRANCH   9  11
HETATM   11  S   UNL     1      -8.287  10.517  66.603  1.00  0.00    -0.135 S  
HETATM   12  O   UNL     1      -8.789   9.284  66.029  1.00  0.00    -0.143 OA 
HETATM   13  O   UNL     1      -7.086  11.139  66.089  1.00  0.00    -0.097 OA 
BRANCH  11  14
HETATM   14  C   UNL     1      -9.616  11.695  66.520  1.00  0.00    -0.209 A  
HETATM   15  C   UNL     1     -10.874  11.299  66.061  1.00  0.00    -0.273 A  
HETATM   16  C   UNL     1     -11.917  12.231  66.021  1.00  0.00    -0.342 A  
HETATM   17  C   UNL     1     -11.704  13.561  66.396  1.00  0.00    -0.369 A  
HETATM   18  C   UNL     1     -10.462  13.919  66.931  1.00  0.00    -0.276 A  
HETATM   19  N   UNL     1     -12.779  14.456  66.454  1.00  0.00    -0.398 NA 
HETATM   20  H2  UNL     1     -13.494  14.061  67.064  1.00  0.00     0.000 HD 
HETATM   21  H1  UNL     1     -12.624  15.427  66.727  1.00  0.00     0.000 HD 
HETATM   22  C   UNL     1      -9.412  12.998  66.979  1.00  0.00    -0.237 A  
ENDBRANCH  11  14
ENDBRANCH   9  11
ENDBRANCH   7   9
BRANCH   8  23
HETATM   23  O   UNL     1      -6.579   7.945  68.537  1.00  0.00    -0.057 OA 
HETATM   24  C   UNL     1      -6.174   7.347  67.311  1.00  0.00    -0.051 C  
ENDBRANCH   8  23
ENDBRANCH   2   3
TORSDOF 5
ENDMDL
MODEL      237
REMARK 921   NORMALIZED FREE ENERGY PREDICTED BY IDOCK:   -3.03 KCAL/MOL
REMARK 922        TOTAL FREE ENERGY PREDICTED BY IDOCK:   -4.42 KCAL/MOL
REMARK 923 INTER-LIGAND FREE ENERGY PREDICTED BY IDOCK:   -4.08 KCAL/MOL
REMARK 924 INTRA-LIGAND FREE ENERGY PREDICTED BY IDOCK:   -0.34 KCAL/MOL
REMARK 927      BINDING AFFINITY PREDICTED BY RF-SCORE:    0.00 PKD
ROOT
HETATM    1  C   UNL     1     -11.561  14.782  67.864  1.00  0.00    -0.351 C  
HETATM    2  O   UNL     1     -12.361  13.886  68.629  1.00  0.00    -0.278 OA 
ENDROOT
BRANCH   2   3
HETATM    3  C   UNL     1     -11.899  12.586  68.659  1.00  0.00    -0.297 A  
HETATM    4  N   UNL     1     -11.837  11.929  67.479  1.00  0.00    -0.597 NA 
HETATM    5  C   UNL     1     -11.406  10.663  67.521  1.00  0.00    -0.162 A  
HETATM    6  N   UNL     1     -11.022  10.004  68.613  1.00  0.00    -0.223 NA 
HETATM    7  C   UNL     1     -11.127  10.694  69.758  1.00  0.00    -0.295 A  
HETATM    8  C   UNL     1     -11.564  12.010  69.875  1.00  0.00    -0.238 A  
BRANCH   7   9
HETATM    9  N   UNL     1     -10.747   9.925  70.890  1.00  0.00    -0.326 N  
HETATM   10  H   UNL     1      -9.853  10.065  71.363  1.00  0.00     0.000 HD 
BRANCH   9  11
HETATM   11  S   UNL     1     -11.856   8.770  71.407  1.00  0.00    -0.325 S  
HETATM   12  O   UNL     1     -12.961   8.827  70.471  1.00  0.00     0.364 OA 
HETATM   13  O   UNL     1     -12.080   8.917  72.829  1.00  0.00    -0.183 OA 
BRANCH  11  14
HETATM   14  C   UNL     1     -11.025   7.225  71.119  1.00  0.00    -0.247 A  
HETATM   15  C   UNL     1     -10.733   6.377  72.190  1.00  0.00    -0.259 A  
HETATM   16  C   UNL     1     -10.098   5.155  71.947  1.00  0.00    -0.255 A  
HETATM   17  C   UNL     1      -9.715   4.792  70.653  1.00  0.00    -0.200 A  
HETATM   18  C   UNL     1     -10.089   5.613  69.584  1.00  0.00    -0.289 A  
HETATM   19  N   UNL     1      -9.177   3.522  70.409  1.00  0.00    -0.132 NA 
HETATM   20  H2  UNL     1      -9.833   2.823  70.759  1.00  0.00     0.000 HD 
HETATM   21  H1  UNL     1      -8.898   3.256  69.464  1.00  0.00     0.000 HD 
HETATM   22  C   UNL     1     -10.727   6.836  69.812  1.00  0.00    -0.288 A  
ENDBRANCH  11  14
ENDBRANCH   9  11
ENDBRANCH   7   9
BRANCH   8  23
HETATM   23  O   UNL     1     -11.634  12.529  71.137  1.00  0.00     0.811 OA 
HETATM   24  C   UNL     1     -12.917  12.675  71.733  1.00  0.00    -0.313 C  
ENDBRANCH   8  23
ENDBRANCH   2   3
TORSDOF 5
ENDMDL
MODEL      238
REMARK 921   NORMALIZED FREE ENERGY PREDICTED BY IDOCK:   -2.95 KCAL/MOL
REMARK 922        TOTAL FREE ENERGY PREDICTED BY IDOCK:   -4.33 KCAL/MOL
REMARK 923 INTER-LIGAND FREE ENERGY PREDICTED BY IDOCK:   -3.83 KCAL/MOL
REMARK 924 INTRA-LIGAND FREE ENERGY PREDICTED BY IDOCK:   -0.50 KCAL/MOL
REMARK 927      BINDING AFFINITY PREDICTED BY RF-SCORE:    0.00 PKD
ROOT
HETATM    1  C   UNL     1      -8.920  17.130  66.922  1.00  0.00    -0.235 C  
HETATM    2  O   UNL     1      -9.453  16.254  67.911  1.00  0.00    -0.216 OA 
ENDROOT
BRANCH   2   3
HETATM    3  C   UNL     1     -10.075  15.130  67.408  1.00  0.00    -0.229 A  
HETATM    4  N   UNL     1     -11.414  15.193  67.237  1.00  0.00    -0.322 NA 
HETATM    5  C   UNL     1     -12.010  14.091  66.766  1.00  0.00    -0.444 A  
HETATM    6  N   UNL     1     -11.400  12.951  66.440  1.00  0.00    -0.304 NA 
HETATM    7  C   UNL     1     -10.076  12.935  66.654  1.00  0.00    -0.245 A  
HETATM    8  C   UNL     1      -9.321  13.996  67.144  1.00  0.00    -0.242 A  
BRANCH   7   9
HETATM    9  N   UNL     1      -9.492  11.682  66.332  1.00  0.00    -0.211 N  
HETATM   10  H   UNL     1      -8.947  11.543  65.480  1.00  0.00     0.000 HD 
BRANCH   9  11
HETATM   11  S   UNL     1      -9.750  10.438  67.437  1.00  0.00    -0.167 S  
HETATM   12  O   UNL     1     -11.047   9.876  67.113  1.00  0.00    -0.163 OA 
HETATM   13  O   UNL     1      -9.459  10.911  68.773  1.00  0.00    -0.183 OA 
BRANCH  11  14
HETATM   14  C   UNL     1      -8.540   9.216  66.990  1.00  0.00    -0.123 A  
HETATM   15  C   UNL     1      -8.283   8.141  67.844  1.00  0.00    -0.129 A  
HETATM   16  C   UNL     1      -7.343   7.175  67.471  1.00  0.00    -0.092 A  
HETATM   17  C   UNL     1      -6.629   7.294  66.275  1.00  0.00    -0.052 A  
HETATM   18  C   UNL     1      -6.958   8.330  65.395  1.00  0.00    -0.063 A  
HETATM   19  N   UNL     1      -5.771   6.267  65.863  1.00  0.00    -0.023 NA 
HETATM   20  H2  UNL     1      -6.301   5.396  65.835  1.00  0.00     0.000 HD 
HETATM   21  H1  UNL     1      -5.250   6.354  64.990  1.00  0.00     0.000 HD 
HETATM   22  C   UNL     1      -7.898   9.302  65.754  1.00  0.00    -0.098 A  
ENDBRANCH  11  14
ENDBRANCH   9  11
ENDBRANCH   7   9
BRANCH   8  23
HETATM   23  O   UNL     1      -7.985  13.773  67.325  1.00  0.00    -0.169 OA 
HETATM   24  C   UNL     1      -7.485  13.735  68.656  1.00  0.00    -0.116 C  
ENDBRANCH   8  23
ENDBRANCH   2   3
TORSDOF 5
ENDMDL
MODEL      239
REMARK 921   NORMALIZED FREE ENERGY PREDICTED BY IDOCK:   -2.91 KCAL/MOL
REMARK 922        TOTAL FREE ENERGY PREDICTED BY IDOCK:   -4.27 KCAL/MOL
REMARK 923 INTER-LIGAND FREE ENERGY PREDICTED BY IDOCK:   -3.59 KCAL/MOL
REMARK 924 INTRA-LIGAND FREE ENERGY PREDICTED BY IDOCK:   -0.69 KCAL/MOL
REMARK 927      BINDING AFFINITY PREDICTED BY RF-SCORE:    0.00 PKD
ROOT
HETATM    1  C   UNL     1      -8.310  12.476  68.289  1.00  0.00    -0.167 C  
HETATM    2  O   UNL     1      -9.644  11.975  68.297  1.00  0.00    -0.197 OA 
ENDROOT
BRANCH   2   3
HETATM    3  C   UNL     1      -9.799  10.743  67.696  1.00  0.00    -0.171 A  
HETATM    4  N   UNL     1      -9.832  10.718  66.344  1.00  0.00    -0.201 NA 
HETATM    5  C   UNL     1     -10.001   9.521  65.771  1.00  0.00    -0.245 A  
HETATM    6  N   UNL     1     -10.124   8.359  66.412  1.00  0.00    -0.240 NA 
HETATM    7  C   UNL     1     -10.110   8.444  67.750  1.00  0.00    -0.207 A  
HETATM    8  C   UNL     1      -9.951   9.614  68.487  1.00  0.00    -0.165 A  
BRANCH   7   9
HETATM    9  N   UNL     1     -10.291   7.182  68.374  1.00  0.00    -0.188 N  
HETATM   10  H   UNL     1     -11.194   6.888  68.749  1.00  0.00     0.000 HD 
BRANCH   9  11
HETATM   11  S   UNL     1      -8.929   6.197  68.461  1.00  0.00    -0.114 S  
HETATM   12  O   UNL     1      -7.794   7.056  68.186  1.00  0.00    -0.114 OA 
HETATM   13  O   UNL     1      -9.152   4.994  67.690  1.00  0.00    -0.110 OA 
BRANCH  11  14
HETATM   14  C   UNL     1      -8.830   5.759  70.181  1.00  0.00    -0.140 A  
HETATM   15  C   UNL     1      -9.916   5.148  70.811  1.00  0.00    -0.285 A  
HETATM   16  C   UNL     1      -9.818   4.790  72.160  1.00  0.00    -0.228 A  
HETATM   17  C   UNL     1      -8.662   5.074  72.893  1.00  0.00    -0.118 A  
HETATM   18  C   UNL     1      -7.555   5.610  72.226  1.00  0.00    -0.101 A  
HETATM   19  N   UNL     1      -8.535   4.615  74.210  1.00  0.00    -0.104 NA 
HETATM   20  H2  UNL     1      -8.679   3.606  74.215  1.00  0.00     0.000 HD 
HETATM   21  H1  UNL     1      -7.691   4.822  74.746  1.00  0.00     0.000 HD 
HETATM   22  C   UNL     1      -7.639   5.970  70.878  1.00  0.00    -0.096 A  
ENDBRANCH  11  14
ENDBRANCH   9  11
ENDBRANCH   7   9
BRANCH   8  23
HETATM   23  O   UNL     1      -9.998   9.500  69.847  1.00  0.00    -0.200 OA 
HETATM   24  C   UNL     1      -8.768   9.478  70.562  1.00  0.00    -0.197 C  
ENDBRANCH   8  23
ENDBRANCH   2   3
TORSDOF 5
ENDMDL
MODEL      240
REMARK 921   NORMALIZED FREE ENERGY PREDICTED BY IDOCK:   -2.91 KCAL/MOL
REMARK 922        TOTAL FREE ENERGY PREDICTED BY IDOCK:   -4.27 KCAL/MOL
REMARK 923 INTER-LIGAND FREE ENERGY PREDICTED BY IDOCK:   -3.70 KCAL/MOL
REMARK 924 INTRA-LIGAND FREE ENERGY PREDICTED BY IDOCK:   -0.57 KCAL/MOL
REMARK 927      BINDING AFFINITY PREDICTED BY RF-SCORE:    0.00 PKD
ROOT
HETATM    1  C   UNL     1      -9.109   6.368  74.176  1.00  0.00    -0.158 C  
HETATM    2  O   UNL     1     -10.285   5.662  73.788  1.00  0.00    -0.193 OA 
ENDROOT
BRANCH   2   3
HETATM    3  C   UNL     1     -10.852   6.096  72.608  1.00  0.00    -0.245 A  
HETATM    4  N   UNL     1     -11.826   7.029  72.701  1.00  0.00    -0.108 NA 
HETATM    5  C   UNL     1     -12.383   7.429  71.552  1.00  0.00    -0.353 A  
HETATM    6  N   UNL     1     -12.054   7.002  70.333  1.00  0.00    -0.221 NA 
HETATM    7  C   UNL     1     -11.101   6.059  70.301  1.00  0.00    -0.345 A  
HETATM    8  C   UNL     1     -10.436   5.539  71.408  1.00  0.00    -0.240 A  
BRANCH   7   9
HETATM    9  N   UNL     1     -10.826   5.613  68.982  1.00  0.00    -0.242 N  
HETATM   10  H   UNL     1     -11.137   4.701  68.644  1.00  0.00     0.000 HD 
BRANCH   9  11
HETATM   11  S   UNL     1      -9.958   6.675  68.006  1.00  0.00    -0.151 S  
HETATM   12  O   UNL     1      -9.004   7.332  68.878  1.00  0.00    -0.134 OA 
HETATM   13  O   UNL     1     -10.875   7.445  67.195  1.00  0.00    -0.331 OA 
BRANCH  11  14
HETATM   14  C   UNL     1      -9.020   5.604  66.942  1.00  0.00    -0.112 A  
HETATM   15  C   UNL     1      -9.112   4.218  67.086  1.00  0.00    -0.150 A  
HETATM   16  C   UNL     1      -8.385   3.386  66.229  1.00  0.00    -0.103 A  
HETATM   17  C   UNL     1      -7.536   3.925  65.258  1.00  0.00    -0.081 A  
HETATM   18  C   UNL     1      -7.519   5.312  65.073  1.00  0.00    -0.073 A  
HETATM   19  N   UNL     1      -6.897   3.086  64.337  1.00  0.00    -0.039 NA 
HETATM   20  H2  UNL     1      -7.608   2.524  63.867  1.00  0.00     0.000 HD 
HETATM   21  H1  UNL     1      -6.278   3.479  63.628  1.00  0.00     0.000 HD 
HETATM   22  C   UNL     1      -8.244   6.155  65.921  1.00  0.00    -0.131 A  
ENDBRANCH  11  14
ENDBRANCH   9  11
ENDBRANCH   7   9
BRANCH   8  23
HETATM   23  O   UNL     1      -9.517   4.557  71.172  1.00  0.00    -0.139 OA 
HETATM   24  C   UNL     1      -9.831   3.231  71.582  1.00  0.00    -0.150 C  
ENDBRANCH   8  23
ENDBRANCH   2   3
TORSDOF 5
ENDMDL
MODEL      241
REMARK 921   NORMALIZED FREE ENERGY PREDICTED BY IDOCK:   -2.91 KCAL/MOL
REMARK 922        TOTAL FREE ENERGY PREDICTED BY IDOCK:   -4.27 KCAL/MOL
REMARK 923 INTER-LIGAND FREE ENERGY PREDICTED BY IDOCK:   -3.76 KCAL/MOL
REMARK 924 INTRA-LIGAND FREE ENERGY PREDICTED BY IDOCK:   -0.51 KCAL/MOL
REMARK 927      BINDING AFFINITY PREDICTED BY RF-SCORE:    0.00 PKD
ROOT
HETATM    1  C   UNL     1      -7.791  14.253  67.985  1.00  0.00    -0.143 C  
HETATM    2  O   UNL     1      -6.799  13.251  67.781  1.00  0.00    -0.120 OA 
ENDROOT
BRANCH   2   3
HETATM    3  C   UNL     1      -7.292  12.034  67.359  1.00  0.00    -0.150 A  
HETATM    4  N   UNL     1      -8.364  12.056  66.535  1.00  0.00    -0.088 NA 
HETATM    5  C   UNL     1      -8.845  10.869  66.147  1.00  0.00    -0.186 A  
HETATM    6  N   UNL     1      -8.356   9.678  66.488  1.00  0.00    -0.119 NA 
HETATM    7  C   UNL     1      -7.309   9.713  67.326  1.00  0.00    -0.087 A  
HETATM    8  C   UNL     1      -6.705  10.865  67.821  1.00  0.00    -0.064 A  
BRANCH   7   9
HETATM    9  N   UNL     1      -6.862   8.415  67.688  1.00  0.00    -0.066 N  
HETATM   10  H   UNL     1      -6.004   8.014  67.307  1.00  0.00     0.000 HD 
BRANCH   9  11
HETATM   11  S   UNL     1      -7.830   7.576  68.780  1.00  0.00    -0.123 S  
HETATM   12  O   UNL     1      -8.630   8.576  69.459  1.00  0.00    -0.128 OA 
HETATM   13  O   UNL     1      -7.016   6.644  69.529  1.00  0.00    -0.062 OA 
BRANCH  11  14
HETATM   14  C   UNL     1      -8.941   6.654  67.742  1.00  0.00    -0.112 A  
HETATM   15  C   UNL     1     -10.300   6.972  67.716  1.00  0.00    -0.255 A  
HETATM   16  C   UNL     1     -11.160   6.252  66.880  1.00  0.00    -0.329 A  
HETATM   17  C   UNL     1     -10.682   5.195  66.101  1.00  0.00    -0.185 A  
HETATM   18  C   UNL     1      -9.305   4.945  66.076  1.00  0.00    -0.158 A  
HETATM   19  N   UNL     1     -11.529   4.553  65.189  1.00  0.00    -1.109 NA 
HETATM   20  H2  UNL     1     -11.923   5.258  64.566  1.00  0.00     0.000 HD 
HETATM   21  H1  UNL     1     -11.180   3.781  64.621  1.00  0.00     0.000 HD 
HETATM   22  C   UNL     1      -8.434   5.658  66.906  1.00  0.00    -0.111 A  
ENDBRANCH  11  14
ENDBRANCH   9  11
ENDBRANCH   7   9
BRANCH   8  23
HETATM   23  O   UNL     1      -5.668  10.693  68.693  1.00  0.00    -0.041 OA 
HETATM   24  C   UNL     1      -5.920  10.882  70.081  1.00  0.00    -0.120 C  
ENDBRANCH   8  23
ENDBRANCH   2   3
TORSDOF 5
ENDMDL
MODEL      242
REMARK 921   NORMALIZED FREE ENERGY PREDICTED BY IDOCK:   -2.89 KCAL/MOL
REMARK 922        TOTAL FREE ENERGY PREDICTED BY IDOCK:   -4.24 KCAL/MOL
REMARK 923 INTER-LIGAND FREE ENERGY PREDICTED BY IDOCK:   -4.39 KCAL/MOL
REMARK 924 INTRA-LIGAND FREE ENERGY PREDICTED BY IDOCK:    0.14 KCAL/MOL
REMARK 927      BINDING AFFINITY PREDICTED BY RF-SCORE:    0.00 PKD
ROOT
HETATM    1  C   UNL     1     -10.358   8.445  66.643  1.00  0.00    -0.228 C  
HETATM    2  O   UNL     1      -9.873   9.533  67.423  1.00  0.00    -0.154 OA 
ENDROOT
BRANCH   2   3
HETATM    3  C   UNL     1      -9.309   9.169  68.628  1.00  0.00    -0.135 A  
HETATM    4  N   UNL     1      -8.047   8.684  68.596  1.00  0.00    -0.115 NA 
HETATM    5  C   UNL     1      -7.516   8.316  69.768  1.00  0.00    -0.077 A  
HETATM    6  N   UNL     1      -8.113   8.399  70.956  1.00  0.00    -0.108 NA 
HETATM    7  C   UNL     1      -9.372   8.862  70.928  1.00  0.00    -0.238 A  
HETATM    8  C   UNL     1     -10.059   9.275  69.790  1.00  0.00    -0.204 A  
BRANCH   7   9
HETATM    9  N   UNL     1      -9.969   8.884  72.216  1.00  0.00    -0.232 N  
HETATM   10  H   UNL     1      -9.794   9.639  72.880  1.00  0.00     0.000 HD 
BRANCH   9  11
HETATM   11  S   UNL     1     -10.982   7.591  72.584  1.00  0.00    -0.365 S  
HETATM   12  O   UNL     1     -12.279   7.927  72.029  1.00  0.00    -0.297 OA 
HETATM   13  O   UNL     1     -10.840   7.249  73.983  1.00  0.00    -0.212 OA 
BRANCH  11  14
HETATM   14  C   UNL     1     -10.340   6.255  71.604  1.00  0.00    -0.212 A  
HETATM   15  C   UNL     1      -9.396   5.380  72.146  1.00  0.00    -0.161 A  
HETATM   16  C   UNL     1      -8.914   4.320  71.370  1.00  0.00    -0.163 A  
HETATM   17  C   UNL     1      -9.334   4.152  70.048  1.00  0.00    -0.167 A  
HETATM   18  C   UNL     1     -10.340   4.987  69.549  1.00  0.00    -0.231 A  
HETATM   19  N   UNL     1      -8.928   3.028  69.318  1.00  0.00    -0.104 NA 
HETATM   20  H2  UNL     1      -9.183   2.193  69.845  1.00  0.00     0.000 HD 
HETATM   21  H1  UNL     1      -9.234   2.905  68.353  1.00  0.00     0.000 HD 
HETATM   22  C   UNL     1     -10.833   6.048  70.314  1.00  0.00    -0.398 A  
ENDBRANCH  11  14
ENDBRANCH   9  11
ENDBRANCH   7   9
BRANCH   8  23
HETATM   23  O   UNL     1     -11.350   9.686  69.963  1.00  0.00    -0.241 OA 
HETATM   24  C   UNL     1     -11.611  11.084  69.996  1.00  0.00    -0.344 C  
ENDBRANCH   8  23
ENDBRANCH   2   3
TORSDOF 5
ENDMDL
MODEL      243
REMARK 921   NORMALIZED FREE ENERGY PREDICTED BY IDOCK:   -2.89 KCAL/MOL
REMARK 922        TOTAL FREE ENERGY PREDICTED BY IDOCK:   -4.24 KCAL/MOL
REMARK 923 INTER-LIGAND FREE ENERGY PREDICTED BY IDOCK:   -4.01 KCAL/MOL
REMARK 924 INTRA-LIGAND FREE ENERGY PREDICTED BY IDOCK:   -0.23 KCAL/MOL
REMARK 927      BINDING AFFINITY PREDICTED BY RF-SCORE:    0.00 PKD
ROOT
HETATM    1  C   UNL     1      -7.544   9.823  70.137  1.00  0.00    -0.171 C  
HETATM    2  O   UNL     1      -6.480   9.222  70.870  1.00  0.00    -0.065 OA 
ENDROOT
BRANCH   2   3
HETATM    3  C   UNL     1      -6.884   8.324  71.836  1.00  0.00    -0.082 A  
HETATM    4  N   UNL     1      -6.789   8.722  73.124  1.00  0.00    -0.325 NA 
HETATM    5  C   UNL     1      -7.166   7.836  74.054  1.00  0.00    -0.126 A  
HETATM    6  N   UNL     1      -7.634   6.610  73.821  1.00  0.00    -0.083 NA 
HETATM    7  C   UNL     1      -7.683   6.258  72.528  1.00  0.00    -0.102 A  
HETATM    8  C   UNL     1      -7.320   7.064  71.453  1.00  0.00    -0.080 A  
BRANCH   7   9
HETATM    9  N   UNL     1      -8.147   4.928  72.347  1.00  0.00    -0.109 N  
HETATM   10  H   UNL     1      -7.528   4.177  72.038  1.00  0.00     0.000 HD 
BRANCH   9  11
HETATM   11  S   UNL     1      -9.777   4.662  72.673  1.00  0.00    -0.147 S  
HETATM   12  O   UNL     1      -9.908   4.691  74.116  1.00  0.00    -0.138 OA 
HETATM   13  O   UNL     1     -10.243   3.526  71.908  1.00  0.00    -0.141 OA 
BRANCH  11  14
HETATM   14  C   UNL     1     -10.577   6.126  72.060  1.00  0.00    -0.218 A  
HETATM   15  C   UNL     1     -10.922   6.223  70.710  1.00  0.00    -0.357 A  
HETATM   16  C   UNL     1     -11.570   7.372  70.245  1.00  0.00    -0.155 A  
HETATM   17  C   UNL     1     -11.838   8.440  71.106  1.00  0.00    -0.282 A  
HETATM   18  C   UNL     1     -11.561   8.293  72.469  1.00  0.00    -0.454 A  
HETATM   19  N   UNL     1     -12.581   9.538  70.654  1.00  0.00    -0.507 NA 
HETATM   20  H2  UNL     1     -13.466   9.195  70.281  1.00  0.00     0.000 HD 
HETATM   21  H1  UNL     1     -12.777  10.318  71.282  1.00  0.00     0.000 HD 
HETATM   22  C   UNL     1     -10.916   7.149  72.948  1.00  0.00    -0.359 A  
ENDBRANCH  11  14
ENDBRANCH   9  11
ENDBRANCH   7   9
BRANCH   8  23
HETATM   23  O   UNL     1      -7.409   6.511  70.208  1.00  0.00    -0.083 OA 
HETATM   24  C   UNL     1      -6.211   6.053  69.590  1.00  0.00    -0.030 C  
ENDBRANCH   8  23
ENDBRANCH   2   3
TORSDOF 5
ENDMDL
MODEL      244
REMARK 921   NORMALIZED FREE ENERGY PREDICTED BY IDOCK:   -2.87 KCAL/MOL
REMARK 922        TOTAL FREE ENERGY PREDICTED BY IDOCK:   -4.21 KCAL/MOL
REMARK 923 INTER-LIGAND FREE ENERGY PREDICTED BY IDOCK:   -3.54 KCAL/MOL
REMARK 924 INTRA-LIGAND FREE ENERGY PREDICTED BY IDOCK:   -0.68 KCAL/MOL
REMARK 927      BINDING AFFINITY PREDICTED BY RF-SCORE:    0.00 PKD
ROOT
HETATM    1  C   UNL     1     -10.757  14.507  68.330  1.00  0.00    -0.243 C  
HETATM    2  O   UNL     1     -11.097  13.123  68.355  1.00  0.00    -0.242 OA 
ENDROOT
BRANCH   2   3
HETATM    3  C   UNL     1     -10.415  12.348  67.440  1.00  0.00    -0.215 A  
HETATM    4  N   UNL     1     -10.458  12.741  66.147  1.00  0.00    -0.263 NA 
HETATM    5  C   UNL     1      -9.809  11.972  65.266  1.00  0.00    -0.213 A  
HETATM    6  N   UNL     1      -9.117  10.869  65.551  1.00  0.00    -0.197 NA 
HETATM    7  C   UNL     1      -9.128  10.511  66.843  1.00  0.00    -0.147 A  
HETATM    8  C   UNL     1      -9.762  11.203  67.871  1.00  0.00    -0.174 A  
BRANCH   7   9
HETATM    9  N   UNL     1      -8.414   9.307  67.077  1.00  0.00    -0.123 N  
HETATM   10  H   UNL     1      -7.502   9.299  67.536  1.00  0.00     0.000 HD 
BRANCH   9  11
HETATM   11  S   UNL     1      -9.157   7.891  66.552  1.00  0.00    -0.178 S  
HETATM   12  O   UNL     1      -8.501   7.529  65.311  1.00  0.00    -0.132 OA 
HETATM   13  O   UNL     1     -10.594   8.049  66.612  1.00  0.00    -0.277 OA 
BRANCH  11  14
HETATM   14  C   UNL     1      -8.667   6.681  67.758  1.00  0.00    -0.116 A  
HETATM   15  C   UNL     1      -8.068   5.487  67.349  1.00  0.00    -0.101 A  
HETATM   16  C   UNL     1      -7.668   4.553  68.310  1.00  0.00    -0.080 A  
HETATM   17  C   UNL     1      -7.898   4.781  69.670  1.00  0.00    -0.066 A  
HETATM   18  C   UNL     1      -8.422   6.016  70.067  1.00  0.00    -0.131 A  
HETATM   19  N   UNL     1      -7.398   3.890  70.627  1.00  0.00    -0.041 NA 
HETATM   20  H2  UNL     1      -6.393   3.793  70.482  1.00  0.00     0.000 HD 
HETATM   21  H1  UNL     1      -7.565   4.056  71.619  1.00  0.00     0.000 HD 
HETATM   22  C   UNL     1      -8.824   6.960  69.117  1.00  0.00    -0.134 A  
ENDBRANCH  11  14
ENDBRANCH   9  11
ENDBRANCH   7   9
BRANCH   8  23
HETATM   23  O   UNL     1      -9.687  10.658  69.122  1.00  0.00    -0.204 OA 
HETATM   24  C   UNL     1     -10.859  10.063  69.667  1.00  0.00    -0.260 C  
ENDBRANCH   8  23
ENDBRANCH   2   3
TORSDOF 5
ENDMDL
MODEL      245
REMARK 921   NORMALIZED FREE ENERGY PREDICTED BY IDOCK:   -2.84 KCAL/MOL
REMARK 922        TOTAL FREE ENERGY PREDICTED BY IDOCK:   -4.18 KCAL/MOL
REMARK 923 INTER-LIGAND FREE ENERGY PREDICTED BY IDOCK:   -4.21 KCAL/MOL
REMARK 924 INTRA-LIGAND FREE ENERGY PREDICTED BY IDOCK:    0.03 KCAL/MOL
REMARK 927      BINDING AFFINITY PREDICTED BY RF-SCORE:    0.00 PKD
ROOT
HETATM    1  C   UNL     1      -6.365   8.374  62.764  1.00  0.00    -0.087 C  
HETATM    2  O   UNL     1      -6.441   9.552  63.562  1.00  0.00    -0.096 OA 
ENDROOT
BRANCH   2   3
HETATM    3  C   UNL     1      -7.099   9.391  64.763  1.00  0.00    -0.102 A  
HETATM    4  N   UNL     1      -6.547   8.540  65.658  1.00  0.00    -0.059 NA 
HETATM    5  C   UNL     1      -7.203   8.377  66.812  1.00  0.00    -0.078 A  
HETATM    6  N   UNL     1      -8.336   8.985  67.160  1.00  0.00    -0.110 NA 
HETATM    7  C   UNL     1      -8.854   9.798  66.227  1.00  0.00    -0.147 A  
HETATM    8  C   UNL     1      -8.293  10.062  64.981  1.00  0.00    -0.155 A  
BRANCH   7   9
HETATM    9  N   UNL     1     -10.082  10.380  66.638  1.00  0.00    -0.216 N  
HETATM   10  H   UNL     1     -10.961  10.181  66.159  1.00  0.00     0.000 HD 
BRANCH   9  11
HETATM   11  S   UNL     1     -10.003  11.420  67.960  1.00  0.00    -0.188 S  
HETATM   12  O   UNL     1      -8.638  11.351  68.444  1.00  0.00    -0.146 OA 
HETATM   13  O   UNL     1     -11.117  11.161  68.845  1.00  0.00    -0.199 OA 
BRANCH  11  14
HETATM   14  C   UNL     1     -10.207  13.034  67.244  1.00  0.00    -0.239 A  
HETATM   15  C   UNL     1     -11.441  13.684  67.324  1.00  0.00    -0.370 A  
HETATM   16  C   UNL     1     -11.582  14.962  66.774  1.00  0.00    -0.275 A  
HETATM   17  C   UNL     1     -10.517  15.579  66.111  1.00  0.00    -0.313 A  
HETATM   18  C   UNL     1      -9.268  14.949  66.112  1.00  0.00    -0.268 A  
HETATM   19  N   UNL     1     -10.639  16.899  65.660  1.00  0.00    -0.481 NA 
HETATM   20  H2  UNL     1     -10.907  17.485  66.450  1.00  0.00     0.000 HD 
HETATM   21  H1  UNL     1      -9.861  17.349  65.176  1.00  0.00     0.000 HD 
HETATM   22  C   UNL     1      -9.111  13.672  66.660  1.00  0.00    -0.189 A  
ENDBRANCH  11  14
ENDBRANCH   9  11
ENDBRANCH   7   9
BRANCH   8  23
HETATM   23  O   UNL     1      -8.991  10.895  64.153  1.00  0.00    -0.174 OA 
HETATM   24  C   UNL     1      -9.309  10.432  62.846  1.00  0.00    -0.319 C  
ENDBRANCH   8  23
ENDBRANCH   2   3
TORSDOF 5
ENDMDL
MODEL      246
REMARK 921   NORMALIZED FREE ENERGY PREDICTED BY IDOCK:   -2.77 KCAL/MOL
REMARK 922        TOTAL FREE ENERGY PREDICTED BY IDOCK:   -4.09 KCAL/MOL
REMARK 923 INTER-LIGAND FREE ENERGY PREDICTED BY IDOCK:   -3.79 KCAL/MOL
REMARK 924 INTRA-LIGAND FREE ENERGY PREDICTED BY IDOCK:   -0.29 KCAL/MOL
REMARK 927      BINDING AFFINITY PREDICTED BY RF-SCORE:    0.00 PKD
ROOT
HETATM    1  C   UNL     1      -8.381  12.645  68.280  1.00  0.00    -0.165 C  
HETATM    2  O   UNL     1      -7.640  11.447  68.068  1.00  0.00    -0.100 OA 
ENDROOT
BRANCH   2   3
HETATM    3  C   UNL     1      -8.350  10.432  67.461  1.00  0.00    -0.114 A  
HETATM    4  N   UNL     1      -9.292  10.793  66.561  1.00  0.00    -0.165 NA 
HETATM    5  C   UNL     1      -9.988   9.802  65.992  1.00  0.00    -0.272 A  
HETATM    6  N   UNL     1      -9.825   8.500  66.223  1.00  0.00    -0.246 NA 
HETATM    7  C   UNL     1      -8.897   8.199  67.143  1.00  0.00    -0.131 A  
HETATM    8  C   UNL     1      -8.101   9.117  67.823  1.00  0.00    -0.105 A  
BRANCH   7   9
HETATM    9  N   UNL     1      -8.802   6.802  67.379  1.00  0.00    -0.117 N  
HETATM   10  H   UNL     1      -7.953   6.276  67.171  1.00  0.00     0.000 HD 
BRANCH   9  11
HETATM   11  S   UNL     1     -10.172   6.065  68.021  1.00  0.00    -0.204 S  
HETATM   12  O   UNL     1      -9.923   4.638  67.967  1.00  0.00    -0.135 OA 
HETATM   13  O   UNL     1     -11.356   6.635  67.416  1.00  0.00    -0.299 OA 
BRANCH  11  14
HETATM   14  C   UNL     1     -10.135   6.523  69.738  1.00  0.00    -0.178 A  
HETATM   15  C   UNL     1      -9.338   5.809  70.636  1.00  0.00    -0.186 A  
HETATM   16  C   UNL     1      -9.303   6.193  71.981  1.00  0.00    -0.154 A  
HETATM   17  C   UNL     1     -10.085   7.255  72.443  1.00  0.00    -0.185 A  
HETATM   18  C   UNL     1     -10.812   8.010  71.516  1.00  0.00    -0.278 A  
HETATM   19  N   UNL     1      -9.960   7.697  73.766  1.00  0.00    -0.361 NA 
HETATM   20  H2  UNL     1      -8.980   7.921  73.939  1.00  0.00     0.000 HD 
HETATM   21  H1  UNL     1     -10.530   8.472  74.104  1.00  0.00     0.000 HD 
HETATM   22  C   UNL     1     -10.855   7.639  70.169  1.00  0.00    -0.255 A  
ENDBRANCH  11  14
ENDBRANCH   9  11
ENDBRANCH   7   9
BRANCH   8  23
HETATM   23  O   UNL     1      -7.233   8.615  68.750  1.00  0.00    -0.072 OA 
HETATM   24  C   UNL     1      -7.396   9.012  70.107  1.00  0.00    -0.065 C  
ENDBRANCH   8  23
ENDBRANCH   2   3
TORSDOF 5
ENDMDL
MODEL      247
REMARK 921   NORMALIZED FREE ENERGY PREDICTED BY IDOCK:   -2.76 KCAL/MOL
REMARK 922        TOTAL FREE ENERGY PREDICTED BY IDOCK:   -4.07 KCAL/MOL
REMARK 923 INTER-LIGAND FREE ENERGY PREDICTED BY IDOCK:   -3.68 KCAL/MOL
REMARK 924 INTRA-LIGAND FREE ENERGY PREDICTED BY IDOCK:   -0.40 KCAL/MOL
REMARK 927      BINDING AFFINITY PREDICTED BY RF-SCORE:    0.00 PKD
ROOT
HETATM    1  C   UNL     1     -10.747  10.837  66.847  1.00  0.00    -0.252 C  
HETATM    2  O   UNL     1     -10.260  11.346  68.085  1.00  0.00    -0.176 OA 
ENDROOT
BRANCH   2   3
HETATM    3  C   UNL     1      -9.132  10.712  68.562  1.00  0.00    -0.159 A  
HETATM    4  N   UNL     1      -7.936  11.231  68.202  1.00  0.00    -0.124 NA 
HETATM    5  C   UNL     1      -6.848  10.597  68.655  1.00  0.00    -0.059 A  
HETATM    6  N   UNL     1      -6.840   9.517  69.435  1.00  0.00    -0.048 NA 
HETATM    7  C   UNL     1      -8.052   9.030  69.741  1.00  0.00    -0.109 A  
HETATM    8  C   UNL     1      -9.269   9.572  69.340  1.00  0.00    -0.176 A  
BRANCH   7   9
HETATM    9  N   UNL     1      -7.977   7.855  70.535  1.00  0.00    -0.095 N  
HETATM   10  H   UNL     1      -8.282   7.841  71.509  1.00  0.00     0.000 HD 
BRANCH   9  11
HETATM   11  S   UNL     1      -7.357   6.486  69.776  1.00  0.00    -0.081 S  
HETATM   12  O   UNL     1      -7.415   5.422  70.758  1.00  0.00    -0.075 OA 
HETATM   13  O   UNL     1      -6.113   6.821  69.118  1.00  0.00    -0.024 OA 
BRANCH  11  14
HETATM   14  C   UNL     1      -8.571   6.102  68.536  1.00  0.00    -0.113 A  
HETATM   15  C   UNL     1      -8.272   6.284  67.184  1.00  0.00    -0.109 A  
HETATM   16  C   UNL     1      -9.229   5.957  66.217  1.00  0.00    -0.171 A  
HETATM   17  C   UNL     1     -10.493   5.491  66.590  1.00  0.00    -0.294 A  
HETATM   18  C   UNL     1     -10.746   5.236  67.942  1.00  0.00    -0.008 A  
HETATM   19  N   UNL     1     -11.403   5.067  65.613  1.00  0.00    -0.874 NA 
HETATM   20  H2  UNL     1     -10.951   4.352  65.042  1.00  0.00     0.000 HD 
HETATM   21  H1  UNL     1     -12.325   4.727  65.885  1.00  0.00     0.000 HD 
HETATM   22  C   UNL     1      -9.797   5.555  68.919  1.00  0.00    -0.213 A  
ENDBRANCH  11  14
ENDBRANCH   9  11
ENDBRANCH   7   9
BRANCH   8  23
HETATM   23  O   UNL     1     -10.399   8.909  69.727  1.00  0.00    -0.196 OA 
HETATM   24  C   UNL     1     -11.107   9.395  70.861  1.00  0.00    -0.319 C  
ENDBRANCH   8  23
ENDBRANCH   2   3
TORSDOF 5
ENDMDL
MODEL      248
REMARK 921   NORMALIZED FREE ENERGY PREDICTED BY IDOCK:   -2.75 KCAL/MOL
REMARK 922        TOTAL FREE ENERGY PREDICTED BY IDOCK:   -4.07 KCAL/MOL
REMARK 923 INTER-LIGAND FREE ENERGY PREDICTED BY IDOCK:   -3.59 KCAL/MOL
REMARK 924 INTRA-LIGAND FREE ENERGY PREDICTED BY IDOCK:   -0.48 KCAL/MOL
REMARK 927      BINDING AFFINITY PREDICTED BY RF-SCORE:    0.00 PKD
ROOT
HETATM    1  C   UNL     1     -12.034  14.397  66.335  1.00  0.00    -0.385 C  
HETATM    2  O   UNL     1     -11.505  14.064  67.615  1.00  0.00    -0.299 OA 
ENDROOT
BRANCH   2   3
HETATM    3  C   UNL     1     -11.201  12.728  67.780  1.00  0.00    -0.275 A  
HETATM    4  N   UNL     1     -12.055  11.991  68.526  1.00  0.00    -0.364 NA 
HETATM    5  C   UNL     1     -11.741  10.701  68.696  1.00  0.00    -0.158 A  
HETATM    6  N   UNL     1     -10.676  10.082  68.186  1.00  0.00    -0.225 NA 
HETATM    7  C   UNL     1      -9.850  10.866  67.477  1.00  0.00    -0.168 A  
HETATM    8  C   UNL     1     -10.038  12.221  67.221  1.00  0.00    -0.204 A  
BRANCH   7   9
HETATM    9  N   UNL     1      -8.714  10.161  67.000  1.00  0.00    -0.132 N  
HETATM   10  H   UNL     1      -8.612   9.901  66.019  1.00  0.00     0.000 HD 
BRANCH   9  11
HETATM   11  S   UNL     1      -7.544   9.779  68.149  1.00  0.00    -0.081 S  
HETATM   12  O   UNL     1      -7.852  10.578  69.318  1.00  0.00    -0.126 OA 
HETATM   13  O   UNL     1      -6.233   9.832  67.539  1.00  0.00    -0.058 OA 
BRANCH  11  14
HETATM   14  C   UNL     1      -7.904   8.091  68.576  1.00  0.00    -0.115 A  
HETATM   15  C   UNL     1      -7.845   7.094  67.601  1.00  0.00    -0.113 A  
HETATM   16  C   UNL     1      -8.111   5.767  67.955  1.00  0.00    -0.104 A  
HETATM   17  C   UNL     1      -8.474   5.435  69.263  1.00  0.00    -0.099 A  
HETATM   18  C   UNL     1      -8.447   6.432  70.244  1.00  0.00    -0.135 A  
HETATM   19  N   UNL     1      -8.632   4.092  69.629  1.00  0.00    -0.070 NA 
HETATM   20  H2  UNL     1      -7.774   3.592  69.397  1.00  0.00     0.000 HD 
HETATM   21  H1  UNL     1      -8.897   3.849  70.584  1.00  0.00     0.000 HD 
HETATM   22  C   UNL     1      -8.180   7.762  69.905  1.00  0.00    -0.125 A  
ENDBRANCH  11  14
ENDBRANCH   9  11
ENDBRANCH   7   9
BRANCH   8  23
HETATM   23  O   UNL     1      -9.064  12.855  66.504  1.00  0.00    -0.213 OA 
HETATM   24  C   UNL     1      -8.136  13.672  67.209  1.00  0.00    -0.139 C  
ENDBRANCH   8  23
ENDBRANCH   2   3
TORSDOF 5
ENDMDL
MODEL      249
REMARK 921   NORMALIZED FREE ENERGY PREDICTED BY IDOCK:   -2.75 KCAL/MOL
REMARK 922        TOTAL FREE ENERGY PREDICTED BY IDOCK:   -4.07 KCAL/MOL
REMARK 923 INTER-LIGAND FREE ENERGY PREDICTED BY IDOCK:   -4.43 KCAL/MOL
REMARK 924 INTRA-LIGAND FREE ENERGY PREDICTED BY IDOCK:    0.36 KCAL/MOL
REMARK 927      BINDING AFFINITY PREDICTED BY RF-SCORE:    0.00 PKD
ROOT
HETATM    1  C   UNL     1      -9.593  15.030  68.769  1.00  0.00    -0.220 C  
HETATM    2  O   UNL     1     -10.140  13.836  68.216  1.00  0.00    -0.227 OA 
ENDROOT
BRANCH   2   3
HETATM    3  C   UNL     1      -9.224  12.823  68.019  1.00  0.00    -0.208 A  
HETATM    4  N   UNL     1      -8.081  13.145  67.372  1.00  0.00    -0.180 NA 
HETATM    5  C   UNL     1      -7.208  12.151  67.169  1.00  0.00    -0.117 A  
HETATM    6  N   UNL     1      -7.360  10.886  67.558  1.00  0.00    -0.094 NA 
HETATM    7  C   UNL     1      -8.522  10.617  68.172  1.00  0.00    -0.122 A  
HETATM    8  C   UNL     1      -9.527  11.539  68.447  1.00  0.00    -0.195 A  
BRANCH   7   9
HETATM    9  N   UNL     1      -8.644   9.246  68.521  1.00  0.00    -0.127 N  
HETATM   10  H   UNL     1      -8.373   8.896  69.441  1.00  0.00     0.000 HD 
BRANCH   9  11
HETATM   11  S   UNL     1      -9.261   8.230  67.329  1.00  0.00    -0.142 S  
HETATM   12  O   UNL     1     -10.691   8.166  67.557  1.00  0.00    -0.242 OA 
HETATM   13  O   UNL     1      -8.466   7.023  67.264  1.00  0.00    -0.120 OA 
BRANCH  11  14
HETATM   14  C   UNL     1      -9.025   9.148  65.825  1.00  0.00    -0.193 A  
HETATM   15  C   UNL     1     -10.012  10.031  65.383  1.00  0.00    -0.364 A  
HETATM   16  C   UNL     1      -9.805  10.763  64.209  1.00  0.00    -0.384 A  
HETATM   17  C   UNL     1      -8.642  10.590  63.453  1.00  0.00    -0.172 A  
HETATM   18  C   UNL     1      -7.629   9.764  63.954  1.00  0.00    -0.133 A  
HETATM   19  N   UNL     1      -8.398  11.404  62.340  1.00  0.00    -0.611 NA 
HETATM   20  H2  UNL     1      -8.446  12.378  62.638  1.00  0.00     0.000 HD 
HETATM   21  H1  UNL     1      -7.550  11.278  61.788  1.00  0.00     0.000 HD 
HETATM   22  C   UNL     1      -7.822   9.029  65.127  1.00  0.00    -0.108 A  
ENDBRANCH  11  14
ENDBRANCH   9  11
ENDBRANCH   7   9
BRANCH   8  23
HETATM   23  O   UNL     1     -10.655  11.063  69.052  1.00  0.00    -0.207 OA 
HETATM   24  C   UNL     1     -11.903  11.267  68.400  1.00  0.00    -0.261 C  
ENDBRANCH   8  23
ENDBRANCH   2   3
TORSDOF 5
ENDMDL
MODEL      250
REMARK 921   NORMALIZED FREE ENERGY PREDICTED BY IDOCK:   -2.74 KCAL/MOL
REMARK 922        TOTAL FREE ENERGY PREDICTED BY IDOCK:   -4.05 KCAL/MOL
REMARK 923 INTER-LIGAND FREE ENERGY PREDICTED BY IDOCK:   -4.35 KCAL/MOL
REMARK 924 INTRA-LIGAND FREE ENERGY PREDICTED BY IDOCK:    0.30 KCAL/MOL
REMARK 927      BINDING AFFINITY PREDICTED BY RF-SCORE:    0.00 PKD
ROOT
HETATM    1  C   UNL     1      -9.085   4.467  65.715  1.00  0.00    -0.136 C  
HETATM    2  O   UNL     1      -8.268   5.538  66.177  1.00  0.00    -0.108 OA 
ENDROOT
BRANCH   2   3
HETATM    3  C   UNL     1      -8.347   5.778  67.533  1.00  0.00    -0.104 A  
HETATM    4  N   UNL     1      -9.341   5.158  68.210  1.00  0.00    -0.117 NA 
HETATM    5  C   UNL     1      -9.421   5.411  69.522  1.00  0.00    -0.133 A  
HETATM    6  N   UNL     1      -8.605   6.204  70.216  1.00  0.00    -0.138 NA 
HETATM    7  C   UNL     1      -7.655   6.813  69.491  1.00  0.00    -0.099 A  
HETATM    8  C   UNL     1      -7.451   6.656  68.123  1.00  0.00    -0.095 A  
BRANCH   7   9
HETATM    9  N   UNL     1      -6.847   7.678  70.277  1.00  0.00    -0.046 N  
HETATM   10  H   UNL     1      -5.950   7.379  70.660  1.00  0.00     0.000 HD 
BRANCH   9  11
HETATM   11  S   UNL     1      -7.458   9.225  70.540  1.00  0.00    -0.142 S  
HETATM   12  O   UNL     1      -7.675   9.799  69.227  1.00  0.00    -0.085 OA 
HETATM   13  O   UNL     1      -6.642   9.906  71.521  1.00  0.00    -0.311 OA 
BRANCH  11  14
HETATM   14  C   UNL     1      -9.065   8.934  71.240  1.00  0.00    -0.253 A  
HETATM   15  C   UNL     1      -9.186   8.273  72.465  1.00  0.00    -0.339 A  
HETATM   16  C   UNL     1     -10.456   8.069  73.014  1.00  0.00    -0.341 A  
HETATM   17  C   UNL     1     -11.605   8.481  72.335  1.00  0.00    -0.354 A  
HETATM   18  C   UNL     1     -11.462   9.213  71.151  1.00  0.00    -0.388 A  
HETATM   19  N   UNL     1     -12.861   8.367  72.943  1.00  0.00    -0.686 NA 
HETATM   20  H2  UNL     1     -12.828   8.850  73.841  1.00  0.00     0.000 HD 
HETATM   21  H1  UNL     1     -13.701   8.668  72.447  1.00  0.00     0.000 HD 
HETATM   22  C   UNL     1     -10.199   9.427  70.592  1.00  0.00    -0.353 A  
ENDBRANCH  11  14
ENDBRANCH   9  11
ENDBRANCH   7   9
BRANCH   8  23
HETATM   23  O   UNL     1      -6.448   7.391  67.559  1.00  0.00    -0.055 OA 
HETATM   24  C   UNL     1      -6.776   8.258  66.479  1.00  0.00    -0.063 C  
ENDBRANCH   8  23
ENDBRANCH   2   3
TORSDOF 5
ENDMDL
MODEL      251
REMARK 921   NORMALIZED FREE ENERGY PREDICTED BY IDOCK:   -2.69 KCAL/MOL
REMARK 922        TOTAL FREE ENERGY PREDICTED BY IDOCK:   -3.98 KCAL/MOL
REMARK 923 INTER-LIGAND FREE ENERGY PREDICTED BY IDOCK:   -3.90 KCAL/MOL
REMARK 924 INTRA-LIGAND FREE ENERGY PREDICTED BY IDOCK:   -0.08 KCAL/MOL
REMARK 927      BINDING AFFINITY PREDICTED BY RF-SCORE:    0.00 PKD
ROOT
HETATM    1  C   UNL     1     -10.358   5.015  70.651  1.00  0.00    -0.208 C  
HETATM    2  O   UNL     1     -10.581   6.141  71.494  1.00  0.00    -0.224 OA 
ENDROOT
BRANCH   2   3
HETATM    3  C   UNL     1      -9.739   7.209  71.260  1.00  0.00    -0.170 A  
HETATM    4  N   UNL     1      -8.450   7.071  71.645  1.00  0.00    -0.115 NA 
HETATM    5  C   UNL     1      -7.646   8.120  71.431  1.00  0.00    -0.083 A  
HETATM    6  N   UNL     1      -8.000   9.273  70.864  1.00  0.00    -0.261 NA 
HETATM    7  C   UNL     1      -9.294   9.365  70.526  1.00  0.00    -0.262 A  
HETATM    8  C   UNL     1     -10.249   8.366  70.692  1.00  0.00    -0.194 A  
BRANCH   7   9
HETATM    9  N   UNL     1      -9.619  10.630  69.969  1.00  0.00    -0.266 N  
HETATM   10  H   UNL     1     -10.395  11.192  70.321  1.00  0.00     0.000 HD 
BRANCH   9  11
HETATM   11  S   UNL     1      -8.650  11.149  68.694  1.00  0.00    -0.129 S  
HETATM   12  O   UNL     1      -7.306  11.256  69.229  1.00  0.00    -0.115 OA 
HETATM   13  O   UNL     1      -9.278  12.274  68.037  1.00  0.00    -0.182 OA 
BRANCH  11  14
HETATM   14  C   UNL     1      -8.644   9.768  67.576  1.00  0.00    -0.125 A  
HETATM   15  C   UNL     1      -9.804   9.429  66.875  1.00  0.00    -0.261 A  
HETATM   16  C   UNL     1      -9.780   8.353  65.983  1.00  0.00    -0.146 A  
HETATM   17  C   UNL     1      -8.622   7.587  65.815  1.00  0.00    -0.142 A  
HETATM   18  C   UNL     1      -7.448   7.991  66.460  1.00  0.00    -0.088 A  
HETATM   19  N   UNL     1      -8.579   6.582  64.841  1.00  0.00    -0.348 NA 
HETATM   20  H2  UNL     1      -8.825   6.994  63.942  1.00  0.00     0.000 HD 
HETATM   21  H1  UNL     1      -7.734   6.023  64.718  1.00  0.00     0.000 HD 
HETATM   22  C   UNL     1      -7.457   9.066  67.353  1.00  0.00    -0.085 A  
ENDBRANCH  11  14
ENDBRANCH   9  11
ENDBRANCH   7   9
BRANCH   8  23
HETATM   23  O   UNL     1     -11.528   8.664  70.314  1.00  0.00    -0.205 OA 
HETATM   24  C   UNL     1     -12.444   9.084  71.319  1.00  0.00    -0.289 C  
ENDBRANCH   8  23
ENDBRANCH   2   3
TORSDOF 5
ENDMDL
MODEL      252
REMARK 921   NORMALIZED FREE ENERGY PREDICTED BY IDOCK:   -2.60 KCAL/MOL
REMARK 922        TOTAL FREE ENERGY PREDICTED BY IDOCK:   -3.87 KCAL/MOL
REMARK 923 INTER-LIGAND FREE ENERGY PREDICTED BY IDOCK:   -3.82 KCAL/MOL
REMARK 924 INTRA-LIGAND FREE ENERGY PREDICTED BY IDOCK:   -0.05 KCAL/MOL
REMARK 927      BINDING AFFINITY PREDICTED BY RF-SCORE:    0.00 PKD
ROOT
HETATM    1  C   UNL     1      -9.190   7.027  74.083  1.00  0.00    -0.232 C  
HETATM    2  O   UNL     1     -10.370   6.290  73.777  1.00  0.00    -0.240 OA 
ENDROOT
BRANCH   2   3
HETATM    3  C   UNL     1     -10.792   6.398  72.468  1.00  0.00    -0.238 A  
HETATM    4  N   UNL     1     -11.853   7.200  72.228  1.00  0.00    -0.267 NA 
HETATM    5  C   UNL     1     -12.266   7.283  70.958  1.00  0.00    -0.313 A  
HETATM    6  N   UNL     1     -11.717   6.660  69.915  1.00  0.00    -0.335 NA 
HETATM    7  C   UNL     1     -10.685   5.858  70.214  1.00  0.00    -0.313 A  
HETATM    8  C   UNL     1     -10.149   5.663  71.483  1.00  0.00    -0.201 A  
BRANCH   7   9
HETATM    9  N   UNL     1     -10.173   5.188  69.071  1.00  0.00    -0.195 N  
HETATM   10  H   UNL     1     -10.070   4.173  69.040  1.00  0.00     0.000 HD 
BRANCH   9  11
HETATM   11  S   UNL     1      -9.746   6.167  67.769  1.00  0.00    -0.120 S  
HETATM   12  O   UNL     1     -10.961   6.840  67.357  1.00  0.00    -0.318 OA 
HETATM   13  O   UNL     1      -8.966   5.398  66.823  1.00  0.00    -0.112 OA 
BRANCH  11  14
HETATM   14  C   UNL     1      -8.698   7.406  68.495  1.00  0.00    -0.127 A  
HETATM   15  C   UNL     1      -9.144   8.725  68.601  1.00  0.00    -0.141 A  
HETATM   16  C   UNL     1      -8.318   9.686  69.193  1.00  0.00    -0.130 A  
HETATM   17  C   UNL     1      -7.038   9.351  69.642  1.00  0.00    -0.064 A  
HETATM   18  C   UNL     1      -6.640   8.010  69.603  1.00  0.00    -0.038 A  
HETATM   19  N   UNL     1      -6.264  10.294  70.328  1.00  0.00    -0.098 NA 
HETATM   20  H2  UNL     1      -6.804  10.636  71.123  1.00  0.00     0.000 HD 
HETATM   21  H1  UNL     1      -5.329  10.050  70.656  1.00  0.00     0.000 HD 
HETATM   22  C   UNL     1      -7.457   7.038  69.017  1.00  0.00    -0.095 A  
ENDBRANCH  11  14
ENDBRANCH   9  11
ENDBRANCH   7   9
BRANCH   8  23
HETATM   23  O   UNL     1      -9.115   4.777  71.588  1.00  0.00    -0.131 OA 
HETATM   24  C   UNL     1      -9.359   3.535  72.239  1.00  0.00    -0.115 C  
ENDBRANCH   8  23
ENDBRANCH   2   3
TORSDOF 5
ENDMDL
MODEL      253
REMARK 921   NORMALIZED FREE ENERGY PREDICTED BY IDOCK:   -2.59 KCAL/MOL
REMARK 922        TOTAL FREE ENERGY PREDICTED BY IDOCK:   -3.86 KCAL/MOL
REMARK 923 INTER-LIGAND FREE ENERGY PREDICTED BY IDOCK:   -3.33 KCAL/MOL
REMARK 924 INTRA-LIGAND FREE ENERGY PREDICTED BY IDOCK:   -0.53 KCAL/MOL
REMARK 927      BINDING AFFINITY PREDICTED BY RF-SCORE:    0.00 PKD
ROOT
HETATM    1  C   UNL     1      -9.365   6.589  73.962  1.00  0.00    -0.181 C  
HETATM    2  O   UNL     1      -9.413   6.248  72.580  1.00  0.00    -0.150 OA 
ENDROOT
BRANCH   2   3
HETATM    3  C   UNL     1      -9.741   7.293  71.742  1.00  0.00    -0.153 A  
HETATM    4  N   UNL     1     -10.636   8.195  72.205  1.00  0.00    -0.283 NA 
HETATM    5  C   UNL     1     -10.962   9.194  71.377  1.00  0.00    -0.344 A  
HETATM    6  N   UNL     1     -10.475   9.384  70.152  1.00  0.00    -0.221 NA 
HETATM    7  C   UNL     1      -9.612   8.448  69.733  1.00  0.00    -0.170 A  
HETATM    8  C   UNL     1      -9.183   7.350  70.474  1.00  0.00    -0.157 A  
BRANCH   7   9
HETATM    9  N   UNL     1      -9.163   8.680  68.406  1.00  0.00    -0.138 N  
HETATM   10  H   UNL     1      -8.338   9.246  68.206  1.00  0.00     0.000 HD 
BRANCH   9  11
HETATM   11  S   UNL     1     -10.073   7.967  67.181  1.00  0.00    -0.292 S  
HETATM   12  O   UNL     1     -10.343   9.017  66.219  1.00  0.00    -0.247 OA 
HETATM   13  O   UNL     1     -11.152   7.201  67.765  1.00  0.00    -0.142 OA 
BRANCH  11  14
HETATM   14  C   UNL     1      -8.934   6.845  66.405  1.00  0.00    -0.153 A  
HETATM   15  C   UNL     1      -7.581   7.176  66.308  1.00  0.00    -0.091 A  
HETATM   16  C   UNL     1      -6.692   6.275  65.713  1.00  0.00    -0.048 A  
HETATM   17  C   UNL     1      -7.148   5.067  65.178  1.00  0.00    -0.063 A  
HETATM   18  C   UNL     1      -8.491   4.716  65.356  1.00  0.00    -0.126 A  
HETATM   19  N   UNL     1      -6.236   4.128  64.682  1.00  0.00    -0.026 NA 
HETATM   20  H2  UNL     1      -5.559   3.919  65.416  1.00  0.00     0.000 HD 
HETATM   21  H1  UNL     1      -6.568   3.247  64.291  1.00  0.00     0.000 HD 
HETATM   22  C   UNL     1      -9.390   5.606  65.952  1.00  0.00    -0.119 A  
ENDBRANCH  11  14
ENDBRANCH   9  11
ENDBRANCH   7   9
BRANCH   8  23
HETATM   23  O   UNL     1      -8.322   6.486  69.858  1.00  0.00    -0.127 OA 
HETATM   24  C   UNL     1      -8.832   5.233  69.415  1.00  0.00    -0.100 C  
ENDBRANCH   8  23
ENDBRANCH   2   3
TORSDOF 5
ENDMDL
MODEL      254
REMARK 921   NORMALIZED FREE ENERGY PREDICTED BY IDOCK:   -2.53 KCAL/MOL
REMARK 922        TOTAL FREE ENERGY PREDICTED BY IDOCK:   -3.78 KCAL/MOL
REMARK 923 INTER-LIGAND FREE ENERGY PREDICTED BY IDOCK:   -3.35 KCAL/MOL
REMARK 924 INTRA-LIGAND FREE ENERGY PREDICTED BY IDOCK:   -0.44 KCAL/MOL
REMARK 927      BINDING AFFINITY PREDICTED BY RF-SCORE:    0.00 PKD
ROOT
HETATM    1  C   UNL     1      -9.379  10.885  63.852  1.00  0.00    -0.240 C  
HETATM    2  O   UNL     1      -8.781  10.979  65.141  1.00  0.00    -0.161 OA 
ENDROOT
BRANCH   2   3
HETATM    3  C   UNL     1      -8.886   9.837  65.908  1.00  0.00    -0.150 A  
HETATM    4  N   UNL     1      -8.685   8.656  65.282  1.00  0.00    -0.183 NA 
HETATM    5  C   UNL     1      -8.808   7.553  66.031  1.00  0.00    -0.150 A  
HETATM    6  N   UNL     1      -9.096   7.520  67.332  1.00  0.00    -0.125 NA 
HETATM    7  C   UNL     1      -9.311   8.717  67.896  1.00  0.00    -0.142 A  
HETATM    8  C   UNL     1      -9.227   9.946  67.248  1.00  0.00    -0.138 A  
BRANCH   7   9
HETATM    9  N   UNL     1      -9.657   8.614  69.269  1.00  0.00    -0.164 N  
HETATM   10  H   UNL     1     -10.626   8.657  69.587  1.00  0.00     0.000 HD 
BRANCH   9  11
HETATM   11  S   UNL     1      -8.375   8.416  70.342  1.00  0.00    -0.128 S  
HETATM   12  O   UNL     1      -8.421   9.556  71.237  1.00  0.00    -0.256 OA 
HETATM   13  O   UNL     1      -7.171   8.101  69.605  1.00  0.00    -0.062 OA 
BRANCH  11  14
HETATM   14  C   UNL     1      -8.842   6.996  71.304  1.00  0.00    -0.133 A  
HETATM   15  C   UNL     1      -7.997   6.523  72.310  1.00  0.00    -0.102 A  
HETATM   16  C   UNL     1      -8.385   5.417  73.072  1.00  0.00    -0.112 A  
HETATM   17  C   UNL     1      -9.589   4.755  72.813  1.00  0.00    -0.133 A  
HETATM   18  C   UNL     1     -10.460   5.291  71.858  1.00  0.00    -0.282 A  
HETATM   19  N   UNL     1     -10.017   3.718  73.650  1.00  0.00    -0.112 NA 
HETATM   20  H2  UNL     1     -10.043   4.068  74.608  1.00  0.00     0.000 HD 
HETATM   21  H1  UNL     1     -10.895   3.235  73.461  1.00  0.00     0.000 HD 
HETATM   22  C   UNL     1     -10.085   6.398  71.090  1.00  0.00    -0.213 A  
ENDBRANCH  11  14
ENDBRANCH   9  11
ENDBRANCH   7   9
BRANCH   8  23
HETATM   23  O   UNL     1      -9.515  11.057  67.989  1.00  0.00    -0.158 OA 
HETATM   24  C   UNL     1     -10.733  11.744  67.723  1.00  0.00    -0.205 C  
ENDBRANCH   8  23
ENDBRANCH   2   3
TORSDOF 5
ENDMDL
MODEL      255
REMARK 921   NORMALIZED FREE ENERGY PREDICTED BY IDOCK:   -2.51 KCAL/MOL
REMARK 922        TOTAL FREE ENERGY PREDICTED BY IDOCK:   -3.75 KCAL/MOL
REMARK 923 INTER-LIGAND FREE ENERGY PREDICTED BY IDOCK:   -4.23 KCAL/MOL
REMARK 924 INTRA-LIGAND FREE ENERGY PREDICTED BY IDOCK:    0.48 KCAL/MOL
REMARK 927      BINDING AFFINITY PREDICTED BY RF-SCORE:    0.00 PKD
ROOT
HETATM    1  C   UNL     1      -6.476   7.003  70.122  1.00  0.00    -0.039 C  
HETATM    2  O   UNL     1      -7.725   6.890  70.798  1.00  0.00    -0.090 OA 
ENDROOT
BRANCH   2   3
HETATM    3  C   UNL     1      -8.765   7.571  70.201  1.00  0.00    -0.142 A  
HETATM    4  N   UNL     1      -9.661   6.836  69.503  1.00  0.00    -0.148 NA 
HETATM    5  C   UNL     1     -10.655   7.508  68.911  1.00  0.00    -0.169 A  
HETATM    6  N   UNL     1     -10.847   8.826  68.962  1.00  0.00    -0.099 NA 
HETATM    7  C   UNL     1      -9.916   9.508  69.646  1.00  0.00    -0.205 A  
HETATM    8  C   UNL     1      -8.824   8.952  70.306  1.00  0.00    -0.175 A  
BRANCH   7   9
HETATM    9  N   UNL     1     -10.149  10.909  69.626  1.00  0.00    -0.439 N  
HETATM   10  H   UNL     1     -10.008  11.492  70.452  1.00  0.00     0.000 HD 
BRANCH   9  11
HETATM   11  S   UNL     1     -10.672  11.552  68.160  1.00  0.00    -0.219 S  
HETATM   12  O   UNL     1     -10.328  12.959  68.194  1.00  0.00    -0.226 OA 
HETATM   13  O   UNL     1     -12.030  11.126  67.903  1.00  0.00    -0.624 OA 
BRANCH  11  14
HETATM   14  C   UNL     1      -9.602  10.795  66.959  1.00  0.00    -0.169 A  
HETATM   15  C   UNL     1     -10.137   9.980  65.960  1.00  0.00    -0.318 A  
HETATM   16  C   UNL     1      -9.286   9.408  65.008  1.00  0.00    -0.258 A  
HETATM   17  C   UNL     1      -7.904   9.608  65.071  1.00  0.00    -0.118 A  
HETATM   18  C   UNL     1      -7.395  10.494  66.027  1.00  0.00    -0.137 A  
HETATM   19  N   UNL     1      -7.076   9.120  64.053  1.00  0.00    -0.095 NA 
HETATM   20  H2  UNL     1      -7.414   9.483  63.162  1.00  0.00     0.000 HD 
HETATM   21  H1  UNL     1      -6.067   9.266  64.098  1.00  0.00     0.000 HD 
HETATM   22  C   UNL     1      -8.234  11.075  66.982  1.00  0.00    -0.138 A  
ENDBRANCH  11  14
ENDBRANCH   9  11
ENDBRANCH   7   9
BRANCH   8  23
HETATM   23  O   UNL     1      -7.966   9.819  70.920  1.00  0.00    -0.279 OA 
HETATM   24  C   UNL     1      -6.931  10.406  70.139  1.00  0.00    -0.141 C  
ENDBRANCH   8  23
ENDBRANCH   2   3
TORSDOF 5
ENDMDL
MODEL      256
REMARK 921   NORMALIZED FREE ENERGY PREDICTED BY IDOCK:   -2.47 KCAL/MOL
REMARK 922        TOTAL FREE ENERGY PREDICTED BY IDOCK:   -3.70 KCAL/MOL
REMARK 923 INTER-LIGAND FREE ENERGY PREDICTED BY IDOCK:   -4.27 KCAL/MOL
REMARK 924 INTRA-LIGAND FREE ENERGY PREDICTED BY IDOCK:    0.57 KCAL/MOL
REMARK 927      BINDING AFFINITY PREDICTED BY RF-SCORE:    0.00 PKD
ROOT
HETATM    1  C   UNL     1     -13.653  15.173  71.427  1.00  0.00    -0.488 C  
HETATM    2  O   UNL     1     -12.483  15.873  71.013  1.00  0.00    -0.440 OA 
ENDROOT
BRANCH   2   3
HETATM    3  C   UNL     1     -11.681  15.179  70.131  1.00  0.00    -0.307 A  
HETATM    4  N   UNL     1     -12.064  13.923  69.809  1.00  0.00    -0.332 NA 
HETATM    5  C   UNL     1     -11.269  13.252  68.967  1.00  0.00    -0.270 A  
HETATM    6  N   UNL     1     -10.150  13.715  68.412  1.00  0.00    -0.239 NA 
HETATM    7  C   UNL     1      -9.803  14.955  68.786  1.00  0.00    -0.225 A  
HETATM    8  C   UNL     1     -10.521  15.771  69.655  1.00  0.00    -0.289 A  
BRANCH   7   9
HETATM    9  N   UNL     1      -8.580  15.375  68.198  1.00  0.00    -0.150 N  
HETATM   10  H   UNL     1      -7.689  15.294  68.689  1.00  0.00     0.000 HD 
BRANCH   9  11
HETATM   11  S   UNL     1      -8.687  16.014  66.644  1.00  0.00    -0.303 S  
HETATM   12  O   UNL     1      -7.409  15.750  66.013  1.00  0.00     0.678 OA 
HETATM   13  O   UNL     1      -9.218  17.358  66.710  1.00  0.00    -0.244 OA 
BRANCH  11  14
HETATM   14  C   UNL     1      -9.878  14.971  65.836  1.00  0.00    -0.338 A  
HETATM   15  C   UNL     1      -9.466  13.792  65.211  1.00  0.00     0.321 A  
HETATM   16  C   UNL     1     -10.416  12.970  64.597  1.00  0.00    -0.400 A  
HETATM   17  C   UNL     1     -11.765  13.333  64.567  1.00  0.00    -0.378 A  
HETATM   18  C   UNL     1     -12.172  14.473  65.269  1.00  0.00    -0.321 A  
HETATM   19  N   UNL     1     -12.720  12.452  64.045  1.00  0.00    -0.723 NA 
HETATM   20  H2  UNL     1     -12.638  11.562  64.535  1.00  0.00     0.000 HD 
HETATM   21  H1  UNL     1     -13.705  12.717  64.022  1.00  0.00     0.000 HD 
HETATM   22  C   UNL     1     -11.233  15.303  65.889  1.00  0.00    -0.237 A  
ENDBRANCH  11  14
ENDBRANCH   9  11
ENDBRANCH   7   9
BRANCH   8  23
HETATM   23  O   UNL     1      -9.984  16.995  69.939  1.00  0.00     0.154 OA 
HETATM   24  C   UNL     1     -10.520  18.134  69.274  1.00  0.00     0.263 C  
ENDBRANCH   8  23
ENDBRANCH   2   3
TORSDOF 5
ENDMDL
MODEL      257
REMARK 921   NORMALIZED FREE ENERGY PREDICTED BY IDOCK:   -2.37 KCAL/MOL
REMARK 922        TOTAL FREE ENERGY PREDICTED BY IDOCK:   -3.57 KCAL/MOL
REMARK 923 INTER-LIGAND FREE ENERGY PREDICTED BY IDOCK:   -3.35 KCAL/MOL
REMARK 924 INTRA-LIGAND FREE ENERGY PREDICTED BY IDOCK:   -0.22 KCAL/MOL
REMARK 927      BINDING AFFINITY PREDICTED BY RF-SCORE:    0.00 PKD
ROOT
HETATM    1  C   UNL     1     -10.734   5.057  65.934  1.00  0.00    -0.141 C  
HETATM    2  O   UNL     1     -10.278   4.491  67.159  1.00  0.00    -0.158 OA 
ENDROOT
BRANCH   2   3
HETATM    3  C   UNL     1      -9.509   5.338  67.931  1.00  0.00    -0.125 A  
HETATM    4  N   UNL     1      -9.113   6.499  67.363  1.00  0.00    -0.113 NA 
HETATM    5  C   UNL     1      -8.353   7.304  68.113  1.00  0.00    -0.124 A  
HETATM    6  N   UNL     1      -7.967   7.070  69.367  1.00  0.00    -0.116 NA 
HETATM    7  C   UNL     1      -8.365   5.894  69.873  1.00  0.00    -0.121 A  
HETATM    8  C   UNL     1      -9.150   4.952  69.214  1.00  0.00    -0.102 A  
BRANCH   7   9
HETATM    9  N   UNL     1      -7.886   5.682  71.192  1.00  0.00    -0.107 N  
HETATM   10  H   UNL     1      -7.294   4.886  71.431  1.00  0.00     0.000 HD 
BRANCH   9  11
HETATM   11  S   UNL     1      -8.353   6.820  72.341  1.00  0.00    -0.108 S  
HETATM   12  O   UNL     1      -7.835   8.093  71.879  1.00  0.00    -0.094 OA 
HETATM   13  O   UNL     1      -8.038   6.328  73.665  1.00  0.00    -0.109 OA 
BRANCH  11  14
HETATM   14  C   UNL     1     -10.120   6.897  72.169  1.00  0.00    -0.181 A  
HETATM   15  C   UNL     1     -10.717   8.006  71.565  1.00  0.00    -0.274 A  
HETATM   16  C   UNL     1     -12.108   8.044  71.418  1.00  0.00    -0.332 A  
HETATM   17  C   UNL     1     -12.908   7.007  71.904  1.00  0.00    -0.259 A  
HETATM   18  C   UNL     1     -12.289   5.868  72.430  1.00  0.00     0.038 A  
HETATM   19  N   UNL     1     -14.286   7.006  71.655  1.00  0.00    -0.394 NA 
HETATM   20  H2  UNL     1     -14.431   7.079  70.648  1.00  0.00     0.000 HD 
HETATM   21  H1  UNL     1     -14.871   6.249  72.010  1.00  0.00     0.000 HD 
HETATM   22  C   UNL     1     -10.900   5.815  72.581  1.00  0.00    -0.296 A  
ENDBRANCH  11  14
ENDBRANCH   9  11
ENDBRANCH   7   9
BRANCH   8  23
HETATM   23  O   UNL     1      -9.424   3.795  69.887  1.00  0.00    -0.169 OA 
HETATM   24  C   UNL     1      -8.614   2.656  69.622  1.00  0.00    -0.067 C  
ENDBRANCH   8  23
ENDBRANCH   2   3
TORSDOF 5
ENDMDL
MODEL      258
REMARK 921   NORMALIZED FREE ENERGY PREDICTED BY IDOCK:   -2.26 KCAL/MOL
REMARK 922        TOTAL FREE ENERGY PREDICTED BY IDOCK:   -3.43 KCAL/MOL
REMARK 923 INTER-LIGAND FREE ENERGY PREDICTED BY IDOCK:   -3.65 KCAL/MOL
REMARK 924 INTRA-LIGAND FREE ENERGY PREDICTED BY IDOCK:    0.22 KCAL/MOL
REMARK 927      BINDING AFFINITY PREDICTED BY RF-SCORE:    0.00 PKD
ROOT
HETATM    1  C   UNL     1      -9.374  10.057  64.643  1.00  0.00    -0.279 C  
HETATM    2  O   UNL     1      -9.091  10.044  66.039  1.00  0.00    -0.146 OA 
ENDROOT
BRANCH   2   3
HETATM    3  C   UNL     1      -9.261   8.819  66.648  1.00  0.00    -0.177 A  
HETATM    4  N   UNL     1      -8.371   7.849  66.339  1.00  0.00    -0.123 NA 
HETATM    5  C   UNL     1      -8.556   6.658  66.921  1.00  0.00    -0.115 A  
HETATM    6  N   UNL     1      -9.524   6.352  67.783  1.00  0.00    -0.116 NA 
HETATM    7  C   UNL     1     -10.394   7.342  68.035  1.00  0.00    -0.197 A  
HETATM    8  C   UNL     1     -10.337   8.626  67.502  1.00  0.00    -0.269 A  
BRANCH   7   9
HETATM    9  N   UNL     1     -11.426   6.941  68.923  1.00  0.00    -0.540 N  
HETATM   10  H   UNL     1     -12.290   6.512  68.590  1.00  0.00     0.000 HD 
BRANCH   9  11
HETATM   11  S   UNL     1     -11.143   7.216  70.560  1.00  0.00    -0.280 S  
HETATM   12  O   UNL     1     -11.596   6.026  71.252  1.00  0.00    -0.256 OA 
HETATM   13  O   UNL     1     -11.646   8.523  70.924  1.00  0.00    -0.276 OA 
BRANCH  11  14
HETATM   14  C   UNL     1      -9.370   7.234  70.687  1.00  0.00    -0.157 A  
HETATM   15  C   UNL     1      -8.661   6.033  70.752  1.00  0.00    -0.135 A  
HETATM   16  C   UNL     1      -7.264   6.061  70.830  1.00  0.00    -0.074 A  
HETATM   17  C   UNL     1      -6.575   7.276  70.886  1.00  0.00    -0.044 A  
HETATM   18  C   UNL     1      -7.294   8.466  70.736  1.00  0.00    -0.060 A  
HETATM   19  N   UNL     1      -5.175   7.292  70.856  1.00  0.00    -0.023 NA 
HETATM   20  H2  UNL     1      -4.865   6.784  70.028  1.00  0.00     0.000 HD 
HETATM   21  H1  UNL     1      -4.671   8.178  70.897  1.00  0.00     0.000 HD 
HETATM   22  C   UNL     1      -8.690   8.453  70.654  1.00  0.00    -0.158 A  
ENDBRANCH  11  14
ENDBRANCH   9  11
ENDBRANCH   7   9
BRANCH   8  23
HETATM   23  O   UNL     1     -11.338   9.486  67.855  1.00  0.00     0.023 OA 
HETATM   24  C   UNL     1     -10.975  10.764  68.366  1.00  0.00    -0.248 C  
ENDBRANCH   8  23
ENDBRANCH   2   3
TORSDOF 5
ENDMDL
MODEL      259
REMARK 921   NORMALIZED FREE ENERGY PREDICTED BY IDOCK:   -2.26 KCAL/MOL
REMARK 922        TOTAL FREE ENERGY PREDICTED BY IDOCK:   -3.43 KCAL/MOL
REMARK 923 INTER-LIGAND FREE ENERGY PREDICTED BY IDOCK:   -3.00 KCAL/MOL
REMARK 924 INTRA-LIGAND FREE ENERGY PREDICTED BY IDOCK:   -0.43 KCAL/MOL
REMARK 927      BINDING AFFINITY PREDICTED BY RF-SCORE:    0.00 PKD
ROOT
HETATM    1  C   UNL     1     -10.837   3.344  63.516  1.00  0.00    -0.206 C  
HETATM    2  O   UNL     1      -9.450   3.270  63.831  1.00  0.00    -0.118 OA 
ENDROOT
BRANCH   2   3
HETATM    3  C   UNL     1      -8.861   4.483  64.118  1.00  0.00    -0.148 A  
HETATM    4  N   UNL     1      -8.440   5.226  63.069  1.00  0.00    -0.113 NA 
HETATM    5  C   UNL     1      -7.852   6.393  63.359  1.00  0.00    -0.107 A  
HETATM    6  N   UNL     1      -7.661   6.889  64.581  1.00  0.00    -0.098 NA 
HETATM    7  C   UNL     1      -8.073   6.101  65.584  1.00  0.00    -0.128 A  
HETATM    8  C   UNL     1      -8.692   4.862  65.441  1.00  0.00    -0.143 A  
BRANCH   7   9
HETATM    9  N   UNL     1      -7.801   6.662  66.859  1.00  0.00    -0.106 N  
HETATM   10  H   UNL     1      -7.048   6.314  67.454  1.00  0.00     0.000 HD 
BRANCH   9  11
HETATM   11  S   UNL     1      -8.795   7.936  67.335  1.00  0.00    -0.128 S  
HETATM   12  O   UNL     1     -10.151   7.428  67.282  1.00  0.00    -0.183 OA 
HETATM   13  O   UNL     1      -8.422   9.134  66.614  1.00  0.00    -0.120 OA 
BRANCH  11  14
HETATM   14  C   UNL     1      -8.402   8.162  69.054  1.00  0.00    -0.128 A  
HETATM   15  C   UNL     1      -7.129   7.840  69.529  1.00  0.00    -0.063 A  
HETATM   16  C   UNL     1      -6.827   8.042  70.880  1.00  0.00    -0.041 A  
HETATM   17  C   UNL     1      -7.795   8.523  71.766  1.00  0.00    -0.120 A  
HETATM   18  C   UNL     1      -9.037   8.917  71.257  1.00  0.00    -0.323 A  
HETATM   19  N   UNL     1      -7.451   8.821  73.090  1.00  0.00    -0.364 NA 
HETATM   20  H2  UNL     1      -6.671   9.479  73.079  1.00  0.00     0.000 HD 
HETATM   21  H1  UNL     1      -8.157   9.172  73.737  1.00  0.00     0.000 HD 
HETATM   22  C   UNL     1      -9.352   8.723  69.909  1.00  0.00    -0.165 A  
ENDBRANCH  11  14
ENDBRANCH   9  11
ENDBRANCH   7   9
BRANCH   8  23
HETATM   23  O   UNL     1      -9.010   4.194  66.589  1.00  0.00    -0.115 OA 
HETATM   24  C   UNL     1      -8.076   3.246  67.094  1.00  0.00    -0.083 C  
ENDBRANCH   8  23
ENDBRANCH   2   3
TORSDOF 5
ENDMDL
MODEL      260
REMARK 921   NORMALIZED FREE ENERGY PREDICTED BY IDOCK:   -2.15 KCAL/MOL
REMARK 922        TOTAL FREE ENERGY PREDICTED BY IDOCK:   -3.29 KCAL/MOL
REMARK 923 INTER-LIGAND FREE ENERGY PREDICTED BY IDOCK:   -3.29 KCAL/MOL
REMARK 924 INTRA-LIGAND FREE ENERGY PREDICTED BY IDOCK:    0.00 KCAL/MOL
REMARK 927      BINDING AFFINITY PREDICTED BY RF-SCORE:    0.00 PKD
ROOT
HETATM    1  C   UNL     1     -11.788  10.675  69.092  1.00  0.00    -0.215 C  
HETATM    2  O   UNL     1     -11.095  10.101  67.988  1.00  0.00    -0.278 OA 
ENDROOT
BRANCH   2   3
HETATM    3  C   UNL     1      -9.776   9.786  68.238  1.00  0.00    -0.145 A  
HETATM    4  N   UNL     1      -8.961  10.800  68.605  1.00  0.00    -0.156 NA 
HETATM    5  C   UNL     1      -7.679  10.487  68.828  1.00  0.00    -0.109 A  
HETATM    6  N   UNL     1      -7.143   9.271  68.733  1.00  0.00    -0.072 NA 
HETATM    7  C   UNL     1      -7.990   8.307  68.341  1.00  0.00    -0.119 A  
HETATM    8  C   UNL     1      -9.344   8.479  68.066  1.00  0.00    -0.136 A  
BRANCH   7   9
HETATM    9  N   UNL     1      -7.352   7.045  68.215  1.00  0.00    -0.094 N  
HETATM   10  H   UNL     1      -7.227   6.591  67.309  1.00  0.00     0.000 HD 
BRANCH   9  11
HETATM   11  S   UNL     1      -6.815   6.341  69.647  1.00  0.00    -0.067 S  
HETATM   12  O   UNL     1      -5.661   7.113  70.066  1.00  0.00    -0.023 OA 
HETATM   13  O   UNL     1      -6.725   4.907  69.476  1.00  0.00    -0.047 OA 
BRANCH  11  14
HETATM   14  C   UNL     1      -8.113   6.696  70.807  1.00  0.00    -0.119 A  
HETATM   15  C   UNL     1      -9.222   5.851  70.898  1.00  0.00    -0.167 A  
HETATM   16  C   UNL     1     -10.226   6.130  71.830  1.00  0.00    -0.236 A  
HETATM   17  C   UNL     1     -10.154   7.265  72.642  1.00  0.00    -0.194 A  
HETATM   18  C   UNL     1      -8.999   8.054  72.597  1.00  0.00    -0.280 A  
HETATM   19  N   UNL     1     -11.110   7.476  73.644  1.00  0.00    -0.513 NA 
HETATM   20  H2  UNL     1     -11.133   6.651  74.244  1.00  0.00     0.000 HD 
HETATM   21  H1  UNL     1     -11.057   8.304  74.237  1.00  0.00     0.000 HD 
HETATM   22  C   UNL     1      -7.986   7.785  71.672  1.00  0.00    -0.104 A  
ENDBRANCH  11  14
ENDBRANCH   9  11
ENDBRANCH   7   9
BRANCH   8  23
HETATM   23  O   UNL     1     -10.034   7.378  67.646  1.00  0.00    -0.148 OA 
HETATM   24  C   UNL     1     -11.147   6.947  68.422  1.00  0.00    -0.068 C  
ENDBRANCH   8  23
ENDBRANCH   2   3
TORSDOF 5
ENDMDL
MODEL      261
REMARK 921   NORMALIZED FREE ENERGY PREDICTED BY IDOCK:   -2.13 KCAL/MOL
REMARK 922        TOTAL FREE ENERGY PREDICTED BY IDOCK:   -3.26 KCAL/MOL
REMARK 923 INTER-LIGAND FREE ENERGY PREDICTED BY IDOCK:   -3.88 KCAL/MOL
REMARK 924 INTRA-LIGAND FREE ENERGY PREDICTED BY IDOCK:    0.62 KCAL/MOL
REMARK 927      BINDING AFFINITY PREDICTED BY RF-SCORE:    0.00 PKD
ROOT
HETATM    1  C   UNL     1      -6.243   7.461  64.915  1.00  0.00    -0.038 C  
HETATM    2  O   UNL     1      -6.265   8.885  64.957  1.00  0.00    -0.063 OA 
ENDROOT
BRANCH   2   3
HETATM    3  C   UNL     1      -7.437   9.427  65.441  1.00  0.00    -0.099 A  
HETATM    4  N   UNL     1      -8.545   9.278  64.679  1.00  0.00    -0.178 NA 
HETATM    5  C   UNL     1      -9.672   9.824  65.149  1.00  0.00    -0.268 A  
HETATM    6  N   UNL     1      -9.801  10.483  66.300  1.00  0.00    -0.208 NA 
HETATM    7  C   UNL     1      -8.667  10.624  67.003  1.00  0.00    -0.128 A  
HETATM    8  C   UNL     1      -7.421  10.120  66.642  1.00  0.00    -0.106 A  
BRANCH   7   9
HETATM    9  N   UNL     1      -8.859  11.372  68.194  1.00  0.00    -0.155 N  
HETATM   10  H   UNL     1      -8.093  11.566  68.840  1.00  0.00     0.000 HD 
BRANCH   9  11
HETATM   11  S   UNL     1     -10.425  11.922  68.480  1.00  0.00    -0.222 S  
HETATM   12  O   UNL     1     -10.407  12.514  69.803  1.00  0.00     0.702 OA 
HETATM   13  O   UNL     1     -11.371  10.880  68.146  1.00  0.00    -0.282 OA 
BRANCH  11  14
HETATM   14  C   UNL     1     -10.622  13.260  67.327  1.00  0.00    -0.247 A  
HETATM   15  C   UNL     1     -11.775  13.346  66.544  1.00  0.00    -0.415 A  
HETATM   16  C   UNL     1     -11.927  14.416  65.656  1.00  0.00    -0.356 A  
HETATM   17  C   UNL     1     -10.921  15.375  65.512  1.00  0.00    -0.343 A  
HETATM   18  C   UNL     1      -9.810  15.320  66.362  1.00  0.00    -0.295 A  
HETATM   19  N   UNL     1     -11.129  16.497  64.700  1.00  0.00    -0.848 NA 
HETATM   20  H2  UNL     1     -11.979  16.966  65.013  1.00  0.00     0.000 HD 
HETATM   21  H1  UNL     1     -10.395  17.197  64.595  1.00  0.00     0.000 HD 
HETATM   22  C   UNL     1      -9.647  14.257  67.256  1.00  0.00    -0.232 A  
ENDBRANCH  11  14
ENDBRANCH   9  11
ENDBRANCH   7   9
BRANCH   8  23
HETATM   23  O   UNL     1      -6.377  10.398  67.477  1.00  0.00    -0.057 OA 
HETATM   24  C   UNL     1      -6.044   9.441  68.477  1.00  0.00    -0.044 C  
ENDBRANCH   8  23
ENDBRANCH   2   3
TORSDOF 5
ENDMDL
MODEL      262
REMARK 921   NORMALIZED FREE ENERGY PREDICTED BY IDOCK:   -2.13 KCAL/MOL
REMARK 922        TOTAL FREE ENERGY PREDICTED BY IDOCK:   -3.26 KCAL/MOL
REMARK 923 INTER-LIGAND FREE ENERGY PREDICTED BY IDOCK:   -2.97 KCAL/MOL
REMARK 924 INTRA-LIGAND FREE ENERGY PREDICTED BY IDOCK:   -0.29 KCAL/MOL
REMARK 927      BINDING AFFINITY PREDICTED BY RF-SCORE:    0.00 PKD
ROOT
HETATM    1  C   UNL     1     -10.415   5.237  70.799  1.00  0.00    -0.228 C  
HETATM    2  O   UNL     1      -9.692   6.326  71.366  1.00  0.00    -0.172 OA 
ENDROOT
BRANCH   2   3
HETATM    3  C   UNL     1      -8.893   7.012  70.474  1.00  0.00    -0.154 A  
HETATM    4  N   UNL     1      -7.600   6.627  70.386  1.00  0.00    -0.094 NA 
HETATM    5  C   UNL     1      -6.829   7.311  69.532  1.00  0.00    -0.050 A  
HETATM    6  N   UNL     1      -7.225   8.320  68.757  1.00  0.00    -0.077 NA 
HETATM    7  C   UNL     1      -8.510   8.677  68.904  1.00  0.00    -0.129 A  
HETATM    8  C   UNL     1      -9.429   8.068  69.754  1.00  0.00    -0.159 A  
BRANCH   7   9
HETATM    9  N   UNL     1      -8.860   9.784  68.087  1.00  0.00    -0.119 N  
HETATM   10  H   UNL     1      -8.730  10.748  68.398  1.00  0.00     0.000 HD 
BRANCH   9  11
HETATM   11  S   UNL     1      -9.503   9.416  66.576  1.00  0.00    -0.208 S  
HETATM   12  O   UNL     1      -9.641  10.679  65.879  1.00  0.00    -0.187 OA 
HETATM   13  O   UNL     1     -10.635   8.529  66.736  1.00  0.00    -0.283 OA 
BRANCH  11  14
HETATM   14  C   UNL     1      -8.196   8.527  65.763  1.00  0.00    -0.125 A  
HETATM   15  C   UNL     1      -8.329   7.159  65.514  1.00  0.00    -0.132 A  
HETATM   16  C   UNL     1      -7.301   6.476  64.855  1.00  0.00    -0.076 A  
HETATM   17  C   UNL     1      -6.127   7.137  64.481  1.00  0.00    -0.037 A  
HETATM   18  C   UNL     1      -6.046   8.522  64.663  1.00  0.00    -0.065 A  
HETATM   19  N   UNL     1      -5.154   6.469  63.728  1.00  0.00    -0.024 NA 
HETATM   20  H2  UNL     1      -5.596   6.097  62.888  1.00  0.00     0.000 HD 
HETATM   21  H1  UNL     1      -4.297   6.950  63.455  1.00  0.00     0.000 HD 
HETATM   22  C   UNL     1      -7.067   9.217  65.318  1.00  0.00    -0.090 A  
ENDBRANCH  11  14
ENDBRANCH   9  11
ENDBRANCH   7   9
BRANCH   8  23
HETATM   23  O   UNL     1     -10.687   8.600  69.786  1.00  0.00    -0.228 OA 
HETATM   24  C   UNL     1     -11.016   9.482  70.852  1.00  0.00    -0.337 C  
ENDBRANCH   8  23
ENDBRANCH   2   3
TORSDOF 5
ENDMDL
MODEL      263
REMARK 921   NORMALIZED FREE ENERGY PREDICTED BY IDOCK:   -1.72 KCAL/MOL
REMARK 922        TOTAL FREE ENERGY PREDICTED BY IDOCK:   -2.73 KCAL/MOL
REMARK 923 INTER-LIGAND FREE ENERGY PREDICTED BY IDOCK:   -3.03 KCAL/MOL
REMARK 924 INTRA-LIGAND FREE ENERGY PREDICTED BY IDOCK:    0.30 KCAL/MOL
REMARK 927      BINDING AFFINITY PREDICTED BY RF-SCORE:    0.00 PKD
ROOT
HETATM    1  C   UNL     1     -10.551   5.849  70.139  1.00  0.00    -0.292 C  
HETATM    2  O   UNL     1      -9.243   5.854  70.704  1.00  0.00    -0.150 OA 
ENDROOT
BRANCH   2   3
HETATM    3  C   UNL     1      -8.349   6.694  70.073  1.00  0.00    -0.135 A  
HETATM    4  N   UNL     1      -7.447   6.121  69.245  1.00  0.00    -0.087 NA 
HETATM    5  C   UNL     1      -6.572   6.942  68.653  1.00  0.00    -0.054 A  
HETATM    6  N   UNL     1      -6.522   8.266  68.796  1.00  0.00    -0.052 NA 
HETATM    7  C   UNL     1      -7.422   8.778  69.648  1.00  0.00    -0.071 A  
HETATM    8  C   UNL     1      -8.387   8.054  70.341  1.00  0.00    -0.120 A  
BRANCH   7   9
HETATM    9  N   UNL     1      -7.290  10.184  69.793  1.00  0.00    -0.142 N  
HETATM   10  H   UNL     1      -6.525  10.603  70.323  1.00  0.00     0.000 HD 
BRANCH   9  11
HETATM   11  S   UNL     1      -8.468  11.121  69.039  1.00  0.00     0.036 S  
HETATM   12  O   UNL     1      -7.907  12.451  68.916  1.00  0.00    -0.032 OA 
HETATM   13  O   UNL     1      -9.742  10.910  69.691  1.00  0.00    -0.004 OA 
BRANCH  11  14
HETATM   14  C   UNL     1      -8.554  10.452  67.394  1.00  0.00    -0.125 A  
HETATM   15  C   UNL     1      -7.663  10.890  66.413  1.00  0.00    -0.154 A  
HETATM   16  C   UNL     1      -7.728  10.341  65.128  1.00  0.00    -0.136 A  
HETATM   17  C   UNL     1      -8.699   9.389  64.805  1.00  0.00    -0.197 A  
HETATM   18  C   UNL     1      -9.529   8.901  65.820  1.00  0.00    -0.272 A  
HETATM   19  N   UNL     1      -8.686   8.769  63.549  1.00  0.00    -0.427 NA 
HETATM   20  H2  UNL     1      -7.767   8.351  63.407  1.00  0.00     0.000 HD 
HETATM   21  H1  UNL     1      -9.395   8.075  63.313  1.00  0.00     0.000 HD 
HETATM   22  C   UNL     1      -9.473   9.440  67.109  1.00  0.00    -0.185 A  
ENDBRANCH  11  14
ENDBRANCH   9  11
ENDBRANCH   7   9
BRANCH   8  23
HETATM   23  O   UNL     1      -9.194   8.755  71.191  1.00  0.00    -0.192 OA 
HETATM   24  C   UNL     1      -9.123   8.459  72.582  1.00  0.00    -0.241 C  
ENDBRANCH   8  23
ENDBRANCH   2   3
TORSDOF 5
ENDMDL
MODEL      264
REMARK 921   NORMALIZED FREE ENERGY PREDICTED BY IDOCK:   -1.46 KCAL/MOL
REMARK 922        TOTAL FREE ENERGY PREDICTED BY IDOCK:   -2.40 KCAL/MOL
REMARK 923 INTER-LIGAND FREE ENERGY PREDICTED BY IDOCK:   -3.15 KCAL/MOL
REMARK 924 INTRA-LIGAND FREE ENERGY PREDICTED BY IDOCK:    0.76 KCAL/MOL
REMARK 927      BINDING AFFINITY PREDICTED BY RF-SCORE:    0.00 PKD
ROOT
HETATM    1  C   UNL     1     -14.083  15.261  70.668  1.00  0.00     0.287 C  
HETATM    2  O   UNL     1     -12.758  15.714  70.405  1.00  0.00    -0.425 OA 
ENDROOT
BRANCH   2   3
HETATM    3  C   UNL     1     -11.867  14.717  70.065  1.00  0.00    -0.311 A  
HETATM    4  N   UNL     1     -12.271  13.441  70.256  1.00  0.00    -0.346 NA 
HETATM    5  C   UNL     1     -11.392  12.482  69.941  1.00  0.00     0.023 A  
HETATM    6  N   UNL     1     -10.169  12.673  69.448  1.00  0.00     0.434 NA 
HETATM    7  C   UNL     1      -9.811  13.958  69.303  1.00  0.00     0.311 A  
HETATM    8  C   UNL     1     -10.610  15.060  69.593  1.00  0.00    -0.238 A  
BRANCH   7   9
HETATM    9  N   UNL     1      -8.485  14.097  68.817  1.00  0.00    -0.304 N  
HETATM   10  H   UNL     1      -7.732  14.466  69.399  1.00  0.00     0.000 HD 
BRANCH   9  11
HETATM   11  S   UNL     1      -8.226  13.620  67.223  1.00  0.00    -0.113 S  
HETATM   12  O   UNL     1      -6.793  13.452  67.082  1.00  0.00    -0.129 OA 
HETATM   13  O   UNL     1      -8.962  14.491  66.332  1.00  0.00    -0.222 OA 
BRANCH  11  14
HETATM   14  C   UNL     1      -8.939  11.994  67.146  1.00  0.00    -0.185 A  
HETATM   15  C   UNL     1      -8.260  10.905  67.697  1.00  0.00    -0.116 A  
HETATM   16  C   UNL     1      -8.842   9.634  67.647  1.00  0.00    -0.127 A  
HETATM   17  C   UNL     1     -10.074   9.435  67.018  1.00  0.00    -0.240 A  
HETATM   18  C   UNL     1     -10.777  10.548  66.545  1.00  0.00    -0.191 A  
HETATM   19  N   UNL     1     -10.695   8.181  67.069  1.00  0.00    -0.425 NA 
HETATM   20  H2  UNL     1     -10.786   7.907  68.047  1.00  0.00     0.000 HD 
HETATM   21  H1  UNL     1     -11.595   8.035  66.609  1.00  0.00     0.000 HD 
HETATM   22  C   UNL     1     -10.209  11.824  66.590  1.00  0.00    -0.240 A  
ENDBRANCH  11  14
ENDBRANCH   9  11
ENDBRANCH   7   9
BRANCH   8  23
HETATM   23  O   UNL     1     -10.051  16.293  69.409  1.00  0.00    -0.249 OA 
HETATM   24  C   UNL     1     -10.398  17.020  68.236  1.00  0.00    -0.347 C  
ENDBRANCH   8  23
ENDBRANCH   2   3
TORSDOF 5
ENDMDL
MODEL      265
REMARK 921   NORMALIZED FREE ENERGY PREDICTED BY IDOCK:   -0.73 KCAL/MOL
REMARK 922        TOTAL FREE ENERGY PREDICTED BY IDOCK:   -1.45 KCAL/MOL
REMARK 923 INTER-LIGAND FREE ENERGY PREDICTED BY IDOCK:   -2.36 KCAL/MOL
REMARK 924 INTRA-LIGAND FREE ENERGY PREDICTED BY IDOCK:    0.91 KCAL/MOL
REMARK 927      BINDING AFFINITY PREDICTED BY RF-SCORE:    0.00 PKD
ROOT
HETATM    1  C   UNL     1     -10.781   3.926  63.019  1.00  0.00    -0.125 C  
HETATM    2  O   UNL     1      -9.378   4.028  62.794  1.00  0.00    -0.112 OA 
ENDROOT
BRANCH   2   3
HETATM    3  C   UNL     1      -8.770   5.087  63.435  1.00  0.00    -0.078 A  
HETATM    4  N   UNL     1      -8.765   6.276  62.790  1.00  0.00     0.229 NA 
HETATM    5  C   UNL     1      -8.156   7.292  63.412  1.00  0.00    -0.003 A  
HETATM    6  N   UNL     1      -7.571   7.239  64.608  1.00  0.00    -0.098 NA 
HETATM    7  C   UNL     1      -7.583   6.031  65.192  1.00  0.00    -0.089 A  
HETATM    8  C   UNL     1      -8.168   4.882  64.668  1.00  0.00    -0.124 A  
BRANCH   7   9
HETATM    9  N   UNL     1      -6.907   6.028  66.440  1.00  0.00    -0.060 N  
HETATM   10  H   UNL     1      -6.508   5.176  66.837  1.00  0.00     0.000 HD 
BRANCH   9  11
HETATM   11  S   UNL     1      -6.801   7.511  67.229  1.00  0.00    -0.073 S  
HETATM   12  O   UNL     1      -6.885   8.523  66.195  1.00  0.00    -0.070 OA 
HETATM   13  O   UNL     1      -5.689   7.488  68.155  1.00  0.00    -0.025 OA 
BRANCH  11  14
HETATM   14  C   UNL     1      -8.313   7.607  68.159  1.00  0.00    -0.124 A  
HETATM   15  C   UNL     1      -8.912   6.442  68.643  1.00  0.00    -0.125 A  
HETATM   16  C   UNL     1     -10.090   6.533  69.391  1.00  0.00    -0.198 A  
HETATM   17  C   UNL     1     -10.697   7.770  69.624  1.00  0.00    -0.223 A  
HETATM   18  C   UNL     1     -10.041   8.932  69.203  1.00  0.00    -0.202 A  
HETATM   19  N   UNL     1     -11.815   7.859  70.462  1.00  0.00    -0.477 NA 
HETATM   20  H2  UNL     1     -11.575   7.444  71.362  1.00  0.00     0.000 HD 
HETATM   21  H1  UNL     1     -12.258   8.762  70.632  1.00  0.00     0.000 HD 
HETATM   22  C   UNL     1      -8.861   8.856  68.457  1.00  0.00    -0.134 A  
ENDBRANCH  11  14
ENDBRANCH   9  11
ENDBRANCH   7   9
BRANCH   8  23
HETATM   23  O   UNL     1      -8.044   3.736  65.400  1.00  0.00    -0.096 OA 
HETATM   24  C   UNL     1      -9.080   3.414  66.322  1.00  0.00    -0.155 C  
ENDBRANCH   8  23
ENDBRANCH   2   3
TORSDOF 5
ENDMDL
MODEL      266
REMARK 921   NORMALIZED FREE ENERGY PREDICTED BY IDOCK:    0.79 KCAL/MOL
REMARK 922        TOTAL FREE ENERGY PREDICTED BY IDOCK:    0.51 KCAL/MOL
REMARK 923 INTER-LIGAND FREE ENERGY PREDICTED BY IDOCK:   -0.36 KCAL/MOL
REMARK 924 INTRA-LIGAND FREE ENERGY PREDICTED BY IDOCK:    0.86 KCAL/MOL
REMARK 927      BINDING AFFINITY PREDICTED BY RF-SCORE:    0.00 PKD
ROOT
HETATM    1  C   UNL     1     -10.586  12.609  64.215  1.00  0.00    -0.384 C  
HETATM    2  O   UNL     1     -10.852  11.210  64.217  1.00  0.00    -0.361 OA 
ENDROOT
BRANCH   2   3
HETATM    3  C   UNL     1     -10.602  10.579  65.418  1.00  0.00    -0.073 A  
HETATM    4  N   UNL     1     -10.922  11.254  66.545  1.00  0.00    -0.272 NA 
HETATM    5  C   UNL     1     -10.657  10.641  67.705  1.00  0.00    -0.236 A  
HETATM    6  N   UNL     1     -10.123   9.428  67.844  1.00  0.00    -0.183 NA 
HETATM    7  C   UNL     1      -9.802   8.814  66.696  1.00  0.00    -0.265 A  
HETATM    8  C   UNL     1     -10.008   9.326  65.418  1.00  0.00     0.165 A  
BRANCH   7   9
HETATM    9  N   UNL     1      -9.197   7.548  66.910  1.00  0.00    -0.142 N  
HETATM   10  H   UNL     1      -9.736   6.736  67.212  1.00  0.00     0.000 HD 
BRANCH   9  11
HETATM   11  S   UNL     1      -7.538   7.464  66.638  1.00  0.00    -0.102 S  
HETATM   12  O   UNL     1      -6.918   7.412  67.948  1.00  0.00    -0.068 OA 
HETATM   13  O   UNL     1      -7.154   8.475  65.676  1.00  0.00    -0.076 OA 
BRANCH  11  14
HETATM   14  C   UNL     1      -7.308   5.863  65.902  1.00  0.00    -0.076 A  
HETATM   15  C   UNL     1      -7.230   4.726  66.710  1.00  0.00    -0.080 A  
HETATM   16  C   UNL     1      -7.070   3.469  66.117  1.00  0.00    -0.063 A  
HETATM   17  C   UNL     1      -6.946   3.342  64.731  1.00  0.00    -0.056 A  
HETATM   18  C   UNL     1      -7.109   4.480  63.933  1.00  0.00    -0.049 A  
HETATM   19  N   UNL     1      -6.895   2.073  64.142  1.00  0.00    -0.030 NA 
HETATM   20  H2  UNL     1      -7.715   1.546  64.441  1.00  0.00     0.000 HD 
HETATM   21  H1  UNL     1      -6.804   1.980  63.130  1.00  0.00     0.000 HD 
HETATM   22  C   UNL     1      -7.272   5.742  64.512  1.00  0.00    -0.062 A  
ENDBRANCH  11  14
ENDBRANCH   9  11
ENDBRANCH   7   9
BRANCH   8  23
HETATM   23  O   UNL     1      -9.580   8.561  64.370  1.00  0.00     1.072 OA 
HETATM   24  C   UNL     1      -9.529   9.159  63.079  1.00  0.00     0.987 C  
ENDBRANCH   8  23
ENDBRANCH   2   3
TORSDOF 5
ENDMDL
MODEL      267
REMARK 921   NORMALIZED FREE ENERGY PREDICTED BY IDOCK:    1.58 KCAL/MOL
REMARK 922        TOTAL FREE ENERGY PREDICTED BY IDOCK:    1.53 KCAL/MOL
REMARK 923 INTER-LIGAND FREE ENERGY PREDICTED BY IDOCK:    0.93 KCAL/MOL
REMARK 924 INTRA-LIGAND FREE ENERGY PREDICTED BY IDOCK:    0.60 KCAL/MOL
REMARK 927      BINDING AFFINITY PREDICTED BY RF-SCORE:    0.00 PKD
ROOT
HETATM    1  C   UNL     1     -10.593  12.604  64.214  1.00  0.00    -0.384 C  
HETATM    2  O   UNL     1     -10.897  11.212  64.207  1.00  0.00    -0.361 OA 
ENDROOT
BRANCH   2   3
HETATM    3  C   UNL     1     -10.658  10.567  65.403  1.00  0.00    -0.073 A  
HETATM    4  N   UNL     1     -10.934  11.250  66.536  1.00  0.00    -0.272 NA 
HETATM    5  C   UNL     1     -10.681  10.622  67.691  1.00  0.00    -0.267 A  
HETATM    6  N   UNL     1     -10.199   9.386  67.819  1.00  0.00    -0.208 NA 
HETATM    7  C   UNL     1      -9.919   8.764  66.664  1.00  0.00    -0.285 A  
HETATM    8  C   UNL     1     -10.119   9.289  65.391  1.00  0.00     0.365 A  
BRANCH   7   9
HETATM    9  N   UNL     1      -9.366   7.472  66.866  1.00  0.00    -0.149 N  
HETATM   10  H   UNL     1      -9.935   6.683  67.175  1.00  0.00     0.000 HD 
BRANCH   9  11
HETATM   11  S   UNL     1      -7.716   7.317  66.567  1.00  0.00    -0.095 S  
HETATM   12  O   UNL     1      -7.278   8.602  66.058  1.00  0.00    -0.082 OA 
HETATM   13  O   UNL     1      -7.473   6.102  65.821  1.00  0.00    -0.078 OA 
BRANCH  11  14
HETATM   14  C   UNL     1      -7.006   7.143  68.187  1.00  0.00    -0.076 A  
HETATM   15  C   UNL     1      -6.755   8.273  68.967  1.00  0.00    -0.048 A  
HETATM   16  C   UNL     1      -6.215   8.120  70.248  1.00  0.00    -0.032 A  
HETATM   17  C   UNL     1      -5.885   6.854  70.739  1.00  0.00    -0.027 A  
HETATM   18  C   UNL     1      -6.218   5.728  69.979  1.00  0.00    -0.027 A  
HETATM   19  N   UNL     1      -5.446   6.705  72.060  1.00  0.00    -0.035 NA 
HETATM   20  H2  UNL     1      -6.143   7.118  72.680  1.00  0.00     0.000 HD 
HETATM   21  H1  UNL     1      -5.205   5.781  72.419  1.00  0.00     0.000 HD 
HETATM   22  C   UNL     1      -6.761   5.866  68.698  1.00  0.00    -0.064 A  
ENDBRANCH  11  14
ENDBRANCH   9  11
ENDBRANCH   7   9
BRANCH   8  23
HETATM   23  O   UNL     1      -9.738   8.511  64.335  1.00  0.00     1.364 OA 
HETATM   24  C   UNL     1      -9.684   9.109  63.045  1.00  0.00     1.761 C  
ENDBRANCH   8  23
ENDBRANCH   2   3
TORSDOF 5
ENDMDL
MODEL      268
REMARK 921   NORMALIZED FREE ENERGY PREDICTED BY IDOCK:    2.83 KCAL/MOL
REMARK 922        TOTAL FREE ENERGY PREDICTED BY IDOCK:    3.15 KCAL/MOL
REMARK 923 INTER-LIGAND FREE ENERGY PREDICTED BY IDOCK:   -2.21 KCAL/MOL
REMARK 924 INTRA-LIGAND FREE ENERGY PREDICTED BY IDOCK:    5.36 KCAL/MOL
REMARK 927      BINDING AFFINITY PREDICTED BY RF-SCORE:    0.00 PKD
ROOT
HETATM    1  C   UNL     1      -9.754  10.245  63.354  1.00  0.00    -0.184 C  
HETATM    2  O   UNL     1      -9.443   9.916  64.705  1.00  0.00    -0.276 OA 
ENDROOT
BRANCH   2   3
HETATM    3  C   UNL     1      -8.487   8.932  64.851  1.00  0.00    -0.178 A  
HETATM    4  N   UNL     1      -7.580   8.804  63.856  1.00  0.00    -0.118 NA 
HETATM    5  C   UNL     1      -6.669   7.834  63.999  1.00  0.00    -0.061 A  
HETATM    6  N   UNL     1      -6.570   7.001  65.034  1.00  0.00    -0.046 NA 
HETATM    7  C   UNL     1      -7.509   7.156  65.979  1.00  0.00    -0.080 A  
HETATM    8  C   UNL     1      -8.522   8.110  65.967  1.00  0.00    -0.141 A  
BRANCH   7   9
HETATM    9  N   UNL     1      -7.378   6.212  67.031  1.00  0.00    -0.081 N  
HETATM   10  H   UNL     1      -6.678   5.470  67.008  1.00  0.00     0.000 HD 
BRANCH   9  11
HETATM   11  S   UNL     1      -8.446   6.387  68.320  1.00  0.00    -0.115 S  
HETATM   12  O   UNL     1      -9.717   5.859  67.864  1.00  0.00    -0.113 OA 
HETATM   13  O   UNL     1      -8.348   7.730  68.849  1.00  0.00    -0.126 OA 
BRANCH  11  14
HETATM   14  C   UNL     1      -7.831   5.250  69.540  1.00  0.00    -0.084 A  
HETATM   15  C   UNL     1      -8.715   4.419  70.231  1.00  0.00    -0.119 A  
HETATM   16  C   UNL     1      -8.216   3.513  71.173  1.00  0.00    -0.078 A  
HETATM   17  C   UNL     1      -6.849   3.459  71.459  1.00  0.00    -0.031 A  
HETATM   18  C   UNL     1      -5.970   4.239  70.699  1.00  0.00    -0.014 A  
HETATM   19  N   UNL     1      -6.349   2.478  72.324  1.00  0.00    -0.014 NA 
HETATM   20  H2  UNL     1      -6.641   1.564  71.976  1.00  0.00     0.000 HD 
HETATM   21  H1  UNL     1      -5.352   2.438  72.533  1.00  0.00     0.000 HD 
HETATM   22  C   UNL     1      -6.455   5.146  69.753  1.00  0.00    -0.035 A  
ENDBRANCH  11  14
ENDBRANCH   9  11
ENDBRANCH   7   9
BRANCH   8  23
HETATM   23  O   UNL     1      -9.406   8.086  67.008  1.00  0.00    -0.141 OA 
HETATM   24  C   UNL     1      -9.797   9.327  67.585  1.00  0.00    -0.176 C  
ENDBRANCH   8  23
ENDBRANCH   2   3
TORSDOF 5
ENDMDL
MODEL      269
REMARK 921   NORMALIZED FREE ENERGY PREDICTED BY IDOCK:    9.73 KCAL/MOL
REMARK 922        TOTAL FREE ENERGY PREDICTED BY IDOCK:   12.06 KCAL/MOL
REMARK 923 INTER-LIGAND FREE ENERGY PREDICTED BY IDOCK:    9.97 KCAL/MOL
REMARK 924 INTRA-LIGAND FREE ENERGY PREDICTED BY IDOCK:    2.09 KCAL/MOL
REMARK 927      BINDING AFFINITY PREDICTED BY RF-SCORE:    0.00 PKD
ROOT
HETATM    1  C   UNL     1     -11.545   4.554  62.947  1.00  0.00     1.505 C  
HETATM    2  O   UNL     1     -10.184   4.466  62.534  1.00  0.00    -0.123 OA 
ENDROOT
BRANCH   2   3
HETATM    3  C   UNL     1      -9.265   4.766  63.518  1.00  0.00     0.030 A  
HETATM    4  N   UNL     1      -8.560   5.910  63.373  1.00  0.00     0.103 NA 
HETATM    5  C   UNL     1      -7.658   6.182  64.323  1.00  0.00    -0.096 A  
HETATM    6  N   UNL     1      -7.406   5.436  65.398  1.00  0.00    -0.068 NA 
HETATM    7  C   UNL     1      -8.115   4.300  65.479  1.00  0.00    -0.101 A  
HETATM    8  C   UNL     1      -9.080   3.879  64.569  1.00  0.00    -0.137 A  
BRANCH   7   9
HETATM    9  N   UNL     1      -7.771   3.528  66.620  1.00  0.00    -0.080 N  
HETATM   10  H   UNL     1      -7.758   2.508  66.598  1.00  0.00     0.000 HD 
BRANCH   9  11
HETATM   11  S   UNL     1      -7.385   4.394  68.011  1.00  0.00    -0.065 S  
HETATM   12  O   UNL     1      -6.752   5.618  67.560  1.00  0.00    -0.055 OA 
HETATM   13  O   UNL     1      -6.722   3.521  68.955  1.00  0.00    -0.042 OA 
BRANCH  11  14
HETATM   14  C   UNL     1      -8.967   4.855  68.677  1.00  0.00    -0.105 A  
HETATM   15  C   UNL     1     -10.130   4.240  68.208  1.00  0.00     0.079 A  
HETATM   16  C   UNL     1     -11.366   4.598  68.755  1.00  0.00     3.926 A  
HETATM   17  C   UNL     1     -11.456   5.590  69.735  1.00  0.00     1.007 A  
HETATM   18  C   UNL     1     -10.275   6.135  70.252  1.00  0.00    -0.254 A  
HETATM   19  N   UNL     1     -12.684   5.863  70.350  1.00  0.00     2.198 NA 
HETATM   20  H2  UNL     1     -13.049   4.993  70.739  1.00  0.00     0.000 HD 
HETATM   21  H1  UNL     1     -12.750   6.587  71.066  1.00  0.00     0.000 HD 
HETATM   22  C   UNL     1      -9.032   5.785  69.716  1.00  0.00    -0.137 A  
ENDBRANCH  11  14
ENDBRANCH   9  11
ENDBRANCH   7   9
BRANCH   8  23
HETATM   23  O   UNL     1      -9.671   2.672  64.808  1.00  0.00    -0.112 OA 
HETATM   24  C   UNL     1     -10.445   2.527  65.994  1.00  0.00     2.497 C  
ENDBRANCH   8  23
ENDBRANCH   2   3
TORSDOF 5
ENDMDL
MODEL      270
REMARK 921   NORMALIZED FREE ENERGY PREDICTED BY IDOCK:    9.73 KCAL/MOL
REMARK 922        TOTAL FREE ENERGY PREDICTED BY IDOCK:   12.07 KCAL/MOL
REMARK 923 INTER-LIGAND FREE ENERGY PREDICTED BY IDOCK:   12.00 KCAL/MOL
REMARK 924 INTRA-LIGAND FREE ENERGY PREDICTED BY IDOCK:    0.07 KCAL/MOL
REMARK 927      BINDING AFFINITY PREDICTED BY RF-SCORE:    0.00 PKD
ROOT
HETATM    1  C   UNL     1      -6.485   7.718  69.894  1.00  0.00    -0.034 C  
HETATM    2  O   UNL     1      -6.849   9.021  69.447  1.00  0.00    -0.047 OA 
ENDROOT
BRANCH   2   3
HETATM    3  C   UNL     1      -6.683  10.017  70.386  1.00  0.00    -0.138 A  
HETATM    4  N   UNL     1      -5.986   9.702  71.500  1.00  0.00    -0.226 NA 
HETATM    5  C   UNL     1      -5.847  10.670  72.414  1.00  0.00     1.094 A  
HETATM    6  N   UNL     1      -6.321  11.912  72.315  1.00  0.00     2.854 NA 
HETATM    7  C   UNL     1      -7.026  12.162  71.202  1.00  0.00     4.018 A  
HETATM    8  C   UNL     1      -7.262  11.259  70.170  1.00  0.00     0.698 A  
BRANCH   7   9
HETATM    9  N   UNL     1      -7.542  13.485  71.176  1.00  0.00     3.678 N  
HETATM   10  H   UNL     1      -8.529  13.684  71.347  1.00  0.00     0.000 HD 
BRANCH   9  11
HETATM   11  S   UNL     1      -6.432  14.706  70.845  1.00  0.00     0.354 S  
HETATM   12  O   UNL     1      -5.450  14.125  69.951  1.00  0.00    -0.093 OA 
HETATM   13  O   UNL     1      -6.027  15.339  72.081  1.00  0.00     0.681 OA 
BRANCH  11  14
HETATM   14  C   UNL     1      -7.363  15.878  69.885  1.00  0.00     0.189 A  
HETATM   15  C   UNL     1      -6.912  17.193  69.757  1.00  0.00     0.289 A  
HETATM   16  C   UNL     1      -7.644  18.099  68.982  1.00  0.00    -0.155 A  
HETATM   17  C   UNL     1      -8.839  17.715  68.368  1.00  0.00    -0.281 A  
HETATM   18  C   UNL     1      -9.231  16.374  68.438  1.00  0.00    -0.217 A  
HETATM   19  N   UNL     1      -9.504  18.598  67.509  1.00  0.00    -0.288 NA 
HETATM   20  H2  UNL     1      -8.851  18.894  66.784  1.00  0.00     0.000 HD 
HETATM   21  H1  UNL     1     -10.377  18.318  67.061  1.00  0.00     0.000 HD 
HETATM   22  C   UNL     1      -8.509  15.457  69.207  1.00  0.00    -0.258 A  
ENDBRANCH  11  14
ENDBRANCH   9  11
ENDBRANCH   7   9
BRANCH   8  23
HETATM   23  O   UNL     1      -8.035  11.694  69.132  1.00  0.00    -0.002 OA 
HETATM   24  C   UNL     1      -7.436  12.542  68.158  1.00  0.00    -0.117 C  
ENDBRANCH   8  23
ENDBRANCH   2   3
TORSDOF 5
ENDMDL
MODEL      271
REMARK 921   NORMALIZED FREE ENERGY PREDICTED BY IDOCK:   10.09 KCAL/MOL
REMARK 922        TOTAL FREE ENERGY PREDICTED BY IDOCK:   12.53 KCAL/MOL
REMARK 923 INTER-LIGAND FREE ENERGY PREDICTED BY IDOCK:    9.41 KCAL/MOL
REMARK 924 INTRA-LIGAND FREE ENERGY PREDICTED BY IDOCK:    3.12 KCAL/MOL
REMARK 927      BINDING AFFINITY PREDICTED BY RF-SCORE:    0.00 PKD
ROOT
HETATM    1  C   UNL     1     -11.571   4.743  62.850  1.00  0.00     1.944 C  
HETATM    2  O   UNL     1     -10.225   4.442  62.496  1.00  0.00    -0.123 OA 
ENDROOT
BRANCH   2   3
HETATM    3  C   UNL     1      -9.282   5.277  63.058  1.00  0.00     0.325 A  
HETATM    4  N   UNL     1      -8.165   5.520  62.335  1.00  0.00    -0.100 NA 
HETATM    5  C   UNL     1      -7.249   6.316  62.898  1.00  0.00    -0.055 A  
HETATM    6  N   UNL     1      -7.347   6.898  64.092  1.00  0.00    -0.079 NA 
HETATM    7  C   UNL     1      -8.462   6.604  64.777  1.00  0.00     0.081 A  
HETATM    8  C   UNL     1      -9.498   5.789  64.329  1.00  0.00     1.126 A  
BRANCH   7   9
HETATM    9  N   UNL     1      -8.488   7.216  66.058  1.00  0.00    -0.140 N  
HETATM   10  H   UNL     1      -9.128   6.909  66.791  1.00  0.00     0.000 HD 
BRANCH   9  11
HETATM   11  S   UNL     1      -7.400   8.478  66.297  1.00  0.00    -0.079 S  
HETATM   12  O   UNL     1      -6.156   8.058  65.684  1.00  0.00    -0.038 OA 
HETATM   13  O   UNL     1      -7.441   8.895  67.682  1.00  0.00    -0.090 OA 
BRANCH  11  14
HETATM   14  C   UNL     1      -8.046   9.792  65.288  1.00  0.00    -0.126 A  
HETATM   15  C   UNL     1      -8.226   9.598  63.917  1.00  0.00    -0.159 A  
HETATM   16  C   UNL     1      -8.754  10.633  63.139  1.00  0.00    -0.190 A  
HETATM   17  C   UNL     1      -9.065  11.871  63.709  1.00  0.00     0.405 A  
HETATM   18  C   UNL     1      -8.956  12.020  65.095  1.00  0.00     0.459 A  
HETATM   19  N   UNL     1      -9.692  12.861  62.942  1.00  0.00     0.945 NA 
HETATM   20  H2  UNL     1     -10.544  12.467  62.544  1.00  0.00     0.000 HD 
HETATM   21  H1  UNL     1      -9.918  13.764  63.358  1.00  0.00     0.000 HD 
HETATM   22  C   UNL     1      -8.432  10.993  65.886  1.00  0.00    -0.140 A  
ENDBRANCH  11  14
ENDBRANCH   9  11
ENDBRANCH   7   9
BRANCH   8  23
HETATM   23  O   UNL     1     -10.538   5.582  65.189  1.00  0.00     0.772 OA 
HETATM   24  C   UNL     1     -11.370   6.690  65.514  1.00  0.00     4.674 C  
ENDBRANCH   8  23
ENDBRANCH   2   3
TORSDOF 5
ENDMDL
MODEL      272
REMARK 921   NORMALIZED FREE ENERGY PREDICTED BY IDOCK:   28.10 KCAL/MOL
REMARK 922        TOTAL FREE ENERGY PREDICTED BY IDOCK:   35.80 KCAL/MOL
REMARK 923 INTER-LIGAND FREE ENERGY PREDICTED BY IDOCK:   28.51 KCAL/MOL
REMARK 924 INTRA-LIGAND FREE ENERGY PREDICTED BY IDOCK:    7.29 KCAL/MOL
REMARK 927      BINDING AFFINITY PREDICTED BY RF-SCORE:    0.00 PKD
ROOT
HETATM    1  C   UNL     1     -13.257  17.088  71.311  1.00  0.00     6.723 C  
HETATM    2  O   UNL     1     -11.896  17.314  71.666  1.00  0.00     1.005 OA 
ENDROOT
BRANCH   2   3
HETATM    3  C   UNL     1     -10.981  16.911  70.715  1.00  0.00     0.566 A  
HETATM    4  N   UNL     1     -10.965  15.598  70.394  1.00  0.00    -0.326 NA 
HETATM    5  C   UNL     1     -10.061  15.215  69.485  1.00  0.00    -0.214 A  
HETATM    6  N   UNL     1      -9.192  16.011  68.863  1.00  0.00    -0.220 NA 
HETATM    7  C   UNL     1      -9.233  17.298  69.238  1.00  0.00     0.120 A  
HETATM    8  C   UNL     1     -10.109  17.843  70.172  1.00  0.00     1.204 A  
BRANCH   7   9
HETATM    9  N   UNL     1      -8.255  18.086  68.575  1.00  0.00    -0.303 N  
HETATM   10  H   UNL     1      -7.376  18.346  69.024  1.00  0.00     0.000 HD 
BRANCH   9  11
HETATM   11  S   UNL     1      -8.632  18.568  67.007  1.00  0.00    -0.280 S  
HETATM   12  O   UNL     1      -7.693  17.882  66.140  1.00  0.00    -0.353 OA 
HETATM   13  O   UNL     1      -8.766  20.008  66.963  1.00  0.00    -0.311 OA 
BRANCH  11  14
HETATM   14  C   UNL     1     -10.225  17.839  66.709  1.00  0.00    -0.351 A  
HETATM   15  C   UNL     1     -10.836  17.064  67.697  1.00  0.00    -0.244 A  
HETATM   16  C   UNL     1     -12.099  16.513  67.457  1.00  0.00     1.393 A  
HETATM   17  C   UNL     1     -12.738  16.695  66.228  1.00  0.00     5.021 A  
HETATM   18  C   UNL     1     -12.150  17.542  65.282  1.00  0.00     4.346 A  
HETATM   19  N   UNL     1     -14.045  16.231  66.039  1.00  0.00     6.499 NA 
HETATM   20  H2  UNL     1     -14.636  16.627  66.770  1.00  0.00     0.000 HD 
HETATM   21  H1  UNL     1     -14.512  16.363  65.141  1.00  0.00     0.000 HD 
HETATM   22  C   UNL     1     -10.889  18.101  65.509  1.00  0.00     0.152 A  
ENDBRANCH  11  14
ENDBRANCH   9  11
ENDBRANCH   7   9
BRANCH   8  23
HETATM   23  O   UNL     1      -9.973  19.175  70.444  1.00  0.00     0.805 OA 
HETATM   24  C   UNL     1     -11.131  19.998  70.369  1.00  0.00     3.278 C  
ENDBRANCH   8  23
ENDBRANCH   2   3
TORSDOF 5
ENDMDL
