MODEL        1
REMARK 921   NORMALIZED FREE ENERGY PREDICTED BY IDOCK:   -6.88 KCAL/MOL
REMARK 922        TOTAL FREE ENERGY PREDICTED BY IDOCK:   -8.30 KCAL/MOL
REMARK 923 INTER-LIGAND FREE ENERGY PREDICTED BY IDOCK:   -8.08 KCAL/MOL
REMARK 924 INTRA-LIGAND FREE ENERGY PREDICTED BY IDOCK:   -0.22 KCAL/MOL
REMARK 927      BINDING AFFINITY PREDICTED BY RF-SCORE:    0.00 PKD
ROOT
HETATM    1  N   UNL     1     -12.396  13.636  62.964  1.00  0.00    -1.004 NA 
HETATM    2  H2  UNL     1     -13.350  13.291  62.858  1.00  0.00     0.000 HD 
HETATM    3  C   UNL     1     -12.147  13.834  64.325  1.00  0.00    -0.440 A  
HETATM    4  H1  UNL     1     -12.254  14.397  62.300  1.00  0.00     0.000 HD 
HETATM    5  C   UNL     1     -12.342  12.790  65.236  1.00  0.00    -0.546 A  
HETATM    6  C   UNL     1     -12.008  12.943  66.585  1.00  0.00    -0.436 A  
HETATM    7  C   UNL     1     -11.421  14.136  67.022  1.00  0.00    -0.352 A  
HETATM    8  C   UNL     1     -11.501  14.995  64.765  1.00  0.00    -0.403 A  
HETATM    9  C   UNL     1     -11.163  15.163  66.114  1.00  0.00    -0.271 A  
ENDROOT
BRANCH   7  10
HETATM   10  S   UNL     1     -11.145  14.393  68.765  1.00  0.00    -0.270 S  
HETATM   11  O   UNL     1     -11.412  13.144  69.449  1.00  0.00    -0.269 OA 
HETATM   12  O   UNL     1      -9.855  15.039  68.889  1.00  0.00    -0.219 OA 
BRANCH  10  13
HETATM   13  N   UNL     1     -12.288  15.537  69.228  1.00  0.00    -0.606 N  
HETATM   14  H   UNL     1     -12.770  16.121  68.546  1.00  0.00     0.000 HD 
BRANCH  13  15
HETATM   15  C   UNL     1     -12.542  15.643  70.606  1.00  0.00    -0.414 A  
HETATM   16  C   UNL     1     -11.568  16.026  71.513  1.00  0.00    -0.529 A  
HETATM   17  C   UNL     1     -11.938  16.141  72.850  1.00  0.00    -0.623 A  
HETATM   18  C   UNL     1     -13.245  15.842  73.220  1.00  0.00    -0.698 A  
HETATM   19  C   UNL     1     -14.135  15.447  72.232  1.00  0.00    -0.564 A  
HETATM   20  N   UNL     1     -13.812  15.349  70.923  1.00  0.00    -0.440 NA 
ENDBRANCH  13  15
ENDBRANCH  10  13
ENDBRANCH   7  10
TORSDOF 3
ENDMDL
MODEL        2
REMARK 921   NORMALIZED FREE ENERGY PREDICTED BY IDOCK:   -6.82 KCAL/MOL
REMARK 922        TOTAL FREE ENERGY PREDICTED BY IDOCK:   -8.23 KCAL/MOL
REMARK 923 INTER-LIGAND FREE ENERGY PREDICTED BY IDOCK:   -8.00 KCAL/MOL
REMARK 924 INTRA-LIGAND FREE ENERGY PREDICTED BY IDOCK:   -0.23 KCAL/MOL
REMARK 927      BINDING AFFINITY PREDICTED BY RF-SCORE:    0.00 PKD
ROOT
HETATM    1  N   UNL     1     -12.233  13.717  63.125  1.00  0.00    -1.066 NA 
HETATM    2  H2  UNL     1     -13.228  13.517  63.023  1.00  0.00     0.000 HD 
HETATM    3  C   UNL     1     -12.005  14.163  64.431  1.00  0.00    -0.457 A  
HETATM    4  H1  UNL     1     -11.935  14.283  62.331  1.00  0.00     0.000 HD 
HETATM    5  C   UNL     1     -12.413  13.386  65.521  1.00  0.00    -0.534 A  
HETATM    6  C   UNL     1     -12.110  13.772  66.830  1.00  0.00    -0.454 A  
HETATM    7  C   UNL     1     -11.342  14.920  67.054  1.00  0.00    -0.342 A  
HETATM    8  C   UNL     1     -11.185  15.272  64.668  1.00  0.00    -0.366 A  
HETATM    9  C   UNL     1     -10.875  15.671  65.974  1.00  0.00    -0.276 A  
ENDROOT
BRANCH   7  10
HETATM   10  S   UNL     1     -11.092  15.501  68.722  1.00  0.00    -0.313 S  
HETATM   11  O   UNL     1     -10.302  14.511  69.426  1.00  0.00    -0.187 OA 
HETATM   12  O   UNL     1     -10.635  16.871  68.619  1.00  0.00    -0.322 OA 
BRANCH  10  13
HETATM   13  N   UNL     1     -12.630  15.570  69.399  1.00  0.00    -0.576 N  
HETATM   14  H   UNL     1     -13.456  15.782  68.838  1.00  0.00     0.000 HD 
BRANCH  13  15
HETATM   15  C   UNL     1     -12.717  15.321  70.779  1.00  0.00    -0.433 A  
HETATM   16  C   UNL     1     -13.433  14.256  71.297  1.00  0.00    -0.378 A  
HETATM   17  C   UNL     1     -13.417  14.076  72.677  1.00  0.00    -0.650 A  
HETATM   18  C   UNL     1     -12.719  14.980  73.472  1.00  0.00    -0.667 A  
HETATM   19  C   UNL     1     -12.055  16.026  72.849  1.00  0.00    -0.520 A  
HETATM   20  N   UNL     1     -12.030  16.212  71.511  1.00  0.00    -0.461 NA 
ENDBRANCH  13  15
ENDBRANCH  10  13
ENDBRANCH   7  10
TORSDOF 3
ENDMDL
MODEL        3
REMARK 921   NORMALIZED FREE ENERGY PREDICTED BY IDOCK:   -6.60 KCAL/MOL
REMARK 922        TOTAL FREE ENERGY PREDICTED BY IDOCK:   -7.97 KCAL/MOL
REMARK 923 INTER-LIGAND FREE ENERGY PREDICTED BY IDOCK:   -7.73 KCAL/MOL
REMARK 924 INTRA-LIGAND FREE ENERGY PREDICTED BY IDOCK:   -0.24 KCAL/MOL
REMARK 927      BINDING AFFINITY PREDICTED BY RF-SCORE:    0.00 PKD
ROOT
HETATM    1  N   UNL     1     -12.032  12.842  63.109  1.00  0.00    -0.822 NA 
HETATM    2  H2  UNL     1     -11.485  13.532  62.594  1.00  0.00     0.000 HD 
HETATM    3  C   UNL     1     -11.855  13.072  64.477  1.00  0.00    -0.377 A  
HETATM    4  H1  UNL     1     -11.841  11.922  62.714  1.00  0.00     0.000 HD 
HETATM    5  C   UNL     1     -12.117  14.335  65.018  1.00  0.00    -0.428 A  
HETATM    6  C   UNL     1     -12.034  14.556  66.396  1.00  0.00    -0.350 A  
HETATM    7  C   UNL     1     -11.741  13.489  67.253  1.00  0.00    -0.383 A  
HETATM    8  C   UNL     1     -11.625  12.003  65.350  1.00  0.00    -0.343 A  
HETATM    9  C   UNL     1     -11.538  12.210  66.733  1.00  0.00    -0.412 A  
ENDROOT
BRANCH   7  10
HETATM   10  S   UNL     1     -11.478  13.801  68.989  1.00  0.00    -0.327 S  
HETATM   11  O   UNL     1     -11.961  12.651  69.728  1.00  0.00    -0.319 OA 
HETATM   12  O   UNL     1     -10.105  14.241  69.127  1.00  0.00    -0.174 OA 
BRANCH  10  13
HETATM   13  N   UNL     1     -12.436  15.136  69.347  1.00  0.00    -0.591 N  
HETATM   14  H   UNL     1     -12.823  15.732  68.616  1.00  0.00     0.000 HD 
BRANCH  13  15
HETATM   15  C   UNL     1     -12.675  15.386  70.709  1.00  0.00    -0.459 A  
HETATM   16  C   UNL     1     -11.711  15.923  71.545  1.00  0.00    -0.545 A  
HETATM   17  C   UNL     1     -12.067  16.171  72.868  1.00  0.00    -0.643 A  
HETATM   18  C   UNL     1     -13.349  15.844  73.298  1.00  0.00    -0.660 A  
HETATM   19  C   UNL     1     -14.229  15.290  72.381  1.00  0.00    -0.486 A  
HETATM   20  N   UNL     1     -13.921  15.061  71.085  1.00  0.00    -0.415 NA 
ENDBRANCH  13  15
ENDBRANCH  10  13
ENDBRANCH   7  10
TORSDOF 3
ENDMDL
MODEL        4
REMARK 921   NORMALIZED FREE ENERGY PREDICTED BY IDOCK:   -6.57 KCAL/MOL
REMARK 922        TOTAL FREE ENERGY PREDICTED BY IDOCK:   -7.94 KCAL/MOL
REMARK 923 INTER-LIGAND FREE ENERGY PREDICTED BY IDOCK:   -7.69 KCAL/MOL
REMARK 924 INTRA-LIGAND FREE ENERGY PREDICTED BY IDOCK:   -0.25 KCAL/MOL
REMARK 927      BINDING AFFINITY PREDICTED BY RF-SCORE:    0.00 PKD
ROOT
HETATM    1  N   UNL     1     -12.310  14.190  63.351  1.00  0.00    -1.144 NA 
HETATM    2  H2  UNL     1     -13.321  14.306  63.291  1.00  0.00     0.000 HD 
HETATM    3  C   UNL     1     -11.904  14.522  64.647  1.00  0.00    -0.453 A  
HETATM    4  H1  UNL     1     -11.885  14.652  62.546  1.00  0.00     0.000 HD 
HETATM    5  C   UNL     1     -12.486  13.889  65.750  1.00  0.00    -0.530 A  
HETATM    6  C   UNL     1     -12.027  14.141  67.047  1.00  0.00    -0.471 A  
HETATM    7  C   UNL     1     -10.935  14.994  67.241  1.00  0.00    -0.326 A  
HETATM    8  C   UNL     1     -10.774  15.323  64.852  1.00  0.00    -0.423 A  
HETATM    9  C   UNL     1     -10.304  15.585  66.145  1.00  0.00    -0.327 A  
ENDROOT
BRANCH   7  10
HETATM   10  S   UNL     1     -10.452  15.442  68.899  1.00  0.00    -0.249 S  
HETATM   11  O   UNL     1      -9.010  15.329  68.990  1.00  0.00    -0.197 OA 
HETATM   12  O   UNL     1     -11.113  16.694  69.199  1.00  0.00    -0.296 OA 
BRANCH  10  13
HETATM   13  N   UNL     1     -11.164  14.286  69.892  1.00  0.00    -0.427 N  
HETATM   14  H   UNL     1     -11.027  13.287  69.739  1.00  0.00     0.000 HD 
BRANCH  13  15
HETATM   15  C   UNL     1     -11.960  14.772  70.944  1.00  0.00    -0.324 A  
HETATM   16  C   UNL     1     -11.430  15.121  72.175  1.00  0.00    -0.430 A  
HETATM   17  C   UNL     1     -12.301  15.632  73.132  1.00  0.00    -0.584 A  
HETATM   18  C   UNL     1     -13.655  15.740  72.830  1.00  0.00    -0.662 A  
HETATM   19  C   UNL     1     -14.082  15.339  71.573  1.00  0.00    -0.524 A  
HETATM   20  N   UNL     1     -13.257  14.863  70.614  1.00  0.00    -0.323 NA 
ENDBRANCH  13  15
ENDBRANCH  10  13
ENDBRANCH   7  10
TORSDOF 3
ENDMDL
MODEL        5
REMARK 921   NORMALIZED FREE ENERGY PREDICTED BY IDOCK:   -6.39 KCAL/MOL
REMARK 922        TOTAL FREE ENERGY PREDICTED BY IDOCK:   -7.73 KCAL/MOL
REMARK 923 INTER-LIGAND FREE ENERGY PREDICTED BY IDOCK:   -7.56 KCAL/MOL
REMARK 924 INTRA-LIGAND FREE ENERGY PREDICTED BY IDOCK:   -0.18 KCAL/MOL
REMARK 927      BINDING AFFINITY PREDICTED BY RF-SCORE:    0.00 PKD
ROOT
HETATM    1  N   UNL     1     -13.278  16.216  74.132  1.00  0.00    -0.913 NA 
HETATM    2  H2  UNL     1     -13.170  15.594  74.934  1.00  0.00     0.000 HD 
HETATM    3  C   UNL     1     -12.843  15.539  72.988  1.00  0.00    -0.472 A  
HETATM    4  H1  UNL     1     -12.880  17.123  74.374  1.00  0.00     0.000 HD 
HETATM    5  C   UNL     1     -13.388  14.295  72.657  1.00  0.00    -0.619 A  
HETATM    6  C   UNL     1     -13.032  13.649  71.468  1.00  0.00    -0.443 A  
HETATM    7  C   UNL     1     -12.162  14.280  70.571  1.00  0.00    -0.356 A  
HETATM    8  C   UNL     1     -12.024  16.184  72.053  1.00  0.00    -0.607 A  
HETATM    9  C   UNL     1     -11.658  15.549  70.860  1.00  0.00    -0.410 A  
ENDROOT
BRANCH   7  10
HETATM   10  S   UNL     1     -11.582  13.392  69.137  1.00  0.00    -0.332 S  
HETATM   11  O   UNL     1     -10.151  13.592  69.036  1.00  0.00    -0.104 OA 
HETATM   12  O   UNL     1     -12.135  12.057  69.225  1.00  0.00    -0.271 OA 
BRANCH  10  13
HETATM   13  N   UNL     1     -12.341  14.127  67.828  1.00  0.00    -0.547 N  
HETATM   14  H   UNL     1     -13.116  14.778  67.952  1.00  0.00     0.000 HD 
BRANCH  13  15
HETATM   15  C   UNL     1     -11.849  13.796  66.554  1.00  0.00    -0.407 A  
HETATM   16  C   UNL     1     -11.023  14.642  65.834  1.00  0.00    -0.332 A  
HETATM   17  C   UNL     1     -10.557  14.196  64.601  1.00  0.00    -0.391 A  
HETATM   18  C   UNL     1     -10.961  12.950  64.133  1.00  0.00    -0.442 A  
HETATM   19  C   UNL     1     -11.810  12.193  64.926  1.00  0.00    -0.302 A  
HETATM   20  N   UNL     1     -12.258  12.587  66.139  1.00  0.00    -0.608 NA 
ENDBRANCH  13  15
ENDBRANCH  10  13
ENDBRANCH   7  10
TORSDOF 3
ENDMDL
MODEL        6
REMARK 921   NORMALIZED FREE ENERGY PREDICTED BY IDOCK:   -6.37 KCAL/MOL
REMARK 922        TOTAL FREE ENERGY PREDICTED BY IDOCK:   -7.70 KCAL/MOL
REMARK 923 INTER-LIGAND FREE ENERGY PREDICTED BY IDOCK:   -7.51 KCAL/MOL
REMARK 924 INTRA-LIGAND FREE ENERGY PREDICTED BY IDOCK:   -0.19 KCAL/MOL
REMARK 927      BINDING AFFINITY PREDICTED BY RF-SCORE:    0.00 PKD
ROOT
HETATM    1  N   UNL     1     -13.331  16.224  73.886  1.00  0.00    -0.906 NA 
HETATM    2  H2  UNL     1     -13.660  17.152  73.617  1.00  0.00     0.000 HD 
HETATM    3  C   UNL     1     -12.939  15.543  72.730  1.00  0.00    -0.457 A  
HETATM    4  H1  UNL     1     -14.018  15.811  74.517  1.00  0.00     0.000 HD 
HETATM    5  C   UNL     1     -11.997  16.110  71.864  1.00  0.00    -0.583 A  
HETATM    6  C   UNL     1     -11.525  15.402  70.755  1.00  0.00    -0.385 A  
HETATM    7  C   UNL     1     -11.956  14.089  70.536  1.00  0.00    -0.320 A  
HETATM    8  C   UNL     1     -13.312  14.208  72.534  1.00  0.00    -0.616 A  
HETATM    9  C   UNL     1     -12.849  13.488  71.426  1.00  0.00    -0.440 A  
ENDROOT
BRANCH   7  10
HETATM   10  S   UNL     1     -11.482  13.245  69.039  1.00  0.00    -0.320 S  
HETATM   11  O   UNL     1     -10.070  13.485  68.819  1.00  0.00    -0.202 OA 
HETATM   12  O   UNL     1     -11.991  11.893  69.146  1.00  0.00    -0.306 OA 
BRANCH  10  13
HETATM   13  N   UNL     1     -12.369  13.984  67.816  1.00  0.00    -0.498 N  
HETATM   14  H   UNL     1     -13.184  14.563  68.018  1.00  0.00     0.000 HD 
BRANCH  13  15
HETATM   15  C   UNL     1     -11.927  13.761  66.501  1.00  0.00    -0.434 A  
HETATM   16  C   UNL     1     -11.016  14.593  65.873  1.00  0.00    -0.332 A  
HETATM   17  C   UNL     1     -10.613  14.256  64.584  1.00  0.00    -0.364 A  
HETATM   18  C   UNL     1     -11.158  13.130  63.976  1.00  0.00    -0.395 A  
HETATM   19  C   UNL     1     -12.081  12.379  64.688  1.00  0.00    -0.415 A  
HETATM   20  N   UNL     1     -12.473  12.666  65.949  1.00  0.00    -0.533 NA 
ENDBRANCH  13  15
ENDBRANCH  10  13
ENDBRANCH   7  10
TORSDOF 3
ENDMDL
MODEL        7
REMARK 921   NORMALIZED FREE ENERGY PREDICTED BY IDOCK:   -6.16 KCAL/MOL
REMARK 922        TOTAL FREE ENERGY PREDICTED BY IDOCK:   -7.46 KCAL/MOL
REMARK 923 INTER-LIGAND FREE ENERGY PREDICTED BY IDOCK:   -7.21 KCAL/MOL
REMARK 924 INTRA-LIGAND FREE ENERGY PREDICTED BY IDOCK:   -0.26 KCAL/MOL
REMARK 927      BINDING AFFINITY PREDICTED BY RF-SCORE:    0.00 PKD
ROOT
HETATM    1  N   UNL     1      -9.234  20.711  66.786  1.00  0.00    -0.621 NA 
HETATM    2  H2  UNL     1      -9.868  21.129  66.104  1.00  0.00     0.000 HD 
HETATM    3  C   UNL     1      -9.794  19.508  67.228  1.00  0.00    -0.357 A  
HETATM    4  H1  UNL     1      -8.967  21.430  67.458  1.00  0.00     0.000 HD 
HETATM    5  C   UNL     1     -10.161  18.522  66.306  1.00  0.00    -0.422 A  
HETATM    6  C   UNL     1     -10.633  17.279  66.736  1.00  0.00    -0.192 A  
HETATM    7  C   UNL     1     -10.689  16.994  68.105  1.00  0.00    -0.374 A  
HETATM    8  C   UNL     1      -9.795  19.187  68.590  1.00  0.00    -0.485 A  
HETATM    9  C   UNL     1     -10.267  17.946  69.035  1.00  0.00    -0.274 A  
ENDROOT
BRANCH   7  10
HETATM   10  S   UNL     1     -11.440  15.474  68.658  1.00  0.00    -0.371 S  
HETATM   11  O   UNL     1     -11.910  14.757  67.490  1.00  0.00    -0.375 OA 
HETATM   12  O   UNL     1     -10.503  14.858  69.574  1.00  0.00    -0.237 OA 
BRANCH  10  13
HETATM   13  N   UNL     1     -12.760  15.948  69.588  1.00  0.00    -0.503 N  
HETATM   14  H   UNL     1     -13.562  16.426  69.178  1.00  0.00     0.000 HD 
BRANCH  13  15
HETATM   15  C   UNL     1     -12.696  15.651  70.960  1.00  0.00    -0.460 A  
HETATM   16  C   UNL     1     -12.011  16.447  71.861  1.00  0.00    -0.392 A  
HETATM   17  C   UNL     1     -12.049  16.085  73.204  1.00  0.00    -0.616 A  
HETATM   18  C   UNL     1     -12.737  14.935  73.578  1.00  0.00    -0.629 A  
HETATM   19  C   UNL     1     -13.370  14.197  72.589  1.00  0.00    -0.541 A  
HETATM   20  N   UNL     1     -13.373  14.537  71.281  1.00  0.00    -0.358 NA 
ENDBRANCH  13  15
ENDBRANCH  10  13
ENDBRANCH   7  10
TORSDOF 3
ENDMDL
MODEL        8
REMARK 921   NORMALIZED FREE ENERGY PREDICTED BY IDOCK:   -6.08 KCAL/MOL
REMARK 922        TOTAL FREE ENERGY PREDICTED BY IDOCK:   -7.36 KCAL/MOL
REMARK 923 INTER-LIGAND FREE ENERGY PREDICTED BY IDOCK:   -7.13 KCAL/MOL
REMARK 924 INTRA-LIGAND FREE ENERGY PREDICTED BY IDOCK:   -0.23 KCAL/MOL
REMARK 927      BINDING AFFINITY PREDICTED BY RF-SCORE:    0.00 PKD
ROOT
HETATM    1  N   UNL     1     -11.680  16.306  63.735  1.00  0.00    -1.488 NA 
HETATM    2  H2  UNL     1     -12.558  16.807  63.873  1.00  0.00     0.000 HD 
HETATM    3  C   UNL     1     -11.550  15.355  64.753  1.00  0.00    -0.286 A  
HETATM    4  H1  UNL     1     -10.942  16.990  63.574  1.00  0.00     0.000 HD 
HETATM    5  C   UNL     1     -12.563  14.416  64.973  1.00  0.00    -0.309 A  
HETATM    6  C   UNL     1     -12.407  13.403  65.923  1.00  0.00    -0.493 A  
HETATM    7  C   UNL     1     -11.201  13.290  66.625  1.00  0.00    -0.306 A  
HETATM    8  C   UNL     1     -10.328  15.192  65.416  1.00  0.00    -0.415 A  
HETATM    9  C   UNL     1     -10.158  14.182  66.371  1.00  0.00    -0.299 A  
ENDROOT
BRANCH   7  10
HETATM   10  S   UNL     1     -11.060  12.102  67.947  1.00  0.00    -0.265 S  
HETATM   11  O   UNL     1     -12.366  11.510  68.158  1.00  0.00    -0.473 OA 
HETATM   12  O   UNL     1      -9.917  11.270  67.636  1.00  0.00    -0.175 OA 
BRANCH  10  13
HETATM   13  N   UNL     1     -10.631  13.000  69.303  1.00  0.00    -0.439 N  
HETATM   14  H   UNL     1      -9.656  13.155  69.559  1.00  0.00     0.000 HD 
BRANCH  13  15
HETATM   15  C   UNL     1     -11.689  13.527  70.064  1.00  0.00    -0.241 A  
HETATM   16  C   UNL     1     -12.344  12.788  71.035  1.00  0.00    -0.316 A  
HETATM   17  C   UNL     1     -13.349  13.421  71.761  1.00  0.00    -0.479 A  
HETATM   18  C   UNL     1     -13.671  14.741  71.464  1.00  0.00    -0.511 A  
HETATM   19  C   UNL     1     -12.966  15.380  70.456  1.00  0.00    -0.332 A  
HETATM   20  N   UNL     1     -11.968  14.802  69.751  1.00  0.00    -0.304 NA 
ENDBRANCH  13  15
ENDBRANCH  10  13
ENDBRANCH   7  10
TORSDOF 3
ENDMDL
MODEL        9
REMARK 921   NORMALIZED FREE ENERGY PREDICTED BY IDOCK:   -6.06 KCAL/MOL
REMARK 922        TOTAL FREE ENERGY PREDICTED BY IDOCK:   -7.34 KCAL/MOL
REMARK 923 INTER-LIGAND FREE ENERGY PREDICTED BY IDOCK:   -7.18 KCAL/MOL
REMARK 924 INTRA-LIGAND FREE ENERGY PREDICTED BY IDOCK:   -0.16 KCAL/MOL
REMARK 927      BINDING AFFINITY PREDICTED BY RF-SCORE:    0.00 PKD
ROOT
HETATM    1  N   UNL     1     -13.581  15.662  73.145  1.00  0.00    -0.635 NA 
HETATM    2  H2  UNL     1     -13.107  15.341  73.990  1.00  0.00     0.000 HD 
HETATM    3  C   UNL     1     -13.029  14.992  72.049  1.00  0.00    -0.343 A  
HETATM    4  H1  UNL     1     -13.610  16.682  73.162  1.00  0.00     0.000 HD 
HETATM    5  C   UNL     1     -12.988  13.594  72.027  1.00  0.00    -0.427 A  
HETATM    6  C   UNL     1     -12.525  12.908  70.900  1.00  0.00    -0.383 A  
HETATM    7  C   UNL     1     -12.151  13.625  69.758  1.00  0.00    -0.334 A  
HETATM    8  C   UNL     1     -12.711  15.692  70.879  1.00  0.00    -0.500 A  
HETATM    9  C   UNL     1     -12.245  15.018  69.743  1.00  0.00    -0.324 A  
ENDROOT
BRANCH   7  10
HETATM   10  S   UNL     1     -11.411  12.765  68.382  1.00  0.00    -0.321 S  
HETATM   11  O   UNL     1      -9.971  12.847  68.524  1.00  0.00    -0.223 OA 
HETATM   12  O   UNL     1     -12.069  11.478  68.296  1.00  0.00    -0.580 OA 
BRANCH  10  13
HETATM   13  N   UNL     1     -11.885  13.626  67.017  1.00  0.00    -0.388 N  
HETATM   14  H   UNL     1     -12.315  14.548  67.085  1.00  0.00     0.000 HD 
BRANCH  13  15
HETATM   15  C   UNL     1     -11.658  13.006  65.776  1.00  0.00    -0.356 A  
HETATM   16  C   UNL     1     -10.393  12.634  65.353  1.00  0.00    -0.311 A  
HETATM   17  C   UNL     1     -10.286  11.987  64.126  1.00  0.00    -0.367 A  
HETATM   18  C   UNL     1     -11.433  11.770  63.370  1.00  0.00    -0.424 A  
HETATM   19  C   UNL     1     -12.648  12.204  63.880  1.00  0.00    -0.438 A  
HETATM   20  N   UNL     1     -12.788  12.812  65.079  1.00  0.00    -0.821 NA 
ENDBRANCH  13  15
ENDBRANCH  10  13
ENDBRANCH   7  10
TORSDOF 3
ENDMDL
MODEL       10
REMARK 921   NORMALIZED FREE ENERGY PREDICTED BY IDOCK:   -6.05 KCAL/MOL
REMARK 922        TOTAL FREE ENERGY PREDICTED BY IDOCK:   -7.33 KCAL/MOL
REMARK 923 INTER-LIGAND FREE ENERGY PREDICTED BY IDOCK:   -7.05 KCAL/MOL
REMARK 924 INTRA-LIGAND FREE ENERGY PREDICTED BY IDOCK:   -0.28 KCAL/MOL
REMARK 927      BINDING AFFINITY PREDICTED BY RF-SCORE:    0.00 PKD
ROOT
HETATM    1  N   UNL     1     -13.543   9.993  72.449  1.00  0.00    -0.599 NA 
HETATM    2  H2  UNL     1     -14.541  10.120  72.620  1.00  0.00     0.000 HD 
HETATM    3  C   UNL     1     -13.086  11.071  71.684  1.00  0.00    -0.438 A  
HETATM    4  H1  UNL     1     -13.390   9.037  72.131  1.00  0.00     0.000 HD 
HETATM    5  C   UNL     1     -13.296  12.383  72.121  1.00  0.00    -0.508 A  
HETATM    6  C   UNL     1     -12.765  13.467  71.415  1.00  0.00    -0.423 A  
HETATM    7  C   UNL     1     -11.967  13.237  70.289  1.00  0.00    -0.300 A  
HETATM    8  C   UNL     1     -12.235  10.854  70.594  1.00  0.00    -0.472 A  
HETATM    9  C   UNL     1     -11.698  11.930  69.877  1.00  0.00    -0.383 A  
ENDROOT
BRANCH   7  10
HETATM   10  S   UNL     1     -11.424  14.616  69.298  1.00  0.00    -0.309 S  
HETATM   11  O   UNL     1     -11.669  15.831  70.049  1.00  0.00    -0.324 OA 
HETATM   12  O   UNL     1     -10.090  14.294  68.834  1.00  0.00    -0.226 OA 
BRANCH  10  13
HETATM   13  N   UNL     1     -12.411  14.596  67.936  1.00  0.00    -0.588 N  
HETATM   14  H   UNL     1     -13.370  14.940  67.962  1.00  0.00     0.000 HD 
BRANCH  13  15
HETATM   15  C   UNL     1     -11.842  14.078  66.759  1.00  0.00    -0.424 A  
HETATM   16  C   UNL     1     -11.896  12.732  66.439  1.00  0.00    -0.472 A  
HETATM   17  C   UNL     1     -11.338  12.333  65.228  1.00  0.00    -0.384 A  
HETATM   18  C   UNL     1     -10.729  13.283  64.415  1.00  0.00    -0.432 A  
HETATM   19  C   UNL     1     -10.711  14.601  64.844  1.00  0.00    -0.427 A  
HETATM   20  N   UNL     1     -11.266  15.024  66.002  1.00  0.00    -0.336 NA 
ENDBRANCH  13  15
ENDBRANCH  10  13
ENDBRANCH   7  10
TORSDOF 3
ENDMDL
MODEL       11
REMARK 921   NORMALIZED FREE ENERGY PREDICTED BY IDOCK:   -6.01 KCAL/MOL
REMARK 922        TOTAL FREE ENERGY PREDICTED BY IDOCK:   -7.28 KCAL/MOL
REMARK 923 INTER-LIGAND FREE ENERGY PREDICTED BY IDOCK:   -6.99 KCAL/MOL
REMARK 924 INTRA-LIGAND FREE ENERGY PREDICTED BY IDOCK:   -0.29 KCAL/MOL
REMARK 927      BINDING AFFINITY PREDICTED BY RF-SCORE:    0.00 PKD
ROOT
HETATM    1  N   UNL     1     -12.501  11.473  62.853  1.00  0.00    -0.867 NA 
HETATM    2  H2  UNL     1     -13.347  11.878  62.453  1.00  0.00     0.000 HD 
HETATM    3  C   UNL     1     -11.982  12.373  63.790  1.00  0.00    -0.514 A  
HETATM    4  H1  UNL     1     -11.916  11.133  62.090  1.00  0.00     0.000 HD 
HETATM    5  C   UNL     1     -12.785  12.840  64.836  1.00  0.00    -0.479 A  
HETATM    6  C   UNL     1     -12.255  13.665  65.832  1.00  0.00    -0.502 A  
HETATM    7  C   UNL     1     -10.893  13.984  65.816  1.00  0.00    -0.291 A  
HETATM    8  C   UNL     1     -10.610  12.648  63.822  1.00  0.00    -0.432 A  
HETATM    9  C   UNL     1     -10.066  13.475  64.813  1.00  0.00    -0.267 A  
ENDROOT
BRANCH   7  10
HETATM   10  S   UNL     1     -10.251  15.163  66.990  1.00  0.00    -0.267 S  
HETATM   11  O   UNL     1     -11.375  15.766  67.678  1.00  0.00    -0.297 OA 
HETATM   12  O   UNL     1      -9.212  14.483  67.735  1.00  0.00    -0.186 OA 
BRANCH  10  13
HETATM   13  N   UNL     1      -9.474  16.332  66.062  1.00  0.00    -0.332 N  
HETATM   14  H   UNL     1      -8.914  16.085  65.247  1.00  0.00     0.000 HD 
BRANCH  13  15
HETATM   15  C   UNL     1      -9.640  17.666  66.471  1.00  0.00    -0.292 A  
HETATM   16  C   UNL     1      -8.974  18.195  67.564  1.00  0.00    -0.257 A  
HETATM   17  C   UNL     1      -9.177  19.541  67.856  1.00  0.00    -0.398 A  
HETATM   18  C   UNL     1     -10.052  20.281  67.068  1.00  0.00    -0.567 A  
HETATM   19  C   UNL     1     -10.684  19.645  66.010  1.00  0.00    -0.424 A  
HETATM   20  N   UNL     1     -10.488  18.347  65.686  1.00  0.00    -0.619 NA 
ENDBRANCH  13  15
ENDBRANCH  10  13
ENDBRANCH   7  10
TORSDOF 3
ENDMDL
MODEL       12
REMARK 921   NORMALIZED FREE ENERGY PREDICTED BY IDOCK:   -5.98 KCAL/MOL
REMARK 922        TOTAL FREE ENERGY PREDICTED BY IDOCK:   -7.25 KCAL/MOL
REMARK 923 INTER-LIGAND FREE ENERGY PREDICTED BY IDOCK:   -6.97 KCAL/MOL
REMARK 924 INTRA-LIGAND FREE ENERGY PREDICTED BY IDOCK:   -0.27 KCAL/MOL
REMARK 927      BINDING AFFINITY PREDICTED BY RF-SCORE:    0.00 PKD
ROOT
HETATM    1  N   UNL     1     -12.364  11.614  63.025  1.00  0.00    -0.956 NA 
HETATM    2  H2  UNL     1     -12.653  10.768  63.516  1.00  0.00     0.000 HD 
HETATM    3  C   UNL     1     -11.742  12.466  63.944  1.00  0.00    -0.447 A  
HETATM    4  H1  UNL     1     -13.150  11.947  62.468  1.00  0.00     0.000 HD 
HETATM    5  C   UNL     1     -10.663  12.009  64.708  1.00  0.00    -0.352 A  
HETATM    6  C   UNL     1      -9.972  12.875  65.561  1.00  0.00    -0.226 A  
HETATM    7  C   UNL     1     -10.326  14.228  65.612  1.00  0.00    -0.336 A  
HETATM    8  C   UNL     1     -12.044  13.833  63.957  1.00  0.00    -0.448 A  
HETATM    9  C   UNL     1     -11.361  14.711  64.809  1.00  0.00    -0.398 A  
ENDROOT
BRANCH   7  10
HETATM   10  S   UNL     1      -9.555  15.295  66.815  1.00  0.00    -0.255 S  
HETATM   11  O   UNL     1      -9.211  14.491  67.970  1.00  0.00    -0.180 OA 
HETATM   12  O   UNL     1      -8.536  16.045  66.110  1.00  0.00    -0.333 OA 
BRANCH  10  13
HETATM   13  N   UNL     1     -10.743  16.407  67.243  1.00  0.00    -0.296 N  
HETATM   14  H   UNL     1     -11.694  16.117  67.471  1.00  0.00     0.000 HD 
BRANCH  13  15
HETATM   15  C   UNL     1     -10.354  17.757  67.269  1.00  0.00    -0.363 A  
HETATM   16  C   UNL     1     -10.518  18.598  66.181  1.00  0.00    -0.473 A  
HETATM   17  C   UNL     1     -10.139  19.929  66.329  1.00  0.00    -0.613 A  
HETATM   18  C   UNL     1      -9.589  20.347  67.537  1.00  0.00    -0.560 A  
HETATM   19  C   UNL     1      -9.449  19.416  68.554  1.00  0.00    -0.389 A  
HETATM   20  N   UNL     1      -9.831  18.123  68.449  1.00  0.00    -0.350 NA 
ENDBRANCH  13  15
ENDBRANCH  10  13
ENDBRANCH   7  10
TORSDOF 3
ENDMDL
MODEL       13
REMARK 921   NORMALIZED FREE ENERGY PREDICTED BY IDOCK:   -5.93 KCAL/MOL
REMARK 922        TOTAL FREE ENERGY PREDICTED BY IDOCK:   -7.19 KCAL/MOL
REMARK 923 INTER-LIGAND FREE ENERGY PREDICTED BY IDOCK:   -6.93 KCAL/MOL
REMARK 924 INTRA-LIGAND FREE ENERGY PREDICTED BY IDOCK:   -0.26 KCAL/MOL
REMARK 927      BINDING AFFINITY PREDICTED BY RF-SCORE:    0.00 PKD
ROOT
HETATM    1  N   UNL     1     -12.190  11.640  63.073  1.00  0.00    -0.951 NA 
HETATM    2  H2  UNL     1     -11.549  10.850  62.997  1.00  0.00     0.000 HD 
HETATM    3  C   UNL     1     -11.811  12.412  64.176  1.00  0.00    -0.413 A  
HETATM    4  H1  UNL     1     -13.144  11.286  62.998  1.00  0.00     0.000 HD 
HETATM    5  C   UNL     1     -10.502  12.896  64.279  1.00  0.00    -0.430 A  
HETATM    6  C   UNL     1     -10.132  13.745  65.326  1.00  0.00    -0.312 A  
HETATM    7  C   UNL     1     -11.095  14.163  66.252  1.00  0.00    -0.318 A  
HETATM    8  C   UNL     1     -12.775  12.888  65.072  1.00  0.00    -0.474 A  
HETATM    9  C   UNL     1     -12.418  13.738  66.127  1.00  0.00    -0.466 A  
ENDROOT
BRANCH   7  10
HETATM   10  S   UNL     1     -10.592  15.113  67.675  1.00  0.00    -0.268 S  
HETATM   11  O   UNL     1     -11.729  15.897  68.114  1.00  0.00    -0.292 OA 
HETATM   12  O   UNL     1      -9.941  14.189  68.581  1.00  0.00    -0.232 OA 
BRANCH  10  13
HETATM   13  N   UNL     1      -9.388  16.144  67.113  1.00  0.00    -0.212 N  
HETATM   14  H   UNL     1      -8.548  15.791  66.655  1.00  0.00     0.000 HD 
BRANCH  13  15
HETATM   15  C   UNL     1      -9.602  17.520  67.309  1.00  0.00    -0.273 A  
HETATM   16  C   UNL     1      -9.330  18.149  68.512  1.00  0.00    -0.321 A  
HETATM   17  C   UNL     1      -9.537  19.523  68.585  1.00  0.00    -0.483 A  
HETATM   18  C   UNL     1     -10.032  20.195  67.472  1.00  0.00    -0.571 A  
HETATM   19  C   UNL     1     -10.291  19.462  66.323  1.00  0.00    -0.493 A  
HETATM   20  N   UNL     1     -10.077  18.132  66.214  1.00  0.00    -0.420 NA 
ENDBRANCH  13  15
ENDBRANCH  10  13
ENDBRANCH   7  10
TORSDOF 3
ENDMDL
MODEL       14
REMARK 921   NORMALIZED FREE ENERGY PREDICTED BY IDOCK:   -5.89 KCAL/MOL
REMARK 922        TOTAL FREE ENERGY PREDICTED BY IDOCK:   -7.13 KCAL/MOL
REMARK 923 INTER-LIGAND FREE ENERGY PREDICTED BY IDOCK:   -6.96 KCAL/MOL
REMARK 924 INTRA-LIGAND FREE ENERGY PREDICTED BY IDOCK:   -0.18 KCAL/MOL
REMARK 927      BINDING AFFINITY PREDICTED BY RF-SCORE:    0.00 PKD
ROOT
HETATM    1  N   UNL     1     -13.945   9.086  73.139  1.00  0.00    -1.215 NA 
HETATM    2  H2  UNL     1     -14.909   9.367  72.960  1.00  0.00     0.000 HD 
HETATM    3  C   UNL     1     -13.148   9.557  72.091  1.00  0.00    -0.436 A  
HETATM    4  H1  UNL     1     -13.938   8.096  73.383  1.00  0.00     0.000 HD 
HETATM    5  C   UNL     1     -13.157  10.916  71.755  1.00  0.00    -0.564 A  
HETATM    6  C   UNL     1     -12.297  11.417  70.773  1.00  0.00    -0.483 A  
HETATM    7  C   UNL     1     -11.376  10.563  70.156  1.00  0.00    -0.323 A  
HETATM    8  C   UNL     1     -12.179   8.729  71.511  1.00  0.00    -0.382 A  
HETATM    9  C   UNL     1     -11.313   9.218  70.525  1.00  0.00    -0.306 A  
ENDROOT
BRANCH   7  10
HETATM   10  S   UNL     1     -10.394  11.164  68.794  1.00  0.00    -0.205 S  
HETATM   11  O   UNL     1     -10.423  12.613  68.828  1.00  0.00    -0.216 OA 
HETATM   12  O   UNL     1      -9.135  10.452  68.846  1.00  0.00    -0.155 OA 
BRANCH  10  13
HETATM   13  N   UNL     1     -11.182  10.624  67.410  1.00  0.00    -0.274 N  
HETATM   14  H   UNL     1     -11.604   9.697  67.359  1.00  0.00     0.000 HD 
BRANCH  13  15
HETATM   15  C   UNL     1     -11.227  11.518  66.327  1.00  0.00    -0.222 A  
HETATM   16  C   UNL     1     -10.275  11.515  65.322  1.00  0.00    -0.315 A  
HETATM   17  C   UNL     1     -10.439  12.415  64.273  1.00  0.00    -0.389 A  
HETATM   18  C   UNL     1     -11.520  13.291  64.293  1.00  0.00    -0.435 A  
HETATM   19  C   UNL     1     -12.401  13.224  65.361  1.00  0.00    -0.479 A  
HETATM   20  N   UNL     1     -12.283  12.344  66.381  1.00  0.00    -0.556 NA 
ENDBRANCH  13  15
ENDBRANCH  10  13
ENDBRANCH   7  10
TORSDOF 3
ENDMDL
MODEL       15
REMARK 921   NORMALIZED FREE ENERGY PREDICTED BY IDOCK:   -5.85 KCAL/MOL
REMARK 922        TOTAL FREE ENERGY PREDICTED BY IDOCK:   -7.09 KCAL/MOL
REMARK 923 INTER-LIGAND FREE ENERGY PREDICTED BY IDOCK:   -6.84 KCAL/MOL
REMARK 924 INTRA-LIGAND FREE ENERGY PREDICTED BY IDOCK:   -0.25 KCAL/MOL
REMARK 927      BINDING AFFINITY PREDICTED BY RF-SCORE:    0.00 PKD
ROOT
HETATM    1  N   UNL     1     -13.986   8.979  73.236  1.00  0.00    -1.199 NA 
HETATM    2  H2  UNL     1     -14.954   9.204  73.006  1.00  0.00     0.000 HD 
HETATM    3  C   UNL     1     -13.170   9.416  72.188  1.00  0.00    -0.460 A  
HETATM    4  H1  UNL     1     -13.947   8.009  73.546  1.00  0.00     0.000 HD 
HETATM    5  C   UNL     1     -13.224  10.748  71.762  1.00  0.00    -0.523 A  
HETATM    6  C   UNL     1     -12.349  11.222  70.780  1.00  0.00    -0.495 A  
HETATM    7  C   UNL     1     -11.370  10.371  70.254  1.00  0.00    -0.328 A  
HETATM    8  C   UNL     1     -12.146   8.596  71.699  1.00  0.00    -0.385 A  
HETATM    9  C   UNL     1     -11.265   9.058  70.714  1.00  0.00    -0.329 A  
ENDROOT
BRANCH   7  10
HETATM   10  S   UNL     1     -10.363  10.926  68.891  1.00  0.00    -0.209 S  
HETATM   11  O   UNL     1      -8.985  10.593  69.189  1.00  0.00    -0.170 OA 
HETATM   12  O   UNL     1     -10.994  10.436  67.683  1.00  0.00    -0.287 OA 
BRANCH  10  13
HETATM   13  N   UNL     1     -10.539  12.598  68.865  1.00  0.00    -0.399 N  
HETATM   14  H   UNL     1     -10.443  13.162  69.709  1.00  0.00     0.000 HD 
BRANCH  13  15
HETATM   15  C   UNL     1     -10.825  13.177  67.617  1.00  0.00    -0.254 A  
HETATM   16  C   UNL     1     -12.120  13.374  67.170  1.00  0.00    -0.367 A  
HETATM   17  C   UNL     1     -12.292  13.996  65.936  1.00  0.00    -0.515 A  
HETATM   18  C   UNL     1     -11.171  14.361  65.199  1.00  0.00    -0.359 A  
HETATM   19  C   UNL     1      -9.918  14.096  65.731  1.00  0.00    -0.309 A  
HETATM   20  N   UNL     1      -9.719  13.517  66.937  1.00  0.00    -0.253 NA 
ENDBRANCH  13  15
ENDBRANCH  10  13
ENDBRANCH   7  10
TORSDOF 3
ENDMDL
MODEL       16
REMARK 921   NORMALIZED FREE ENERGY PREDICTED BY IDOCK:   -5.84 KCAL/MOL
REMARK 922        TOTAL FREE ENERGY PREDICTED BY IDOCK:   -7.08 KCAL/MOL
REMARK 923 INTER-LIGAND FREE ENERGY PREDICTED BY IDOCK:   -6.98 KCAL/MOL
REMARK 924 INTRA-LIGAND FREE ENERGY PREDICTED BY IDOCK:   -0.09 KCAL/MOL
REMARK 927      BINDING AFFINITY PREDICTED BY RF-SCORE:    0.00 PKD
ROOT
HETATM    1  N   UNL     1     -11.419  16.552  64.059  1.00  0.00    -1.581 NA 
HETATM    2  H2  UNL     1     -10.583  17.136  64.101  1.00  0.00     0.000 HD 
HETATM    3  C   UNL     1     -11.218  15.435  64.875  1.00  0.00    -0.403 A  
HETATM    4  H1  UNL     1     -11.677  16.432  63.079  1.00  0.00     0.000 HD 
HETATM    5  C   UNL     1     -10.863  15.600  66.219  1.00  0.00    -0.262 A  
HETATM    6  C   UNL     1     -10.750  14.498  67.071  1.00  0.00    -0.291 A  
HETATM    7  C   UNL     1     -11.049  13.217  66.591  1.00  0.00    -0.291 A  
HETATM    8  C   UNL     1     -11.574  14.158  64.427  1.00  0.00    -0.377 A  
HETATM    9  C   UNL     1     -11.464  13.044  65.270  1.00  0.00    -0.340 A  
ENDROOT
BRANCH   7  10
HETATM   10  S   UNL     1     -10.751  11.797  67.628  1.00  0.00    -0.226 S  
HETATM   11  O   UNL     1     -11.895  10.915  67.517  1.00  0.00    -0.524 OA 
HETATM   12  O   UNL     1      -9.421  11.322  67.308  1.00  0.00    -0.171 OA 
BRANCH  10  13
HETATM   13  N   UNL     1     -10.666  12.405  69.194  1.00  0.00    -0.433 N  
HETATM   14  H   UNL     1     -10.047  13.178  69.438  1.00  0.00     0.000 HD 
BRANCH  13  15
HETATM   15  C   UNL     1     -11.495  11.791  70.149  1.00  0.00    -0.081 A  
HETATM   16  C   UNL     1     -11.365  10.457  70.495  1.00  0.00    -0.424 A  
HETATM   17  C   UNL     1     -12.209   9.960  71.484  1.00  0.00    -0.505 A  
HETATM   18  C   UNL     1     -13.157  10.803  72.054  1.00  0.00    -0.476 A  
HETATM   19  C   UNL     1     -13.216  12.118  71.615  1.00  0.00    -0.258 A  
HETATM   20  N   UNL     1     -12.394  12.636  70.676  1.00  0.00    -0.342 NA 
ENDBRANCH  13  15
ENDBRANCH  10  13
ENDBRANCH   7  10
TORSDOF 3
ENDMDL
MODEL       17
REMARK 921   NORMALIZED FREE ENERGY PREDICTED BY IDOCK:   -5.83 KCAL/MOL
REMARK 922        TOTAL FREE ENERGY PREDICTED BY IDOCK:   -7.07 KCAL/MOL
REMARK 923 INTER-LIGAND FREE ENERGY PREDICTED BY IDOCK:   -7.13 KCAL/MOL
REMARK 924 INTRA-LIGAND FREE ENERGY PREDICTED BY IDOCK:    0.06 KCAL/MOL
REMARK 927      BINDING AFFINITY PREDICTED BY RF-SCORE:    0.00 PKD
ROOT
HETATM    1  N   UNL     1      -8.958   8.755  64.899  1.00  0.00    -0.412 NA 
HETATM    2  H2  UNL     1      -8.066   8.841  64.411  1.00  0.00     0.000 HD 
HETATM    3  C   UNL     1      -9.618   9.986  64.833  1.00  0.00    -0.310 A  
HETATM    4  H1  UNL     1      -8.788   8.311  65.801  1.00  0.00     0.000 HD 
HETATM    5  C   UNL     1      -9.851  10.594  63.595  1.00  0.00    -0.392 A  
HETATM    6  C   UNL     1     -10.590  11.777  63.505  1.00  0.00    -0.499 A  
HETATM    7  C   UNL     1     -11.153  12.332  64.661  1.00  0.00    -0.313 A  
HETATM    8  C   UNL     1     -10.239  10.517  65.969  1.00  0.00    -0.310 A  
HETATM    9  C   UNL     1     -10.982  11.702  65.894  1.00  0.00    -0.334 A  
ENDROOT
BRANCH   7  10
HETATM   10  S   UNL     1     -11.958  13.921  64.572  1.00  0.00    -0.452 S  
HETATM   11  O   UNL     1     -12.729  13.964  63.345  1.00  0.00    -0.806 OA 
HETATM   12  O   UNL     1     -12.600  14.132  65.852  1.00  0.00    -0.486 OA 
BRANCH  10  13
HETATM   13  N   UNL     1     -10.708  15.043  64.483  1.00  0.00    -0.596 N  
HETATM   14  H   UNL     1     -10.135  15.145  63.646  1.00  0.00     0.000 HD 
BRANCH  13  15
HETATM   15  C   UNL     1     -10.496  15.833  65.626  1.00  0.00    -0.383 A  
HETATM   16  C   UNL     1     -10.232  15.284  66.869  1.00  0.00    -0.268 A  
HETATM   17  C   UNL     1      -9.994  16.158  67.926  1.00  0.00    -0.239 A  
HETATM   18  C   UNL     1     -10.061  17.529  67.700  1.00  0.00    -0.328 A  
HETATM   19  C   UNL     1     -10.355  17.971  66.419  1.00  0.00    -0.379 A  
HETATM   20  N   UNL     1     -10.566  17.148  65.368  1.00  0.00    -0.626 NA 
ENDBRANCH  13  15
ENDBRANCH  10  13
ENDBRANCH   7  10
TORSDOF 3
ENDMDL
MODEL       18
REMARK 921   NORMALIZED FREE ENERGY PREDICTED BY IDOCK:   -5.82 KCAL/MOL
REMARK 922        TOTAL FREE ENERGY PREDICTED BY IDOCK:   -7.06 KCAL/MOL
REMARK 923 INTER-LIGAND FREE ENERGY PREDICTED BY IDOCK:   -6.72 KCAL/MOL
REMARK 924 INTRA-LIGAND FREE ENERGY PREDICTED BY IDOCK:   -0.33 KCAL/MOL
REMARK 927      BINDING AFFINITY PREDICTED BY RF-SCORE:    0.00 PKD
ROOT
HETATM    1  N   UNL     1     -12.457  13.925  63.203  1.00  0.00    -1.079 NA 
HETATM    2  H2  UNL     1     -12.644  13.353  62.379  1.00  0.00     0.000 HD 
HETATM    3  C   UNL     1     -11.925  13.101  64.200  1.00  0.00    -0.436 A  
HETATM    4  H1  UNL     1     -13.282  14.493  63.393  1.00  0.00     0.000 HD 
HETATM    5  C   UNL     1     -10.793  12.321  63.939  1.00  0.00    -0.464 A  
HETATM    6  C   UNL     1     -10.194  11.565  64.951  1.00  0.00    -0.324 A  
HETATM    7  C   UNL     1     -10.698  11.631  66.255  1.00  0.00    -0.272 A  
HETATM    8  C   UNL     1     -12.378  13.206  65.520  1.00  0.00    -0.529 A  
HETATM    9  C   UNL     1     -11.788  12.453  66.544  1.00  0.00    -0.407 A  
ENDROOT
BRANCH   7  10
HETATM   10  S   UNL     1     -10.038  10.547  67.508  1.00  0.00    -0.199 S  
HETATM   11  O   UNL     1     -10.845   9.343  67.528  1.00  0.00    -0.269 OA 
HETATM   12  O   UNL     1      -8.610  10.472  67.281  1.00  0.00    -0.123 OA 
BRANCH  10  13
HETATM   13  N   UNL     1     -10.239  11.376  68.958  1.00  0.00    -0.361 N  
HETATM   14  H   UNL     1      -9.805  12.284  69.122  1.00  0.00     0.000 HD 
BRANCH  13  15
HETATM   15  C   UNL     1     -11.037  10.750  69.930  1.00  0.00    -0.271 A  
HETATM   16  C   UNL     1     -12.364  11.089  70.133  1.00  0.00    -0.389 A  
HETATM   17  C   UNL     1     -13.075  10.376  71.093  1.00  0.00    -0.474 A  
HETATM   18  C   UNL     1     -12.425   9.386  71.822  1.00  0.00    -0.471 A  
HETATM   19  C   UNL     1     -11.087   9.143  71.554  1.00  0.00    -0.365 A  
HETATM   20  N   UNL     1     -10.376   9.801  70.611  1.00  0.00    -0.292 NA 
ENDBRANCH  13  15
ENDBRANCH  10  13
ENDBRANCH   7  10
TORSDOF 3
ENDMDL
MODEL       19
REMARK 921   NORMALIZED FREE ENERGY PREDICTED BY IDOCK:   -5.81 KCAL/MOL
REMARK 922        TOTAL FREE ENERGY PREDICTED BY IDOCK:   -7.05 KCAL/MOL
REMARK 923 INTER-LIGAND FREE ENERGY PREDICTED BY IDOCK:   -6.84 KCAL/MOL
REMARK 924 INTRA-LIGAND FREE ENERGY PREDICTED BY IDOCK:   -0.21 KCAL/MOL
REMARK 927      BINDING AFFINITY PREDICTED BY RF-SCORE:    0.00 PKD
ROOT
HETATM    1  N   UNL     1     -12.437  14.040  63.320  1.00  0.00    -1.112 NA 
HETATM    2  H2  UNL     1     -12.341  15.024  63.571  1.00  0.00     0.000 HD 
HETATM    3  C   UNL     1     -11.869  13.267  64.338  1.00  0.00    -0.399 A  
HETATM    4  H1  UNL     1     -12.129  13.923  62.355  1.00  0.00     0.000 HD 
HETATM    5  C   UNL     1     -12.291  13.428  65.662  1.00  0.00    -0.521 A  
HETATM    6  C   UNL     1     -11.801  12.599  66.676  1.00  0.00    -0.449 A  
HETATM    7  C   UNL     1     -10.920  11.561  66.357  1.00  0.00    -0.284 A  
HETATM    8  C   UNL     1     -11.037  12.186  64.025  1.00  0.00    -0.449 A  
HETATM    9  C   UNL     1     -10.537  11.349  65.031  1.00  0.00    -0.359 A  
ENDROOT
BRANCH   7  10
HETATM   10  S   UNL     1     -10.171  10.609  67.666  1.00  0.00    -0.206 S  
HETATM   11  O   UNL     1     -10.725   9.270  67.619  1.00  0.00    -0.269 OA 
HETATM   12  O   UNL     1      -8.741  10.817  67.564  1.00  0.00    -0.125 OA 
BRANCH  10  13
HETATM   13  N   UNL     1     -10.654  11.362  69.090  1.00  0.00    -0.341 N  
HETATM   14  H   UNL     1     -10.543  12.366  69.232  1.00  0.00     0.000 HD 
BRANCH  13  15
HETATM   15  C   UNL     1     -11.218  10.533  70.075  1.00  0.00    -0.315 A  
HETATM   16  C   UNL     1     -10.475   9.590  70.766  1.00  0.00    -0.384 A  
HETATM   17  C   UNL     1     -11.123   8.852  71.752  1.00  0.00    -0.433 A  
HETATM   18  C   UNL     1     -12.479   9.066  71.979  1.00  0.00    -0.460 A  
HETATM   19  C   UNL     1     -13.131  10.020  71.213  1.00  0.00    -0.402 A  
HETATM   20  N   UNL     1     -12.524  10.770  70.267  1.00  0.00    -0.330 NA 
ENDBRANCH  13  15
ENDBRANCH  10  13
ENDBRANCH   7  10
TORSDOF 3
ENDMDL
MODEL       20
REMARK 921   NORMALIZED FREE ENERGY PREDICTED BY IDOCK:   -5.79 KCAL/MOL
REMARK 922        TOTAL FREE ENERGY PREDICTED BY IDOCK:   -7.02 KCAL/MOL
REMARK 923 INTER-LIGAND FREE ENERGY PREDICTED BY IDOCK:   -6.69 KCAL/MOL
REMARK 924 INTRA-LIGAND FREE ENERGY PREDICTED BY IDOCK:   -0.34 KCAL/MOL
REMARK 927      BINDING AFFINITY PREDICTED BY RF-SCORE:    0.00 PKD
ROOT
HETATM    1  N   UNL     1     -13.637  10.214  72.399  1.00  0.00    -0.578 NA 
HETATM    2  H2  UNL     1     -12.901   9.540  72.610  1.00  0.00     0.000 HD 
HETATM    3  C   UNL     1     -13.059  11.306  71.742  1.00  0.00    -0.422 A  
HETATM    4  H1  UNL     1     -14.191  10.358  73.243  1.00  0.00     0.000 HD 
HETATM    5  C   UNL     1     -12.298  11.108  70.585  1.00  0.00    -0.482 A  
HETATM    6  C   UNL     1     -11.793  12.195  69.865  1.00  0.00    -0.392 A  
HETATM    7  C   UNL     1     -12.099  13.498  70.273  1.00  0.00    -0.355 A  
HETATM    8  C   UNL     1     -13.409  12.613  72.101  1.00  0.00    -0.570 A  
HETATM    9  C   UNL     1     -12.909  13.711  71.389  1.00  0.00    -0.442 A  
ENDROOT
BRANCH   7  10
HETATM   10  S   UNL     1     -11.325  14.880  69.452  1.00  0.00    -0.308 S  
HETATM   11  O   UNL     1     -12.373  15.726  68.918  1.00  0.00    -0.142 OA 
HETATM   12  O   UNL     1     -10.347  15.415  70.376  1.00  0.00    -0.269 OA 
BRANCH  10  13
HETATM   13  N   UNL     1     -10.452  14.207  68.183  1.00  0.00    -0.239 N  
HETATM   14  H   UNL     1      -9.532  13.790  68.324  1.00  0.00     0.000 HD 
BRANCH  13  15
HETATM   15  C   UNL     1     -11.057  14.250  66.915  1.00  0.00    -0.312 A  
HETATM   16  C   UNL     1     -12.053  13.364  66.538  1.00  0.00    -0.444 A  
HETATM   17  C   UNL     1     -12.615  13.523  65.275  1.00  0.00    -0.517 A  
HETATM   18  C   UNL     1     -12.140  14.531  64.442  1.00  0.00    -0.492 A  
HETATM   19  C   UNL     1     -11.123  15.348  64.913  1.00  0.00    -0.423 A  
HETATM   20  N   UNL     1     -10.574  15.235  66.143  1.00  0.00    -0.303 NA 
ENDBRANCH  13  15
ENDBRANCH  10  13
ENDBRANCH   7  10
TORSDOF 3
ENDMDL
MODEL       21
REMARK 921   NORMALIZED FREE ENERGY PREDICTED BY IDOCK:   -5.79 KCAL/MOL
REMARK 922        TOTAL FREE ENERGY PREDICTED BY IDOCK:   -7.02 KCAL/MOL
REMARK 923 INTER-LIGAND FREE ENERGY PREDICTED BY IDOCK:   -6.76 KCAL/MOL
REMARK 924 INTRA-LIGAND FREE ENERGY PREDICTED BY IDOCK:   -0.26 KCAL/MOL
REMARK 927      BINDING AFFINITY PREDICTED BY RF-SCORE:    0.00 PKD
ROOT
HETATM    1  N   UNL     1     -13.443   9.175  73.030  1.00  0.00    -0.887 NA 
HETATM    2  H2  UNL     1     -14.445   9.327  73.144  1.00  0.00     0.000 HD 
HETATM    3  C   UNL     1     -12.999   9.944  71.950  1.00  0.00    -0.448 A  
HETATM    4  H1  UNL     1     -13.267   8.171  73.052  1.00  0.00     0.000 HD 
HETATM    5  C   UNL     1     -13.241  11.322  71.921  1.00  0.00    -0.491 A  
HETATM    6  C   UNL     1     -12.724  12.119  70.896  1.00  0.00    -0.280 A  
HETATM    7  C   UNL     1     -11.907  11.544  69.916  1.00  0.00    -0.355 A  
HETATM    8  C   UNL     1     -12.130   9.395  71.000  1.00  0.00    -0.373 A  
HETATM    9  C   UNL     1     -11.606  10.182  69.967  1.00  0.00    -0.323 A  
ENDROOT
BRANCH   7  10
HETATM   10  S   UNL     1     -11.380  12.525  68.523  1.00  0.00    -0.323 S  
HETATM   11  O   UNL     1      -9.956  12.759  68.654  1.00  0.00    -0.190 OA 
HETATM   12  O   UNL     1     -11.916  11.885  67.340  1.00  0.00    -0.603 OA 
BRANCH  10  13
HETATM   13  N   UNL     1     -12.201  13.985  68.677  1.00  0.00    -0.527 N  
HETATM   14  H   UNL     1     -13.165  14.028  69.007  1.00  0.00     0.000 HD 
BRANCH  13  15
HETATM   15  C   UNL     1     -11.486  15.143  68.325  1.00  0.00    -0.336 A  
HETATM   16  C   UNL     1     -11.163  16.125  69.247  1.00  0.00    -0.337 A  
HETATM   17  C   UNL     1     -10.416  17.210  68.801  1.00  0.00    -0.351 A  
HETATM   18  C   UNL     1     -10.055  17.281  67.460  1.00  0.00    -0.315 A  
HETATM   19  C   UNL     1     -10.451  16.253  66.617  1.00  0.00    -0.290 A  
HETATM   20  N   UNL     1     -11.155  15.174  67.025  1.00  0.00    -0.334 NA 
ENDBRANCH  13  15
ENDBRANCH  10  13
ENDBRANCH   7  10
TORSDOF 3
ENDMDL
MODEL       22
REMARK 921   NORMALIZED FREE ENERGY PREDICTED BY IDOCK:   -5.79 KCAL/MOL
REMARK 922        TOTAL FREE ENERGY PREDICTED BY IDOCK:   -7.02 KCAL/MOL
REMARK 923 INTER-LIGAND FREE ENERGY PREDICTED BY IDOCK:   -6.68 KCAL/MOL
REMARK 924 INTRA-LIGAND FREE ENERGY PREDICTED BY IDOCK:   -0.33 KCAL/MOL
REMARK 927      BINDING AFFINITY PREDICTED BY RF-SCORE:    0.00 PKD
ROOT
HETATM    1  N   UNL     1     -10.715  14.990  70.361  1.00  0.00    -0.495 NA 
HETATM    2  H2  UNL     1     -10.381  14.148  70.831  1.00  0.00     0.000 HD 
HETATM    3  C   UNL     1     -11.012  14.665  69.034  1.00  0.00    -0.258 A  
HETATM    4  H1  UNL     1     -10.071  15.752  70.571  1.00  0.00     0.000 HD 
HETATM    5  C   UNL     1     -11.896  13.619  68.746  1.00  0.00    -0.395 A  
HETATM    6  C   UNL     1     -12.275  13.342  67.429  1.00  0.00    -0.262 A  
HETATM    7  C   UNL     1     -11.811  14.155  66.389  1.00  0.00    -0.423 A  
HETATM    8  C   UNL     1     -10.607  15.507  67.992  1.00  0.00    -0.270 A  
HETATM    9  C   UNL     1     -10.978  15.241  66.668  1.00  0.00    -0.297 A  
ENDROOT
BRANCH   7  10
HETATM   10  S   UNL     1     -12.162  13.709  64.699  1.00  0.00    -0.400 S  
HETATM   11  O   UNL     1     -12.952  12.494  64.713  1.00  0.00    -0.827 OA 
HETATM   12  O   UNL     1     -12.660  14.903  64.050  1.00  0.00    -0.832 OA 
BRANCH  10  13
HETATM   13  N   UNL     1     -10.663  13.390  64.007  1.00  0.00    -0.541 N  
HETATM   14  H   UNL     1     -10.176  14.081  63.437  1.00  0.00     0.000 HD 
BRANCH  13  15
HETATM   15  C   UNL     1     -10.117  12.119  64.255  1.00  0.00    -0.290 A  
HETATM   16  C   UNL     1      -9.740  11.708  65.523  1.00  0.00    -0.259 A  
HETATM   17  C   UNL     1      -9.251  10.413  65.665  1.00  0.00    -0.220 A  
HETATM   18  C   UNL     1      -9.132   9.605  64.538  1.00  0.00    -0.287 A  
HETATM   19  C   UNL     1      -9.518  10.126  63.312  1.00  0.00    -0.257 A  
HETATM   20  N   UNL     1     -10.020  11.370  63.146  1.00  0.00    -0.372 NA 
ENDBRANCH  13  15
ENDBRANCH  10  13
ENDBRANCH   7  10
TORSDOF 3
ENDMDL
MODEL       23
REMARK 921   NORMALIZED FREE ENERGY PREDICTED BY IDOCK:   -5.71 KCAL/MOL
REMARK 922        TOTAL FREE ENERGY PREDICTED BY IDOCK:   -6.93 KCAL/MOL
REMARK 923 INTER-LIGAND FREE ENERGY PREDICTED BY IDOCK:   -6.56 KCAL/MOL
REMARK 924 INTRA-LIGAND FREE ENERGY PREDICTED BY IDOCK:   -0.37 KCAL/MOL
REMARK 927      BINDING AFFINITY PREDICTED BY RF-SCORE:    0.00 PKD
ROOT
HETATM    1  N   UNL     1      -9.655   9.014  67.905  1.00  0.00    -0.145 NA 
HETATM    2  H2  UNL     1     -10.343   8.524  68.478  1.00  0.00     0.000 HD 
HETATM    3  C   UNL     1     -10.324   9.970  67.134  1.00  0.00    -0.241 A  
HETATM    4  H1  UNL     1      -9.058   8.319  67.457  1.00  0.00     0.000 HD 
HETATM    5  C   UNL     1     -11.143  10.922  67.749  1.00  0.00    -0.371 A  
HETATM    6  C   UNL     1     -11.743  11.941  67.003  1.00  0.00    -0.304 A  
HETATM    7  C   UNL     1     -11.478  12.044  65.632  1.00  0.00    -0.316 A  
HETATM    8  C   UNL     1     -10.018  10.123  65.777  1.00  0.00    -0.339 A  
HETATM    9  C   UNL     1     -10.614  11.138  65.016  1.00  0.00    -0.340 A  
ENDROOT
BRANCH   7  10
HETATM   10  S   UNL     1     -12.366  13.240  64.652  1.00  0.00    -0.376 S  
HETATM   11  O   UNL     1     -13.008  12.536  63.560  1.00  0.00    -0.719 OA 
HETATM   12  O   UNL     1     -13.148  14.034  65.576  1.00  0.00    -0.713 OA 
BRANCH  10  13
HETATM   13  N   UNL     1     -11.186  14.268  64.035  1.00  0.00    -0.528 N  
HETATM   14  H   UNL     1     -10.807  14.148  63.096  1.00  0.00     0.000 HD 
BRANCH  13  15
HETATM   15  C   UNL     1     -10.750  15.300  64.884  1.00  0.00    -0.400 A  
HETATM   16  C   UNL     1      -9.848  15.084  65.911  1.00  0.00    -0.369 A  
HETATM   17  C   UNL     1      -9.449  16.184  66.665  1.00  0.00    -0.269 A  
HETATM   18  C   UNL     1      -9.990  17.434  66.379  1.00  0.00    -0.322 A  
HETATM   19  C   UNL     1     -10.904  17.533  65.341  1.00  0.00     0.059 A  
HETATM   20  N   UNL     1     -11.291  16.488  64.575  1.00  0.00    -0.862 NA 
ENDBRANCH  13  15
ENDBRANCH  10  13
ENDBRANCH   7  10
TORSDOF 3
ENDMDL
MODEL       24
REMARK 921   NORMALIZED FREE ENERGY PREDICTED BY IDOCK:   -5.65 KCAL/MOL
REMARK 922        TOTAL FREE ENERGY PREDICTED BY IDOCK:   -6.86 KCAL/MOL
REMARK 923 INTER-LIGAND FREE ENERGY PREDICTED BY IDOCK:   -6.56 KCAL/MOL
REMARK 924 INTRA-LIGAND FREE ENERGY PREDICTED BY IDOCK:   -0.30 KCAL/MOL
REMARK 927      BINDING AFFINITY PREDICTED BY RF-SCORE:    0.00 PKD
ROOT
HETATM    1  N   UNL     1     -12.987   9.157  71.196  1.00  0.00    -0.507 NA 
HETATM    2  H2  UNL     1     -13.961   8.964  71.433  1.00  0.00     0.000 HD 
HETATM    3  C   UNL     1     -12.855  10.529  70.962  1.00  0.00    -0.407 A  
HETATM    4  H1  UNL     1     -12.689   8.485  70.489  1.00  0.00     0.000 HD 
HETATM    5  C   UNL     1     -13.264  11.451  71.932  1.00  0.00    -0.485 A  
HETATM    6  C   UNL     1     -13.053  12.822  71.753  1.00  0.00    -0.455 A  
HETATM    7  C   UNL     1     -12.374  13.275  70.616  1.00  0.00    -0.339 A  
HETATM    8  C   UNL     1     -12.122  10.992  69.863  1.00  0.00    -0.435 A  
HETATM    9  C   UNL     1     -11.905  12.362  69.670  1.00  0.00    -0.380 A  
ENDROOT
BRANCH   7  10
HETATM   10  S   UNL     1     -12.246  15.027  70.308  1.00  0.00    -0.356 S  
HETATM   11  O   UNL     1     -13.437  15.662  70.836  1.00  0.00    -0.569 OA 
HETATM   12  O   UNL     1     -10.932  15.433  70.763  1.00  0.00    -0.326 OA 
BRANCH  10  13
HETATM   13  N   UNL     1     -12.229  15.180  68.633  1.00  0.00    -0.597 N  
HETATM   14  H   UNL     1     -13.034  14.923  68.062  1.00  0.00     0.000 HD 
BRANCH  13  15
HETATM   15  C   UNL     1     -11.046  15.682  68.064  1.00  0.00    -0.335 A  
HETATM   16  C   UNL     1     -10.043  14.854  67.588  1.00  0.00    -0.227 A  
HETATM   17  C   UNL     1      -8.932  15.455  67.003  1.00  0.00    -0.253 A  
HETATM   18  C   UNL     1      -8.861  16.843  66.949  1.00  0.00    -0.248 A  
HETATM   19  C   UNL     1      -9.913  17.577  67.477  1.00  0.00    -0.315 A  
HETATM   20  N   UNL     1     -11.016  17.023  68.028  1.00  0.00    -0.324 NA 
ENDBRANCH  13  15
ENDBRANCH  10  13
ENDBRANCH   7  10
TORSDOF 3
ENDMDL
MODEL       25
REMARK 921   NORMALIZED FREE ENERGY PREDICTED BY IDOCK:   -5.63 KCAL/MOL
REMARK 922        TOTAL FREE ENERGY PREDICTED BY IDOCK:   -6.83 KCAL/MOL
REMARK 923 INTER-LIGAND FREE ENERGY PREDICTED BY IDOCK:   -6.62 KCAL/MOL
REMARK 924 INTRA-LIGAND FREE ENERGY PREDICTED BY IDOCK:   -0.21 KCAL/MOL
REMARK 927      BINDING AFFINITY PREDICTED BY RF-SCORE:    0.00 PKD
ROOT
HETATM    1  N   UNL     1     -14.163  13.438  72.683  1.00  0.00    -0.658 NA 
HETATM    2  H2  UNL     1     -14.968  14.054  72.797  1.00  0.00     0.000 HD 
HETATM    3  C   UNL     1     -13.255  14.055  71.817  1.00  0.00    -0.375 A  
HETATM    4  H1  UNL     1     -14.504  12.498  72.484  1.00  0.00     0.000 HD 
HETATM    5  C   UNL     1     -12.788  15.345  72.089  1.00  0.00    -0.466 A  
HETATM    6  C   UNL     1     -11.810  15.939  71.285  1.00  0.00    -0.502 A  
HETATM    7  C   UNL     1     -11.251  15.214  70.226  1.00  0.00    -0.277 A  
HETATM    8  C   UNL     1     -12.642  13.321  70.794  1.00  0.00    -0.357 A  
HETATM    9  C   UNL     1     -11.663  13.904  69.980  1.00  0.00    -0.338 A  
ENDROOT
BRANCH   7  10
HETATM   10  S   UNL     1     -10.125  16.024  69.105  1.00  0.00    -0.258 S  
HETATM   11  O   UNL     1      -8.775  15.772  69.567  1.00  0.00    -0.259 OA 
HETATM   12  O   UNL     1     -10.528  15.643  67.767  1.00  0.00    -0.261 OA 
BRANCH  10  13
HETATM   13  N   UNL     1     -10.465  17.665  69.247  1.00  0.00    -0.379 N  
HETATM   14  H   UNL     1     -11.008  18.036  70.026  1.00  0.00     0.000 HD 
BRANCH  13  15
HETATM   15  C   UNL     1      -9.961  18.498  68.233  1.00  0.00    -0.376 A  
HETATM   16  C   UNL     1     -10.762  19.012  67.228  1.00  0.00    -0.556 A  
HETATM   17  C   UNL     1     -10.170  19.862  66.299  1.00  0.00    -0.614 A  
HETATM   18  C   UNL     1      -8.808  20.131  66.397  1.00  0.00    -0.332 A  
HETATM   19  C   UNL     1      -8.095  19.543  67.431  1.00  0.00    -0.280 A  
HETATM   20  N   UNL     1      -8.647  18.735  68.363  1.00  0.00    -0.332 NA 
ENDBRANCH  13  15
ENDBRANCH  10  13
ENDBRANCH   7  10
TORSDOF 3
ENDMDL
MODEL       26
REMARK 921   NORMALIZED FREE ENERGY PREDICTED BY IDOCK:   -5.61 KCAL/MOL
REMARK 922        TOTAL FREE ENERGY PREDICTED BY IDOCK:   -6.81 KCAL/MOL
REMARK 923 INTER-LIGAND FREE ENERGY PREDICTED BY IDOCK:   -6.58 KCAL/MOL
REMARK 924 INTRA-LIGAND FREE ENERGY PREDICTED BY IDOCK:   -0.23 KCAL/MOL
REMARK 927      BINDING AFFINITY PREDICTED BY RF-SCORE:    0.00 PKD
ROOT
HETATM    1  N   UNL     1      -7.694  18.594  65.900  1.00  0.00    -0.490 NA 
HETATM    2  H2  UNL     1      -7.252  19.160  66.625  1.00  0.00     0.000 HD 
HETATM    3  C   UNL     1      -8.584  17.708  66.515  1.00  0.00    -0.259 A  
HETATM    4  H1  UNL     1      -6.965  18.241  65.280  1.00  0.00     0.000 HD 
HETATM    5  C   UNL     1      -9.584  18.192  67.365  1.00  0.00    -0.275 A  
HETATM    6  C   UNL     1     -10.539  17.330  67.913  1.00  0.00    -0.384 A  
HETATM    7  C   UNL     1     -10.531  15.975  67.563  1.00  0.00    -0.297 A  
HETATM    8  C   UNL     1      -8.627  16.364  66.125  1.00  0.00    -0.343 A  
HETATM    9  C   UNL     1      -9.577  15.489  66.667  1.00  0.00    -0.273 A  
ENDROOT
BRANCH   7  10
HETATM   10  S   UNL     1     -11.644  14.848  68.383  1.00  0.00    -0.320 S  
HETATM   11  O   UNL     1     -12.441  14.190  67.367  1.00  0.00    -0.210 OA 
HETATM   12  O   UNL     1     -10.842  14.072  69.306  1.00  0.00    -0.231 OA 
BRANCH  10  13
HETATM   13  N   UNL     1     -12.639  15.821  69.328  1.00  0.00    -0.434 N  
HETATM   14  H   UNL     1     -13.172  16.593  68.929  1.00  0.00     0.000 HD 
BRANCH  13  15
HETATM   15  C   UNL     1     -12.695  15.512  70.698  1.00  0.00    -0.436 A  
HETATM   16  C   UNL     1     -11.772  16.002  71.607  1.00  0.00    -0.583 A  
HETATM   17  C   UNL     1     -11.946  15.669  72.947  1.00  0.00    -0.588 A  
HETATM   18  C   UNL     1     -13.005  14.844  73.310  1.00  0.00    -0.635 A  
HETATM   19  C   UNL     1     -13.857  14.391  72.314  1.00  0.00    -0.491 A  
HETATM   20  N   UNL     1     -13.730  14.717  71.009  1.00  0.00    -0.331 NA 
ENDBRANCH  13  15
ENDBRANCH  10  13
ENDBRANCH   7  10
TORSDOF 3
ENDMDL
MODEL       27
REMARK 921   NORMALIZED FREE ENERGY PREDICTED BY IDOCK:   -5.59 KCAL/MOL
REMARK 922        TOTAL FREE ENERGY PREDICTED BY IDOCK:   -6.79 KCAL/MOL
REMARK 923 INTER-LIGAND FREE ENERGY PREDICTED BY IDOCK:   -6.56 KCAL/MOL
REMARK 924 INTRA-LIGAND FREE ENERGY PREDICTED BY IDOCK:   -0.23 KCAL/MOL
REMARK 927      BINDING AFFINITY PREDICTED BY RF-SCORE:    0.00 PKD
ROOT
HETATM    1  N   UNL     1     -13.789  15.646  72.574  1.00  0.00    -0.566 NA 
HETATM    2  H2  UNL     1     -14.236  16.252  71.886  1.00  0.00     0.000 HD 
HETATM    3  C   UNL     1     -13.389  14.470  71.932  1.00  0.00    -0.365 A  
HETATM    4  H1  UNL     1     -14.387  15.602  73.399  1.00  0.00     0.000 HD 
HETATM    5  C   UNL     1     -12.569  14.530  70.800  1.00  0.00    -0.418 A  
HETATM    6  C   UNL     1     -12.084  13.363  70.203  1.00  0.00    -0.415 A  
HETATM    7  C   UNL     1     -12.375  12.119  70.776  1.00  0.00    -0.297 A  
HETATM    8  C   UNL     1     -13.618  13.224  72.529  1.00  0.00    -0.637 A  
HETATM    9  C   UNL     1     -13.140  12.047  71.941  1.00  0.00    -0.475 A  
ENDROOT
BRANCH   7  10
HETATM   10  S   UNL     1     -11.893  10.626  69.927  1.00  0.00    -0.318 S  
HETATM   11  O   UNL     1     -12.279  10.758  68.537  1.00  0.00    -0.470 OA 
HETATM   12  O   UNL     1     -10.514  10.371  70.288  1.00  0.00    -0.227 OA 
BRANCH  10  13
HETATM   13  N   UNL     1     -12.798   9.402  70.643  1.00  0.00    -0.513 N  
HETATM   14  H   UNL     1     -13.818   9.422  70.651  1.00  0.00     0.000 HD 
BRANCH  13  15
HETATM   15  C   UNL     1     -12.074   8.350  71.229  1.00  0.00    -0.284 A  
HETATM   16  C   UNL     1     -11.750   7.196  70.536  1.00  0.00    -0.314 A  
HETATM   17  C   UNL     1     -10.991   6.235  71.198  1.00  0.00    -0.336 A  
HETATM   18  C   UNL     1     -10.621   6.456  72.521  1.00  0.00    -0.240 A  
HETATM   19  C   UNL     1     -11.019   7.638  73.126  1.00  0.00    -0.353 A  
HETATM   20  N   UNL     1     -11.734   8.601  72.502  1.00  0.00    -0.329 NA 
ENDBRANCH  13  15
ENDBRANCH  10  13
ENDBRANCH   7  10
TORSDOF 3
ENDMDL
MODEL       28
REMARK 921   NORMALIZED FREE ENERGY PREDICTED BY IDOCK:   -5.55 KCAL/MOL
REMARK 922        TOTAL FREE ENERGY PREDICTED BY IDOCK:   -6.74 KCAL/MOL
REMARK 923 INTER-LIGAND FREE ENERGY PREDICTED BY IDOCK:   -6.42 KCAL/MOL
REMARK 924 INTRA-LIGAND FREE ENERGY PREDICTED BY IDOCK:   -0.32 KCAL/MOL
REMARK 927      BINDING AFFINITY PREDICTED BY RF-SCORE:    0.00 PKD
ROOT
HETATM    1  N   UNL     1     -13.926  15.762  73.033  1.00  0.00    -0.631 NA 
HETATM    2  H2  UNL     1     -13.739  15.520  74.006  1.00  0.00     0.000 HD 
HETATM    3  C   UNL     1     -13.316  14.806  72.216  1.00  0.00    -0.391 A  
HETATM    4  H1  UNL     1     -13.722  16.753  72.904  1.00  0.00     0.000 HD 
HETATM    5  C   UNL     1     -13.596  13.447  72.393  1.00  0.00    -0.708 A  
HETATM    6  C   UNL     1     -13.067  12.487  71.525  1.00  0.00    -0.373 A  
HETATM    7  C   UNL     1     -12.293  12.892  70.432  1.00  0.00    -0.258 A  
HETATM    8  C   UNL     1     -12.593  15.200  71.083  1.00  0.00    -0.433 A  
HETATM    9  C   UNL     1     -12.056  14.249  70.206  1.00  0.00    -0.403 A  
ENDROOT
BRANCH   7  10
HETATM   10  S   UNL     1     -11.487  11.664  69.420  1.00  0.00    -0.319 S  
HETATM   11  O   UNL     1     -12.514  10.864  68.785  1.00  0.00    -0.431 OA 
HETATM   12  O   UNL     1     -10.502  12.365  68.624  1.00  0.00    -0.228 OA 
BRANCH  10  13
HETATM   13  N   UNL     1     -10.622  10.705  70.498  1.00  0.00    -0.295 N  
HETATM   14  H   UNL     1      -9.794  11.052  70.982  1.00  0.00     0.000 HD 
BRANCH  13  15
HETATM   15  C   UNL     1     -11.101   9.398  70.695  1.00  0.00    -0.289 A  
HETATM   16  C   UNL     1     -11.977   9.075  71.717  1.00  0.00    -0.438 A  
HETATM   17  C   UNL     1     -12.423   7.759  71.795  1.00  0.00    -0.348 A  
HETATM   18  C   UNL     1     -11.952   6.828  70.876  1.00  0.00    -0.437 A  
HETATM   19  C   UNL     1     -11.058   7.254  69.906  1.00  0.00    -0.212 A  
HETATM   20  N   UNL     1     -10.627   8.530  69.788  1.00  0.00    -0.225 NA 
ENDBRANCH  13  15
ENDBRANCH  10  13
ENDBRANCH   7  10
TORSDOF 3
ENDMDL
MODEL       29
REMARK 921   NORMALIZED FREE ENERGY PREDICTED BY IDOCK:   -5.55 KCAL/MOL
REMARK 922        TOTAL FREE ENERGY PREDICTED BY IDOCK:   -6.74 KCAL/MOL
REMARK 923 INTER-LIGAND FREE ENERGY PREDICTED BY IDOCK:   -6.73 KCAL/MOL
REMARK 924 INTRA-LIGAND FREE ENERGY PREDICTED BY IDOCK:   -0.01 KCAL/MOL
REMARK 927      BINDING AFFINITY PREDICTED BY RF-SCORE:    0.00 PKD
ROOT
HETATM    1  N   UNL     1      -7.760  21.221  66.938  1.00  0.00    -0.671 NA 
HETATM    2  H2  UNL     1      -7.993  22.022  67.526  1.00  0.00     0.000 HD 
HETATM    3  C   UNL     1      -8.378  20.087  67.474  1.00  0.00    -0.334 A  
HETATM    4  H1  UNL     1      -6.754  21.227  66.772  1.00  0.00     0.000 HD 
HETATM    5  C   UNL     1      -9.758  20.079  67.702  1.00  0.00    -0.535 A  
HETATM    6  C   UNL     1     -10.405  18.923  68.148  1.00  0.00    -0.433 A  
HETATM    7  C   UNL     1      -9.674  17.741  68.316  1.00  0.00    -0.320 A  
HETATM    8  C   UNL     1      -7.673  18.883  67.585  1.00  0.00    -0.259 A  
HETATM    9  C   UNL     1      -8.307  17.717  68.033  1.00  0.00    -0.249 A  
ENDROOT
BRANCH   7  10
HETATM   10  S   UNL     1     -10.463  16.313  69.037  1.00  0.00    -0.298 S  
HETATM   11  O   UNL     1     -11.347  15.741  68.042  1.00  0.00    -0.348 OA 
HETATM   12  O   UNL     1      -9.411  15.516  69.633  1.00  0.00    -0.275 OA 
BRANCH  10  13
HETATM   13  N   UNL     1     -11.377  16.913  70.315  1.00  0.00    -0.256 N  
HETATM   14  H   UNL     1     -11.435  17.912  70.512  1.00  0.00     0.000 HD 
BRANCH  13  15
HETATM   15  C   UNL     1     -12.056  15.963  71.098  1.00  0.00    -0.418 A  
HETATM   16  C   UNL     1     -11.790  15.785  72.445  1.00  0.00    -0.606 A  
HETATM   17  C   UNL     1     -12.552  14.847  73.136  1.00  0.00    -0.559 A  
HETATM   18  C   UNL     1     -13.513  14.114  72.448  1.00  0.00    -0.616 A  
HETATM   19  C   UNL     1     -13.681  14.357  71.093  1.00  0.00    -0.235 A  
HETATM   20  N   UNL     1     -12.975  15.279  70.400  1.00  0.00    -0.317 NA 
ENDBRANCH  13  15
ENDBRANCH  10  13
ENDBRANCH   7  10
TORSDOF 3
ENDMDL
MODEL       30
REMARK 921   NORMALIZED FREE ENERGY PREDICTED BY IDOCK:   -5.55 KCAL/MOL
REMARK 922        TOTAL FREE ENERGY PREDICTED BY IDOCK:   -6.74 KCAL/MOL
REMARK 923 INTER-LIGAND FREE ENERGY PREDICTED BY IDOCK:   -6.40 KCAL/MOL
REMARK 924 INTRA-LIGAND FREE ENERGY PREDICTED BY IDOCK:   -0.33 KCAL/MOL
REMARK 927      BINDING AFFINITY PREDICTED BY RF-SCORE:    0.00 PKD
ROOT
HETATM    1  N   UNL     1     -13.161  12.613  64.890  1.00  0.00    -0.809 NA 
HETATM    2  H2  UNL     1     -13.866  12.472  65.613  1.00  0.00     0.000 HD 
HETATM    3  C   UNL     1     -12.417  13.752  65.216  1.00  0.00    -0.480 A  
HETATM    4  H1  UNL     1     -13.615  12.541  63.980  1.00  0.00     0.000 HD 
HETATM    5  C   UNL     1     -11.794  13.851  66.465  1.00  0.00    -0.440 A  
HETATM    6  C   UNL     1     -10.971  14.938  66.771  1.00  0.00    -0.326 A  
HETATM    7  C   UNL     1     -10.720  15.913  65.799  1.00  0.00    -0.316 A  
HETATM    8  C   UNL     1     -12.107  14.700  64.235  1.00  0.00    -0.437 A  
HETATM    9  C   UNL     1     -11.285  15.796  64.528  1.00  0.00    -0.334 A  
ENDROOT
BRANCH   7  10
HETATM   10  S   UNL     1      -9.804  17.379  66.238  1.00  0.00    -0.254 S  
HETATM   11  O   UNL     1      -8.479  17.267  65.664  1.00  0.00    -0.475 OA 
HETATM   12  O   UNL     1     -10.652  18.509  65.918  1.00  0.00    -0.488 OA 
BRANCH  10  13
HETATM   13  N   UNL     1      -9.689  17.341  67.916  1.00  0.00    -0.265 N  
HETATM   14  H   UNL     1     -10.465  17.031  68.501  1.00  0.00     0.000 HD 
BRANCH  13  15
HETATM   15  C   UNL     1      -8.466  17.759  68.468  1.00  0.00    -0.296 A  
HETATM   16  C   UNL     1      -7.501  16.864  68.897  1.00  0.00    -0.238 A  
HETATM   17  C   UNL     1      -6.308  17.385  69.388  1.00  0.00    -0.246 A  
HETATM   18  C   UNL     1      -6.148  18.765  69.457  1.00  0.00    -0.285 A  
HETATM   19  C   UNL     1      -7.189  19.571  69.021  1.00  0.00    -0.362 A  
HETATM   20  N   UNL     1      -8.349  19.095  68.516  1.00  0.00    -0.354 NA 
ENDBRANCH  13  15
ENDBRANCH  10  13
ENDBRANCH   7  10
TORSDOF 3
ENDMDL
MODEL       31
REMARK 921   NORMALIZED FREE ENERGY PREDICTED BY IDOCK:   -5.47 KCAL/MOL
REMARK 922        TOTAL FREE ENERGY PREDICTED BY IDOCK:   -6.65 KCAL/MOL
REMARK 923 INTER-LIGAND FREE ENERGY PREDICTED BY IDOCK:   -6.40 KCAL/MOL
REMARK 924 INTRA-LIGAND FREE ENERGY PREDICTED BY IDOCK:   -0.24 KCAL/MOL
REMARK 927      BINDING AFFINITY PREDICTED BY RF-SCORE:    0.00 PKD
ROOT
HETATM    1  N   UNL     1     -12.441  13.892  63.142  1.00  0.00    -1.079 NA 
HETATM    2  H2  UNL     1     -12.251  14.894  63.097  1.00  0.00     0.000 HD 
HETATM    3  C   UNL     1     -12.062  13.429  64.406  1.00  0.00    -0.416 A  
HETATM    4  H1  UNL     1     -12.064  13.456  62.301  1.00  0.00     0.000 HD 
HETATM    5  C   UNL     1     -12.579  14.029  65.559  1.00  0.00    -0.543 A  
HETATM    6  C   UNL     1     -12.284  13.518  66.827  1.00  0.00    -0.392 A  
HETATM    7  C   UNL     1     -11.507  12.360  66.944  1.00  0.00    -0.360 A  
HETATM    8  C   UNL     1     -11.340  12.237  64.536  1.00  0.00    -0.385 A  
HETATM    9  C   UNL     1     -11.035  11.715  65.799  1.00  0.00    -0.329 A  
ENDROOT
BRANCH   7  10
HETATM   10  S   UNL     1     -10.997  11.802  68.559  1.00  0.00    -0.245 S  
HETATM   11  O   UNL     1      -9.558  11.633  68.540  1.00  0.00    -0.196 OA 
HETATM   12  O   UNL     1     -11.621  12.688  69.520  1.00  0.00    -0.287 OA 
BRANCH  10  13
HETATM   13  N   UNL     1     -11.731  10.302  68.759  1.00  0.00    -0.519 N  
HETATM   14  H   UNL     1     -12.516  10.006  68.179  1.00  0.00     0.000 HD 
BRANCH  13  15
HETATM   15  C   UNL     1     -11.206   9.479  69.770  1.00  0.00    -0.144 A  
HETATM   16  C   UNL     1     -11.512   9.661  71.108  1.00  0.00    -0.456 A  
HETATM   17  C   UNL     1     -10.971   8.762  72.023  1.00  0.00    -0.438 A  
HETATM   18  C   UNL     1     -10.132   7.751  71.566  1.00  0.00    -0.212 A  
HETATM   19  C   UNL     1      -9.875   7.674  70.206  1.00  0.00    -0.180 A  
HETATM   20  N   UNL     1     -10.404   8.516  69.291  1.00  0.00    -0.219 NA 
ENDBRANCH  13  15
ENDBRANCH  10  13
ENDBRANCH   7  10
TORSDOF 3
ENDMDL
MODEL       32
REMARK 921   NORMALIZED FREE ENERGY PREDICTED BY IDOCK:   -5.46 KCAL/MOL
REMARK 922        TOTAL FREE ENERGY PREDICTED BY IDOCK:   -6.64 KCAL/MOL
REMARK 923 INTER-LIGAND FREE ENERGY PREDICTED BY IDOCK:   -6.35 KCAL/MOL
REMARK 924 INTRA-LIGAND FREE ENERGY PREDICTED BY IDOCK:   -0.29 KCAL/MOL
REMARK 927      BINDING AFFINITY PREDICTED BY RF-SCORE:    0.00 PKD
ROOT
HETATM    1  N   UNL     1     -14.069  15.739  72.775  1.00  0.00    -0.552 NA 
HETATM    2  H2  UNL     1     -14.570  16.395  72.176  1.00  0.00     0.000 HD 
HETATM    3  C   UNL     1     -13.509  14.744  71.969  1.00  0.00    -0.379 A  
HETATM    4  H1  UNL     1     -14.678  15.487  73.554  1.00  0.00     0.000 HD 
HETATM    5  C   UNL     1     -12.674  15.090  70.901  1.00  0.00    -0.437 A  
HETATM    6  C   UNL     1     -12.032  14.105  70.144  1.00  0.00    -0.400 A  
HETATM    7  C   UNL     1     -12.181  12.758  70.491  1.00  0.00    -0.307 A  
HETATM    8  C   UNL     1     -13.597  13.397  72.343  1.00  0.00    -0.708 A  
HETATM    9  C   UNL     1     -12.961  12.400  71.592  1.00  0.00    -0.409 A  
ENDROOT
BRANCH   7  10
HETATM   10  S   UNL     1     -11.496  11.496  69.433  1.00  0.00    -0.331 S  
HETATM   11  O   UNL     1     -10.681  10.620  70.252  1.00  0.00    -0.204 OA 
HETATM   12  O   UNL     1     -12.596  10.964  68.657  1.00  0.00    -0.255 OA 
BRANCH  10  13
HETATM   13  N   UNL     1     -10.510  12.319  68.347  1.00  0.00    -0.228 N  
HETATM   14  H   UNL     1      -9.647  12.775  68.643  1.00  0.00     0.000 HD 
BRANCH  13  15
HETATM   15  C   UNL     1     -10.940  12.344  67.009  1.00  0.00    -0.260 A  
HETATM   16  C   UNL     1     -11.849  13.277  66.540  1.00  0.00    -0.450 A  
HETATM   17  C   UNL     1     -12.174  13.240  65.187  1.00  0.00    -0.487 A  
HETATM   18  C   UNL     1     -11.604  12.262  64.379  1.00  0.00    -0.428 A  
HETATM   19  C   UNL     1     -10.722  11.362  64.958  1.00  0.00    -0.277 A  
HETATM   20  N   UNL     1     -10.367  11.388  66.262  1.00  0.00    -0.235 NA 
ENDBRANCH  13  15
ENDBRANCH  10  13
ENDBRANCH   7  10
TORSDOF 3
ENDMDL
MODEL       33
REMARK 921   NORMALIZED FREE ENERGY PREDICTED BY IDOCK:   -5.45 KCAL/MOL
REMARK 922        TOTAL FREE ENERGY PREDICTED BY IDOCK:   -6.62 KCAL/MOL
REMARK 923 INTER-LIGAND FREE ENERGY PREDICTED BY IDOCK:   -6.44 KCAL/MOL
REMARK 924 INTRA-LIGAND FREE ENERGY PREDICTED BY IDOCK:   -0.18 KCAL/MOL
REMARK 927      BINDING AFFINITY PREDICTED BY RF-SCORE:    0.00 PKD
ROOT
HETATM    1  N   UNL     1     -12.522  11.636  62.980  1.00  0.00    -0.937 NA 
HETATM    2  H2  UNL     1     -12.573  12.005  62.030  1.00  0.00     0.000 HD 
HETATM    3  C   UNL     1     -11.856  12.570  63.780  1.00  0.00    -0.496 A  
HETATM    4  H1  UNL     1     -12.191  10.672  62.933  1.00  0.00     0.000 HD 
HETATM    5  C   UNL     1     -12.309  13.892  63.844  1.00  0.00    -0.323 A  
HETATM    6  C   UNL     1     -11.713  14.813  64.710  1.00  0.00    -0.422 A  
HETATM    7  C   UNL     1     -10.686  14.396  65.565  1.00  0.00    -0.336 A  
HETATM    8  C   UNL     1     -10.872  12.153  64.684  1.00  0.00    -0.351 A  
HETATM    9  C   UNL     1     -10.265  13.066  65.556  1.00  0.00    -0.296 A  
ENDROOT
BRANCH   7  10
HETATM   10  S   UNL     1      -9.818  15.603  66.551  1.00  0.00    -0.280 S  
HETATM   11  O   UNL     1      -8.952  14.890  67.469  1.00  0.00    -0.174 OA 
HETATM   12  O   UNL     1      -9.271  16.576  65.628  1.00  0.00    -0.481 OA 
BRANCH  10  13
HETATM   13  N   UNL     1     -11.014  16.403  67.421  1.00  0.00    -0.211 N  
HETATM   14  H   UNL     1     -11.492  17.223  67.049  1.00  0.00     0.000 HD 
BRANCH  13  15
HETATM   15  C   UNL     1     -11.318  15.882  68.690  1.00  0.00    -0.376 A  
HETATM   16  C   UNL     1     -11.075  16.584  69.859  1.00  0.00    -0.241 A  
HETATM   17  C   UNL     1     -11.454  15.992  71.060  1.00  0.00    -0.460 A  
HETATM   18  C   UNL     1     -12.025  14.724  71.041  1.00  0.00    -0.389 A  
HETATM   19  C   UNL     1     -12.202  14.100  69.815  1.00  0.00    -0.344 A  
HETATM   20  N   UNL     1     -11.867  14.659  68.631  1.00  0.00    -0.323 NA 
ENDBRANCH  13  15
ENDBRANCH  10  13
ENDBRANCH   7  10
TORSDOF 3
ENDMDL
MODEL       34
REMARK 921   NORMALIZED FREE ENERGY PREDICTED BY IDOCK:   -5.44 KCAL/MOL
REMARK 922        TOTAL FREE ENERGY PREDICTED BY IDOCK:   -6.62 KCAL/MOL
REMARK 923 INTER-LIGAND FREE ENERGY PREDICTED BY IDOCK:   -6.40 KCAL/MOL
REMARK 924 INTRA-LIGAND FREE ENERGY PREDICTED BY IDOCK:   -0.22 KCAL/MOL
REMARK 927      BINDING AFFINITY PREDICTED BY RF-SCORE:    0.00 PKD
ROOT
HETATM    1  N   UNL     1     -11.490  16.387  63.876  1.00  0.00    -1.618 NA 
HETATM    2  H2  UNL     1     -12.448  16.572  63.580  1.00  0.00     0.000 HD 
HETATM    3  C   UNL     1     -11.526  15.509  64.963  1.00  0.00    -0.218 A  
HETATM    4  H1  UNL     1     -10.999  17.278  63.952  1.00  0.00     0.000 HD 
HETATM    5  C   UNL     1     -12.198  14.287  64.859  1.00  0.00    -0.449 A  
HETATM    6  C   UNL     1     -12.164  13.359  65.904  1.00  0.00    -0.502 A  
HETATM    7  C   UNL     1     -11.403  13.629  67.047  1.00  0.00    -0.324 A  
HETATM    8  C   UNL     1     -10.719  15.738  66.084  1.00  0.00    -0.293 A  
HETATM    9  C   UNL     1     -10.677  14.817  67.139  1.00  0.00    -0.299 A  
ENDROOT
BRANCH   7  10
HETATM   10  S   UNL     1     -11.489  12.522  68.443  1.00  0.00    -0.336 S  
HETATM   11  O   UNL     1     -11.899  13.293  69.600  1.00  0.00    -0.300 OA 
HETATM   12  O   UNL     1     -12.258  11.373  68.014  1.00  0.00    -0.607 OA 
BRANCH  10  13
HETATM   13  N   UNL     1      -9.914  11.975  68.668  1.00  0.00    -0.348 N  
HETATM   14  H   UNL     1      -9.117  12.610  68.652  1.00  0.00     0.000 HD 
BRANCH  13  15
HETATM   15  C   UNL     1      -9.757  10.594  68.877  1.00  0.00    -0.202 A  
HETATM   16  C   UNL     1     -10.097   9.981  70.071  1.00  0.00    -0.289 A  
HETATM   17  C   UNL     1      -9.942   8.601  70.158  1.00  0.00    -0.193 A  
HETATM   18  C   UNL     1      -9.428   7.906  69.067  1.00  0.00    -0.151 A  
HETATM   19  C   UNL     1      -9.099   8.623  67.927  1.00  0.00    -0.140 A  
HETATM   20  N   UNL     1      -9.262   9.959  67.803  1.00  0.00    -0.131 NA 
ENDBRANCH  13  15
ENDBRANCH  10  13
ENDBRANCH   7  10
TORSDOF 3
ENDMDL
MODEL       35
REMARK 921   NORMALIZED FREE ENERGY PREDICTED BY IDOCK:   -5.44 KCAL/MOL
REMARK 922        TOTAL FREE ENERGY PREDICTED BY IDOCK:   -6.61 KCAL/MOL
REMARK 923 INTER-LIGAND FREE ENERGY PREDICTED BY IDOCK:   -6.33 KCAL/MOL
REMARK 924 INTRA-LIGAND FREE ENERGY PREDICTED BY IDOCK:   -0.28 KCAL/MOL
REMARK 927      BINDING AFFINITY PREDICTED BY RF-SCORE:    0.00 PKD
ROOT
HETATM    1  N   UNL     1     -13.028  12.736  64.840  1.00  0.00    -0.853 NA 
HETATM    2  H2  UNL     1     -13.938  12.667  65.296  1.00  0.00     0.000 HD 
HETATM    3  C   UNL     1     -12.304  13.763  65.454  1.00  0.00    -0.475 A  
HETATM    4  H1  UNL     1     -13.173  12.743  63.831  1.00  0.00     0.000 HD 
HETATM    5  C   UNL     1     -12.105  13.753  66.839  1.00  0.00    -0.454 A  
HETATM    6  C   UNL     1     -11.306  14.721  67.455  1.00  0.00    -0.355 A  
HETATM    7  C   UNL     1     -10.651  15.679  66.673  1.00  0.00    -0.307 A  
HETATM    8  C   UNL     1     -11.593  14.687  64.680  1.00  0.00    -0.406 A  
HETATM    9  C   UNL     1     -10.790  15.663  65.284  1.00  0.00    -0.420 A  
ENDROOT
BRANCH   7  10
HETATM   10  S   UNL     1      -9.764  17.007  67.468  1.00  0.00    -0.256 S  
HETATM   11  O   UNL     1     -10.626  17.574  68.485  1.00  0.00    -0.357 OA 
HETATM   12  O   UNL     1      -8.460  16.483  67.817  1.00  0.00    -0.172 OA 
BRANCH  10  13
HETATM   13  N   UNL     1      -9.503  18.147  66.260  1.00  0.00    -0.263 N  
HETATM   14  H   UNL     1     -10.114  18.219  65.446  1.00  0.00     0.000 HD 
BRANCH  13  15
HETATM   15  C   UNL     1      -8.397  18.997  66.431  1.00  0.00    -0.307 A  
HETATM   16  C   UNL     1      -8.393  20.034  67.349  1.00  0.00    -0.382 A  
HETATM   17  C   UNL     1      -7.229  20.788  67.468  1.00  0.00    -0.377 A  
HETATM   18  C   UNL     1      -6.143  20.493  66.651  1.00  0.00    -0.233 A  
HETATM   19  C   UNL     1      -6.263  19.446  65.750  1.00  0.00    -0.201 A  
HETATM   20  N   UNL     1      -7.370  18.680  65.628  1.00  0.00    -0.514 NA 
ENDBRANCH  13  15
ENDBRANCH  10  13
ENDBRANCH   7  10
TORSDOF 3
ENDMDL
MODEL       36
REMARK 921   NORMALIZED FREE ENERGY PREDICTED BY IDOCK:   -5.44 KCAL/MOL
REMARK 922        TOTAL FREE ENERGY PREDICTED BY IDOCK:   -6.61 KCAL/MOL
REMARK 923 INTER-LIGAND FREE ENERGY PREDICTED BY IDOCK:   -6.32 KCAL/MOL
REMARK 924 INTRA-LIGAND FREE ENERGY PREDICTED BY IDOCK:   -0.29 KCAL/MOL
REMARK 927      BINDING AFFINITY PREDICTED BY RF-SCORE:    0.00 PKD
ROOT
HETATM    1  N   UNL     1     -11.934  11.345  68.380  1.00  0.00    -0.590 NA 
HETATM    2  H2  UNL     1     -11.123  10.759  68.577  1.00  0.00     0.000 HD 
HETATM    3  C   UNL     1     -11.486  12.539  67.807  1.00  0.00    -0.321 A  
HETATM    4  H1  UNL     1     -12.526  11.364  69.210  1.00  0.00     0.000 HD 
HETATM    5  C   UNL     1     -10.674  12.513  66.668  1.00  0.00    -0.261 A  
HETATM    6  C   UNL     1     -10.296  13.697  66.029  1.00  0.00    -0.305 A  
HETATM    7  C   UNL     1     -10.779  14.923  66.500  1.00  0.00    -0.309 A  
HETATM    8  C   UNL     1     -12.013  13.766  68.227  1.00  0.00    -0.392 A  
HETATM    9  C   UNL     1     -11.641  14.961  67.598  1.00  0.00    -0.357 A  
ENDROOT
BRANCH   7  10
HETATM   10  S   UNL     1     -10.171  16.441  65.788  1.00  0.00    -0.322 S  
HETATM   11  O   UNL     1      -8.735  16.318  65.634  1.00  0.00    -0.329 OA 
HETATM   12  O   UNL     1     -11.012  16.729  64.645  1.00  0.00    -0.839 OA 
BRANCH  10  13
HETATM   13  N   UNL     1     -10.509  17.629  66.929  1.00  0.00    -0.318 N  
HETATM   14  H   UNL     1     -11.439  17.737  67.334  1.00  0.00     0.000 HD 
BRANCH  13  15
HETATM   15  C   UNL     1      -9.441  18.466  67.295  1.00  0.00    -0.278 A  
HETATM   16  C   UNL     1      -9.124  19.616  66.592  1.00  0.00    -0.429 A  
HETATM   17  C   UNL     1      -8.073  20.396  67.065  1.00  0.00    -0.351 A  
HETATM   18  C   UNL     1      -7.373  19.979  68.193  1.00  0.00    -0.315 A  
HETATM   19  C   UNL     1      -7.760  18.797  68.807  1.00  0.00    -0.318 A  
HETATM   20  N   UNL     1      -8.792  18.032  68.386  1.00  0.00    -0.288 NA 
ENDBRANCH  13  15
ENDBRANCH  10  13
ENDBRANCH   7  10
TORSDOF 3
ENDMDL
MODEL       37
REMARK 921   NORMALIZED FREE ENERGY PREDICTED BY IDOCK:   -5.43 KCAL/MOL
REMARK 922        TOTAL FREE ENERGY PREDICTED BY IDOCK:   -6.60 KCAL/MOL
REMARK 923 INTER-LIGAND FREE ENERGY PREDICTED BY IDOCK:   -6.39 KCAL/MOL
REMARK 924 INTRA-LIGAND FREE ENERGY PREDICTED BY IDOCK:   -0.21 KCAL/MOL
REMARK 927      BINDING AFFINITY PREDICTED BY RF-SCORE:    0.00 PKD
ROOT
HETATM    1  N   UNL     1     -11.583  10.225  67.980  1.00  0.00    -0.698 NA 
HETATM    2  H2  UNL     1     -12.588  10.153  68.138  1.00  0.00     0.000 HD 
HETATM    3  C   UNL     1     -11.305  11.506  67.491  1.00  0.00    -0.299 A  
HETATM    4  H1  UNL     1     -11.279   9.401  67.462  1.00  0.00     0.000 HD 
HETATM    5  C   UNL     1     -11.723  12.636  68.201  1.00  0.00    -0.396 A  
HETATM    6  C   UNL     1     -11.372  13.921  67.775  1.00  0.00    -0.335 A  
HETATM    7  C   UNL     1     -10.547  14.078  66.656  1.00  0.00    -0.274 A  
HETATM    8  C   UNL     1     -10.430  11.676  66.412  1.00  0.00    -0.283 A  
HETATM    9  C   UNL     1     -10.072  12.957  65.973  1.00  0.00    -0.290 A  
ENDROOT
BRANCH   7  10
HETATM   10  S   UNL     1     -10.233  15.714  66.018  1.00  0.00    -0.361 S  
HETATM   11  O   UNL     1      -8.811  15.971  66.127  1.00  0.00    -0.320 OA 
HETATM   12  O   UNL     1     -10.898  15.792  64.734  1.00  0.00    -0.465 OA 
BRANCH  10  13
HETATM   13  N   UNL     1     -11.067  16.754  67.042  1.00  0.00     0.061 N  
HETATM   14  H   UNL     1     -11.910  16.462  67.535  1.00  0.00     0.000 HD 
BRANCH  13  15
HETATM   15  C   UNL     1     -10.540  18.050  67.182  1.00  0.00    -0.325 A  
HETATM   16  C   UNL     1     -10.125  18.554  68.402  1.00  0.00    -0.423 A  
HETATM   17  C   UNL     1      -9.577  19.834  68.421  1.00  0.00    -0.454 A  
HETATM   18  C   UNL     1      -9.499  20.556  67.234  1.00  0.00    -0.559 A  
HETATM   19  C   UNL     1      -9.966  19.962  66.071  1.00  0.00    -0.458 A  
HETATM   20  N   UNL     1     -10.479  18.713  66.017  1.00  0.00    -0.517 NA 
ENDBRANCH  13  15
ENDBRANCH  10  13
ENDBRANCH   7  10
TORSDOF 3
ENDMDL
MODEL       38
REMARK 921   NORMALIZED FREE ENERGY PREDICTED BY IDOCK:   -5.41 KCAL/MOL
REMARK 922        TOTAL FREE ENERGY PREDICTED BY IDOCK:   -6.57 KCAL/MOL
REMARK 923 INTER-LIGAND FREE ENERGY PREDICTED BY IDOCK:   -6.31 KCAL/MOL
REMARK 924 INTRA-LIGAND FREE ENERGY PREDICTED BY IDOCK:   -0.26 KCAL/MOL
REMARK 927      BINDING AFFINITY PREDICTED BY RF-SCORE:    0.00 PKD
ROOT
HETATM    1  N   UNL     1      -8.445  20.929  67.040  1.00  0.00    -0.563 NA 
HETATM    2  H2  UNL     1      -9.070  21.694  67.295  1.00  0.00     0.000 HD 
HETATM    3  C   UNL     1      -8.954  19.744  67.581  1.00  0.00    -0.329 A  
HETATM    4  H1  UNL     1      -7.488  21.216  67.244  1.00  0.00     0.000 HD 
HETATM    5  C   UNL     1     -10.268  19.351  67.302  1.00  0.00    -0.525 A  
HETATM    6  C   UNL     1     -10.761  18.125  67.757  1.00  0.00    -0.355 A  
HETATM    7  C   UNL     1      -9.916  17.253  68.453  1.00  0.00    -0.322 A  
HETATM    8  C   UNL     1      -8.104  18.836  68.222  1.00  0.00    -0.353 A  
HETATM    9  C   UNL     1      -8.585  17.605  68.685  1.00  0.00    -0.264 A  
ENDROOT
BRANCH   7  10
HETATM   10  S   UNL     1     -10.586  15.765  69.171  1.00  0.00    -0.263 S  
HETATM   11  O   UNL     1      -9.593  14.718  69.038  1.00  0.00    -0.213 OA 
HETATM   12  O   UNL     1     -11.101  16.130  70.475  1.00  0.00    -0.349 OA 
BRANCH  10  13
HETATM   13  N   UNL     1     -11.926  15.385  68.228  1.00  0.00    -0.501 N  
HETATM   14  H   UNL     1     -12.849  15.772  68.424  1.00  0.00     0.000 HD 
BRANCH  13  15
HETATM   15  C   UNL     1     -11.705  14.504  67.155  1.00  0.00    -0.399 A  
HETATM   16  C   UNL     1     -12.001  13.154  67.230  1.00  0.00    -0.389 A  
HETATM   17  C   UNL     1     -11.784  12.380  66.094  1.00  0.00    -0.460 A  
HETATM   18  C   UNL     1     -11.255  12.979  64.956  1.00  0.00    -0.324 A  
HETATM   19  C   UNL     1     -10.973  14.336  64.997  1.00  0.00    -0.387 A  
HETATM   20  N   UNL     1     -11.197  15.119  66.076  1.00  0.00    -0.316 NA 
ENDBRANCH  13  15
ENDBRANCH  10  13
ENDBRANCH   7  10
TORSDOF 3
ENDMDL
MODEL       39
REMARK 921   NORMALIZED FREE ENERGY PREDICTED BY IDOCK:   -5.36 KCAL/MOL
REMARK 922        TOTAL FREE ENERGY PREDICTED BY IDOCK:   -6.52 KCAL/MOL
REMARK 923 INTER-LIGAND FREE ENERGY PREDICTED BY IDOCK:   -6.25 KCAL/MOL
REMARK 924 INTRA-LIGAND FREE ENERGY PREDICTED BY IDOCK:   -0.27 KCAL/MOL
REMARK 927      BINDING AFFINITY PREDICTED BY RF-SCORE:    0.00 PKD
ROOT
HETATM    1  N   UNL     1     -10.140  17.602  68.318  1.00  0.00    -0.340 NA 
HETATM    2  H2  UNL     1      -9.655  17.168  69.104  1.00  0.00     0.000 HD 
HETATM    3  C   UNL     1     -10.529  16.594  67.430  1.00  0.00    -0.314 A  
HETATM    4  H1  UNL     1      -9.578  18.387  67.989  1.00  0.00     0.000 HD 
HETATM    5  C   UNL     1     -11.299  15.517  67.883  1.00  0.00    -0.309 A  
HETATM    6  C   UNL     1     -11.775  14.551  66.991  1.00  0.00    -0.412 A  
HETATM    7  C   UNL     1     -11.526  14.691  65.621  1.00  0.00    -0.340 A  
HETATM    8  C   UNL     1     -10.343  16.754  66.052  1.00  0.00    -0.346 A  
HETATM    9  C   UNL     1     -10.812  15.793  65.148  1.00  0.00    -0.444 A  
ENDROOT
BRANCH   7  10
HETATM   10  S   UNL     1     -11.992  13.381  64.504  1.00  0.00    -0.428 S  
HETATM   11  O   UNL     1     -12.692  12.369  65.269  1.00  0.00    -0.617 OA 
HETATM   12  O   UNL     1     -12.626  14.013  63.366  1.00  0.00    -0.845 OA 
BRANCH  10  13
HETATM   13  N   UNL     1     -10.540  12.747  63.939  1.00  0.00    -0.430 N  
HETATM   14  H   UNL     1     -10.088  13.106  63.098  1.00  0.00     0.000 HD 
BRANCH  13  15
HETATM   15  C   UNL     1      -9.984  11.695  64.687  1.00  0.00    -0.253 A  
HETATM   16  C   UNL     1     -10.010  10.381  64.253  1.00  0.00    -0.368 A  
HETATM   17  C   UNL     1      -9.391   9.423  65.051  1.00  0.00    -0.258 A  
HETATM   18  C   UNL     1      -8.809   9.815  66.252  1.00  0.00    -0.165 A  
HETATM   19  C   UNL     1      -8.861  11.156  66.602  1.00  0.00    -0.166 A  
HETATM   20  N   UNL     1      -9.431  12.113  65.836  1.00  0.00    -0.216 NA 
ENDBRANCH  13  15
ENDBRANCH  10  13
ENDBRANCH   7  10
TORSDOF 3
ENDMDL
MODEL       40
REMARK 921   NORMALIZED FREE ENERGY PREDICTED BY IDOCK:   -5.35 KCAL/MOL
REMARK 922        TOTAL FREE ENERGY PREDICTED BY IDOCK:   -6.51 KCAL/MOL
REMARK 923 INTER-LIGAND FREE ENERGY PREDICTED BY IDOCK:   -6.60 KCAL/MOL
REMARK 924 INTRA-LIGAND FREE ENERGY PREDICTED BY IDOCK:    0.09 KCAL/MOL
REMARK 927      BINDING AFFINITY PREDICTED BY RF-SCORE:    0.00 PKD
ROOT
HETATM    1  N   UNL     1     -10.387  10.481  65.389  1.00  0.00    -0.258 NA 
HETATM    2  H2  UNL     1      -9.414  10.384  65.099  1.00  0.00     0.000 HD 
HETATM    3  C   UNL     1     -10.498  11.622  66.189  1.00  0.00    -0.247 A  
HETATM    4  H1  UNL     1     -10.710   9.578  65.736  1.00  0.00     0.000 HD 
HETATM    5  C   UNL     1     -10.055  12.861  65.714  1.00  0.00    -0.294 A  
HETATM    6  C   UNL     1     -10.243  14.026  66.463  1.00  0.00    -0.279 A  
HETATM    7  C   UNL     1     -10.933  13.964  67.679  1.00  0.00    -0.264 A  
HETATM    8  C   UNL     1     -11.240  11.585  67.376  1.00  0.00    -0.367 A  
HETATM    9  C   UNL     1     -11.435  12.745  68.137  1.00  0.00    -0.357 A  
ENDROOT
BRANCH   7  10
HETATM   10  S   UNL     1     -11.033  15.416  68.710  1.00  0.00    -0.282 S  
HETATM   11  O   UNL     1     -10.055  15.280  69.770  1.00  0.00    -0.255 OA 
HETATM   12  O   UNL     1     -11.000  16.558  67.820  1.00  0.00    -0.327 OA 
BRANCH  10  13
HETATM   13  N   UNL     1     -12.579  15.382  69.371  1.00  0.00    -0.596 N  
HETATM   14  H   UNL     1     -13.414  15.426  68.787  1.00  0.00     0.000 HD 
BRANCH  13  15
HETATM   15  C   UNL     1     -12.658  15.289  70.771  1.00  0.00    -0.417 A  
HETATM   16  C   UNL     1     -12.034  16.195  71.611  1.00  0.00    -0.528 A  
HETATM   17  C   UNL     1     -12.213  16.036  72.982  1.00  0.00    -0.637 A  
HETATM   18  C   UNL     1     -12.976  14.969  73.447  1.00  0.00    -0.622 A  
HETATM   19  C   UNL     1     -13.538  14.107  72.517  1.00  0.00    -0.541 A  
HETATM   20  N   UNL     1     -13.403  14.250  71.180  1.00  0.00    -0.330 NA 
ENDBRANCH  13  15
ENDBRANCH  10  13
ENDBRANCH   7  10
TORSDOF 3
ENDMDL
MODEL       41
REMARK 921   NORMALIZED FREE ENERGY PREDICTED BY IDOCK:   -5.35 KCAL/MOL
REMARK 922        TOTAL FREE ENERGY PREDICTED BY IDOCK:   -6.50 KCAL/MOL
REMARK 923 INTER-LIGAND FREE ENERGY PREDICTED BY IDOCK:   -6.29 KCAL/MOL
REMARK 924 INTRA-LIGAND FREE ENERGY PREDICTED BY IDOCK:   -0.21 KCAL/MOL
REMARK 927      BINDING AFFINITY PREDICTED BY RF-SCORE:    0.00 PKD
ROOT
HETATM    1  N   UNL     1      -9.821  20.686  66.491  1.00  0.00    -0.603 NA 
HETATM    2  H2  UNL     1     -10.464  20.950  65.743  1.00  0.00     0.000 HD 
HETATM    3  C   UNL     1     -10.084  19.360  66.850  1.00  0.00    -0.388 A  
HETATM    4  H1  UNL     1      -9.831  21.421  67.197  1.00  0.00     0.000 HD 
HETATM    5  C   UNL     1     -10.070  18.352  65.880  1.00  0.00    -0.175 A  
HETATM    6  C   UNL     1     -10.238  17.011  66.238  1.00  0.00    -0.336 A  
HETATM    7  C   UNL     1     -10.367  16.665  67.588  1.00  0.00    -0.305 A  
HETATM    8  C   UNL     1     -10.150  18.993  68.199  1.00  0.00    -0.467 A  
HETATM    9  C   UNL     1     -10.320  17.654  68.572  1.00  0.00    -0.370 A  
ENDROOT
BRANCH   7  10
HETATM   10  S   UNL     1     -10.742  14.979  68.032  1.00  0.00    -0.269 S  
HETATM   11  O   UNL     1      -9.723  14.127  67.452  1.00  0.00    -0.225 OA 
HETATM   12  O   UNL     1     -10.983  14.970  69.459  1.00  0.00    -0.248 OA 
BRANCH  10  13
HETATM   13  N   UNL     1     -12.222  14.650  67.304  1.00  0.00    -0.531 N  
HETATM   14  H   UNL     1     -13.104  14.953  67.718  1.00  0.00     0.000 HD 
BRANCH  13  15
HETATM   15  C   UNL     1     -12.179  13.935  66.095  1.00  0.00    -0.464 A  
HETATM   16  C   UNL     1     -12.158  14.564  64.861  1.00  0.00    -0.421 A  
HETATM   17  C   UNL     1     -12.071  13.761  63.728  1.00  0.00    -0.385 A  
HETATM   18  C   UNL     1     -12.042  12.378  63.876  1.00  0.00    -0.587 A  
HETATM   19  C   UNL     1     -12.091  11.853  65.158  1.00  0.00     0.049 A  
HETATM   20  N   UNL     1     -12.150  12.606  66.279  1.00  0.00    -0.568 NA 
ENDBRANCH  13  15
ENDBRANCH  10  13
ENDBRANCH   7  10
TORSDOF 3
ENDMDL
MODEL       42
REMARK 921   NORMALIZED FREE ENERGY PREDICTED BY IDOCK:   -5.34 KCAL/MOL
REMARK 922        TOTAL FREE ENERGY PREDICTED BY IDOCK:   -6.49 KCAL/MOL
REMARK 923 INTER-LIGAND FREE ENERGY PREDICTED BY IDOCK:   -6.08 KCAL/MOL
REMARK 924 INTRA-LIGAND FREE ENERGY PREDICTED BY IDOCK:   -0.41 KCAL/MOL
REMARK 927      BINDING AFFINITY PREDICTED BY RF-SCORE:    0.00 PKD
ROOT
HETATM    1  N   UNL     1      -8.953   9.009  64.343  1.00  0.00    -0.424 NA 
HETATM    2  H2  UNL     1      -8.074   9.232  63.875  1.00  0.00     0.000 HD 
HETATM    3  C   UNL     1      -9.602  10.207  64.657  1.00  0.00    -0.315 A  
HETATM    4  H1  UNL     1      -8.762   8.322  65.073  1.00  0.00     0.000 HD 
HETATM    5  C   UNL     1      -9.863  11.149  63.656  1.00  0.00    -0.387 A  
HETATM    6  C   UNL     1     -10.593  12.308  63.936  1.00  0.00    -0.462 A  
HETATM    7  C   UNL     1     -11.118  12.504  65.218  1.00  0.00    -0.297 A  
HETATM    8  C   UNL     1     -10.186  10.386  65.916  1.00  0.00    -0.302 A  
HETATM    9  C   UNL     1     -10.918  11.544  66.211  1.00  0.00    -0.328 A  
ENDROOT
BRANCH   7  10
HETATM   10  S   UNL     1     -11.909  14.052  65.618  1.00  0.00    -0.395 S  
HETATM   11  O   UNL     1     -11.066  15.124  65.129  1.00  0.00    -0.362 OA 
HETATM   12  O   UNL     1     -13.285  13.939  65.181  1.00  0.00    -0.768 OA 
BRANCH  10  13
HETATM   13  N   UNL     1     -11.954  14.102  67.299  1.00  0.00    -0.442 N  
HETATM   14  H   UNL     1     -12.658  13.594  67.833  1.00  0.00     0.000 HD 
BRANCH  13  15
HETATM   15  C   UNL     1     -10.969  14.884  67.927  1.00  0.00    -0.286 A  
HETATM   16  C   UNL     1      -9.663  14.451  68.078  1.00  0.00    -0.221 A  
HETATM   17  C   UNL     1      -8.758  15.322  68.677  1.00  0.00    -0.182 A  
HETATM   18  C   UNL     1      -9.202  16.562  69.122  1.00  0.00    -0.197 A  
HETATM   19  C   UNL     1     -10.539  16.886  68.940  1.00  0.00    -0.353 A  
HETATM   20  N   UNL     1     -11.436  16.072  68.340  1.00  0.00    -0.362 NA 
ENDBRANCH  13  15
ENDBRANCH  10  13
ENDBRANCH   7  10
TORSDOF 3
ENDMDL
MODEL       43
REMARK 921   NORMALIZED FREE ENERGY PREDICTED BY IDOCK:   -5.31 KCAL/MOL
REMARK 922        TOTAL FREE ENERGY PREDICTED BY IDOCK:   -6.45 KCAL/MOL
REMARK 923 INTER-LIGAND FREE ENERGY PREDICTED BY IDOCK:   -6.16 KCAL/MOL
REMARK 924 INTRA-LIGAND FREE ENERGY PREDICTED BY IDOCK:   -0.29 KCAL/MOL
REMARK 927      BINDING AFFINITY PREDICTED BY RF-SCORE:    0.00 PKD
ROOT
HETATM    1  N   UNL     1     -13.133  15.754  74.123  1.00  0.00    -0.789 NA 
HETATM    2  H2  UNL     1     -12.940  15.031  74.817  1.00  0.00     0.000 HD 
HETATM    3  C   UNL     1     -12.689  15.299  72.877  1.00  0.00    -0.421 A  
HETATM    4  H1  UNL     1     -12.806  16.647  74.490  1.00  0.00     0.000 HD 
HETATM    5  C   UNL     1     -13.138  14.073  72.374  1.00  0.00    -0.536 A  
HETATM    6  C   UNL     1     -12.777  13.649  71.092  1.00  0.00    -0.432 A  
HETATM    7  C   UNL     1     -12.003  14.484  70.278  1.00  0.00    -0.314 A  
HETATM    8  C   UNL     1     -11.969  16.149  72.030  1.00  0.00    -0.607 A  
HETATM    9  C   UNL     1     -11.599  15.736  70.743  1.00  0.00    -0.429 A  
ENDROOT
BRANCH   7  10
HETATM   10  S   UNL     1     -11.409  13.878  68.709  1.00  0.00    -0.298 S  
HETATM   11  O   UNL     1     -12.077  14.622  67.661  1.00  0.00    -0.333 OA 
HETATM   12  O   UNL     1      -9.963  13.860  68.793  1.00  0.00    -0.213 OA 
BRANCH  10  13
HETATM   13  N   UNL     1     -11.894  12.269  68.646  1.00  0.00    -0.319 N  
HETATM   14  H   UNL     1     -12.717  11.935  69.147  1.00  0.00     0.000 HD 
BRANCH  13  15
HETATM   15  C   UNL     1     -11.103  11.408  67.865  1.00  0.00    -0.261 A  
HETATM   16  C   UNL     1     -11.050  11.498  66.485  1.00  0.00    -0.341 A  
HETATM   17  C   UNL     1     -10.201  10.624  65.812  1.00  0.00    -0.317 A  
HETATM   18  C   UNL     1      -9.474   9.688  66.540  1.00  0.00    -0.233 A  
HETATM   19  C   UNL     1      -9.620   9.671  67.919  1.00  0.00    -0.139 A  
HETATM   20  N   UNL     1     -10.417  10.522  68.603  1.00  0.00    -0.180 NA 
ENDBRANCH  13  15
ENDBRANCH  10  13
ENDBRANCH   7  10
TORSDOF 3
ENDMDL
MODEL       44
REMARK 921   NORMALIZED FREE ENERGY PREDICTED BY IDOCK:   -5.29 KCAL/MOL
REMARK 922        TOTAL FREE ENERGY PREDICTED BY IDOCK:   -6.44 KCAL/MOL
REMARK 923 INTER-LIGAND FREE ENERGY PREDICTED BY IDOCK:   -6.21 KCAL/MOL
REMARK 924 INTRA-LIGAND FREE ENERGY PREDICTED BY IDOCK:   -0.23 KCAL/MOL
REMARK 927      BINDING AFFINITY PREDICTED BY RF-SCORE:    0.00 PKD
ROOT
HETATM    1  N   UNL     1     -12.534  15.019  63.706  1.00  0.00    -1.049 NA 
HETATM    2  H2  UNL     1     -13.517  14.761  63.626  1.00  0.00     0.000 HD 
HETATM    3  C   UNL     1     -11.837  13.935  64.249  1.00  0.00    -0.412 A  
HETATM    4  H1  UNL     1     -12.478  15.937  64.145  1.00  0.00     0.000 HD 
HETATM    5  C   UNL     1     -11.914  12.675  63.646  1.00  0.00    -0.615 A  
HETATM    6  C   UNL     1     -11.150  11.605  64.122  1.00  0.00    -0.435 A  
HETATM    7  C   UNL     1     -10.255  11.808  65.178  1.00  0.00    -0.268 A  
HETATM    8  C   UNL     1     -10.892  14.138  65.262  1.00  0.00    -0.356 A  
HETATM    9  C   UNL     1     -10.122  13.074  65.749  1.00  0.00    -0.294 A  
ENDROOT
BRANCH   7  10
HETATM   10  S   UNL     1      -9.402  10.412  65.889  1.00  0.00    -0.194 S  
HETATM   11  O   UNL     1      -8.848   9.627  64.804  1.00  0.00    -0.180 OA 
HETATM   12  O   UNL     1      -8.544  10.937  66.930  1.00  0.00    -0.130 OA 
BRANCH  10  13
HETATM   13  N   UNL     1     -10.594   9.519  66.671  1.00  0.00    -0.157 N  
HETATM   14  H   UNL     1     -11.069   8.740  66.214  1.00  0.00     0.000 HD 
BRANCH  13  15
HETATM   15  C   UNL     1     -10.901   9.903  67.987  1.00  0.00    -0.243 A  
HETATM   16  C   UNL     1     -10.333   9.290  69.091  1.00  0.00    -0.222 A  
HETATM   17  C   UNL     1     -10.674   9.778  70.349  1.00  0.00    -0.368 A  
HETATM   18  C   UNL     1     -11.582  10.827  70.447  1.00  0.00    -0.431 A  
HETATM   19  C   UNL     1     -12.107  11.354  69.276  1.00  0.00    -0.289 A  
HETATM   20  N   UNL     1     -11.777  10.918  68.040  1.00  0.00    -0.569 NA 
ENDBRANCH  13  15
ENDBRANCH  10  13
ENDBRANCH   7  10
TORSDOF 3
ENDMDL
MODEL       45
REMARK 921   NORMALIZED FREE ENERGY PREDICTED BY IDOCK:   -5.29 KCAL/MOL
REMARK 922        TOTAL FREE ENERGY PREDICTED BY IDOCK:   -6.44 KCAL/MOL
REMARK 923 INTER-LIGAND FREE ENERGY PREDICTED BY IDOCK:   -6.48 KCAL/MOL
REMARK 924 INTRA-LIGAND FREE ENERGY PREDICTED BY IDOCK:    0.04 KCAL/MOL
REMARK 927      BINDING AFFINITY PREDICTED BY RF-SCORE:    0.00 PKD
ROOT
HETATM    1  N   UNL     1     -13.498   9.058  73.124  1.00  0.00    -0.926 NA 
HETATM    2  H2  UNL     1     -14.500   9.088  72.931  1.00  0.00     0.000 HD 
HETATM    3  C   UNL     1     -12.824   9.636  72.043  1.00  0.00    -0.410 A  
HETATM    4  H1  UNL     1     -13.259   8.117  73.435  1.00  0.00     0.000 HD 
HETATM    5  C   UNL     1     -13.153  10.927  71.617  1.00  0.00    -0.538 A  
HETATM    6  C   UNL     1     -12.426  11.553  70.601  1.00  0.00    -0.405 A  
HETATM    7  C   UNL     1     -11.320  10.905  70.039  1.00  0.00    -0.307 A  
HETATM    8  C   UNL     1     -11.679   9.026  71.517  1.00  0.00    -0.415 A  
HETATM    9  C   UNL     1     -10.943   9.642  70.497  1.00  0.00    -0.374 A  
ENDROOT
BRANCH   7  10
HETATM   10  S   UNL     1     -10.493  11.631  68.635  1.00  0.00    -0.205 S  
HETATM   11  O   UNL     1     -10.857  13.033  68.579  1.00  0.00    -0.243 OA 
HETATM   12  O   UNL     1      -9.103  11.235  68.723  1.00  0.00    -0.174 OA 
BRANCH  10  13
HETATM   13  N   UNL     1     -11.123  10.838  67.293  1.00  0.00    -0.303 N  
HETATM   14  H   UNL     1     -11.440   9.869  67.340  1.00  0.00     0.000 HD 
BRANCH  13  15
HETATM   15  C   UNL     1     -11.190  11.581  66.102  1.00  0.00    -0.202 A  
HETATM   16  C   UNL     1     -12.101  12.608  65.919  1.00  0.00    -0.459 A  
HETATM   17  C   UNL     1     -12.053  13.308  64.717  1.00  0.00    -0.456 A  
HETATM   18  C   UNL     1     -11.126  12.933  63.750  1.00  0.00    -0.424 A  
HETATM   19  C   UNL     1     -10.275  11.874  64.029  1.00  0.00    -0.361 A  
HETATM   20  N   UNL     1     -10.281  11.192  65.196  1.00  0.00    -0.273 NA 
ENDBRANCH  13  15
ENDBRANCH  10  13
ENDBRANCH   7  10
TORSDOF 3
ENDMDL
MODEL       46
REMARK 921   NORMALIZED FREE ENERGY PREDICTED BY IDOCK:   -5.29 KCAL/MOL
REMARK 922        TOTAL FREE ENERGY PREDICTED BY IDOCK:   -6.43 KCAL/MOL
REMARK 923 INTER-LIGAND FREE ENERGY PREDICTED BY IDOCK:   -5.99 KCAL/MOL
REMARK 924 INTRA-LIGAND FREE ENERGY PREDICTED BY IDOCK:   -0.44 KCAL/MOL
REMARK 927      BINDING AFFINITY PREDICTED BY RF-SCORE:    0.00 PKD
ROOT
HETATM    1  N   UNL     1     -10.071  10.615  62.405  1.00  0.00    -0.744 NA 
HETATM    2  H2  UNL     1      -9.785  11.398  61.818  1.00  0.00     0.000 HD 
HETATM    3  C   UNL     1     -10.399  11.110  63.671  1.00  0.00    -0.389 A  
HETATM    4  H1  UNL     1      -9.379   9.872  62.308  1.00  0.00     0.000 HD 
HETATM    5  C   UNL     1     -11.348  12.130  63.804  1.00  0.00    -0.529 A  
HETATM    6  C   UNL     1     -11.755  12.570  65.067  1.00  0.00    -0.407 A  
HETATM    7  C   UNL     1     -11.250  11.948  66.214  1.00  0.00    -0.337 A  
HETATM    8  C   UNL     1      -9.951  10.456  64.825  1.00  0.00    -0.409 A  
HETATM    9  C   UNL     1     -10.350  10.888  66.096  1.00  0.00    -0.305 A  
ENDROOT
BRANCH   7  10
HETATM   10  S   UNL     1     -11.643  12.613  67.821  1.00  0.00    -0.358 S  
HETATM   11  O   UNL     1     -12.322  13.878  67.628  1.00  0.00    -0.265 OA 
HETATM   12  O   UNL     1     -12.276  11.545  68.568  1.00  0.00    -0.524 OA 
BRANCH  10  13
HETATM   13  N   UNL     1     -10.157  12.885  68.561  1.00  0.00    -0.329 N  
HETATM   14  H   UNL     1      -9.752  12.216  69.215  1.00  0.00     0.000 HD 
BRANCH  13  15
HETATM   15  C   UNL     1      -9.505  14.084  68.229  1.00  0.00    -0.216 A  
HETATM   16  C   UNL     1      -8.892  14.282  67.004  1.00  0.00    -0.243 A  
HETATM   17  C   UNL     1      -8.312  15.524  66.762  1.00  0.00    -0.301 A  
HETATM   18  C   UNL     1      -8.343  16.492  67.760  1.00  0.00    -0.176 A  
HETATM   19  C   UNL     1      -8.964  16.181  68.961  1.00  0.00    -0.247 A  
HETATM   20  N   UNL     1      -9.558  14.993  69.215  1.00  0.00    -0.206 NA 
ENDBRANCH  13  15
ENDBRANCH  10  13
ENDBRANCH   7  10
TORSDOF 3
ENDMDL
MODEL       47
REMARK 921   NORMALIZED FREE ENERGY PREDICTED BY IDOCK:   -5.29 KCAL/MOL
REMARK 922        TOTAL FREE ENERGY PREDICTED BY IDOCK:   -6.43 KCAL/MOL
REMARK 923 INTER-LIGAND FREE ENERGY PREDICTED BY IDOCK:   -6.14 KCAL/MOL
REMARK 924 INTRA-LIGAND FREE ENERGY PREDICTED BY IDOCK:   -0.29 KCAL/MOL
REMARK 927      BINDING AFFINITY PREDICTED BY RF-SCORE:    0.00 PKD
ROOT
HETATM    1  N   UNL     1     -11.797  16.371  71.586  1.00  0.00    -0.674 NA 
HETATM    2  H2  UNL     1     -12.369  17.205  71.454  1.00  0.00     0.000 HD 
HETATM    3  C   UNL     1     -11.845  15.614  70.411  1.00  0.00    -0.370 A  
HETATM    4  H1  UNL     1     -12.048  15.948  72.479  1.00  0.00     0.000 HD 
HETATM    5  C   UNL     1     -11.502  16.194  69.185  1.00  0.00    -0.311 A  
HETATM    6  C   UNL     1     -11.454  15.428  68.017  1.00  0.00    -0.333 A  
HETATM    7  C   UNL     1     -11.699  14.051  68.081  1.00  0.00    -0.352 A  
HETATM    8  C   UNL     1     -12.025  14.227  70.470  1.00  0.00    -0.402 A  
HETATM    9  C   UNL     1     -11.982  13.447  69.307  1.00  0.00    -0.367 A  
ENDROOT
BRANCH   7  10
HETATM   10  S   UNL     1     -11.797  13.104  66.573  1.00  0.00    -0.398 S  
HETATM   11  O   UNL     1     -12.056  11.723  66.929  1.00  0.00    -0.566 OA 
HETATM   12  O   UNL     1     -12.698  13.819  65.693  1.00  0.00    -0.509 OA 
BRANCH  10  13
HETATM   13  N   UNL     1     -10.271  13.223  65.878  1.00  0.00    -0.289 N  
HETATM   14  H   UNL     1      -9.714  14.074  65.946  1.00  0.00     0.000 HD 
BRANCH  13  15
HETATM   15  C   UNL     1      -9.804  12.085  65.197  1.00  0.00    -0.200 A  
HETATM   16  C   UNL     1     -10.283  11.717  63.952  1.00  0.00    -0.409 A  
HETATM   17  C   UNL     1      -9.721  10.596  63.347  1.00  0.00    -0.387 A  
HETATM   18  C   UNL     1      -8.736   9.884  64.023  1.00  0.00    -0.229 A  
HETATM   19  C   UNL     1      -8.345  10.328  65.277  1.00  0.00    -0.163 A  
HETATM   20  N   UNL     1      -8.854  11.426  65.879  1.00  0.00    -0.182 NA 
ENDBRANCH  13  15
ENDBRANCH  10  13
ENDBRANCH   7  10
TORSDOF 3
ENDMDL
MODEL       48
REMARK 921   NORMALIZED FREE ENERGY PREDICTED BY IDOCK:   -5.28 KCAL/MOL
REMARK 922        TOTAL FREE ENERGY PREDICTED BY IDOCK:   -6.42 KCAL/MOL
REMARK 923 INTER-LIGAND FREE ENERGY PREDICTED BY IDOCK:   -6.20 KCAL/MOL
REMARK 924 INTRA-LIGAND FREE ENERGY PREDICTED BY IDOCK:   -0.22 KCAL/MOL
REMARK 927      BINDING AFFINITY PREDICTED BY RF-SCORE:    0.00 PKD
ROOT
HETATM    1  N   UNL     1     -12.680   8.416  72.206  1.00  0.00    -0.463 NA 
HETATM    2  H2  UNL     1     -11.826   7.990  72.566  1.00  0.00     0.000 HD 
HETATM    3  C   UNL     1     -12.340   9.618  71.576  1.00  0.00    -0.390 A  
HETATM    4  H1  UNL     1     -13.381   8.405  72.946  1.00  0.00     0.000 HD 
HETATM    5  C   UNL     1     -11.378   9.633  70.560  1.00  0.00    -0.360 A  
HETATM    6  C   UNL     1     -11.096  10.808  69.858  1.00  0.00    -0.339 A  
HETATM    7  C   UNL     1     -11.822  11.972  70.134  1.00  0.00    -0.301 A  
HETATM    8  C   UNL     1     -13.101  10.772  71.796  1.00  0.00    -0.573 A  
HETATM    9  C   UNL     1     -12.828  11.957  71.101  1.00  0.00    -0.346 A  
ENDROOT
BRANCH   7  10
HETATM   10  S   UNL     1     -11.354  13.507  69.354  1.00  0.00    -0.199 S  
HETATM   11  O   UNL     1     -11.458  14.560  70.344  1.00  0.00    -0.261 OA 
HETATM   12  O   UNL     1     -10.102  13.259  68.671  1.00  0.00    -0.221 OA 
BRANCH  10  13
HETATM   13  N   UNL     1     -12.503  13.758  68.151  1.00  0.00    -0.277 N  
HETATM   14  H   UNL     1     -13.475  13.973  68.372  1.00  0.00     0.000 HD 
BRANCH  13  15
HETATM   15  C   UNL     1     -12.050  13.656  66.825  1.00  0.00    -0.399 A  
HETATM   16  C   UNL     1     -11.558  14.742  66.123  1.00  0.00    -0.292 A  
HETATM   17  C   UNL     1     -11.095  14.521  64.829  1.00  0.00    -0.400 A  
HETATM   18  C   UNL     1     -11.175  13.242  64.289  1.00  0.00    -0.417 A  
HETATM   19  C   UNL     1     -11.708  12.229  65.073  1.00  0.00    -0.352 A  
HETATM   20  N   UNL     1     -12.141  12.407  66.341  1.00  0.00    -0.614 NA 
ENDBRANCH  13  15
ENDBRANCH  10  13
ENDBRANCH   7  10
TORSDOF 3
ENDMDL
MODEL       49
REMARK 921   NORMALIZED FREE ENERGY PREDICTED BY IDOCK:   -5.27 KCAL/MOL
REMARK 922        TOTAL FREE ENERGY PREDICTED BY IDOCK:   -6.42 KCAL/MOL
REMARK 923 INTER-LIGAND FREE ENERGY PREDICTED BY IDOCK:   -6.21 KCAL/MOL
REMARK 924 INTRA-LIGAND FREE ENERGY PREDICTED BY IDOCK:   -0.21 KCAL/MOL
REMARK 927      BINDING AFFINITY PREDICTED BY RF-SCORE:    0.00 PKD
ROOT
HETATM    1  N   UNL     1     -10.639  11.308  62.839  1.00  0.00    -0.769 NA 
HETATM    2  H2  UNL     1     -10.532  12.193  62.344  1.00  0.00     0.000 HD 
HETATM    3  C   UNL     1     -10.841  11.583  64.195  1.00  0.00    -0.372 A  
HETATM    4  H1  UNL     1      -9.885  10.685  62.548  1.00  0.00     0.000 HD 
HETATM    5  C   UNL     1     -11.875  12.437  64.593  1.00  0.00    -0.445 A  
HETATM    6  C   UNL     1     -12.149  12.648  65.948  1.00  0.00    -0.459 A  
HETATM    7  C   UNL     1     -11.418  11.954  66.919  1.00  0.00    -0.322 A  
HETATM    8  C   UNL     1     -10.162  10.849  65.175  1.00  0.00    -0.360 A  
HETATM    9  C   UNL     1     -10.425  11.051  66.535  1.00  0.00    -0.309 A  
ENDROOT
BRANCH   7  10
HETATM   10  S   UNL     1     -11.657  12.342  68.643  1.00  0.00    -0.343 S  
HETATM   11  O   UNL     1     -12.616  11.401  69.185  1.00  0.00    -0.255 OA 
HETATM   12  O   UNL     1     -10.337  12.465  69.226  1.00  0.00     0.076 OA 
BRANCH  10  13
HETATM   13  N   UNL     1     -12.322  13.887  68.660  1.00  0.00    -0.454 N  
HETATM   14  H   UNL     1     -12.723  14.309  67.822  1.00  0.00     0.000 HD 
BRANCH  13  15
HETATM   15  C   UNL     1     -12.294  14.566  69.890  1.00  0.00    -0.298 A  
HETATM   16  C   UNL     1     -11.345  15.529  70.185  1.00  0.00    -0.339 A  
HETATM   17  C   UNL     1     -11.436  16.171  71.416  1.00  0.00    -0.429 A  
HETATM   18  C   UNL     1     -12.443  15.802  72.302  1.00  0.00    -0.533 A  
HETATM   19  C   UNL     1     -13.329  14.808  71.913  1.00  0.00    -0.359 A  
HETATM   20  N   UNL     1     -13.282  14.184  70.715  1.00  0.00    -0.236 NA 
ENDBRANCH  13  15
ENDBRANCH  10  13
ENDBRANCH   7  10
TORSDOF 3
ENDMDL
MODEL       50
REMARK 921   NORMALIZED FREE ENERGY PREDICTED BY IDOCK:   -5.27 KCAL/MOL
REMARK 922        TOTAL FREE ENERGY PREDICTED BY IDOCK:   -6.42 KCAL/MOL
REMARK 923 INTER-LIGAND FREE ENERGY PREDICTED BY IDOCK:   -6.12 KCAL/MOL
REMARK 924 INTRA-LIGAND FREE ENERGY PREDICTED BY IDOCK:   -0.30 KCAL/MOL
REMARK 927      BINDING AFFINITY PREDICTED BY RF-SCORE:    0.00 PKD
ROOT
HETATM    1  N   UNL     1      -7.387  21.328  67.198  1.00  0.00    -0.785 NA 
HETATM    2  H2  UNL     1      -7.807  21.771  68.015  1.00  0.00     0.000 HD 
HETATM    3  C   UNL     1      -8.112  20.168  66.904  1.00  0.00    -0.317 A  
HETATM    4  H1  UNL     1      -6.378  21.279  67.343  1.00  0.00     0.000 HD 
HETATM    5  C   UNL     1      -9.495  20.235  66.706  1.00  0.00    -0.518 A  
HETATM    6  C   UNL     1     -10.219  19.103  66.320  1.00  0.00    -0.527 A  
HETATM    7  C   UNL     1      -9.547  17.901  66.073  1.00  0.00    -0.083 A  
HETATM    8  C   UNL     1      -7.446  18.977  66.593  1.00  0.00    -0.240 A  
HETATM    9  C   UNL     1      -8.159  17.835  66.206  1.00  0.00    -0.269 A  
ENDROOT
BRANCH   7  10
HETATM   10  S   UNL     1     -10.484  16.421  65.738  1.00  0.00    -0.309 S  
HETATM   11  O   UNL     1     -11.279  16.121  66.912  1.00  0.00    -0.076 OA 
HETATM   12  O   UNL     1     -11.117  16.614  64.450  1.00  0.00    -0.985 OA 
BRANCH  10  13
HETATM   13  N   UNL     1      -9.335  15.212  65.519  1.00  0.00    -0.390 N  
HETATM   14  H   UNL     1      -8.392  15.420  65.191  1.00  0.00     0.000 HD 
BRANCH  13  15
HETATM   15  C   UNL     1      -9.745  13.900  65.812  1.00  0.00    -0.164 A  
HETATM   16  C   UNL     1      -9.369  13.247  66.974  1.00  0.00    -0.242 A  
HETATM   17  C   UNL     1      -9.867  11.965  67.185  1.00  0.00    -0.206 A  
HETATM   18  C   UNL     1     -10.686  11.387  66.220  1.00  0.00    -0.322 A  
HETATM   19  C   UNL     1     -10.981  12.123  65.082  1.00  0.00    -0.310 A  
HETATM   20  N   UNL     1     -10.534  13.379  64.860  1.00  0.00    -0.372 NA 
ENDBRANCH  13  15
ENDBRANCH  10  13
ENDBRANCH   7  10
TORSDOF 3
ENDMDL
MODEL       51
REMARK 921   NORMALIZED FREE ENERGY PREDICTED BY IDOCK:   -5.27 KCAL/MOL
REMARK 922        TOTAL FREE ENERGY PREDICTED BY IDOCK:   -6.41 KCAL/MOL
REMARK 923 INTER-LIGAND FREE ENERGY PREDICTED BY IDOCK:   -6.17 KCAL/MOL
REMARK 924 INTRA-LIGAND FREE ENERGY PREDICTED BY IDOCK:   -0.23 KCAL/MOL
REMARK 927      BINDING AFFINITY PREDICTED BY RF-SCORE:    0.00 PKD
ROOT
HETATM    1  N   UNL     1     -12.270   8.078  72.840  1.00  0.00    -0.640 NA 
HETATM    2  H2  UNL     1     -13.233   7.741  72.830  1.00  0.00     0.000 HD 
HETATM    3  C   UNL     1     -12.148   9.093  71.886  1.00  0.00    -0.378 A  
HETATM    4  H1  UNL     1     -11.647   7.271  72.813  1.00  0.00     0.000 HD 
HETATM    5  C   UNL     1     -13.003  10.200  71.923  1.00  0.00    -0.549 A  
HETATM    6  C   UNL     1     -12.834  11.267  71.035  1.00  0.00    -0.395 A  
HETATM    7  C   UNL     1     -11.763  11.255  70.134  1.00  0.00    -0.343 A  
HETATM    8  C   UNL     1     -11.046   9.125  71.024  1.00  0.00    -0.374 A  
HETATM    9  C   UNL     1     -10.865  10.186  70.128  1.00  0.00    -0.368 A  
ENDROOT
BRANCH   7  10
HETATM   10  S   UNL     1     -11.641  12.533  68.897  1.00  0.00    -0.335 S  
HETATM   11  O   UNL     1     -12.097  11.981  67.637  1.00  0.00    -0.547 OA 
HETATM   12  O   UNL     1     -12.270  13.712  69.455  1.00  0.00    -0.324 OA 
BRANCH  10  13
HETATM   13  N   UNL     1     -10.000  12.886  68.788  1.00  0.00    -0.415 N  
HETATM   14  H   UNL     1      -9.289  12.256  69.159  1.00  0.00     0.000 HD 
BRANCH  13  15
HETATM   15  C   UNL     1      -9.661  14.096  68.159  1.00  0.00    -0.218 A  
HETATM   16  C   UNL     1      -9.761  14.273  66.789  1.00  0.00    -0.282 A  
HETATM   17  C   UNL     1      -9.441  15.526  66.274  1.00  0.00    -0.356 A  
HETATM   18  C   UNL     1      -9.010  16.526  67.140  1.00  0.00    -0.221 A  
HETATM   19  C   UNL     1      -8.925  16.233  68.493  1.00  0.00    -0.219 A  
HETATM   20  N   UNL     1      -9.252  15.035  69.026  1.00  0.00    -0.208 NA 
ENDBRANCH  13  15
ENDBRANCH  10  13
ENDBRANCH   7  10
TORSDOF 3
ENDMDL
MODEL       52
REMARK 921   NORMALIZED FREE ENERGY PREDICTED BY IDOCK:   -5.26 KCAL/MOL
REMARK 922        TOTAL FREE ENERGY PREDICTED BY IDOCK:   -6.40 KCAL/MOL
REMARK 923 INTER-LIGAND FREE ENERGY PREDICTED BY IDOCK:   -6.15 KCAL/MOL
REMARK 924 INTRA-LIGAND FREE ENERGY PREDICTED BY IDOCK:   -0.25 KCAL/MOL
REMARK 927      BINDING AFFINITY PREDICTED BY RF-SCORE:    0.00 PKD
ROOT
HETATM    1  N   UNL     1     -13.824   9.030  73.078  1.00  0.00    -1.108 NA 
HETATM    2  H2  UNL     1     -13.250   8.440  73.681  1.00  0.00     0.000 HD 
HETATM    3  C   UNL     1     -13.000   9.586  72.093  1.00  0.00    -0.412 A  
HETATM    4  H1  UNL     1     -14.395   9.634  73.669  1.00  0.00     0.000 HD 
HETATM    5  C   UNL     1     -12.217   8.758  71.282  1.00  0.00    -0.332 A  
HETATM    6  C   UNL     1     -11.461   9.290  70.233  1.00  0.00    -0.198 A  
HETATM    7  C   UNL     1     -11.531  10.659  69.953  1.00  0.00    -0.317 A  
HETATM    8  C   UNL     1     -13.109  10.941  71.762  1.00  0.00    -0.564 A  
HETATM    9  C   UNL     1     -12.357  11.488  70.715  1.00  0.00    -0.472 A  
ENDROOT
BRANCH   7  10
HETATM   10  S   UNL     1     -10.448  11.362  68.723  1.00  0.00    -0.194 S  
HETATM   11  O   UNL     1     -10.533  12.806  68.825  1.00  0.00    -0.228 OA 
HETATM   12  O   UNL     1      -9.174  10.689  68.859  1.00  0.00    -0.172 OA 
BRANCH  10  13
HETATM   13  N   UNL     1     -11.082  10.870  67.245  1.00  0.00    -0.303 N  
HETATM   14  H   UNL     1     -11.354   9.903  67.072  1.00  0.00     0.000 HD 
BRANCH  13  15
HETATM   15  C   UNL     1     -11.217  11.865  66.261  1.00  0.00    -0.337 A  
HETATM   16  C   UNL     1     -12.371  12.616  66.118  1.00  0.00    -0.101 A  
HETATM   17  C   UNL     1     -12.383  13.605  65.139  1.00  0.00    -0.486 A  
HETATM   18  C   UNL     1     -11.262  13.775  64.333  1.00  0.00    -0.364 A  
HETATM   19  C   UNL     1     -10.167  12.951  64.547  1.00  0.00    -0.310 A  
HETATM   20  N   UNL     1     -10.116  12.000  65.506  1.00  0.00    -0.247 NA 
ENDBRANCH  13  15
ENDBRANCH  10  13
ENDBRANCH   7  10
TORSDOF 3
ENDMDL
MODEL       53
REMARK 921   NORMALIZED FREE ENERGY PREDICTED BY IDOCK:   -5.25 KCAL/MOL
REMARK 922        TOTAL FREE ENERGY PREDICTED BY IDOCK:   -6.39 KCAL/MOL
REMARK 923 INTER-LIGAND FREE ENERGY PREDICTED BY IDOCK:   -6.21 KCAL/MOL
REMARK 924 INTRA-LIGAND FREE ENERGY PREDICTED BY IDOCK:   -0.18 KCAL/MOL
REMARK 927      BINDING AFFINITY PREDICTED BY RF-SCORE:    0.00 PKD
ROOT
HETATM    1  N   UNL     1     -12.299   8.364  72.853  1.00  0.00    -0.598 NA 
HETATM    2  H2  UNL     1     -11.498   8.192  73.461  1.00  0.00     0.000 HD 
HETATM    3  C   UNL     1     -11.875   9.153  71.779  1.00  0.00    -0.383 A  
HETATM    4  H1  UNL     1     -13.082   8.665  73.432  1.00  0.00     0.000 HD 
HETATM    5  C   UNL     1     -10.799   8.741  70.984  1.00  0.00    -0.321 A  
HETATM    6  C   UNL     1     -10.423   9.470  69.852  1.00  0.00    -0.269 A  
HETATM    7  C   UNL     1     -11.165  10.595  69.475  1.00  0.00    -0.272 A  
HETATM    8  C   UNL     1     -12.644  10.243  71.354  1.00  0.00    -0.539 A  
HETATM    9  C   UNL     1     -12.278  10.983  70.223  1.00  0.00    -0.447 A  
ENDROOT
BRANCH   7  10
HETATM   10  S   UNL     1     -10.592  11.616  68.129  1.00  0.00    -0.212 S  
HETATM   11  O   UNL     1      -9.365  12.262  68.549  1.00  0.00    -0.183 OA 
HETATM   12  O   UNL     1     -10.619  10.788  66.941  1.00  0.00    -0.241 OA 
BRANCH  10  13
HETATM   13  N   UNL     1     -11.789  12.778  67.917  1.00  0.00    -0.356 N  
HETATM   14  H   UNL     1     -12.567  12.875  68.570  1.00  0.00     0.000 HD 
BRANCH  13  15
HETATM   15  C   UNL     1     -11.661  13.609  66.791  1.00  0.00    -0.392 A  
HETATM   16  C   UNL     1     -12.332  13.360  65.605  1.00  0.00    -0.521 A  
HETATM   17  C   UNL     1     -12.167  14.271  64.566  1.00  0.00    -0.476 A  
HETATM   18  C   UNL     1     -11.323  15.362  64.746  1.00  0.00    -0.381 A  
HETATM   19  C   UNL     1     -10.683  15.502  65.968  1.00  0.00    -0.326 A  
HETATM   20  N   UNL     1     -10.842  14.649  67.004  1.00  0.00    -0.298 NA 
ENDBRANCH  13  15
ENDBRANCH  10  13
ENDBRANCH   7  10
TORSDOF 3
ENDMDL
MODEL       54
REMARK 921   NORMALIZED FREE ENERGY PREDICTED BY IDOCK:   -5.22 KCAL/MOL
REMARK 922        TOTAL FREE ENERGY PREDICTED BY IDOCK:   -6.35 KCAL/MOL
REMARK 923 INTER-LIGAND FREE ENERGY PREDICTED BY IDOCK:   -6.06 KCAL/MOL
REMARK 924 INTRA-LIGAND FREE ENERGY PREDICTED BY IDOCK:   -0.29 KCAL/MOL
REMARK 927      BINDING AFFINITY PREDICTED BY RF-SCORE:    0.00 PKD
ROOT
HETATM    1  N   UNL     1      -9.446   9.518  62.923  1.00  0.00    -0.530 NA 
HETATM    2  H2  UNL     1      -8.768   9.856  62.240  1.00  0.00     0.000 HD 
HETATM    3  C   UNL     1      -9.774  10.575  63.778  1.00  0.00    -0.326 A  
HETATM    4  H1  UNL     1      -9.105   8.636  63.304  1.00  0.00     0.000 HD 
HETATM    5  C   UNL     1     -10.242  11.785  63.255  1.00  0.00    -0.452 A  
HETATM    6  C   UNL     1     -10.662  12.817  64.099  1.00  0.00    -0.441 A  
HETATM    7  C   UNL     1     -10.669  12.619  65.485  1.00  0.00    -0.274 A  
HETATM    8  C   UNL     1      -9.846  10.369  65.161  1.00  0.00    -0.378 A  
HETATM    9  C   UNL     1     -10.264  11.395  66.019  1.00  0.00    -0.289 A  
ENDROOT
BRANCH   7  10
HETATM   10  S   UNL     1     -11.050  13.984  66.567  1.00  0.00    -0.321 S  
HETATM   11  O   UNL     1     -10.287  15.134  66.122  1.00  0.00    -0.275 OA 
HETATM   12  O   UNL     1     -12.494  14.050  66.658  1.00  0.00    -0.420 OA 
BRANCH  10  13
HETATM   13  N   UNL     1     -10.505  13.509  68.085  1.00  0.00    -0.238 N  
HETATM   14  H   UNL     1      -9.714  12.876  68.199  1.00  0.00     0.000 HD 
BRANCH  13  15
HETATM   15  C   UNL     1     -11.200  14.030  69.190  1.00  0.00    -0.269 A  
HETATM   16  C   UNL     1     -12.130  13.289  69.899  1.00  0.00    -0.377 A  
HETATM   17  C   UNL     1     -12.729  13.888  71.003  1.00  0.00    -0.428 A  
HETATM   18  C   UNL     1     -12.397  15.200  71.327  1.00  0.00    -0.401 A  
HETATM   19  C   UNL     1     -11.469  15.858  70.534  1.00  0.00    -0.392 A  
HETATM   20  N   UNL     1     -10.852  15.295  69.471  1.00  0.00    -0.256 NA 
ENDBRANCH  13  15
ENDBRANCH  10  13
ENDBRANCH   7  10
TORSDOF 3
ENDMDL
MODEL       55
REMARK 921   NORMALIZED FREE ENERGY PREDICTED BY IDOCK:   -5.20 KCAL/MOL
REMARK 922        TOTAL FREE ENERGY PREDICTED BY IDOCK:   -6.33 KCAL/MOL
REMARK 923 INTER-LIGAND FREE ENERGY PREDICTED BY IDOCK:   -5.94 KCAL/MOL
REMARK 924 INTRA-LIGAND FREE ENERGY PREDICTED BY IDOCK:   -0.39 KCAL/MOL
REMARK 927      BINDING AFFINITY PREDICTED BY RF-SCORE:    0.00 PKD
ROOT
HETATM    1  N   UNL     1     -12.947  15.879  71.168  1.00  0.00    -0.581 NA 
HETATM    2  H2  UNL     1     -13.326  16.765  70.833  1.00  0.00     0.000 HD 
HETATM    3  C   UNL     1     -12.112  15.355  70.176  1.00  0.00    -0.369 A  
HETATM    4  H1  UNL     1     -13.715  15.321  71.539  1.00  0.00     0.000 HD 
HETATM    5  C   UNL     1     -11.058  16.121  69.666  1.00  0.00    -0.344 A  
HETATM    6  C   UNL     1     -10.159  15.579  68.743  1.00  0.00    -0.211 A  
HETATM    7  C   UNL     1     -10.278  14.237  68.365  1.00  0.00    -0.245 A  
HETATM    8  C   UNL     1     -12.181  13.999  69.837  1.00  0.00    -0.399 A  
HETATM    9  C   UNL     1     -11.287  13.443  68.912  1.00  0.00    -0.331 A  
ENDROOT
BRANCH   7  10
HETATM   10  S   UNL     1      -9.235  13.591  67.071  1.00  0.00    -0.250 S  
HETATM   11  O   UNL     1      -7.894  14.100  67.282  1.00  0.00    -0.183 OA 
HETATM   12  O   UNL     1      -9.480  12.165  67.014  1.00  0.00    -0.192 OA 
BRANCH  10  13
HETATM   13  N   UNL     1      -9.855  14.231  65.644  1.00  0.00    -0.481 N  
HETATM   14  H   UNL     1      -9.572  15.147  65.298  1.00  0.00     0.000 HD 
BRANCH  13  15
HETATM   15  C   UNL     1     -10.785  13.434  64.955  1.00  0.00    -0.369 A  
HETATM   16  C   UNL     1     -12.134  13.431  65.265  1.00  0.00    -0.446 A  
HETATM   17  C   UNL     1     -12.974  12.637  64.491  1.00  0.00    -0.236 A  
HETATM   18  C   UNL     1     -12.428  11.865  63.471  1.00  0.00    -0.609 A  
HETATM   19  C   UNL     1     -11.059  11.926  63.260  1.00  0.00    -0.308 A  
HETATM   20  N   UNL     1     -10.221  12.706  63.978  1.00  0.00    -0.386 NA 
ENDBRANCH  13  15
ENDBRANCH  10  13
ENDBRANCH   7  10
TORSDOF 3
ENDMDL
MODEL       56
REMARK 921   NORMALIZED FREE ENERGY PREDICTED BY IDOCK:   -5.20 KCAL/MOL
REMARK 922        TOTAL FREE ENERGY PREDICTED BY IDOCK:   -6.32 KCAL/MOL
REMARK 923 INTER-LIGAND FREE ENERGY PREDICTED BY IDOCK:   -6.34 KCAL/MOL
REMARK 924 INTRA-LIGAND FREE ENERGY PREDICTED BY IDOCK:    0.01 KCAL/MOL
REMARK 927      BINDING AFFINITY PREDICTED BY RF-SCORE:    0.00 PKD
ROOT
HETATM    1  N   UNL     1     -13.371  16.288  74.113  1.00  0.00    -0.849 NA 
HETATM    2  H2  UNL     1     -13.511  15.594  74.847  1.00  0.00     0.000 HD 
HETATM    3  C   UNL     1     -12.894  15.634  72.972  1.00  0.00    -0.490 A  
HETATM    4  H1  UNL     1     -12.855  17.074  74.507  1.00  0.00     0.000 HD 
HETATM    5  C   UNL     1     -13.603  14.557  72.431  1.00  0.00    -0.566 A  
HETATM    6  C   UNL     1     -13.190  13.953  71.239  1.00  0.00    -0.352 A  
HETATM    7  C   UNL     1     -12.086  14.466  70.549  1.00  0.00    -0.334 A  
HETATM    8  C   UNL     1     -11.832  16.175  72.239  1.00  0.00    -0.631 A  
HETATM    9  C   UNL     1     -11.406  15.580  71.045  1.00  0.00    -0.421 A  
ENDROOT
BRANCH   7  10
HETATM   10  S   UNL     1     -11.462  13.601  69.119  1.00  0.00    -0.313 S  
HETATM   11  O   UNL     1     -11.127  12.251  69.525  1.00  0.00    -0.160 OA 
HETATM   12  O   UNL     1     -12.409  13.834  68.049  1.00  0.00    -0.241 OA 
BRANCH  10  13
HETATM   13  N   UNL     1     -10.057  14.419  68.688  1.00  0.00    -0.239 N  
HETATM   14  H   UNL     1      -9.179  14.280  69.188  1.00  0.00     0.000 HD 
BRANCH  13  15
HETATM   15  C   UNL     1     -10.158  15.303  67.601  1.00  0.00    -0.235 A  
HETATM   16  C   UNL     1     -10.283  14.863  66.294  1.00  0.00    -0.306 A  
HETATM   17  C   UNL     1     -10.419  15.824  65.297  1.00  0.00    -0.427 A  
HETATM   18  C   UNL     1     -10.393  17.171  65.645  1.00  0.00    -0.198 A  
HETATM   19  C   UNL     1     -10.241  17.502  66.983  1.00  0.00    -0.327 A  
HETATM   20  N   UNL     1     -10.131  16.591  67.976  1.00  0.00    -0.248 NA 
ENDBRANCH  13  15
ENDBRANCH  10  13
ENDBRANCH   7  10
TORSDOF 3
ENDMDL
MODEL       57
REMARK 921   NORMALIZED FREE ENERGY PREDICTED BY IDOCK:   -5.17 KCAL/MOL
REMARK 922        TOTAL FREE ENERGY PREDICTED BY IDOCK:   -6.30 KCAL/MOL
REMARK 923 INTER-LIGAND FREE ENERGY PREDICTED BY IDOCK:   -6.08 KCAL/MOL
REMARK 924 INTRA-LIGAND FREE ENERGY PREDICTED BY IDOCK:   -0.21 KCAL/MOL
REMARK 927      BINDING AFFINITY PREDICTED BY RF-SCORE:    0.00 PKD
ROOT
HETATM    1  N   UNL     1     -11.473   5.504  73.230  1.00  0.00    -0.504 NA 
HETATM    2  H2  UNL     1     -10.747   4.792  73.141  1.00  0.00     0.000 HD 
HETATM    3  C   UNL     1     -11.235   6.497  72.275  1.00  0.00    -0.273 A  
HETATM    4  H1  UNL     1     -11.561   5.751  74.215  1.00  0.00     0.000 HD 
HETATM    5  C   UNL     1     -11.112   6.159  70.923  1.00  0.00    -0.371 A  
HETATM    6  C   UNL     1     -10.968   7.148  69.946  1.00  0.00    -0.278 A  
HETATM    7  C   UNL     1     -11.001   8.498  70.316  1.00  0.00    -0.235 A  
HETATM    8  C   UNL     1     -11.329   7.850  72.622  1.00  0.00    -0.468 A  
HETATM    9  C   UNL     1     -11.185   8.852  71.654  1.00  0.00    -0.415 A  
ENDROOT
BRANCH   7  10
HETATM   10  S   UNL     1     -10.657   9.753  69.098  1.00  0.00    -0.224 S  
HETATM   11  O   UNL     1      -9.560  10.563  69.589  1.00  0.00    -0.160 OA 
HETATM   12  O   UNL     1     -10.558   9.076  67.822  1.00  0.00    -0.246 OA 
BRANCH  10  13
HETATM   13  N   UNL     1     -12.052  10.691  69.024  1.00  0.00    -0.518 N  
HETATM   14  H   UNL     1     -12.957  10.331  69.324  1.00  0.00     0.000 HD 
BRANCH  13  15
HETATM   15  C   UNL     1     -11.901  11.996  68.527  1.00  0.00    -0.311 A  
HETATM   16  C   UNL     1     -11.648  13.080  69.351  1.00  0.00    -0.360 A  
HETATM   17  C   UNL     1     -11.473  14.323  68.750  1.00  0.00    -0.327 A  
HETATM   18  C   UNL     1     -11.590  14.431  67.368  1.00  0.00    -0.398 A  
HETATM   19  C   UNL     1     -11.869  13.284  66.640  1.00  0.00    -0.395 A  
HETATM   20  N   UNL     1     -12.019  12.059  67.192  1.00  0.00    -0.598 NA 
ENDBRANCH  13  15
ENDBRANCH  10  13
ENDBRANCH   7  10
TORSDOF 3
ENDMDL
MODEL       58
REMARK 921   NORMALIZED FREE ENERGY PREDICTED BY IDOCK:   -5.17 KCAL/MOL
REMARK 922        TOTAL FREE ENERGY PREDICTED BY IDOCK:   -6.29 KCAL/MOL
REMARK 923 INTER-LIGAND FREE ENERGY PREDICTED BY IDOCK:   -5.97 KCAL/MOL
REMARK 924 INTRA-LIGAND FREE ENERGY PREDICTED BY IDOCK:   -0.32 KCAL/MOL
REMARK 927      BINDING AFFINITY PREDICTED BY RF-SCORE:    0.00 PKD
ROOT
HETATM    1  N   UNL     1     -11.814  16.340  63.881  1.00  0.00    -1.412 NA 
HETATM    2  H2  UNL     1     -12.710  16.765  64.121  1.00  0.00     0.000 HD 
HETATM    3  C   UNL     1     -11.627  15.217  64.693  1.00  0.00    -0.333 A  
HETATM    4  H1  UNL     1     -11.108  17.076  63.852  1.00  0.00     0.000 HD 
HETATM    5  C   UNL     1     -12.596  14.209  64.733  1.00  0.00    -0.326 A  
HETATM    6  C   UNL     1     -12.382  13.038  65.466  1.00  0.00    -0.527 A  
HETATM    7  C   UNL     1     -11.162  12.845  66.124  1.00  0.00    -0.292 A  
HETATM    8  C   UNL     1     -10.389  14.983  65.303  1.00  0.00    -0.424 A  
HETATM    9  C   UNL     1     -10.162  13.815  66.042  1.00  0.00    -0.315 A  
ENDROOT
BRANCH   7  10
HETATM   10  S   UNL     1     -10.950  11.430  67.188  1.00  0.00    -0.298 S  
HETATM   11  O   UNL     1      -9.689  11.580  67.886  1.00  0.00    -0.173 OA 
HETATM   12  O   UNL     1     -12.186  11.278  67.927  1.00  0.00    -0.570 OA 
BRANCH  10  13
HETATM   13  N   UNL     1     -10.858  10.108  66.151  1.00  0.00     0.067 N  
HETATM   14  H   UNL     1     -11.512   9.329  66.215  1.00  0.00     0.000 HD 
BRANCH  13  15
HETATM   15  C   UNL     1      -9.831  10.137  65.192  1.00  0.00    -0.325 A  
HETATM   16  C   UNL     1     -10.034  10.592  63.901  1.00  0.00    -0.390 A  
HETATM   17  C   UNL     1      -8.937  10.618  63.044  1.00  0.00    -0.254 A  
HETATM   18  C   UNL     1      -7.706  10.162  63.504  1.00  0.00    -0.144 A  
HETATM   19  C   UNL     1      -7.620   9.705  64.810  1.00  0.00    -0.122 A  
HETATM   20  N   UNL     1      -8.660   9.692  65.673  1.00  0.00    -0.130 NA 
ENDBRANCH  13  15
ENDBRANCH  10  13
ENDBRANCH   7  10
TORSDOF 3
ENDMDL
MODEL       59
REMARK 921   NORMALIZED FREE ENERGY PREDICTED BY IDOCK:   -5.13 KCAL/MOL
REMARK 922        TOTAL FREE ENERGY PREDICTED BY IDOCK:   -6.25 KCAL/MOL
REMARK 923 INTER-LIGAND FREE ENERGY PREDICTED BY IDOCK:   -6.08 KCAL/MOL
REMARK 924 INTRA-LIGAND FREE ENERGY PREDICTED BY IDOCK:   -0.18 KCAL/MOL
REMARK 927      BINDING AFFINITY PREDICTED BY RF-SCORE:    0.00 PKD
ROOT
HETATM    1  N   UNL     1     -12.063  12.668  67.818  1.00  0.00    -0.366 NA 
HETATM    2  H2  UNL     1     -11.460  11.920  67.476  1.00  0.00     0.000 HD 
HETATM    3  C   UNL     1     -11.461  13.893  67.514  1.00  0.00    -0.340 A  
HETATM    4  H1  UNL     1     -12.330  12.452  68.778  1.00  0.00     0.000 HD 
HETATM    5  C   UNL     1     -11.094  14.190  66.197  1.00  0.00    -0.312 A  
HETATM    6  C   UNL     1     -10.577  15.445  65.862  1.00  0.00    -0.349 A  
HETATM    7  C   UNL     1     -10.476  16.437  66.843  1.00  0.00    -0.289 A  
HETATM    8  C   UNL     1     -11.413  14.915  68.470  1.00  0.00    -0.336 A  
HETATM    9  C   UNL     1     -10.896  16.176  68.149  1.00  0.00    -0.329 A  
ENDROOT
BRANCH   7  10
HETATM   10  S   UNL     1      -9.670  17.980  66.455  1.00  0.00    -0.338 S  
HETATM   11  O   UNL     1      -8.402  17.675  65.824  1.00  0.00    -0.537 OA 
HETATM   12  O   UNL     1     -10.652  18.801  65.777  1.00  0.00    -0.551 OA 
BRANCH  10  13
HETATM   13  N   UNL     1      -9.390  18.717  67.941  1.00  0.00    -0.292 N  
HETATM   14  H   UNL     1     -10.057  18.649  68.710  1.00  0.00     0.000 HD 
BRANCH  13  15
HETATM   15  C   UNL     1      -8.187  19.433  68.067  1.00  0.00    -0.318 A  
HETATM   16  C   UNL     1      -7.237  19.124  69.025  1.00  0.00    -0.370 A  
HETATM   17  C   UNL     1      -6.061  19.869  69.034  1.00  0.00    -0.320 A  
HETATM   18  C   UNL     1      -5.904  20.900  68.113  1.00  0.00    -0.384 A  
HETATM   19  C   UNL     1      -6.930  21.138  67.211  1.00  0.00    -0.307 A  
HETATM   20  N   UNL     1      -8.072  20.416  67.161  1.00  0.00    -0.338 NA 
ENDBRANCH  13  15
ENDBRANCH  10  13
ENDBRANCH   7  10
TORSDOF 3
ENDMDL
MODEL       60
REMARK 921   NORMALIZED FREE ENERGY PREDICTED BY IDOCK:   -5.13 KCAL/MOL
REMARK 922        TOTAL FREE ENERGY PREDICTED BY IDOCK:   -6.24 KCAL/MOL
REMARK 923 INTER-LIGAND FREE ENERGY PREDICTED BY IDOCK:   -5.98 KCAL/MOL
REMARK 924 INTRA-LIGAND FREE ENERGY PREDICTED BY IDOCK:   -0.26 KCAL/MOL
REMARK 927      BINDING AFFINITY PREDICTED BY RF-SCORE:    0.00 PKD
ROOT
HETATM    1  N   UNL     1      -9.293   9.343  63.108  1.00  0.00    -0.490 NA 
HETATM    2  H2  UNL     1      -9.478   8.516  63.676  1.00  0.00     0.000 HD 
HETATM    3  C   UNL     1      -9.613  10.477  63.861  1.00  0.00    -0.309 A  
HETATM    4  H1  UNL     1      -9.714   9.202  62.190  1.00  0.00     0.000 HD 
HETATM    5  C   UNL     1      -9.036  10.670  65.121  1.00  0.00    -0.217 A  
HETATM    6  C   UNL     1      -9.272  11.842  65.845  1.00  0.00    -0.147 A  
HETATM    7  C   UNL     1     -10.050  12.860  65.282  1.00  0.00    -0.238 A  
HETATM    8  C   UNL     1     -10.336  11.528  63.286  1.00  0.00    -0.435 A  
HETATM    9  C   UNL     1     -10.582  12.707  64.001  1.00  0.00    -0.457 A  
ENDROOT
BRANCH   7  10
HETATM   10  S   UNL     1     -10.484  14.283  66.266  1.00  0.00    -0.299 S  
HETATM   11  O   UNL     1      -9.525  14.388  67.347  1.00  0.00    -0.198 OA 
HETATM   12  O   UNL     1     -10.678  15.382  65.343  1.00  0.00    -0.347 OA 
BRANCH  10  13
HETATM   13  N   UNL     1     -12.002  13.932  66.902  1.00  0.00    -0.420 N  
HETATM   14  H   UNL     1     -12.860  14.168  66.404  1.00  0.00     0.000 HD 
BRANCH  13  15
HETATM   15  C   UNL     1     -12.023  13.298  68.155  1.00  0.00    -0.304 A  
HETATM   16  C   UNL     1     -12.139  14.002  69.342  1.00  0.00    -0.386 A  
HETATM   17  C   UNL     1     -12.193  13.271  70.525  1.00  0.00    -0.416 A  
HETATM   18  C   UNL     1     -12.099  11.884  70.472  1.00  0.00    -0.422 A  
HETATM   19  C   UNL     1     -11.962  11.282  69.230  1.00  0.00    -0.342 A  
HETATM   20  N   UNL     1     -11.932  11.962  68.062  1.00  0.00    -0.553 NA 
ENDBRANCH  13  15
ENDBRANCH  10  13
ENDBRANCH   7  10
TORSDOF 3
ENDMDL
MODEL       61
REMARK 921   NORMALIZED FREE ENERGY PREDICTED BY IDOCK:   -5.11 KCAL/MOL
REMARK 922        TOTAL FREE ENERGY PREDICTED BY IDOCK:   -6.22 KCAL/MOL
REMARK 923 INTER-LIGAND FREE ENERGY PREDICTED BY IDOCK:   -5.85 KCAL/MOL
REMARK 924 INTRA-LIGAND FREE ENERGY PREDICTED BY IDOCK:   -0.38 KCAL/MOL
REMARK 927      BINDING AFFINITY PREDICTED BY RF-SCORE:    0.00 PKD
ROOT
HETATM    1  N   UNL     1     -10.560  17.341  68.432  1.00  0.00    -0.373 NA 
HETATM    2  H2  UNL     1     -10.062  17.707  67.620  1.00  0.00     0.000 HD 
HETATM    3  C   UNL     1     -10.593  15.946  68.337  1.00  0.00    -0.266 A  
HETATM    4  H1  UNL     1     -11.426  17.868  68.541  1.00  0.00     0.000 HD 
HETATM    5  C   UNL     1      -9.405  15.223  68.186  1.00  0.00    -0.198 A  
HETATM    6  C   UNL     1      -9.411  13.825  68.184  1.00  0.00    -0.212 A  
HETATM    7  C   UNL     1     -10.613  13.137  68.391  1.00  0.00    -0.251 A  
HETATM    8  C   UNL     1     -11.775  15.246  68.605  1.00  0.00    -0.367 A  
HETATM    9  C   UNL     1     -11.797  13.845  68.604  1.00  0.00    -0.407 A  
ENDROOT
BRANCH   7  10
HETATM   10  S   UNL     1     -10.650  11.362  68.228  1.00  0.00    -0.207 S  
HETATM   11  O   UNL     1     -12.005  10.972  67.895  1.00  0.00    -0.620 OA 
HETATM   12  O   UNL     1      -9.547  11.002  67.361  1.00  0.00    -0.163 OA 
BRANCH  10  13
HETATM   13  N   UNL     1     -10.259  10.771  69.753  1.00  0.00    -0.448 N  
HETATM   14  H   UNL     1      -9.295  10.732  70.084  1.00  0.00     0.000 HD 
BRANCH  13  15
HETATM   15  C   UNL     1     -11.332  10.333  70.548  1.00  0.00    -0.341 A  
HETATM   16  C   UNL     1     -12.199  11.213  71.174  1.00  0.00    -0.387 A  
HETATM   17  C   UNL     1     -13.255  10.673  71.902  1.00  0.00    -0.528 A  
HETATM   18  C   UNL     1     -13.376   9.290  71.997  1.00  0.00    -0.518 A  
HETATM   19  C   UNL     1     -12.438   8.501  71.349  1.00  0.00    -0.297 A  
HETATM   20  N   UNL     1     -11.417   8.996  70.613  1.00  0.00    -0.263 NA 
ENDBRANCH  13  15
ENDBRANCH  10  13
ENDBRANCH   7  10
TORSDOF 3
ENDMDL
MODEL       62
REMARK 921   NORMALIZED FREE ENERGY PREDICTED BY IDOCK:   -5.07 KCAL/MOL
REMARK 922        TOTAL FREE ENERGY PREDICTED BY IDOCK:   -6.17 KCAL/MOL
REMARK 923 INTER-LIGAND FREE ENERGY PREDICTED BY IDOCK:   -6.07 KCAL/MOL
REMARK 924 INTRA-LIGAND FREE ENERGY PREDICTED BY IDOCK:   -0.10 KCAL/MOL
REMARK 927      BINDING AFFINITY PREDICTED BY RF-SCORE:    0.00 PKD
ROOT
HETATM    1  N   UNL     1      -7.974  19.225  68.546  1.00  0.00    -0.349 NA 
HETATM    2  H2  UNL     1      -7.187  19.624  68.034  1.00  0.00     0.000 HD 
HETATM    3  C   UNL     1      -8.685  18.389  67.679  1.00  0.00    -0.260 A  
HETATM    4  H1  UNL     1      -8.453  19.979  69.038  1.00  0.00     0.000 HD 
HETATM    5  C   UNL     1      -8.028  17.354  67.004  1.00  0.00    -0.241 A  
HETATM    6  C   UNL     1      -8.740  16.452  66.207  1.00  0.00    -0.369 A  
HETATM    7  C   UNL     1     -10.134  16.550  66.127  1.00  0.00    -0.348 A  
HETATM    8  C   UNL     1     -10.083  18.434  67.640  1.00  0.00    -0.378 A  
HETATM    9  C   UNL     1     -10.809  17.538  66.845  1.00  0.00    -0.020 A  
ENDROOT
BRANCH   7  10
HETATM   10  S   UNL     1     -11.025  15.505  64.989  1.00  0.00    -0.415 S  
HETATM   11  O   UNL     1     -11.585  16.349  63.952  1.00  0.00    -1.100 OA 
HETATM   12  O   UNL     1     -10.138  14.412  64.649  1.00  0.00    -0.293 OA 
BRANCH  10  13
HETATM   13  N   UNL     1     -12.273  14.831  65.893  1.00  0.00    -0.129 N  
HETATM   14  H   UNL     1     -13.237  15.151  65.801  1.00  0.00     0.000 HD 
BRANCH  13  15
HETATM   15  C   UNL     1     -11.916  13.805  66.784  1.00  0.00    -0.426 A  
HETATM   16  C   UNL     1     -11.793  12.485  66.384  1.00  0.00    -0.445 A  
HETATM   17  C   UNL     1     -11.391  11.554  67.338  1.00  0.00    -0.367 A  
HETATM   18  C   UNL     1     -11.163  11.976  68.643  1.00  0.00    -0.309 A  
HETATM   19  C   UNL     1     -11.338  13.320  68.940  1.00  0.00    -0.288 A  
HETATM   20  N   UNL     1     -11.702  14.251  68.031  1.00  0.00    -0.334 NA 
ENDBRANCH  13  15
ENDBRANCH  10  13
ENDBRANCH   7  10
TORSDOF 3
ENDMDL
MODEL       63
REMARK 921   NORMALIZED FREE ENERGY PREDICTED BY IDOCK:   -5.05 KCAL/MOL
REMARK 922        TOTAL FREE ENERGY PREDICTED BY IDOCK:   -6.15 KCAL/MOL
REMARK 923 INTER-LIGAND FREE ENERGY PREDICTED BY IDOCK:   -5.99 KCAL/MOL
REMARK 924 INTRA-LIGAND FREE ENERGY PREDICTED BY IDOCK:   -0.17 KCAL/MOL
REMARK 927      BINDING AFFINITY PREDICTED BY RF-SCORE:    0.00 PKD
ROOT
HETATM    1  N   UNL     1     -12.028  16.302  71.710  1.00  0.00    -0.641 NA 
HETATM    2  H2  UNL     1     -11.853  15.556  72.384  1.00  0.00     0.000 HD 
HETATM    3  C   UNL     1     -11.734  15.818  70.432  1.00  0.00    -0.370 A  
HETATM    4  H1  UNL     1     -11.583  17.154  72.051  1.00  0.00     0.000 HD 
HETATM    5  C   UNL     1     -12.344  14.649  69.964  1.00  0.00    -0.365 A  
HETATM    6  C   UNL     1     -12.132  14.203  68.656  1.00  0.00    -0.320 A  
HETATM    7  C   UNL     1     -11.346  14.964  67.784  1.00  0.00    -0.329 A  
HETATM    8  C   UNL     1     -11.002  16.600  69.530  1.00  0.00    -0.228 A  
HETATM    9  C   UNL     1     -10.781  16.165  68.217  1.00  0.00    -0.307 A  
ENDROOT
BRANCH   7  10
HETATM   10  S   UNL     1     -10.944  14.319  66.170  1.00  0.00    -0.319 S  
HETATM   11  O   UNL     1     -11.336  15.305  65.184  1.00  0.00    -0.357 OA 
HETATM   12  O   UNL     1      -9.576  13.850  66.240  1.00  0.00    -0.283 OA 
BRANCH  10  13
HETATM   13  N   UNL     1     -11.901  12.946  65.995  1.00  0.00    -0.409 N  
HETATM   14  H   UNL     1     -12.911  13.007  65.868  1.00  0.00     0.000 HD 
BRANCH  13  15
HETATM   15  C   UNL     1     -11.233  11.710  66.032  1.00  0.00    -0.240 A  
HETATM   16  C   UNL     1     -10.574  11.190  64.931  1.00  0.00    -0.356 A  
HETATM   17  C   UNL     1      -9.908   9.978  65.089  1.00  0.00    -0.388 A  
HETATM   18  C   UNL     1      -9.956   9.332  66.320  1.00  0.00    -0.357 A  
HETATM   19  C   UNL     1     -10.665   9.933  67.350  1.00  0.00    -0.260 A  
HETATM   20  N   UNL     1     -11.300  11.120  67.235  1.00  0.00    -0.457 NA 
ENDBRANCH  13  15
ENDBRANCH  10  13
ENDBRANCH   7  10
TORSDOF 3
ENDMDL
MODEL       64
REMARK 921   NORMALIZED FREE ENERGY PREDICTED BY IDOCK:   -5.03 KCAL/MOL
REMARK 922        TOTAL FREE ENERGY PREDICTED BY IDOCK:   -6.13 KCAL/MOL
REMARK 923 INTER-LIGAND FREE ENERGY PREDICTED BY IDOCK:   -5.86 KCAL/MOL
REMARK 924 INTRA-LIGAND FREE ENERGY PREDICTED BY IDOCK:   -0.27 KCAL/MOL
REMARK 927      BINDING AFFINITY PREDICTED BY RF-SCORE:    0.00 PKD
ROOT
HETATM    1  N   UNL     1     -12.388  13.843  63.032  1.00  0.00    -1.023 NA 
HETATM    2  H2  UNL     1     -12.800  13.164  62.392  1.00  0.00     0.000 HD 
HETATM    3  C   UNL     1     -12.132  13.203  64.249  1.00  0.00    -0.414 A  
HETATM    4  H1  UNL     1     -12.953  14.692  63.008  1.00  0.00     0.000 HD 
HETATM    5  C   UNL     1     -11.357  12.039  64.282  1.00  0.00    -0.433 A  
HETATM    6  C   UNL     1     -11.014  11.440  65.498  1.00  0.00    -0.248 A  
HETATM    7  C   UNL     1     -11.403  12.041  66.700  1.00  0.00    -0.340 A  
HETATM    8  C   UNL     1     -12.459  13.826  65.459  1.00  0.00    -0.548 A  
HETATM    9  C   UNL     1     -12.123  13.236  66.684  1.00  0.00    -0.421 A  
ENDROOT
BRANCH   7  10
HETATM   10  S   UNL     1     -11.107  11.196  68.242  1.00  0.00    -0.277 S  
HETATM   11  O   UNL     1      -9.833  11.650  68.764  1.00  0.00    -0.193 OA 
HETATM   12  O   UNL     1     -12.315  11.333  69.029  1.00  0.00    -0.446 OA 
BRANCH  10  13
HETATM   13  N   UNL     1     -10.994   9.567  67.838  1.00  0.00    -0.503 N  
HETATM   14  H   UNL     1     -11.367   9.204  66.961  1.00  0.00     0.000 HD 
BRANCH  13  15
HETATM   15  C   UNL     1     -10.358   8.734  68.774  1.00  0.00    -0.213 A  
HETATM   16  C   UNL     1     -11.000   8.268  69.909  1.00  0.00    -0.166 A  
HETATM   17  C   UNL     1     -10.292   7.413  70.748  1.00  0.00    -0.208 A  
HETATM   18  C   UNL     1      -8.976   7.090  70.433  1.00  0.00    -0.155 A  
HETATM   19  C   UNL     1      -8.423   7.631  69.282  1.00  0.00    -0.138 A  
HETATM   20  N   UNL     1      -9.093   8.443  68.435  1.00  0.00    -0.136 NA 
ENDBRANCH  13  15
ENDBRANCH  10  13
ENDBRANCH   7  10
TORSDOF 3
ENDMDL
MODEL       65
REMARK 921   NORMALIZED FREE ENERGY PREDICTED BY IDOCK:   -5.02 KCAL/MOL
REMARK 922        TOTAL FREE ENERGY PREDICTED BY IDOCK:   -6.11 KCAL/MOL
REMARK 923 INTER-LIGAND FREE ENERGY PREDICTED BY IDOCK:   -5.83 KCAL/MOL
REMARK 924 INTRA-LIGAND FREE ENERGY PREDICTED BY IDOCK:   -0.28 KCAL/MOL
REMARK 927      BINDING AFFINITY PREDICTED BY RF-SCORE:    0.00 PKD
ROOT
HETATM    1  N   UNL     1     -12.505  13.603  63.061  1.00  0.00    -0.973 NA 
HETATM    2  H2  UNL     1     -12.459  14.597  63.286  1.00  0.00     0.000 HD 
HETATM    3  C   UNL     1     -11.853  12.890  64.072  1.00  0.00    -0.443 A  
HETATM    4  H1  UNL     1     -12.228  13.482  62.087  1.00  0.00     0.000 HD 
HETATM    5  C   UNL     1     -12.233  13.057  65.408  1.00  0.00    -0.520 A  
HETATM    6  C   UNL     1     -11.655  12.284  66.419  1.00  0.00    -0.445 A  
HETATM    7  C   UNL     1     -10.725  11.292  66.088  1.00  0.00    -0.250 A  
HETATM    8  C   UNL     1     -10.970  11.853  63.750  1.00  0.00    -0.494 A  
HETATM    9  C   UNL     1     -10.382  11.072  64.753  1.00  0.00    -0.389 A  
ENDROOT
BRANCH   7  10
HETATM   10  S   UNL     1      -9.871  10.418  67.386  1.00  0.00    -0.184 S  
HETATM   11  O   UNL     1      -8.822   9.625  66.777  1.00  0.00    -0.133 OA 
HETATM   12  O   UNL     1      -9.555  11.396  68.406  1.00  0.00    -0.185 OA 
BRANCH  10  13
HETATM   13  N   UNL     1     -11.022   9.394  68.060  1.00  0.00    -0.497 N  
HETATM   14  H   UNL     1     -11.939   9.733  68.352  1.00  0.00     0.000 HD 
BRANCH  13  15
HETATM   15  C   UNL     1     -10.653   8.045  68.200  1.00  0.00    -0.116 A  
HETATM   16  C   UNL     1     -10.977   7.085  67.256  1.00  0.00    -0.372 A  
HETATM   17  C   UNL     1     -10.524   5.787  67.472  1.00  0.00    -0.310 A  
HETATM   18  C   UNL     1      -9.803   5.503  68.627  1.00  0.00    -0.198 A  
HETATM   19  C   UNL     1      -9.554   6.536  69.518  1.00  0.00    -0.145 A  
HETATM   20  N   UNL     1      -9.958   7.811  69.324  1.00  0.00    -0.178 NA 
ENDBRANCH  13  15
ENDBRANCH  10  13
ENDBRANCH   7  10
TORSDOF 3
ENDMDL
MODEL       66
REMARK 921   NORMALIZED FREE ENERGY PREDICTED BY IDOCK:   -4.97 KCAL/MOL
REMARK 922        TOTAL FREE ENERGY PREDICTED BY IDOCK:   -6.06 KCAL/MOL
REMARK 923 INTER-LIGAND FREE ENERGY PREDICTED BY IDOCK:   -5.89 KCAL/MOL
REMARK 924 INTRA-LIGAND FREE ENERGY PREDICTED BY IDOCK:   -0.17 KCAL/MOL
REMARK 927      BINDING AFFINITY PREDICTED BY RF-SCORE:    0.00 PKD
ROOT
HETATM    1  N   UNL     1     -11.408   5.134  73.355  1.00  0.00    -0.474 NA 
HETATM    2  H2  UNL     1     -11.835   5.413  74.239  1.00  0.00     0.000 HD 
HETATM    3  C   UNL     1     -11.261   6.273  72.558  1.00  0.00    -0.279 A  
HETATM    4  H1  UNL     1     -11.909   4.320  73.000  1.00  0.00     0.000 HD 
HETATM    5  C   UNL     1     -10.574   7.390  73.045  1.00  0.00    -0.392 A  
HETATM    6  C   UNL     1     -10.337   8.499  72.229  1.00  0.00    -0.402 A  
HETATM    7  C   UNL     1     -10.743   8.473  70.889  1.00  0.00    -0.224 A  
HETATM    8  C   UNL     1     -11.604   6.236  71.201  1.00  0.00    -0.339 A  
HETATM    9  C   UNL     1     -11.374   7.341  70.372  1.00  0.00    -0.299 A  
ENDROOT
BRANCH   7  10
HETATM   10  S   UNL     1     -10.586   9.944  69.894  1.00  0.00    -0.292 S  
HETATM   11  O   UNL     1     -11.416  10.975  70.485  1.00  0.00    -0.294 OA 
HETATM   12  O   UNL     1      -9.168  10.163  69.698  1.00  0.00    -0.214 OA 
BRANCH  10  13
HETATM   13  N   UNL     1     -11.208   9.525  68.388  1.00  0.00    -0.489 N  
HETATM   14  H   UNL     1     -11.714   8.652  68.239  1.00  0.00     0.000 HD 
BRANCH  13  15
HETATM   15  C   UNL     1     -10.991  10.442  67.345  1.00  0.00    -0.270 A  
HETATM   16  C   UNL     1     -10.095  10.200  66.318  1.00  0.00    -0.303 A  
HETATM   17  C   UNL     1      -9.989  11.157  65.313  1.00  0.00    -0.311 A  
HETATM   18  C   UNL     1     -10.755  12.315  65.395  1.00  0.00    -0.320 A  
HETATM   19  C   UNL     1     -11.605  12.466  66.480  1.00  0.00    -0.387 A  
HETATM   20  N   UNL     1     -11.748  11.544  67.458  1.00  0.00    -0.604 NA 
ENDBRANCH  13  15
ENDBRANCH  10  13
ENDBRANCH   7  10
TORSDOF 3
ENDMDL
MODEL       67
REMARK 921   NORMALIZED FREE ENERGY PREDICTED BY IDOCK:   -4.96 KCAL/MOL
REMARK 922        TOTAL FREE ENERGY PREDICTED BY IDOCK:   -6.04 KCAL/MOL
REMARK 923 INTER-LIGAND FREE ENERGY PREDICTED BY IDOCK:   -5.82 KCAL/MOL
REMARK 924 INTRA-LIGAND FREE ENERGY PREDICTED BY IDOCK:   -0.23 KCAL/MOL
REMARK 927      BINDING AFFINITY PREDICTED BY RF-SCORE:    0.00 PKD
ROOT
HETATM    1  N   UNL     1      -9.544  17.884  68.223  1.00  0.00    -0.299 NA 
HETATM    2  H2  UNL     1      -9.640  18.796  67.776  1.00  0.00     0.000 HD 
HETATM    3  C   UNL     1     -10.251  16.946  67.463  1.00  0.00    -0.295 A  
HETATM    4  H1  UNL     1      -9.741  17.991  69.218  1.00  0.00     0.000 HD 
HETATM    5  C   UNL     1      -9.981  16.799  66.098  1.00  0.00    -0.345 A  
HETATM    6  C   UNL     1     -10.611  15.803  65.346  1.00  0.00    -0.441 A  
HETATM    7  C   UNL     1     -11.480  14.905  65.976  1.00  0.00    -0.275 A  
HETATM    8  C   UNL     1     -11.072  16.002  68.090  1.00  0.00    -0.344 A  
HETATM    9  C   UNL     1     -11.711  15.000  67.349  1.00  0.00    -0.255 A  
ENDROOT
BRANCH   7  10
HETATM   10  S   UNL     1     -12.405  13.740  64.992  1.00  0.00    -0.425 S  
HETATM   11  O   UNL     1     -13.655  13.471  65.675  1.00  0.00    -0.284 OA 
HETATM   12  O   UNL     1     -12.402  14.248  63.636  1.00  0.00    -0.741 OA 
BRANCH  10  13
HETATM   13  N   UNL     1     -11.471  12.341  64.971  1.00  0.00    -0.329 N  
HETATM   14  H   UNL     1     -11.329  11.802  64.117  1.00  0.00     0.000 HD 
BRANCH  13  15
HETATM   15  C   UNL     1     -10.896  11.955  66.194  1.00  0.00    -0.292 A  
HETATM   16  C   UNL     1      -9.530  11.998  66.418  1.00  0.00    -0.238 A  
HETATM   17  C   UNL     1      -9.070  11.634  67.680  1.00  0.00    -0.174 A  
HETATM   18  C   UNL     1      -9.985  11.219  68.642  1.00  0.00    -0.210 A  
HETATM   19  C   UNL     1     -11.330  11.193  68.303  1.00  0.00    -0.297 A  
HETATM   20  N   UNL     1     -11.809  11.563  67.095  1.00  0.00    -0.572 NA 
ENDBRANCH  13  15
ENDBRANCH  10  13
ENDBRANCH   7  10
TORSDOF 3
ENDMDL
MODEL       68
REMARK 921   NORMALIZED FREE ENERGY PREDICTED BY IDOCK:   -4.96 KCAL/MOL
REMARK 922        TOTAL FREE ENERGY PREDICTED BY IDOCK:   -6.04 KCAL/MOL
REMARK 923 INTER-LIGAND FREE ENERGY PREDICTED BY IDOCK:   -5.81 KCAL/MOL
REMARK 924 INTRA-LIGAND FREE ENERGY PREDICTED BY IDOCK:   -0.23 KCAL/MOL
REMARK 927      BINDING AFFINITY PREDICTED BY RF-SCORE:    0.00 PKD
ROOT
HETATM    1  N   UNL     1     -12.414  14.057  63.082  1.00  0.00    -1.070 NA 
HETATM    2  H2  UNL     1     -12.690  13.407  62.346  1.00  0.00     0.000 HD 
HETATM    3  C   UNL     1     -12.142  13.323  64.241  1.00  0.00    -0.416 A  
HETATM    4  H1  UNL     1     -13.090  14.820  63.105  1.00  0.00     0.000 HD 
HETATM    5  C   UNL     1     -11.215  12.276  64.208  1.00  0.00    -0.409 A  
HETATM    6  C   UNL     1     -10.862  11.594  65.377  1.00  0.00    -0.336 A  
HETATM    7  C   UNL     1     -11.400  11.998  66.604  1.00  0.00    -0.340 A  
HETATM    8  C   UNL     1     -12.622  13.756  65.482  1.00  0.00    -0.551 A  
HETATM    9  C   UNL     1     -12.279  13.081  66.660  1.00  0.00    -0.285 A  
ENDROOT
BRANCH   7  10
HETATM   10  S   UNL     1     -11.078  11.031  68.067  1.00  0.00    -0.310 S  
HETATM   11  O   UNL     1     -12.172  11.244  68.994  1.00  0.00    -0.444 OA 
HETATM   12  O   UNL     1     -10.744   9.696  67.616  1.00  0.00    -0.267 OA 
BRANCH  10  13
HETATM   13  N   UNL     1      -9.665  11.672  68.717  1.00  0.00    -0.369 N  
HETATM   14  H   UNL     1      -9.073  11.136  69.350  1.00  0.00     0.000 HD 
BRANCH  13  15
HETATM   15  C   UNL     1      -9.346  12.988  68.342  1.00  0.00    -0.149 A  
HETATM   16  C   UNL     1      -8.395  13.275  67.377  1.00  0.00    -0.193 A  
HETATM   17  C   UNL     1      -8.188  14.611  67.050  1.00  0.00    -0.188 A  
HETATM   18  C   UNL     1      -8.911  15.594  67.718  1.00  0.00    -0.173 A  
HETATM   19  C   UNL     1      -9.823  15.197  68.685  1.00  0.00    -0.218 A  
HETATM   20  N   UNL     1     -10.065  13.906  69.006  1.00  0.00    -0.093 NA 
ENDBRANCH  13  15
ENDBRANCH  10  13
ENDBRANCH   7  10
TORSDOF 3
ENDMDL
MODEL       69
REMARK 921   NORMALIZED FREE ENERGY PREDICTED BY IDOCK:   -4.94 KCAL/MOL
REMARK 922        TOTAL FREE ENERGY PREDICTED BY IDOCK:   -6.02 KCAL/MOL
REMARK 923 INTER-LIGAND FREE ENERGY PREDICTED BY IDOCK:   -5.78 KCAL/MOL
REMARK 924 INTRA-LIGAND FREE ENERGY PREDICTED BY IDOCK:   -0.24 KCAL/MOL
REMARK 927      BINDING AFFINITY PREDICTED BY RF-SCORE:    0.00 PKD
ROOT
HETATM    1  N   UNL     1     -12.633  14.006  63.274  1.00  0.00    -1.005 NA 
HETATM    2  H2  UNL     1     -12.477  13.189  62.683  1.00  0.00     0.000 HD 
HETATM    3  C   UNL     1     -12.060  13.761  64.525  1.00  0.00    -0.428 A  
HETATM    4  H1  UNL     1     -13.615  14.271  63.202  1.00  0.00     0.000 HD 
HETATM    5  C   UNL     1     -10.713  13.397  64.624  1.00  0.00    -0.425 A  
HETATM    6  C   UNL     1     -10.102  13.240  65.871  1.00  0.00    -0.296 A  
HETATM    7  C   UNL     1     -10.829  13.503  67.037  1.00  0.00    -0.282 A  
HETATM    8  C   UNL     1     -12.756  14.082  65.697  1.00  0.00    -0.515 A  
HETATM    9  C   UNL     1     -12.156  13.927  66.953  1.00  0.00    -0.467 A  
ENDROOT
BRANCH   7  10
HETATM   10  S   UNL     1     -10.102  13.149  68.627  1.00  0.00    -0.074 S  
HETATM   11  O   UNL     1     -11.074  12.409  69.408  1.00  0.00    -0.188 OA 
HETATM   12  O   UNL     1      -8.790  12.594  68.368  1.00  0.00    -0.180 OA 
BRANCH  10  13
HETATM   13  N   UNL     1      -9.843  14.651  69.338  1.00  0.00    -0.422 N  
HETATM   14  H   UNL     1      -9.941  14.794  70.343  1.00  0.00     0.000 HD 
BRANCH  13  15
HETATM   15  C   UNL     1      -9.485  15.699  68.472  1.00  0.00    -0.200 A  
HETATM   16  C   UNL     1      -8.303  15.694  67.752  1.00  0.00    -0.157 A  
HETATM   17  C   UNL     1      -8.066  16.761  66.890  1.00  0.00    -0.246 A  
HETATM   18  C   UNL     1      -8.999  17.790  66.812  1.00  0.00    -0.272 A  
HETATM   19  C   UNL     1     -10.140  17.704  67.596  1.00  0.00    -0.339 A  
HETATM   20  N   UNL     1     -10.410  16.670  68.422  1.00  0.00    -0.281 NA 
ENDBRANCH  13  15
ENDBRANCH  10  13
ENDBRANCH   7  10
TORSDOF 3
ENDMDL
MODEL       70
REMARK 921   NORMALIZED FREE ENERGY PREDICTED BY IDOCK:   -4.92 KCAL/MOL
REMARK 922        TOTAL FREE ENERGY PREDICTED BY IDOCK:   -6.00 KCAL/MOL
REMARK 923 INTER-LIGAND FREE ENERGY PREDICTED BY IDOCK:   -5.70 KCAL/MOL
REMARK 924 INTRA-LIGAND FREE ENERGY PREDICTED BY IDOCK:   -0.30 KCAL/MOL
REMARK 927      BINDING AFFINITY PREDICTED BY RF-SCORE:    0.00 PKD
ROOT
HETATM    1  N   UNL     1     -11.604  13.073  66.821  1.00  0.00    -0.348 NA 
HETATM    2  H2  UNL     1     -12.054  12.633  66.019  1.00  0.00     0.000 HD 
HETATM    3  C   UNL     1     -11.668  12.188  67.902  1.00  0.00    -0.336 A  
HETATM    4  H1  UNL     1     -11.966  14.021  66.913  1.00  0.00     0.000 HD 
HETATM    5  C   UNL     1     -11.172  10.886  67.777  1.00  0.00    -0.384 A  
HETATM    6  C   UNL     1     -11.143  10.020  68.874  1.00  0.00    -0.219 A  
HETATM    7  C   UNL     1     -11.565  10.477  70.128  1.00  0.00    -0.326 A  
HETATM    8  C   UNL     1     -12.026  12.650  69.174  1.00  0.00    -0.293 A  
HETATM    9  C   UNL     1     -12.005  11.793  70.282  1.00  0.00    -0.429 A  
ENDROOT
BRANCH   7  10
HETATM   10  S   UNL     1     -11.681   9.331  71.489  1.00  0.00    -0.404 S  
HETATM   11  O   UNL     1     -10.338   9.058  71.960  1.00  0.00    -0.339 OA 
HETATM   12  O   UNL     1     -12.684   9.858  72.391  1.00  0.00    -0.277 OA 
BRANCH  10  13
HETATM   13  N   UNL     1     -12.335   7.929  70.829  1.00  0.00    -0.509 N  
HETATM   14  H   UNL     1     -13.250   7.922  70.380  1.00  0.00     0.000 HD 
BRANCH  13  15
HETATM   15  C   UNL     1     -11.552   6.766  70.931  1.00  0.00    -0.353 A  
HETATM   16  C   UNL     1     -10.836   6.257  69.861  1.00  0.00    -0.399 A  
HETATM   17  C   UNL     1     -10.058   5.125  70.083  1.00  0.00    -0.342 A  
HETATM   18  C   UNL     1     -10.057   4.539  71.345  1.00  0.00    -0.230 A  
HETATM   19  C   UNL     1     -10.830   5.118  72.340  1.00  0.00    -0.203 A  
HETATM   20  N   UNL     1     -11.575   6.232  72.162  1.00  0.00    -0.308 NA 
ENDBRANCH  13  15
ENDBRANCH  10  13
ENDBRANCH   7  10
TORSDOF 3
ENDMDL
MODEL       71
REMARK 921   NORMALIZED FREE ENERGY PREDICTED BY IDOCK:   -4.92 KCAL/MOL
REMARK 922        TOTAL FREE ENERGY PREDICTED BY IDOCK:   -6.00 KCAL/MOL
REMARK 923 INTER-LIGAND FREE ENERGY PREDICTED BY IDOCK:   -5.71 KCAL/MOL
REMARK 924 INTRA-LIGAND FREE ENERGY PREDICTED BY IDOCK:   -0.28 KCAL/MOL
REMARK 927      BINDING AFFINITY PREDICTED BY RF-SCORE:    0.00 PKD
ROOT
HETATM    1  N   UNL     1     -11.400   5.379  73.516  1.00  0.00    -0.468 NA 
HETATM    2  H2  UNL     1     -10.836   4.567  73.264  1.00  0.00     0.000 HD 
HETATM    3  C   UNL     1     -11.185   6.378  72.560  1.00  0.00    -0.272 A  
HETATM    4  H1  UNL     1     -11.254   5.576  74.506  1.00  0.00     0.000 HD 
HETATM    5  C   UNL     1     -11.385   6.107  71.203  1.00  0.00    -0.340 A  
HETATM    6  C   UNL     1     -11.266   7.118  70.245  1.00  0.00    -0.309 A  
HETATM    7  C   UNL     1     -10.998   8.430  70.652  1.00  0.00    -0.243 A  
HETATM    8  C   UNL     1     -10.981   7.704  72.958  1.00  0.00    -0.457 A  
HETATM    9  C   UNL     1     -10.858   8.727  72.009  1.00  0.00    -0.428 A  
ENDROOT
BRANCH   7  10
HETATM   10  S   UNL     1     -10.687   9.687  69.425  1.00  0.00    -0.222 S  
HETATM   11  O   UNL     1      -9.685  10.590  69.954  1.00  0.00    -0.086 OA 
HETATM   12  O   UNL     1     -10.467   8.996  68.172  1.00  0.00    -0.215 OA 
BRANCH  10  13
HETATM   13  N   UNL     1     -12.145  10.509  69.257  1.00  0.00    -0.544 N  
HETATM   14  H   UNL     1     -12.833  10.244  68.552  1.00  0.00     0.000 HD 
BRANCH  13  15
HETATM   15  C   UNL     1     -12.364  11.580  70.140  1.00  0.00    -0.245 A  
HETATM   16  C   UNL     1     -12.985  11.416  71.366  1.00  0.00    -0.468 A  
HETATM   17  C   UNL     1     -13.112  12.537  72.181  1.00  0.00    -0.428 A  
HETATM   18  C   UNL     1     -12.645  13.765  71.725  1.00  0.00    -0.319 A  
HETATM   19  C   UNL     1     -12.059  13.820  70.469  1.00  0.00    -0.345 A  
HETATM   20  N   UNL     1     -11.898  12.746  69.665  1.00  0.00    -0.325 NA 
ENDBRANCH  13  15
ENDBRANCH  10  13
ENDBRANCH   7  10
TORSDOF 3
ENDMDL
MODEL       72
REMARK 921   NORMALIZED FREE ENERGY PREDICTED BY IDOCK:   -4.91 KCAL/MOL
REMARK 922        TOTAL FREE ENERGY PREDICTED BY IDOCK:   -5.99 KCAL/MOL
REMARK 923 INTER-LIGAND FREE ENERGY PREDICTED BY IDOCK:   -5.81 KCAL/MOL
REMARK 924 INTRA-LIGAND FREE ENERGY PREDICTED BY IDOCK:   -0.18 KCAL/MOL
REMARK 927      BINDING AFFINITY PREDICTED BY RF-SCORE:    0.00 PKD
ROOT
HETATM    1  N   UNL     1      -9.992   5.965  65.873  1.00  0.00    -0.387 NA 
HETATM    2  H2  UNL     1     -10.854   5.616  65.454  1.00  0.00     0.000 HD 
HETATM    3  C   UNL     1     -10.306   6.561  67.098  1.00  0.00    -0.247 A  
HETATM    4  H1  UNL     1      -9.479   6.488  65.164  1.00  0.00     0.000 HD 
HETATM    5  C   UNL     1     -11.010   5.843  68.071  1.00  0.00    -0.252 A  
HETATM    6  C   UNL     1     -11.250   6.392  69.334  1.00  0.00    -0.459 A  
HETATM    7  C   UNL     1     -10.733   7.654  69.650  1.00  0.00    -0.228 A  
HETATM    8  C   UNL     1      -9.743   7.793  67.450  1.00  0.00    -0.211 A  
HETATM    9  C   UNL     1      -9.977   8.356  68.711  1.00  0.00    -0.197 A  
ENDROOT
BRANCH   7  10
HETATM   10  S   UNL     1     -11.174   8.422  71.198  1.00  0.00    -0.273 S  
HETATM   11  O   UNL     1     -11.401   7.371  72.170  1.00  0.00    -0.251 OA 
HETATM   12  O   UNL     1     -10.187   9.452  71.446  1.00  0.00    -0.316 OA 
BRANCH  10  13
HETATM   13  N   UNL     1     -12.622   9.223  70.896  1.00  0.00    -0.498 N  
HETATM   14  H   UNL     1     -13.490   8.718  70.720  1.00  0.00     0.000 HD 
BRANCH  13  15
HETATM   15  C   UNL     1     -12.570  10.628  70.900  1.00  0.00    -0.407 A  
HETATM   16  C   UNL     1     -11.970  11.351  69.883  1.00  0.00    -0.434 A  
HETATM   17  C   UNL     1     -12.014  12.740  69.964  1.00  0.00    -0.371 A  
HETATM   18  C   UNL     1     -12.623  13.337  71.063  1.00  0.00    -0.408 A  
HETATM   19  C   UNL     1     -13.173  12.516  72.036  1.00  0.00    -0.419 A  
HETATM   20  N   UNL     1     -13.169  11.166  71.973  1.00  0.00    -0.447 NA 
ENDBRANCH  13  15
ENDBRANCH  10  13
ENDBRANCH   7  10
TORSDOF 3
ENDMDL
MODEL       73
REMARK 921   NORMALIZED FREE ENERGY PREDICTED BY IDOCK:   -4.87 KCAL/MOL
REMARK 922        TOTAL FREE ENERGY PREDICTED BY IDOCK:   -5.94 KCAL/MOL
REMARK 923 INTER-LIGAND FREE ENERGY PREDICTED BY IDOCK:   -5.73 KCAL/MOL
REMARK 924 INTRA-LIGAND FREE ENERGY PREDICTED BY IDOCK:   -0.21 KCAL/MOL
REMARK 927      BINDING AFFINITY PREDICTED BY RF-SCORE:    0.00 PKD
ROOT
HETATM    1  N   UNL     1     -11.636  12.963  69.965  1.00  0.00    -0.525 NA 
HETATM    2  H2  UNL     1     -11.547  13.038  68.951  1.00  0.00     0.000 HD 
HETATM    3  C   UNL     1     -11.896  11.627  70.287  1.00  0.00    -0.326 A  
HETATM    4  H1  UNL     1     -12.263  13.700  70.287  1.00  0.00     0.000 HD 
HETATM    5  C   UNL     1     -11.037  10.616  69.845  1.00  0.00    -0.364 A  
HETATM    6  C   UNL     1     -11.230   9.288  70.236  1.00  0.00    -0.267 A  
HETATM    7  C   UNL     1     -12.263   8.972  71.125  1.00  0.00    -0.275 A  
HETATM    8  C   UNL     1     -12.885  11.305  71.224  1.00  0.00    -0.491 A  
HETATM    9  C   UNL     1     -13.091   9.979  71.624  1.00  0.00    -0.547 A  
ENDROOT
BRANCH   7  10
HETATM   10  S   UNL     1     -12.611   7.262  71.497  1.00  0.00    -0.390 S  
HETATM   11  O   UNL     1     -14.040   7.131  71.702  1.00  0.00    -0.400 OA 
HETATM   12  O   UNL     1     -11.937   6.473  70.488  1.00  0.00    -0.388 OA 
BRANCH  10  13
HETATM   13  N   UNL     1     -11.811   6.955  72.944  1.00  0.00    -0.483 N  
HETATM   14  H   UNL     1     -11.918   7.560  73.757  1.00  0.00     0.000 HD 
BRANCH  13  15
HETATM   15  C   UNL     1     -10.986   5.817  72.972  1.00  0.00    -0.278 A  
HETATM   16  C   UNL     1     -11.475   4.552  73.251  1.00  0.00    -0.314 A  
HETATM   17  C   UNL     1     -10.578   3.489  73.210  1.00  0.00    -0.277 A  
HETATM   18  C   UNL     1      -9.240   3.740  72.925  1.00  0.00    -0.126 A  
HETATM   19  C   UNL     1      -8.853   5.049  72.683  1.00  0.00    -0.122 A  
HETATM   20  N   UNL     1      -9.704   6.099  72.691  1.00  0.00    -0.156 NA 
ENDBRANCH  13  15
ENDBRANCH  10  13
ENDBRANCH   7  10
TORSDOF 3
ENDMDL
MODEL       74
REMARK 921   NORMALIZED FREE ENERGY PREDICTED BY IDOCK:   -4.84 KCAL/MOL
REMARK 922        TOTAL FREE ENERGY PREDICTED BY IDOCK:   -5.91 KCAL/MOL
REMARK 923 INTER-LIGAND FREE ENERGY PREDICTED BY IDOCK:   -5.64 KCAL/MOL
REMARK 924 INTRA-LIGAND FREE ENERGY PREDICTED BY IDOCK:   -0.27 KCAL/MOL
REMARK 927      BINDING AFFINITY PREDICTED BY RF-SCORE:    0.00 PKD
ROOT
HETATM    1  N   UNL     1     -13.299  15.717  70.697  1.00  0.00    -0.792 NA 
HETATM    2  H2  UNL     1     -13.099  16.009  71.654  1.00  0.00     0.000 HD 
HETATM    3  C   UNL     1     -12.700  14.472  70.482  1.00  0.00    -0.345 A  
HETATM    4  H1  UNL     1     -13.097  16.498  70.074  1.00  0.00     0.000 HD 
HETATM    5  C   UNL     1     -12.977  13.400  71.337  1.00  0.00    -0.412 A  
HETATM    6  C   UNL     1     -12.461  12.126  71.081  1.00  0.00    -0.337 A  
HETATM    7  C   UNL     1     -11.702  11.905  69.926  1.00  0.00    -0.308 A  
HETATM    8  C   UNL     1     -11.994  14.222  69.300  1.00  0.00    -0.375 A  
HETATM    9  C   UNL     1     -11.469  12.951  69.031  1.00  0.00    -0.358 A  
ENDROOT
BRANCH   7  10
HETATM   10  S   UNL     1     -10.910  10.326  69.682  1.00  0.00    -0.288 S  
HETATM   11  O   UNL     1      -9.488  10.558  69.532  1.00  0.00    -0.179 OA 
HETATM   12  O   UNL     1     -11.408   9.448  70.720  1.00  0.00    -0.261 OA 
BRANCH  10  13
HETATM   13  N   UNL     1     -11.534   9.739  68.234  1.00  0.00    -0.479 N  
HETATM   14  H   UNL     1     -12.507   9.445  68.148  1.00  0.00     0.000 HD 
BRANCH  13  15
HETATM   15  C   UNL     1     -10.643   9.677  67.149  1.00  0.00    -0.228 A  
HETATM   16  C   UNL     1      -9.794   8.601  66.948  1.00  0.00    -0.305 A  
HETATM   17  C   UNL     1      -8.983   8.621  65.817  1.00  0.00    -0.244 A  
HETATM   18  C   UNL     1      -9.033   9.719  64.964  1.00  0.00    -0.247 A  
HETATM   19  C   UNL     1      -9.904  10.753  65.274  1.00  0.00    -0.272 A  
HETATM   20  N   UNL     1     -10.722  10.751  66.350  1.00  0.00    -0.205 NA 
ENDBRANCH  13  15
ENDBRANCH  10  13
ENDBRANCH   7  10
TORSDOF 3
ENDMDL
MODEL       75
REMARK 921   NORMALIZED FREE ENERGY PREDICTED BY IDOCK:   -4.83 KCAL/MOL
REMARK 922        TOTAL FREE ENERGY PREDICTED BY IDOCK:   -5.90 KCAL/MOL
REMARK 923 INTER-LIGAND FREE ENERGY PREDICTED BY IDOCK:   -5.68 KCAL/MOL
REMARK 924 INTRA-LIGAND FREE ENERGY PREDICTED BY IDOCK:   -0.22 KCAL/MOL
REMARK 927      BINDING AFFINITY PREDICTED BY RF-SCORE:    0.00 PKD
ROOT
HETATM    1  N   UNL     1     -12.157  13.070  70.669  1.00  0.00    -0.508 NA 
HETATM    2  H2  UNL     1     -12.183  13.287  69.673  1.00  0.00     0.000 HD 
HETATM    3  C   UNL     1     -12.292  11.686  70.822  1.00  0.00    -0.358 A  
HETATM    4  H1  UNL     1     -12.793  13.703  71.153  1.00  0.00     0.000 HD 
HETATM    5  C   UNL     1     -11.420  10.817  70.158  1.00  0.00    -0.415 A  
HETATM    6  C   UNL     1     -11.482   9.437  70.373  1.00  0.00    -0.272 A  
HETATM    7  C   UNL     1     -12.389   8.921  71.305  1.00  0.00    -0.291 A  
HETATM    8  C   UNL     1     -13.150  11.162  71.796  1.00  0.00    -0.536 A  
HETATM    9  C   UNL     1     -13.223   9.781  72.020  1.00  0.00    -0.557 A  
ENDROOT
BRANCH   7  10
HETATM   10  S   UNL     1     -12.581   7.154  71.462  1.00  0.00    -0.395 S  
HETATM   11  O   UNL     1     -13.988   6.874  71.667  1.00  0.00    -0.299 OA 
HETATM   12  O   UNL     1     -11.866   6.560  70.352  1.00  0.00    -0.400 OA 
BRANCH  10  13
HETATM   13  N   UNL     1     -11.723   6.739  72.848  1.00  0.00    -0.489 N  
HETATM   14  H   UNL     1     -12.193   6.448  73.704  1.00  0.00     0.000 HD 
BRANCH  13  15
HETATM   15  C   UNL     1     -10.322   6.816  72.762  1.00  0.00    -0.209 A  
HETATM   16  C   UNL     1      -9.613   7.926  73.187  1.00  0.00    -0.352 A  
HETATM   17  C   UNL     1      -8.225   7.881  73.097  1.00  0.00    -0.221 A  
HETATM   18  C   UNL     1      -7.616   6.751  72.561  1.00  0.00    -0.095 A  
HETATM   19  C   UNL     1      -8.425   5.704  72.144  1.00  0.00    -0.126 A  
HETATM   20  N   UNL     1      -9.773   5.708  72.242  1.00  0.00    -0.155 NA 
ENDBRANCH  13  15
ENDBRANCH  10  13
ENDBRANCH   7  10
TORSDOF 3
ENDMDL
MODEL       76
REMARK 921   NORMALIZED FREE ENERGY PREDICTED BY IDOCK:   -4.83 KCAL/MOL
REMARK 922        TOTAL FREE ENERGY PREDICTED BY IDOCK:   -5.90 KCAL/MOL
REMARK 923 INTER-LIGAND FREE ENERGY PREDICTED BY IDOCK:   -5.62 KCAL/MOL
REMARK 924 INTRA-LIGAND FREE ENERGY PREDICTED BY IDOCK:   -0.28 KCAL/MOL
REMARK 927      BINDING AFFINITY PREDICTED BY RF-SCORE:    0.00 PKD
ROOT
HETATM    1  N   UNL     1      -9.566   8.048  65.995  1.00  0.00    -0.437 NA 
HETATM    2  H2  UNL     1     -10.390   7.474  66.176  1.00  0.00     0.000 HD 
HETATM    3  C   UNL     1      -9.936   9.393  66.091  1.00  0.00    -0.281 A  
HETATM    4  H1  UNL     1      -9.111   7.700  65.151  1.00  0.00     0.000 HD 
HETATM    5  C   UNL     1     -10.560   9.871  67.248  1.00  0.00    -0.316 A  
HETATM    6  C   UNL     1     -10.851  11.230  67.397  1.00  0.00    -0.311 A  
HETATM    7  C   UNL     1     -10.465  12.135  66.402  1.00  0.00    -0.230 A  
HETATM    8  C   UNL     1      -9.500  10.317  65.134  1.00  0.00    -0.309 A  
HETATM    9  C   UNL     1      -9.787  11.681  65.269  1.00  0.00    -0.279 A  
ENDROOT
BRANCH   7  10
HETATM   10  S   UNL     1     -10.977  13.839  66.515  1.00  0.00    -0.302 S  
HETATM   11  O   UNL     1     -12.361  13.919  66.092  1.00  0.00    -0.452 OA 
HETATM   12  O   UNL     1     -10.580  14.305  67.827  1.00  0.00    -0.249 OA 
BRANCH  10  13
HETATM   13  N   UNL     1     -10.010  14.664  65.413  1.00  0.00    -0.455 N  
HETATM   14  H   UNL     1      -9.760  14.262  64.510  1.00  0.00     0.000 HD 
BRANCH  13  15
HETATM   15  C   UNL     1      -9.563  15.938  65.805  1.00  0.00    -0.304 A  
HETATM   16  C   UNL     1      -8.267  16.171  66.232  1.00  0.00    -0.275 A  
HETATM   17  C   UNL     1      -7.918  17.479  66.555  1.00  0.00    -0.309 A  
HETATM   18  C   UNL     1      -8.880  18.479  66.468  1.00  0.00    -0.301 A  
HETATM   19  C   UNL     1     -10.156  18.131  66.050  1.00  0.00    -0.268 A  
HETATM   20  N   UNL     1     -10.518  16.875  65.705  1.00  0.00    -0.542 NA 
ENDBRANCH  13  15
ENDBRANCH  10  13
ENDBRANCH   7  10
TORSDOF 3
ENDMDL
MODEL       77
REMARK 921   NORMALIZED FREE ENERGY PREDICTED BY IDOCK:   -4.83 KCAL/MOL
REMARK 922        TOTAL FREE ENERGY PREDICTED BY IDOCK:   -5.89 KCAL/MOL
REMARK 923 INTER-LIGAND FREE ENERGY PREDICTED BY IDOCK:   -5.56 KCAL/MOL
REMARK 924 INTRA-LIGAND FREE ENERGY PREDICTED BY IDOCK:   -0.33 KCAL/MOL
REMARK 927      BINDING AFFINITY PREDICTED BY RF-SCORE:    0.00 PKD
ROOT
HETATM    1  N   UNL     1     -13.009  14.804  70.251  1.00  0.00    -0.588 NA 
HETATM    2  H2  UNL     1     -12.880  15.383  71.081  1.00  0.00     0.000 HD 
HETATM    3  C   UNL     1     -12.647  13.491  70.570  1.00  0.00    -0.241 A  
HETATM    4  H1  UNL     1     -12.576  15.277  69.458  1.00  0.00     0.000 HD 
HETATM    5  C   UNL     1     -13.240  12.842  71.658  1.00  0.00    -0.410 A  
HETATM    6  C   UNL     1     -12.959  11.500  71.933  1.00  0.00    -0.453 A  
HETATM    7  C   UNL     1     -12.116  10.780  71.078  1.00  0.00    -0.346 A  
HETATM    8  C   UNL     1     -11.857  12.742  69.690  1.00  0.00    -0.384 A  
HETATM    9  C   UNL     1     -11.565  11.397  69.954  1.00  0.00    -0.402 A  
ENDROOT
BRANCH   7  10
HETATM   10  S   UNL     1     -11.629   9.121  71.516  1.00  0.00    -0.394 S  
HETATM   11  O   UNL     1     -10.209   9.133  71.804  1.00  0.00    -0.338 OA 
HETATM   12  O   UNL     1     -12.577   8.659  72.509  1.00  0.00    -0.392 OA 
BRANCH  10  13
HETATM   13  N   UNL     1     -11.910   8.201  70.136  1.00  0.00    -0.401 N  
HETATM   14  H   UNL     1     -12.756   8.314  69.578  1.00  0.00     0.000 HD 
BRANCH  13  15
HETATM   15  C   UNL     1     -10.917   7.267  69.795  1.00  0.00    -0.216 A  
HETATM   16  C   UNL     1      -9.948   7.529  68.842  1.00  0.00    -0.168 A  
HETATM   17  C   UNL     1      -8.985   6.551  68.612  1.00  0.00    -0.126 A  
HETATM   18  C   UNL     1      -9.053   5.353  69.317  1.00  0.00    -0.133 A  
HETATM   19  C   UNL     1     -10.080   5.187  70.234  1.00  0.00    -0.268 A  
HETATM   20  N   UNL     1     -11.014   6.127  70.497  1.00  0.00    -0.296 NA 
ENDBRANCH  13  15
ENDBRANCH  10  13
ENDBRANCH   7  10
TORSDOF 3
ENDMDL
MODEL       78
REMARK 921   NORMALIZED FREE ENERGY PREDICTED BY IDOCK:   -4.82 KCAL/MOL
REMARK 922        TOTAL FREE ENERGY PREDICTED BY IDOCK:   -5.88 KCAL/MOL
REMARK 923 INTER-LIGAND FREE ENERGY PREDICTED BY IDOCK:   -5.57 KCAL/MOL
REMARK 924 INTRA-LIGAND FREE ENERGY PREDICTED BY IDOCK:   -0.31 KCAL/MOL
REMARK 927      BINDING AFFINITY PREDICTED BY RF-SCORE:    0.00 PKD
ROOT
HETATM    1  N   UNL     1      -6.745  19.710  69.527  1.00  0.00    -0.351 NA 
HETATM    2  H2  UNL     1      -7.185  19.899  70.427  1.00  0.00     0.000 HD 
HETATM    3  C   UNL     1      -7.592  18.877  68.789  1.00  0.00    -0.333 A  
HETATM    4  H1  UNL     1      -5.776  19.438  69.694  1.00  0.00     0.000 HD 
HETATM    5  C   UNL     1      -8.921  19.249  68.561  1.00  0.00    -0.414 A  
HETATM    6  C   UNL     1      -9.753  18.474  67.747  1.00  0.00    -0.327 A  
HETATM    7  C   UNL     1      -9.238  17.341  67.108  1.00  0.00    -0.235 A  
HETATM    8  C   UNL     1      -7.074  17.778  68.093  1.00  0.00    -0.219 A  
HETATM    9  C   UNL     1      -7.897  16.992  67.277  1.00  0.00    -0.198 A  
ENDROOT
BRANCH   7  10
HETATM   10  S   UNL     1     -10.335  16.265  66.203  1.00  0.00    -0.339 S  
HETATM   11  O   UNL     1     -11.279  15.696  67.144  1.00  0.00    -0.269 OA 
HETATM   12  O   UNL     1     -10.801  17.018  65.057  1.00  0.00    -0.678 OA 
BRANCH  10  13
HETATM   13  N   UNL     1      -9.352  15.045  65.593  1.00  0.00    -0.458 N  
HETATM   14  H   UNL     1      -8.365  15.200  65.390  1.00  0.00     0.000 HD 
BRANCH  13  15
HETATM   15  C   UNL     1      -9.964  13.798  65.379  1.00  0.00    -0.229 A  
HETATM   16  C   UNL     1     -10.875  13.585  64.359  1.00  0.00    -0.403 A  
HETATM   17  C   UNL     1     -11.389  12.300  64.208  1.00  0.00    -0.415 A  
HETATM   18  C   UNL     1     -10.995  11.304  65.095  1.00  0.00    -0.216 A  
HETATM   19  C   UNL     1     -10.093  11.632  66.095  1.00  0.00    -0.224 A  
HETATM   20  N   UNL     1      -9.558  12.863  66.252  1.00  0.00    -0.263 NA 
ENDBRANCH  13  15
ENDBRANCH  10  13
ENDBRANCH   7  10
TORSDOF 3
ENDMDL
MODEL       79
REMARK 921   NORMALIZED FREE ENERGY PREDICTED BY IDOCK:   -4.80 KCAL/MOL
REMARK 922        TOTAL FREE ENERGY PREDICTED BY IDOCK:   -5.85 KCAL/MOL
REMARK 923 INTER-LIGAND FREE ENERGY PREDICTED BY IDOCK:   -5.65 KCAL/MOL
REMARK 924 INTRA-LIGAND FREE ENERGY PREDICTED BY IDOCK:   -0.20 KCAL/MOL
REMARK 927      BINDING AFFINITY PREDICTED BY RF-SCORE:    0.00 PKD
ROOT
HETATM    1  N   UNL     1     -10.175  18.071  68.678  1.00  0.00    -0.387 NA 
HETATM    2  H2  UNL     1     -10.403  18.958  68.228  1.00  0.00     0.000 HD 
HETATM    3  C   UNL     1     -10.587  17.032  67.837  1.00  0.00    -0.365 A  
HETATM    4  H1  UNL     1     -10.499  18.108  69.644  1.00  0.00     0.000 HD 
HETATM    5  C   UNL     1     -10.142  16.981  66.511  1.00  0.00    -0.318 A  
HETATM    6  C   UNL     1     -10.469  15.900  65.686  1.00  0.00    -0.411 A  
HETATM    7  C   UNL     1     -11.202  14.828  66.207  1.00  0.00    -0.343 A  
HETATM    8  C   UNL     1     -11.264  15.924  68.360  1.00  0.00    -0.368 A  
HETATM    9  C   UNL     1     -11.599  14.836  67.545  1.00  0.00    -0.379 A  
ENDROOT
BRANCH   7  10
HETATM   10  S   UNL     1     -11.756  13.529  65.117  1.00  0.00    -0.338 S  
HETATM   11  O   UNL     1     -13.162  13.746  64.842  1.00  0.00    -0.627 OA 
HETATM   12  O   UNL     1     -10.796  13.459  64.035  1.00  0.00    -0.352 OA 
BRANCH  10  13
HETATM   13  N   UNL     1     -11.573  12.108  65.998  1.00  0.00    -0.379 N  
HETATM   14  H   UNL     1     -12.298  11.770  66.631  1.00  0.00     0.000 HD 
BRANCH  13  15
HETATM   15  C   UNL     1     -10.367  11.410  65.815  1.00  0.00    -0.255 A  
HETATM   16  C   UNL     1     -10.192  10.485  64.800  1.00  0.00    -0.373 A  
HETATM   17  C   UNL     1      -8.943   9.882  64.682  1.00  0.00    -0.260 A  
HETATM   18  C   UNL     1      -7.944  10.206  65.595  1.00  0.00    -0.147 A  
HETATM   19  C   UNL     1      -8.235  11.130  66.588  1.00  0.00    -0.158 A  
HETATM   20  N   UNL     1      -9.430  11.751  66.713  1.00  0.00    -0.188 NA 
ENDBRANCH  13  15
ENDBRANCH  10  13
ENDBRANCH   7  10
TORSDOF 3
ENDMDL
MODEL       80
REMARK 921   NORMALIZED FREE ENERGY PREDICTED BY IDOCK:   -4.79 KCAL/MOL
REMARK 922        TOTAL FREE ENERGY PREDICTED BY IDOCK:   -5.85 KCAL/MOL
REMARK 923 INTER-LIGAND FREE ENERGY PREDICTED BY IDOCK:   -5.57 KCAL/MOL
REMARK 924 INTRA-LIGAND FREE ENERGY PREDICTED BY IDOCK:   -0.28 KCAL/MOL
REMARK 927      BINDING AFFINITY PREDICTED BY RF-SCORE:    0.00 PKD
ROOT
HETATM    1  N   UNL     1     -12.513  16.054  71.430  1.00  0.00    -0.570 NA 
HETATM    2  H2  UNL     1     -12.010  15.876  72.299  1.00  0.00     0.000 HD 
HETATM    3  C   UNL     1     -12.155  15.070  70.503  1.00  0.00    -0.326 A  
HETATM    4  H1  UNL     1     -12.411  17.041  71.196  1.00  0.00     0.000 HD 
HETATM    5  C   UNL     1     -12.295  13.716  70.825  1.00  0.00    -0.446 A  
HETATM    6  C   UNL     1     -12.030  12.723  69.877  1.00  0.00    -0.368 A  
HETATM    7  C   UNL     1     -11.673  13.086  68.574  1.00  0.00    -0.342 A  
HETATM    8  C   UNL     1     -11.858  15.418  69.180  1.00  0.00    -0.357 A  
HETATM    9  C   UNL     1     -11.589  14.434  68.221  1.00  0.00    -0.359 A  
ENDROOT
BRANCH   7  10
HETATM   10  S   UNL     1     -11.178  11.826  67.413  1.00  0.00    -0.308 S  
HETATM   11  O   UNL     1     -11.964  11.995  66.207  1.00  0.00    -0.596 OA 
HETATM   12  O   UNL     1      -9.732  11.856  67.359  1.00  0.00    -0.182 OA 
BRANCH  10  13
HETATM   13  N   UNL     1     -11.589  10.368  68.145  1.00  0.00    -0.479 N  
HETATM   14  H   UNL     1     -12.466  10.248  68.651  1.00  0.00     0.000 HD 
BRANCH  13  15
HETATM   15  C   UNL     1     -10.657   9.323  68.021  1.00  0.00    -0.208 A  
HETATM   16  C   UNL     1     -10.486   8.617  66.842  1.00  0.00    -0.329 A  
HETATM   17  C   UNL     1      -9.505   7.630  66.815  1.00  0.00    -0.244 A  
HETATM   18  C   UNL     1      -8.768   7.374  67.967  1.00  0.00    -0.124 A  
HETATM   19  C   UNL     1      -9.038   8.126  69.101  1.00  0.00    -0.148 A  
HETATM   20  N   UNL     1      -9.966   9.107  69.151  1.00  0.00    -0.181 NA 
ENDBRANCH  13  15
ENDBRANCH  10  13
ENDBRANCH   7  10
TORSDOF 3
ENDMDL
MODEL       81
REMARK 921   NORMALIZED FREE ENERGY PREDICTED BY IDOCK:   -4.79 KCAL/MOL
REMARK 922        TOTAL FREE ENERGY PREDICTED BY IDOCK:   -5.84 KCAL/MOL
REMARK 923 INTER-LIGAND FREE ENERGY PREDICTED BY IDOCK:   -5.71 KCAL/MOL
REMARK 924 INTRA-LIGAND FREE ENERGY PREDICTED BY IDOCK:   -0.14 KCAL/MOL
REMARK 927      BINDING AFFINITY PREDICTED BY RF-SCORE:    0.00 PKD
ROOT
HETATM    1  N   UNL     1     -14.101   9.076  73.190  1.00  0.00    -1.223 NA 
HETATM    2  H2  UNL     1     -14.684   9.874  72.937  1.00  0.00     0.000 HD 
HETATM    3  C   UNL     1     -13.186   8.854  72.155  1.00  0.00    -0.429 A  
HETATM    4  H1  UNL     1     -14.708   8.322  73.508  1.00  0.00     0.000 HD 
HETATM    5  C   UNL     1     -12.353   9.890  71.719  1.00  0.00    -0.456 A  
HETATM    6  C   UNL     1     -11.370   9.659  70.751  1.00  0.00    -0.409 A  
HETATM    7  C   UNL     1     -11.179   8.366  70.252  1.00  0.00    -0.173 A  
HETATM    8  C   UNL     1     -12.941   7.556  71.694  1.00  0.00    -0.397 A  
HETATM    9  C   UNL     1     -11.961   7.311  70.724  1.00  0.00    -0.311 A  
ENDROOT
BRANCH   7  10
HETATM   10  S   UNL     1     -10.039   8.102  68.906  1.00  0.00    -0.205 S  
HETATM   11  O   UNL     1      -8.959   7.267  69.392  1.00  0.00    -0.140 OA 
HETATM   12  O   UNL     1     -10.832   7.690  67.767  1.00  0.00    -0.170 OA 
BRANCH  10  13
HETATM   13  N   UNL     1      -9.439   9.628  68.531  1.00  0.00    -0.141 N  
HETATM   14  H   UNL     1      -8.765  10.103  69.132  1.00  0.00     0.000 HD 
BRANCH  13  15
HETATM   15  C   UNL     1      -9.916  10.213  67.346  1.00  0.00    -0.195 A  
HETATM   16  C   UNL     1      -9.461   9.834  66.095  1.00  0.00    -0.261 A  
HETATM   17  C   UNL     1     -10.032  10.448  64.985  1.00  0.00    -0.399 A  
HETATM   18  C   UNL     1     -11.002  11.427  65.175  1.00  0.00    -0.259 A  
HETATM   19  C   UNL     1     -11.368  11.747  66.474  1.00  0.00    -0.305 A  
HETATM   20  N   UNL     1     -10.850  11.150  67.571  1.00  0.00    -0.236 NA 
ENDBRANCH  13  15
ENDBRANCH  10  13
ENDBRANCH   7  10
TORSDOF 3
ENDMDL
MODEL       82
REMARK 921   NORMALIZED FREE ENERGY PREDICTED BY IDOCK:   -4.78 KCAL/MOL
REMARK 922        TOTAL FREE ENERGY PREDICTED BY IDOCK:   -5.84 KCAL/MOL
REMARK 923 INTER-LIGAND FREE ENERGY PREDICTED BY IDOCK:   -5.50 KCAL/MOL
REMARK 924 INTRA-LIGAND FREE ENERGY PREDICTED BY IDOCK:   -0.34 KCAL/MOL
REMARK 927      BINDING AFFINITY PREDICTED BY RF-SCORE:    0.00 PKD
ROOT
HETATM    1  N   UNL     1     -12.333  12.020  63.147  1.00  0.00    -0.791 NA 
HETATM    2  H2  UNL     1     -11.643  11.297  62.942  1.00  0.00     0.000 HD 
HETATM    3  C   UNL     1     -11.902  12.735  64.269  1.00  0.00    -0.396 A  
HETATM    4  H1  UNL     1     -13.259  11.594  63.135  1.00  0.00     0.000 HD 
HETATM    5  C   UNL     1     -10.631  13.320  64.285  1.00  0.00    -0.402 A  
HETATM    6  C   UNL     1     -10.222  14.116  65.359  1.00  0.00    -0.380 A  
HETATM    7  C   UNL     1     -11.112  14.377  66.406  1.00  0.00    -0.326 A  
HETATM    8  C   UNL     1     -12.802  13.057  65.291  1.00  0.00    -0.284 A  
HETATM    9  C   UNL     1     -12.404  13.851  66.374  1.00  0.00    -0.468 A  
ENDROOT
BRANCH   7  10
HETATM   10  S   UNL     1     -10.539  15.255  67.849  1.00  0.00    -0.266 S  
HETATM   11  O   UNL     1     -10.817  16.664  67.655  1.00  0.00    -0.324 OA 
HETATM   12  O   UNL     1     -11.069  14.553  68.999  1.00  0.00    -0.241 OA 
BRANCH  10  13
HETATM   13  N   UNL     1      -8.875  15.015  67.880  1.00  0.00    -0.168 N  
HETATM   14  H   UNL     1      -8.467  14.100  68.074  1.00  0.00     0.000 HD 
BRANCH  13  15
HETATM   15  C   UNL     1      -8.076  16.142  67.625  1.00  0.00    -0.147 A  
HETATM   16  C   UNL     1      -7.719  16.524  66.343  1.00  0.00    -0.294 A  
HETATM   17  C   UNL     1      -6.960  17.682  66.200  1.00  0.00    -0.338 A  
HETATM   18  C   UNL     1      -6.570  18.382  67.337  1.00  0.00    -0.199 A  
HETATM   19  C   UNL     1      -6.964  17.897  68.575  1.00  0.00    -0.240 A  
HETATM   20  N   UNL     1      -7.721  16.791  68.745  1.00  0.00    -0.232 NA 
ENDBRANCH  13  15
ENDBRANCH  10  13
ENDBRANCH   7  10
TORSDOF 3
ENDMDL
MODEL       83
REMARK 921   NORMALIZED FREE ENERGY PREDICTED BY IDOCK:   -4.78 KCAL/MOL
REMARK 922        TOTAL FREE ENERGY PREDICTED BY IDOCK:   -5.83 KCAL/MOL
REMARK 923 INTER-LIGAND FREE ENERGY PREDICTED BY IDOCK:   -5.52 KCAL/MOL
REMARK 924 INTRA-LIGAND FREE ENERGY PREDICTED BY IDOCK:   -0.32 KCAL/MOL
REMARK 927      BINDING AFFINITY PREDICTED BY RF-SCORE:    0.00 PKD
ROOT
HETATM    1  N   UNL     1      -9.494   7.676  67.027  1.00  0.00    -0.154 NA 
HETATM    2  H2  UNL     1     -10.232   7.066  67.379  1.00  0.00     0.000 HD 
HETATM    3  C   UNL     1     -10.052   8.926  66.743  1.00  0.00    -0.280 A  
HETATM    4  H1  UNL     1      -8.976   7.170  66.308  1.00  0.00     0.000 HD 
HETATM    5  C   UNL     1     -10.763   9.619  67.729  1.00  0.00    -0.316 A  
HETATM    6  C   UNL     1     -11.246  10.909  67.490  1.00  0.00    -0.364 A  
HETATM    7  C   UNL     1     -10.970  11.539  66.271  1.00  0.00    -0.275 A  
HETATM    8  C   UNL     1      -9.730   9.591  65.554  1.00  0.00    -0.344 A  
HETATM    9  C   UNL     1     -10.210  10.883  65.302  1.00  0.00    -0.351 A  
ENDROOT
BRANCH   7  10
HETATM   10  S   UNL     1     -11.720  13.114  65.905  1.00  0.00    -0.406 S  
HETATM   11  O   UNL     1     -10.739  13.927  65.215  1.00  0.00    -0.309 OA 
HETATM   12  O   UNL     1     -13.002  12.831  65.293  1.00  0.00    -0.690 OA 
BRANCH  10  13
HETATM   13  N   UNL     1     -12.058  13.801  67.403  1.00  0.00    -0.398 N  
HETATM   14  H   UNL     1     -12.943  13.636  67.883  1.00  0.00     0.000 HD 
BRANCH  13  15
HETATM   15  C   UNL     1     -11.055  14.614  67.958  1.00  0.00    -0.281 A  
HETATM   16  C   UNL     1      -9.843  14.106  68.392  1.00  0.00    -0.231 A  
HETATM   17  C   UNL     1      -8.903  15.005  68.885  1.00  0.00    -0.201 A  
HETATM   18  C   UNL     1      -9.227  16.357  68.951  1.00  0.00    -0.259 A  
HETATM   19  C   UNL     1     -10.479  16.755  68.509  1.00  0.00    -0.335 A  
HETATM   20  N   UNL     1     -11.403  15.909  68.002  1.00  0.00    -0.322 NA 
ENDBRANCH  13  15
ENDBRANCH  10  13
ENDBRANCH   7  10
TORSDOF 3
ENDMDL
MODEL       84
REMARK 921   NORMALIZED FREE ENERGY PREDICTED BY IDOCK:   -4.70 KCAL/MOL
REMARK 922        TOTAL FREE ENERGY PREDICTED BY IDOCK:   -5.74 KCAL/MOL
REMARK 923 INTER-LIGAND FREE ENERGY PREDICTED BY IDOCK:   -5.94 KCAL/MOL
REMARK 924 INTRA-LIGAND FREE ENERGY PREDICTED BY IDOCK:    0.21 KCAL/MOL
REMARK 927      BINDING AFFINITY PREDICTED BY RF-SCORE:    0.00 PKD
ROOT
HETATM    1  N   UNL     1      -9.357   9.503  64.201  1.00  0.00    -0.418 NA 
HETATM    2  H2  UNL     1      -8.789   9.528  63.354  1.00  0.00     0.000 HD 
HETATM    3  C   UNL     1      -9.642  10.819  64.580  1.00  0.00    -0.270 A  
HETATM    4  H1  UNL     1      -8.919   8.862  64.863  1.00  0.00     0.000 HD 
HETATM    5  C   UNL     1     -10.242  11.697  63.672  1.00  0.00    -0.451 A  
HETATM    6  C   UNL     1     -10.619  12.986  64.063  1.00  0.00    -0.371 A  
HETATM    7  C   UNL     1     -10.444  13.385  65.393  1.00  0.00    -0.302 A  
HETATM    8  C   UNL     1      -9.532  11.209  65.919  1.00  0.00    -0.241 A  
HETATM    9  C   UNL     1      -9.904  12.498  66.325  1.00  0.00    -0.260 A  
ENDROOT
BRANCH   7  10
HETATM   10  S   UNL     1     -10.773  15.076  65.855  1.00  0.00    -0.346 S  
HETATM   11  O   UNL     1     -11.507  15.700  64.772  1.00  0.00    -0.366 OA 
HETATM   12  O   UNL     1     -11.325  15.040  67.193  1.00  0.00    -0.338 OA 
BRANCH  10  13
HETATM   13  N   UNL     1      -9.260  15.798  65.991  1.00  0.00    -0.349 N  
HETATM   14  H   UNL     1      -8.398  15.256  65.924  1.00  0.00     0.000 HD 
BRANCH  13  15
HETATM   15  C   UNL     1      -9.247  17.187  66.202  1.00  0.00    -0.184 A  
HETATM   16  C   UNL     1     -10.343  17.872  66.700  1.00  0.00    -0.362 A  
HETATM   17  C   UNL     1     -10.208  19.241  66.911  1.00  0.00    -0.496 A  
HETATM   18  C   UNL     1      -9.006  19.862  66.589  1.00  0.00    -0.452 A  
HETATM   19  C   UNL     1      -7.980  19.084  66.075  1.00  0.00    -0.193 A  
HETATM   20  N   UNL     1      -8.072  17.749  65.882  1.00  0.00    -0.544 NA 
ENDBRANCH  13  15
ENDBRANCH  10  13
ENDBRANCH   7  10
TORSDOF 3
ENDMDL
MODEL       85
REMARK 921   NORMALIZED FREE ENERGY PREDICTED BY IDOCK:   -4.69 KCAL/MOL
REMARK 922        TOTAL FREE ENERGY PREDICTED BY IDOCK:   -5.73 KCAL/MOL
REMARK 923 INTER-LIGAND FREE ENERGY PREDICTED BY IDOCK:   -5.42 KCAL/MOL
REMARK 924 INTRA-LIGAND FREE ENERGY PREDICTED BY IDOCK:   -0.31 KCAL/MOL
REMARK 927      BINDING AFFINITY PREDICTED BY RF-SCORE:    0.00 PKD
ROOT
HETATM    1  N   UNL     1     -11.605  16.433  70.725  1.00  0.00    -0.556 NA 
HETATM    2  H2  UNL     1     -12.003  16.066  71.589  1.00  0.00     0.000 HD 
HETATM    3  C   UNL     1     -10.992  15.380  70.040  1.00  0.00    -0.299 A  
HETATM    4  H1  UNL     1     -11.077  17.277  70.948  1.00  0.00     0.000 HD 
HETATM    5  C   UNL     1     -11.716  14.223  69.734  1.00  0.00    -0.367 A  
HETATM    6  C   UNL     1     -11.146  13.201  68.969  1.00  0.00    -0.282 A  
HETATM    7  C   UNL     1      -9.854  13.359  68.455  1.00  0.00    -0.216 A  
HETATM    8  C   UNL     1      -9.726  15.550  69.466  1.00  0.00    -0.282 A  
HETATM    9  C   UNL     1      -9.142  14.534  68.699  1.00  0.00    -0.187 A  
ENDROOT
BRANCH   7  10
HETATM   10  S   UNL     1      -9.067  11.995  67.618  1.00  0.00    -0.187 S  
HETATM   11  O   UNL     1      -7.687  11.938  68.055  1.00  0.00    -0.115 OA 
HETATM   12  O   UNL     1      -9.939  10.850  67.782  1.00  0.00    -0.171 OA 
BRANCH  10  13
HETATM   13  N   UNL     1      -9.118  12.392  65.984  1.00  0.00    -0.429 N  
HETATM   14  H   UNL     1      -8.336  12.196  65.359  1.00  0.00     0.000 HD 
BRANCH  13  15
HETATM   15  C   UNL     1     -10.295  13.008  65.527  1.00  0.00    -0.294 A  
HETATM   16  C   UNL     1     -11.493  12.324  65.410  1.00  0.00    -0.402 A  
HETATM   17  C   UNL     1     -12.609  13.041  64.988  1.00  0.00    -0.515 A  
HETATM   18  C   UNL     1     -12.471  14.389  64.676  1.00  0.00    -0.364 A  
HETATM   19  C   UNL     1     -11.219  14.970  64.807  1.00  0.00    -0.386 A  
HETATM   20  N   UNL     1     -10.123  14.307  65.238  1.00  0.00    -0.369 NA 
ENDBRANCH  13  15
ENDBRANCH  10  13
ENDBRANCH   7  10
TORSDOF 3
ENDMDL
MODEL       86
REMARK 921   NORMALIZED FREE ENERGY PREDICTED BY IDOCK:   -4.68 KCAL/MOL
REMARK 922        TOTAL FREE ENERGY PREDICTED BY IDOCK:   -5.72 KCAL/MOL
REMARK 923 INTER-LIGAND FREE ENERGY PREDICTED BY IDOCK:   -5.36 KCAL/MOL
REMARK 924 INTRA-LIGAND FREE ENERGY PREDICTED BY IDOCK:   -0.36 KCAL/MOL
REMARK 927      BINDING AFFINITY PREDICTED BY RF-SCORE:    0.00 PKD
ROOT
HETATM    1  N   UNL     1      -9.937   7.346  66.124  1.00  0.00    -0.436 NA 
HETATM    2  H2  UNL     1     -10.905   7.214  65.831  1.00  0.00     0.000 HD 
HETATM    3  C   UNL     1      -9.728   8.711  66.352  1.00  0.00    -0.263 A  
HETATM    4  H1  UNL     1      -9.333   6.836  65.480  1.00  0.00     0.000 HD 
HETATM    5  C   UNL     1     -10.557   9.411  67.235  1.00  0.00    -0.314 A  
HETATM    6  C   UNL     1     -10.304  10.751  67.544  1.00  0.00    -0.244 A  
HETATM    7  C   UNL     1      -9.178  11.386  67.008  1.00  0.00    -0.169 A  
HETATM    8  C   UNL     1      -8.572   9.339  65.874  1.00  0.00    -0.163 A  
HETATM    9  C   UNL     1      -8.308  10.681  66.175  1.00  0.00    -0.158 A  
ENDROOT
BRANCH   7  10
HETATM   10  S   UNL     1      -8.944  13.134  67.272  1.00  0.00    -0.224 S  
HETATM   11  O   UNL     1      -9.855  13.554  68.317  1.00  0.00    -0.225 OA 
HETATM   12  O   UNL     1      -7.518  13.345  67.409  1.00  0.00    -0.165 OA 
BRANCH  10  13
HETATM   13  N   UNL     1      -9.388  13.861  65.821  1.00  0.00    -0.500 N  
HETATM   14  H   UNL     1      -8.875  14.656  65.440  1.00  0.00     0.000 HD 
BRANCH  13  15
HETATM   15  C   UNL     1     -10.503  13.315  65.164  1.00  0.00    -0.333 A  
HETATM   16  C   UNL     1     -10.382  12.487  64.061  1.00  0.00    -0.429 A  
HETATM   17  C   UNL     1     -11.550  11.965  63.512  1.00  0.00    -0.537 A  
HETATM   18  C   UNL     1     -12.777  12.317  64.067  1.00  0.00    -0.457 A  
HETATM   19  C   UNL     1     -12.784  13.172  65.159  1.00  0.00    -0.405 A  
HETATM   20  N   UNL     1     -11.666  13.675  65.729  1.00  0.00    -0.335 NA 
ENDBRANCH  13  15
ENDBRANCH  10  13
ENDBRANCH   7  10
TORSDOF 3
ENDMDL
MODEL       87
REMARK 921   NORMALIZED FREE ENERGY PREDICTED BY IDOCK:   -4.68 KCAL/MOL
REMARK 922        TOTAL FREE ENERGY PREDICTED BY IDOCK:   -5.72 KCAL/MOL
REMARK 923 INTER-LIGAND FREE ENERGY PREDICTED BY IDOCK:   -5.56 KCAL/MOL
REMARK 924 INTRA-LIGAND FREE ENERGY PREDICTED BY IDOCK:   -0.16 KCAL/MOL
REMARK 927      BINDING AFFINITY PREDICTED BY RF-SCORE:    0.00 PKD
ROOT
HETATM    1  N   UNL     1     -12.468  13.684  63.239  1.00  0.00    -1.048 NA 
HETATM    2  H2  UNL     1     -12.869  13.193  62.439  1.00  0.00     0.000 HD 
HETATM    3  C   UNL     1     -11.870  12.741  64.080  1.00  0.00    -0.435 A  
HETATM    4  H1  UNL     1     -13.170  14.327  63.606  1.00  0.00     0.000 HD 
HETATM    5  C   UNL     1     -10.908  11.859  63.576  1.00  0.00    -0.502 A  
HETATM    6  C   UNL     1     -10.233  10.974  64.423  1.00  0.00    -0.409 A  
HETATM    7  C   UNL     1     -10.481  11.007  65.800  1.00  0.00    -0.228 A  
HETATM    8  C   UNL     1     -12.061  12.806  65.465  1.00  0.00    -0.517 A  
HETATM    9  C   UNL     1     -11.393  11.924  66.325  1.00  0.00    -0.394 A  
ENDROOT
BRANCH   7  10
HETATM   10  S   UNL     1      -9.744   9.774  66.857  1.00  0.00    -0.203 S  
HETATM   11  O   UNL     1      -8.321   9.744  66.583  1.00  0.00    -0.122 OA 
HETATM   12  O   UNL     1     -10.230  10.032  68.196  1.00  0.00    -0.160 OA 
BRANCH  10  13
HETATM   13  N   UNL     1     -10.434   8.316  66.381  1.00  0.00    -0.335 N  
HETATM   14  H   UNL     1     -11.102   8.263  65.612  1.00  0.00     0.000 HD 
BRANCH  13  15
HETATM   15  C   UNL     1     -10.042   7.175  67.101  1.00  0.00    -0.225 A  
HETATM   16  C   UNL     1     -10.697   6.759  68.247  1.00  0.00    -0.290 A  
HETATM   17  C   UNL     1     -10.253   5.590  68.858  1.00  0.00    -0.284 A  
HETATM   18  C   UNL     1      -9.164   4.913  68.318  1.00  0.00    -0.154 A  
HETATM   19  C   UNL     1      -8.567   5.431  67.178  1.00  0.00    -0.108 A  
HETATM   20  N   UNL     1      -8.991   6.549  66.548  1.00  0.00    -0.139 NA 
ENDBRANCH  13  15
ENDBRANCH  10  13
ENDBRANCH   7  10
TORSDOF 3
ENDMDL
MODEL       88
REMARK 921   NORMALIZED FREE ENERGY PREDICTED BY IDOCK:   -4.67 KCAL/MOL
REMARK 922        TOTAL FREE ENERGY PREDICTED BY IDOCK:   -5.70 KCAL/MOL
REMARK 923 INTER-LIGAND FREE ENERGY PREDICTED BY IDOCK:   -5.44 KCAL/MOL
REMARK 924 INTRA-LIGAND FREE ENERGY PREDICTED BY IDOCK:   -0.26 KCAL/MOL
REMARK 927      BINDING AFFINITY PREDICTED BY RF-SCORE:    0.00 PKD
ROOT
HETATM    1  N   UNL     1     -11.050   5.311  73.665  1.00  0.00    -0.431 NA 
HETATM    2  H2  UNL     1     -10.703   4.465  73.213  1.00  0.00     0.000 HD 
HETATM    3  C   UNL     1     -10.927   6.374  72.764  1.00  0.00    -0.257 A  
HETATM    4  H1  UNL     1     -10.631   5.374  74.593  1.00  0.00     0.000 HD 
HETATM    5  C   UNL     1     -11.502   6.287  71.492  1.00  0.00    -0.351 A  
HETATM    6  C   UNL     1     -11.469   7.375  70.614  1.00  0.00    -0.307 A  
HETATM    7  C   UNL     1     -10.905   8.585  71.032  1.00  0.00    -0.241 A  
HETATM    8  C   UNL     1     -10.424   7.608  73.190  1.00  0.00    -0.433 A  
HETATM    9  C   UNL     1     -10.383   8.706  72.321  1.00  0.00    -0.376 A  
ENDROOT
BRANCH   7  10
HETATM   10  S   UNL     1     -10.718   9.919  69.863  1.00  0.00    -0.299 S  
HETATM   11  O   UNL     1     -11.574  11.008  70.287  1.00  0.00    -0.306 OA 
HETATM   12  O   UNL     1      -9.294  10.125  69.694  1.00  0.00    -0.218 OA 
BRANCH  10  13
HETATM   13  N   UNL     1     -11.279   9.306  68.401  1.00  0.00    -0.449 N  
HETATM   14  H   UNL     1     -11.905   8.501  68.361  1.00  0.00     0.000 HD 
BRANCH  13  15
HETATM   15  C   UNL     1     -10.840   9.961  67.239  1.00  0.00    -0.199 A  
HETATM   16  C   UNL     1     -11.151  11.283  66.969  1.00  0.00    -0.356 A  
HETATM   17  C   UNL     1     -10.628  11.847  65.810  1.00  0.00    -0.309 A  
HETATM   18  C   UNL     1      -9.850  11.063  64.964  1.00  0.00    -0.321 A  
HETATM   19  C   UNL     1      -9.619   9.743  65.320  1.00  0.00    -0.300 A  
HETATM   20  N   UNL     1     -10.092   9.173  66.451  1.00  0.00    -0.289 NA 
ENDBRANCH  13  15
ENDBRANCH  10  13
ENDBRANCH   7  10
TORSDOF 3
ENDMDL
MODEL       89
REMARK 921   NORMALIZED FREE ENERGY PREDICTED BY IDOCK:   -4.66 KCAL/MOL
REMARK 922        TOTAL FREE ENERGY PREDICTED BY IDOCK:   -5.69 KCAL/MOL
REMARK 923 INTER-LIGAND FREE ENERGY PREDICTED BY IDOCK:   -6.40 KCAL/MOL
REMARK 924 INTRA-LIGAND FREE ENERGY PREDICTED BY IDOCK:    0.71 KCAL/MOL
REMARK 927      BINDING AFFINITY PREDICTED BY RF-SCORE:    0.00 PKD
ROOT
HETATM    1  N   UNL     1     -13.094  15.811  74.136  1.00  0.00    -0.789 NA 
HETATM    2  H2  UNL     1     -12.771  15.176  74.867  1.00  0.00     0.000 HD 
HETATM    3  C   UNL     1     -12.701  15.295  72.898  1.00  0.00    -0.421 A  
HETATM    4  H1  UNL     1     -12.837  16.762  74.401  1.00  0.00     0.000 HD 
HETATM    5  C   UNL     1     -13.053  13.991  72.535  1.00  0.00    -0.547 A  
HETATM    6  C   UNL     1     -12.748  13.493  71.264  1.00  0.00    -0.432 A  
HETATM    7  C   UNL     1     -12.133  14.326  70.323  1.00  0.00    -0.335 A  
HETATM    8  C   UNL     1     -12.144  16.135  71.926  1.00  0.00    -0.548 A  
HETATM    9  C   UNL     1     -11.832  15.649  70.650  1.00  0.00    -0.409 A  
ENDROOT
BRANCH   7  10
HETATM   10  S   UNL     1     -11.600  13.647  68.762  1.00  0.00    -0.347 S  
HETATM   11  O   UNL     1     -12.189  14.443  67.704  1.00  0.00    -0.328 OA 
HETATM   12  O   UNL     1     -10.164  13.486  68.850  1.00  0.00    -0.177 OA 
BRANCH  10  13
HETATM   13  N   UNL     1     -12.244  12.094  68.715  1.00  0.00    -0.090 N  
HETATM   14  H   UNL     1     -13.079  11.874  68.172  1.00  0.00     0.000 HD 
BRANCH  13  15
HETATM   15  C   UNL     1     -11.569  11.115  69.464  1.00  0.00    -0.321 A  
HETATM   16  C   UNL     1     -12.069  10.616  70.655  1.00  0.00    -0.461 A  
HETATM   17  C   UNL     1     -11.341   9.617  71.294  1.00  0.00    -0.458 A  
HETATM   18  C   UNL     1     -10.142   9.188  70.736  1.00  0.00    -0.333 A  
HETATM   19  C   UNL     1      -9.722   9.772  69.550  1.00  0.00    -0.212 A  
HETATM   20  N   UNL     1     -10.419  10.725  68.892  1.00  0.00    -0.194 NA 
ENDBRANCH  13  15
ENDBRANCH  10  13
ENDBRANCH   7  10
TORSDOF 3
ENDMDL
MODEL       90
REMARK 921   NORMALIZED FREE ENERGY PREDICTED BY IDOCK:   -4.66 KCAL/MOL
REMARK 922        TOTAL FREE ENERGY PREDICTED BY IDOCK:   -5.69 KCAL/MOL
REMARK 923 INTER-LIGAND FREE ENERGY PREDICTED BY IDOCK:   -5.58 KCAL/MOL
REMARK 924 INTRA-LIGAND FREE ENERGY PREDICTED BY IDOCK:   -0.11 KCAL/MOL
REMARK 927      BINDING AFFINITY PREDICTED BY RF-SCORE:    0.00 PKD
ROOT
HETATM    1  N   UNL     1     -11.982  13.231  63.283  1.00  0.00    -0.783 NA 
HETATM    2  H2  UNL     1     -11.126  12.813  62.919  1.00  0.00     0.000 HD 
HETATM    3  C   UNL     1     -11.715  13.742  64.558  1.00  0.00    -0.407 A  
HETATM    4  H1  UNL     1     -12.746  12.570  63.145  1.00  0.00     0.000 HD 
HETATM    5  C   UNL     1     -10.667  14.649  64.747  1.00  0.00    -0.399 A  
HETATM    6  C   UNL     1     -10.446  15.239  65.995  1.00  0.00    -0.328 A  
HETATM    7  C   UNL     1     -11.317  14.964  67.055  1.00  0.00    -0.342 A  
HETATM    8  C   UNL     1     -12.613  13.526  65.609  1.00  0.00    -0.512 A  
HETATM    9  C   UNL     1     -12.404  14.110  66.865  1.00  0.00    -0.293 A  
ENDROOT
BRANCH   7  10
HETATM   10  S   UNL     1     -10.945  15.588  68.684  1.00  0.00    -0.298 S  
HETATM   11  O   UNL     1     -10.118  16.769  68.532  1.00  0.00    -0.251 OA 
HETATM   12  O   UNL     1     -12.202  15.657  69.398  1.00  0.00    -0.322 OA 
BRANCH  10  13
HETATM   13  N   UNL     1     -10.050  14.373  69.427  1.00  0.00    -0.433 N  
HETATM   14  H   UNL     1      -9.348  14.580  70.137  1.00  0.00     0.000 HD 
BRANCH  13  15
HETATM   15  C   UNL     1     -10.321  13.057  69.016  1.00  0.00     0.061 A  
HETATM   16  C   UNL     1      -9.512  12.377  68.122  1.00  0.00    -0.214 A  
HETATM   17  C   UNL     1      -9.849  11.061  67.816  1.00  0.00    -0.190 A  
HETATM   18  C   UNL     1     -10.986  10.501  68.389  1.00  0.00    -0.310 A  
HETATM   19  C   UNL     1     -11.739  11.281  69.255  1.00  0.00    -0.334 A  
HETATM   20  N   UNL     1     -11.424  12.551  69.591  1.00  0.00    -0.226 NA 
ENDBRANCH  13  15
ENDBRANCH  10  13
ENDBRANCH   7  10
TORSDOF 3
ENDMDL
MODEL       91
REMARK 921   NORMALIZED FREE ENERGY PREDICTED BY IDOCK:   -4.64 KCAL/MOL
REMARK 922        TOTAL FREE ENERGY PREDICTED BY IDOCK:   -5.67 KCAL/MOL
REMARK 923 INTER-LIGAND FREE ENERGY PREDICTED BY IDOCK:   -5.44 KCAL/MOL
REMARK 924 INTRA-LIGAND FREE ENERGY PREDICTED BY IDOCK:   -0.22 KCAL/MOL
REMARK 927      BINDING AFFINITY PREDICTED BY RF-SCORE:    0.00 PKD
ROOT
HETATM    1  N   UNL     1      -9.092  21.021  66.957  1.00  0.00    -0.594 NA 
HETATM    2  H2  UNL     1      -9.850  21.642  67.241  1.00  0.00     0.000 HD 
HETATM    3  C   UNL     1      -9.313  19.765  67.533  1.00  0.00    -0.340 A  
HETATM    4  H1  UNL     1      -8.208  21.505  67.106  1.00  0.00     0.000 HD 
HETATM    5  C   UNL     1     -10.527  19.101  67.329  1.00  0.00    -0.549 A  
HETATM    6  C   UNL     1     -10.728  17.807  67.818  1.00  0.00    -0.332 A  
HETATM    7  C   UNL     1      -9.683  17.145  68.474  1.00  0.00    -0.291 A  
HETATM    8  C   UNL     1      -8.259  19.067  68.134  1.00  0.00    -0.349 A  
HETATM    9  C   UNL     1      -8.446  17.771  68.630  1.00  0.00    -0.271 A  
ENDROOT
BRANCH   7  10
HETATM   10  S   UNL     1      -9.988  15.562  69.238  1.00  0.00    -0.280 S  
HETATM   11  O   UNL     1      -8.742  14.822  69.245  1.00  0.00    -0.130 OA 
HETATM   12  O   UNL     1     -10.692  15.828  70.475  1.00  0.00    -0.312 OA 
BRANCH  10  13
HETATM   13  N   UNL     1     -11.089  14.790  68.229  1.00  0.00    -0.263 N  
HETATM   14  H   UNL     1     -11.658  15.306  67.558  1.00  0.00     0.000 HD 
BRANCH  13  15
HETATM   15  C   UNL     1     -11.183  13.393  68.359  1.00  0.00    -0.279 A  
HETATM   16  C   UNL     1     -10.537  12.523  67.499  1.00  0.00    -0.238 A  
HETATM   17  C   UNL     1     -10.663  11.158  67.744  1.00  0.00    -0.267 A  
HETATM   18  C   UNL     1     -11.447  10.730  68.810  1.00  0.00    -0.364 A  
HETATM   19  C   UNL     1     -12.069  11.689  69.596  1.00  0.00    -0.280 A  
HETATM   20  N   UNL     1     -11.946  13.020  69.399  1.00  0.00    -0.303 NA 
ENDBRANCH  13  15
ENDBRANCH  10  13
ENDBRANCH   7  10
TORSDOF 3
ENDMDL
MODEL       92
REMARK 921   NORMALIZED FREE ENERGY PREDICTED BY IDOCK:   -4.63 KCAL/MOL
REMARK 922        TOTAL FREE ENERGY PREDICTED BY IDOCK:   -5.65 KCAL/MOL
REMARK 923 INTER-LIGAND FREE ENERGY PREDICTED BY IDOCK:   -5.42 KCAL/MOL
REMARK 924 INTRA-LIGAND FREE ENERGY PREDICTED BY IDOCK:   -0.24 KCAL/MOL
REMARK 927      BINDING AFFINITY PREDICTED BY RF-SCORE:    0.00 PKD
ROOT
HETATM    1  N   UNL     1     -11.240  14.472  66.423  1.00  0.00    -0.335 NA 
HETATM    2  H2  UNL     1     -11.805  14.246  65.604  1.00  0.00     0.000 HD 
HETATM    3  C   UNL     1     -11.625  13.629  67.471  1.00  0.00    -0.350 A  
HETATM    4  H1  UNL     1     -11.248  15.484  66.550  1.00  0.00     0.000 HD 
HETATM    5  C   UNL     1     -11.615  12.241  67.297  1.00  0.00    -0.427 A  
HETATM    6  C   UNL     1     -11.907  11.383  68.362  1.00  0.00    -0.344 A  
HETATM    7  C   UNL     1     -12.159  11.916  69.632  1.00  0.00    -0.239 A  
HETATM    8  C   UNL     1     -11.816  14.143  68.759  1.00  0.00    -0.384 A  
HETATM    9  C   UNL     1     -12.111  13.296  69.834  1.00  0.00    -0.377 A  
ENDROOT
BRANCH   7  10
HETATM   10  S   UNL     1     -12.688  10.836  70.949  1.00  0.00    -0.379 S  
HETATM   11  O   UNL     1     -13.157  11.663  72.043  1.00  0.00    -0.478 OA 
HETATM   12  O   UNL     1     -13.559   9.847  70.349  1.00  0.00     0.016 OA 
BRANCH  10  13
HETATM   13  N   UNL     1     -11.302  10.012  71.427  1.00  0.00    -0.284 N  
HETATM   14  H   UNL     1     -10.525  10.487  71.885  1.00  0.00     0.000 HD 
BRANCH  13  15
HETATM   15  C   UNL     1     -11.273   8.632  71.161  1.00  0.00    -0.272 A  
HETATM   16  C   UNL     1     -11.732   7.692  72.068  1.00  0.00    -0.340 A  
HETATM   17  C   UNL     1     -11.697   6.354  71.687  1.00  0.00    -0.367 A  
HETATM   18  C   UNL     1     -11.181   6.017  70.440  1.00  0.00    -0.380 A  
HETATM   19  C   UNL     1     -10.726   7.038  69.618  1.00  0.00    -0.241 A  
HETATM   20  N   UNL     1     -10.770   8.348  69.950  1.00  0.00    -0.233 NA 
ENDBRANCH  13  15
ENDBRANCH  10  13
ENDBRANCH   7  10
TORSDOF 3
ENDMDL
MODEL       93
REMARK 921   NORMALIZED FREE ENERGY PREDICTED BY IDOCK:   -4.61 KCAL/MOL
REMARK 922        TOTAL FREE ENERGY PREDICTED BY IDOCK:   -5.63 KCAL/MOL
REMARK 923 INTER-LIGAND FREE ENERGY PREDICTED BY IDOCK:   -5.34 KCAL/MOL
REMARK 924 INTRA-LIGAND FREE ENERGY PREDICTED BY IDOCK:   -0.30 KCAL/MOL
REMARK 927      BINDING AFFINITY PREDICTED BY RF-SCORE:    0.00 PKD
ROOT
HETATM    1  N   UNL     1     -14.395   9.044  73.036  1.00  0.00    -1.139 NA 
HETATM    2  H2  UNL     1     -14.174   8.316  73.715  1.00  0.00     0.000 HD 
HETATM    3  C   UNL     1     -13.355   9.106  72.103  1.00  0.00    -0.463 A  
HETATM    4  H1  UNL     1     -14.679   9.881  73.544  1.00  0.00     0.000 HD 
HETATM    5  C   UNL     1     -12.965   7.957  71.406  1.00  0.00    -0.301 A  
HETATM    6  C   UNL     1     -11.993   8.022  70.404  1.00  0.00     0.161 A  
HETATM    7  C   UNL     1     -11.441   9.259  70.053  1.00  0.00    -0.049 A  
HETATM    8  C   UNL     1     -12.841  10.343  71.698  1.00  0.00    -0.579 A  
HETATM    9  C   UNL     1     -11.865  10.423  70.696  1.00  0.00    -0.445 A  
ENDROOT
BRANCH   7  10
HETATM   10  S   UNL     1     -10.089   9.322  68.891  1.00  0.00    -0.202 S  
HETATM   11  O   UNL     1      -9.654  10.700  68.785  1.00  0.00    -0.171 OA 
HETATM   12  O   UNL     1      -9.158   8.284  69.283  1.00  0.00    -0.150 OA 
BRANCH  10  13
HETATM   13  N   UNL     1     -10.746   8.831  67.423  1.00  0.00    -0.442 N  
HETATM   14  H   UNL     1     -11.420   9.405  66.916  1.00  0.00     0.000 HD 
BRANCH  13  15
HETATM   15  C   UNL     1     -10.318   7.586  66.931  1.00  0.00    -0.309 A  
HETATM   16  C   UNL     1     -11.017   6.414  67.167  1.00  0.00    -0.476 A  
HETATM   17  C   UNL     1     -10.527   5.243  66.597  1.00  0.00    -0.345 A  
HETATM   18  C   UNL     1      -9.355   5.290  65.851  1.00  0.00    -0.165 A  
HETATM   19  C   UNL     1      -8.722   6.514  65.696  1.00  0.00    -0.091 A  
HETATM   20  N   UNL     1      -9.186   7.673  66.216  1.00  0.00    -0.173 NA 
ENDBRANCH  13  15
ENDBRANCH  10  13
ENDBRANCH   7  10
TORSDOF 3
ENDMDL
MODEL       94
REMARK 921   NORMALIZED FREE ENERGY PREDICTED BY IDOCK:   -4.60 KCAL/MOL
REMARK 922        TOTAL FREE ENERGY PREDICTED BY IDOCK:   -5.62 KCAL/MOL
REMARK 923 INTER-LIGAND FREE ENERGY PREDICTED BY IDOCK:   -5.39 KCAL/MOL
REMARK 924 INTRA-LIGAND FREE ENERGY PREDICTED BY IDOCK:   -0.24 KCAL/MOL
REMARK 927      BINDING AFFINITY PREDICTED BY RF-SCORE:    0.00 PKD
ROOT
HETATM    1  N   UNL     1      -9.822  12.670  63.720  1.00  0.00    -0.679 NA 
HETATM    2  H2  UNL     1     -10.055  12.330  62.786  1.00  0.00     0.000 HD 
HETATM    3  C   UNL     1      -9.939  11.604  64.618  1.00  0.00    -0.253 A  
HETATM    4  H1  UNL     1     -10.334  13.536  63.882  1.00  0.00     0.000 HD 
HETATM    5  C   UNL     1      -9.237  10.415  64.394  1.00  0.00    -0.291 A  
HETATM    6  C   UNL     1      -9.270   9.376  65.330  1.00  0.00    -0.305 A  
HETATM    7  C   UNL     1      -9.967   9.548  66.531  1.00  0.00    -0.261 A  
HETATM    8  C   UNL     1     -10.579  11.784  65.850  1.00  0.00    -0.314 A  
HETATM    9  C   UNL     1     -10.621  10.752  66.796  1.00  0.00    -0.307 A  
ENDROOT
BRANCH   7  10
HETATM   10  S   UNL     1     -10.143   8.170  67.650  1.00  0.00    -0.225 S  
HETATM   11  O   UNL     1     -10.825   7.104  66.944  1.00  0.00    -0.352 OA 
HETATM   12  O   UNL     1      -8.839   7.946  68.240  1.00  0.00    -0.130 OA 
BRANCH  10  13
HETATM   13  N   UNL     1     -11.128   8.734  68.892  1.00  0.00    -0.426 N  
HETATM   14  H   UNL     1     -11.814   9.473  68.740  1.00  0.00     0.000 HD 
BRANCH  13  15
HETATM   15  C   UNL     1     -10.954   8.132  70.150  1.00  0.00    -0.223 A  
HETATM   16  C   UNL     1     -10.546   8.846  71.264  1.00  0.00    -0.351 A  
HETATM   17  C   UNL     1     -10.448   8.160  72.471  1.00  0.00    -0.409 A  
HETATM   18  C   UNL     1     -10.728   6.798  72.503  1.00  0.00    -0.261 A  
HETATM   19  C   UNL     1     -11.106   6.177  71.322  1.00  0.00    -0.291 A  
HETATM   20  N   UNL     1     -11.235   6.820  70.140  1.00  0.00    -0.310 NA 
ENDBRANCH  13  15
ENDBRANCH  10  13
ENDBRANCH   7  10
TORSDOF 3
ENDMDL
MODEL       95
REMARK 921   NORMALIZED FREE ENERGY PREDICTED BY IDOCK:   -4.59 KCAL/MOL
REMARK 922        TOTAL FREE ENERGY PREDICTED BY IDOCK:   -5.61 KCAL/MOL
REMARK 923 INTER-LIGAND FREE ENERGY PREDICTED BY IDOCK:   -5.51 KCAL/MOL
REMARK 924 INTRA-LIGAND FREE ENERGY PREDICTED BY IDOCK:   -0.11 KCAL/MOL
REMARK 927      BINDING AFFINITY PREDICTED BY RF-SCORE:    0.00 PKD
ROOT
HETATM    1  N   UNL     1     -12.057  16.025  63.730  1.00  0.00    -1.255 NA 
HETATM    2  H2  UNL     1     -12.906  16.450  64.102  1.00  0.00     0.000 HD 
HETATM    3  C   UNL     1     -11.698  14.957  64.559  1.00  0.00    -0.382 A  
HETATM    4  H1  UNL     1     -11.387  16.767  63.530  1.00  0.00     0.000 HD 
HETATM    5  C   UNL     1     -12.617  13.939  64.833  1.00  0.00    -0.380 A  
HETATM    6  C   UNL     1     -12.244  12.820  65.583  1.00  0.00    -0.503 A  
HETATM    7  C   UNL     1     -10.920  12.687  66.019  1.00  0.00    -0.282 A  
HETATM    8  C   UNL     1     -10.364  14.781  64.947  1.00  0.00    -0.365 A  
HETATM    9  C   UNL     1      -9.977  13.665  65.700  1.00  0.00    -0.261 A  
ENDROOT
BRANCH   7  10
HETATM   10  S   UNL     1     -10.483  11.344  67.109  1.00  0.00    -0.236 S  
HETATM   11  O   UNL     1      -9.189  11.643  67.689  1.00  0.00    -0.170 OA 
HETATM   12  O   UNL     1     -11.633  11.108  67.956  1.00  0.00    -0.431 OA 
BRANCH  10  13
HETATM   13  N   UNL     1     -10.350   9.995  66.113  1.00  0.00    -0.196 N  
HETATM   14  H   UNL     1     -10.577  10.035  65.120  1.00  0.00     0.000 HD 
BRANCH  13  15
HETATM   15  C   UNL     1      -9.908   8.809  66.725  1.00  0.00    -0.247 A  
HETATM   16  C   UNL     1      -8.584   8.604  67.075  1.00  0.00    -0.120 A  
HETATM   17  C   UNL     1      -8.262   7.411  67.716  1.00  0.00    -0.119 A  
HETATM   18  C   UNL     1      -9.263   6.472  67.946  1.00  0.00    -0.110 A  
HETATM   19  C   UNL     1     -10.552   6.771  67.532  1.00  0.00    -0.279 A  
HETATM   20  N   UNL     1     -10.901   7.931  66.932  1.00  0.00    -0.173 NA 
ENDBRANCH  13  15
ENDBRANCH  10  13
ENDBRANCH   7  10
TORSDOF 3
ENDMDL
MODEL       96
REMARK 921   NORMALIZED FREE ENERGY PREDICTED BY IDOCK:   -4.59 KCAL/MOL
REMARK 922        TOTAL FREE ENERGY PREDICTED BY IDOCK:   -5.61 KCAL/MOL
REMARK 923 INTER-LIGAND FREE ENERGY PREDICTED BY IDOCK:   -5.51 KCAL/MOL
REMARK 924 INTRA-LIGAND FREE ENERGY PREDICTED BY IDOCK:   -0.10 KCAL/MOL
REMARK 927      BINDING AFFINITY PREDICTED BY RF-SCORE:    0.00 PKD
ROOT
HETATM    1  N   UNL     1      -7.486   7.615  67.902  1.00  0.00    -0.105 NA 
HETATM    2  H2  UNL     1      -6.994   7.910  67.058  1.00  0.00     0.000 HD 
HETATM    3  C   UNL     1      -8.512   8.531  68.158  1.00  0.00    -0.134 A  
HETATM    4  H1  UNL     1      -6.793   7.407  68.621  1.00  0.00     0.000 HD 
HETATM    5  C   UNL     1      -9.462   8.816  67.171  1.00  0.00    -0.208 A  
HETATM    6  C   UNL     1     -10.546   9.657  67.442  1.00  0.00    -0.333 A  
HETATM    7  C   UNL     1     -10.715  10.176  68.731  1.00  0.00    -0.220 A  
HETATM    8  C   UNL     1      -8.729   9.005  69.456  1.00  0.00    -0.144 A  
HETATM    9  C   UNL     1      -9.810   9.850  69.741  1.00  0.00    -0.268 A  
ENDROOT
BRANCH   7  10
HETATM   10  S   UNL     1     -12.002  11.373  69.035  1.00  0.00    -0.262 S  
HETATM   11  O   UNL     1     -12.164  12.170  67.835  1.00  0.00    -0.438 OA 
HETATM   12  O   UNL     1     -13.122  10.644  69.592  1.00  0.00    -0.052 OA 
BRANCH  10  13
HETATM   13  N   UNL     1     -11.414  12.347  70.274  1.00  0.00    -0.486 N  
HETATM   14  H   UNL     1     -10.455  12.265  70.614  1.00  0.00     0.000 HD 
BRANCH  13  15
HETATM   15  C   UNL     1     -12.314  13.279  70.817  1.00  0.00    -0.344 A  
HETATM   16  C   UNL     1     -12.366  14.595  70.392  1.00  0.00    -0.399 A  
HETATM   17  C   UNL     1     -13.325  15.424  70.967  1.00  0.00    -0.545 A  
HETATM   18  C   UNL     1     -14.161  14.911  71.953  1.00  0.00    -0.640 A  
HETATM   19  C   UNL     1     -14.008  13.582  72.320  1.00  0.00    -0.539 A  
HETATM   20  N   UNL     1     -13.104  12.747  71.763  1.00  0.00    -0.395 NA 
ENDBRANCH  13  15
ENDBRANCH  10  13
ENDBRANCH   7  10
TORSDOF 3
ENDMDL
MODEL       97
REMARK 921   NORMALIZED FREE ENERGY PREDICTED BY IDOCK:   -4.58 KCAL/MOL
REMARK 922        TOTAL FREE ENERGY PREDICTED BY IDOCK:   -5.60 KCAL/MOL
REMARK 923 INTER-LIGAND FREE ENERGY PREDICTED BY IDOCK:   -5.53 KCAL/MOL
REMARK 924 INTRA-LIGAND FREE ENERGY PREDICTED BY IDOCK:   -0.07 KCAL/MOL
REMARK 927      BINDING AFFINITY PREDICTED BY RF-SCORE:    0.00 PKD
ROOT
HETATM    1  N   UNL     1      -8.130   8.325  62.927  1.00  0.00    -0.197 NA 
HETATM    2  H2  UNL     1      -7.369   8.697  62.358  1.00  0.00     0.000 HD 
HETATM    3  C   UNL     1      -8.808   9.398  63.512  1.00  0.00    -0.172 A  
HETATM    4  H1  UNL     1      -7.758   7.574  63.508  1.00  0.00     0.000 HD 
HETATM    5  C   UNL     1      -9.318  10.428  62.715  1.00  0.00    -0.341 A  
HETATM    6  C   UNL     1     -10.078  11.459  63.274  1.00  0.00    -0.424 A  
HETATM    7  C   UNL     1     -10.382  11.433  64.640  1.00  0.00    -0.307 A  
HETATM    8  C   UNL     1      -9.173   9.352  64.863  1.00  0.00    -0.246 A  
HETATM    9  C   UNL     1      -9.933  10.379  65.437  1.00  0.00    -0.362 A  
ENDROOT
BRANCH   7  10
HETATM   10  S   UNL     1     -11.213  12.826  65.383  1.00  0.00    -0.302 S  
HETATM   11  O   UNL     1     -11.322  13.868  64.382  1.00  0.00    -0.373 OA 
HETATM   12  O   UNL     1     -12.396  12.303  66.034  1.00  0.00    -0.609 OA 
BRANCH  10  13
HETATM   13  N   UNL     1     -10.190  13.342  66.615  1.00  0.00    -0.269 N  
HETATM   14  H   UNL     1      -9.178  13.236  66.553  1.00  0.00     0.000 HD 
BRANCH  13  15
HETATM   15  C   UNL     1     -10.806  13.927  67.735  1.00  0.00    -0.250 A  
HETATM   16  C   UNL     1     -10.979  15.296  67.856  1.00  0.00    -0.306 A  
HETATM   17  C   UNL     1     -11.641  15.767  68.986  1.00  0.00    -0.406 A  
HETATM   18  C   UNL     1     -12.068  14.859  69.949  1.00  0.00    -0.379 A  
HETATM   19  C   UNL     1     -11.823  13.511  69.738  1.00  0.00    -0.329 A  
HETATM   20  N   UNL     1     -11.206  13.021  68.640  1.00  0.00    -0.260 NA 
ENDBRANCH  13  15
ENDBRANCH  10  13
ENDBRANCH   7  10
TORSDOF 3
ENDMDL
MODEL       98
REMARK 921   NORMALIZED FREE ENERGY PREDICTED BY IDOCK:   -4.58 KCAL/MOL
REMARK 922        TOTAL FREE ENERGY PREDICTED BY IDOCK:   -5.60 KCAL/MOL
REMARK 923 INTER-LIGAND FREE ENERGY PREDICTED BY IDOCK:   -5.30 KCAL/MOL
REMARK 924 INTRA-LIGAND FREE ENERGY PREDICTED BY IDOCK:   -0.30 KCAL/MOL
REMARK 927      BINDING AFFINITY PREDICTED BY RF-SCORE:    0.00 PKD
ROOT
HETATM    1  N   UNL     1      -9.981  10.104  66.336  1.00  0.00    -0.223 NA 
HETATM    2  H2  UNL     1      -9.147  10.039  65.752  1.00  0.00     0.000 HD 
HETATM    3  C   UNL     1     -10.101  11.422  66.787  1.00  0.00    -0.216 A  
HETATM    4  H1  UNL     1      -9.966   9.332  67.003  1.00  0.00     0.000 HD 
HETATM    5  C   UNL     1     -10.120  12.480  65.872  1.00  0.00    -0.270 A  
HETATM    6  C   UNL     1     -10.333  13.794  66.299  1.00  0.00    -0.294 A  
HETATM    7  C   UNL     1     -10.586  14.050  67.652  1.00  0.00    -0.249 A  
HETATM    8  C   UNL     1     -10.418  11.686  68.125  1.00  0.00    -0.217 A  
HETATM    9  C   UNL     1     -10.632  12.997  68.567  1.00  0.00    -0.274 A  
ENDROOT
BRANCH   7  10
HETATM   10  S   UNL     1     -10.698  15.736  68.222  1.00  0.00    -0.294 S  
HETATM   11  O   UNL     1     -12.021  15.933  68.779  1.00  0.00    -0.368 OA 
HETATM   12  O   UNL     1      -9.517  15.981  69.024  1.00  0.00    -0.217 OA 
BRANCH  10  13
HETATM   13  N   UNL     1     -10.529  16.681  66.840  1.00  0.00    -0.295 N  
HETATM   14  H   UNL     1     -10.844  16.357  65.926  1.00  0.00     0.000 HD 
BRANCH  13  15
HETATM   15  C   UNL     1      -9.930  17.940  67.014  1.00  0.00    -0.324 A  
HETATM   16  C   UNL     1     -10.591  19.001  67.609  1.00  0.00    -0.526 A  
HETATM   17  C   UNL     1      -9.890  20.192  67.771  1.00  0.00    -0.547 A  
HETATM   18  C   UNL     1      -8.582  20.278  67.306  1.00  0.00    -0.425 A  
HETATM   19  C   UNL     1      -8.023  19.160  66.704  1.00  0.00    -0.272 A  
HETATM   20  N   UNL     1      -8.669  17.982  66.555  1.00  0.00    -0.290 NA 
ENDBRANCH  13  15
ENDBRANCH  10  13
ENDBRANCH   7  10
TORSDOF 3
ENDMDL
MODEL       99
REMARK 921   NORMALIZED FREE ENERGY PREDICTED BY IDOCK:   -4.54 KCAL/MOL
REMARK 922        TOTAL FREE ENERGY PREDICTED BY IDOCK:   -5.55 KCAL/MOL
REMARK 923 INTER-LIGAND FREE ENERGY PREDICTED BY IDOCK:   -5.36 KCAL/MOL
REMARK 924 INTRA-LIGAND FREE ENERGY PREDICTED BY IDOCK:   -0.19 KCAL/MOL
REMARK 927      BINDING AFFINITY PREDICTED BY RF-SCORE:    0.00 PKD
ROOT
HETATM    1  N   UNL     1     -11.440  12.673  63.004  1.00  0.00    -0.738 NA 
HETATM    2  H2  UNL     1     -11.217  13.667  63.039  1.00  0.00     0.000 HD 
HETATM    3  C   UNL     1     -10.965  12.073  64.175  1.00  0.00    -0.360 A  
HETATM    4  H1  UNL     1     -11.159  12.312  62.092  1.00  0.00     0.000 HD 
HETATM    5  C   UNL     1     -11.351  12.567  65.425  1.00  0.00    -0.363 A  
HETATM    6  C   UNL     1     -10.961  11.922  66.603  1.00  0.00    -0.336 A  
HETATM    7  C   UNL     1     -10.222  10.736  66.531  1.00  0.00    -0.235 A  
HETATM    8  C   UNL     1     -10.281  10.853  64.117  1.00  0.00    -0.424 A  
HETATM    9  C   UNL     1      -9.882  10.197  65.289  1.00  0.00    -0.388 A  
ENDROOT
BRANCH   7  10
HETATM   10  S   UNL     1      -9.588  10.002  68.027  1.00  0.00    -0.139 S  
HETATM   11  O   UNL     1      -8.427   9.207  67.679  1.00  0.00    -0.116 OA 
HETATM   12  O   UNL     1      -9.484  11.069  69.000  1.00  0.00    -0.184 OA 
BRANCH  10  13
HETATM   13  N   UNL     1     -10.813   8.988  68.574  1.00  0.00    -0.437 N  
HETATM   14  H   UNL     1     -11.581   8.698  67.969  1.00  0.00     0.000 HD 
BRANCH  13  15
HETATM   15  C   UNL     1     -10.722   8.562  69.910  1.00  0.00    -0.224 A  
HETATM   16  C   UNL     1     -11.595   9.001  70.891  1.00  0.00    -0.344 A  
HETATM   17  C   UNL     1     -11.443   8.482  72.173  1.00  0.00    -0.446 A  
HETATM   18  C   UNL     1     -10.413   7.580  72.422  1.00  0.00    -0.291 A  
HETATM   19  C   UNL     1      -9.581   7.225  71.371  1.00  0.00    -0.160 A  
HETATM   20  N   UNL     1      -9.720   7.692  70.110  1.00  0.00    -0.179 NA 
ENDBRANCH  13  15
ENDBRANCH  10  13
ENDBRANCH   7  10
TORSDOF 3
ENDMDL
MODEL      100
REMARK 921   NORMALIZED FREE ENERGY PREDICTED BY IDOCK:   -4.52 KCAL/MOL
REMARK 922        TOTAL FREE ENERGY PREDICTED BY IDOCK:   -5.53 KCAL/MOL
REMARK 923 INTER-LIGAND FREE ENERGY PREDICTED BY IDOCK:   -5.25 KCAL/MOL
REMARK 924 INTRA-LIGAND FREE ENERGY PREDICTED BY IDOCK:   -0.28 KCAL/MOL
REMARK 927      BINDING AFFINITY PREDICTED BY RF-SCORE:    0.00 PKD
ROOT
HETATM    1  N   UNL     1     -10.133   4.579  66.561  1.00  0.00    -0.239 NA 
HETATM    2  H2  UNL     1     -11.006   4.059  66.651  1.00  0.00     0.000 HD 
HETATM    3  C   UNL     1     -10.264   5.784  67.259  1.00  0.00    -0.205 A  
HETATM    4  H1  UNL     1      -9.861   4.583  65.578  1.00  0.00     0.000 HD 
HETATM    5  C   UNL     1     -10.637   5.779  68.607  1.00  0.00    -0.305 A  
HETATM    6  C   UNL     1     -10.681   6.967  69.343  1.00  0.00    -0.259 A  
HETATM    7  C   UNL     1     -10.294   8.170  68.741  1.00  0.00    -0.202 A  
HETATM    8  C   UNL     1      -9.820   6.983  66.689  1.00  0.00    -0.223 A  
HETATM    9  C   UNL     1      -9.860   8.181  67.414  1.00  0.00    -0.242 A  
ENDROOT
BRANCH   7  10
HETATM   10  S   UNL     1     -10.503   9.704  69.626  1.00  0.00    -0.245 S  
HETATM   11  O   UNL     1     -10.751   9.387  71.018  1.00  0.00    -0.284 OA 
HETATM   12  O   UNL     1      -9.392  10.553  69.251  1.00  0.00    -0.199 OA 
BRANCH  10  13
HETATM   13  N   UNL     1     -11.877  10.412  68.963  1.00  0.00    -0.525 N  
HETATM   14  H   UNL     1     -12.653   9.852  68.609  1.00  0.00     0.000 HD 
BRANCH  13  15
HETATM   15  C   UNL     1     -11.899  11.816  68.923  1.00  0.00    -0.320 A  
HETATM   16  C   UNL     1     -11.982  12.591  70.067  1.00  0.00    -0.372 A  
HETATM   17  C   UNL     1     -11.953  13.974  69.917  1.00  0.00    -0.399 A  
HETATM   18  C   UNL     1     -11.874  14.516  68.638  1.00  0.00    -0.355 A  
HETATM   19  C   UNL     1     -11.819  13.647  67.558  1.00  0.00    -0.381 A  
HETATM   20  N   UNL     1     -11.820  12.301  67.674  1.00  0.00    -0.496 NA 
ENDBRANCH  13  15
ENDBRANCH  10  13
ENDBRANCH   7  10
TORSDOF 3
ENDMDL
MODEL      101
REMARK 921   NORMALIZED FREE ENERGY PREDICTED BY IDOCK:   -4.52 KCAL/MOL
REMARK 922        TOTAL FREE ENERGY PREDICTED BY IDOCK:   -5.52 KCAL/MOL
REMARK 923 INTER-LIGAND FREE ENERGY PREDICTED BY IDOCK:   -5.38 KCAL/MOL
REMARK 924 INTRA-LIGAND FREE ENERGY PREDICTED BY IDOCK:   -0.14 KCAL/MOL
REMARK 927      BINDING AFFINITY PREDICTED BY RF-SCORE:    0.00 PKD
ROOT
HETATM    1  N   UNL     1     -12.414  14.057  63.082  1.00  0.00    -1.070 NA 
HETATM    2  H2  UNL     1     -12.690  13.407  62.346  1.00  0.00     0.000 HD 
HETATM    3  C   UNL     1     -12.142  13.323  64.241  1.00  0.00    -0.416 A  
HETATM    4  H1  UNL     1     -13.090  14.820  63.105  1.00  0.00     0.000 HD 
HETATM    5  C   UNL     1     -11.215  12.276  64.208  1.00  0.00    -0.409 A  
HETATM    6  C   UNL     1     -10.862  11.594  65.377  1.00  0.00    -0.336 A  
HETATM    7  C   UNL     1     -11.400  11.998  66.604  1.00  0.00    -0.340 A  
HETATM    8  C   UNL     1     -12.622  13.756  65.482  1.00  0.00    -0.551 A  
HETATM    9  C   UNL     1     -12.279  13.081  66.660  1.00  0.00    -0.285 A  
ENDROOT
BRANCH   7  10
HETATM   10  S   UNL     1     -11.078  11.031  68.067  1.00  0.00    -0.310 S  
HETATM   11  O   UNL     1     -12.172  11.244  68.994  1.00  0.00    -0.444 OA 
HETATM   12  O   UNL     1     -10.744   9.696  67.616  1.00  0.00    -0.267 OA 
BRANCH  10  13
HETATM   13  N   UNL     1      -9.665  11.672  68.717  1.00  0.00    -0.369 N  
HETATM   14  H   UNL     1      -9.616  12.634  69.052  1.00  0.00     0.000 HD 
BRANCH  13  15
HETATM   15  C   UNL     1      -8.557  10.811  68.774  1.00  0.00    -0.156 A  
HETATM   16  C   UNL     1      -8.169  10.176  69.942  1.00  0.00    -0.128 A  
HETATM   17  C   UNL     1      -7.082   9.310  69.878  1.00  0.00    -0.064 A  
HETATM   18  C   UNL     1      -6.418   9.143  68.667  1.00  0.00    -0.053 A  
HETATM   19  C   UNL     1      -6.877   9.846  67.563  1.00  0.00    -0.081 A  
HETATM   20  N   UNL     1      -7.945  10.674  67.588  1.00  0.00    -0.106 NA 
ENDBRANCH  13  15
ENDBRANCH  10  13
ENDBRANCH   7  10
TORSDOF 3
ENDMDL
MODEL      102
REMARK 921   NORMALIZED FREE ENERGY PREDICTED BY IDOCK:   -4.50 KCAL/MOL
REMARK 922        TOTAL FREE ENERGY PREDICTED BY IDOCK:   -5.51 KCAL/MOL
REMARK 923 INTER-LIGAND FREE ENERGY PREDICTED BY IDOCK:   -5.60 KCAL/MOL
REMARK 924 INTRA-LIGAND FREE ENERGY PREDICTED BY IDOCK:    0.09 KCAL/MOL
REMARK 927      BINDING AFFINITY PREDICTED BY RF-SCORE:    0.00 PKD
ROOT
HETATM    1  N   UNL     1     -10.377  10.989  62.607  1.00  0.00    -0.733 NA 
HETATM    2  H2  UNL     1     -10.163  11.900  62.201  1.00  0.00     0.000 HD 
HETATM    3  C   UNL     1     -10.494  11.140  63.992  1.00  0.00    -0.383 A  
HETATM    4  H1  UNL     1      -9.728  10.305  62.219  1.00  0.00     0.000 HD 
HETATM    5  C   UNL     1     -11.384  12.079  64.525  1.00  0.00    -0.393 A  
HETATM    6  C   UNL     1     -11.582  12.177  65.905  1.00  0.00    -0.425 A  
HETATM    7  C   UNL     1     -10.925  11.289  66.764  1.00  0.00    -0.281 A  
HETATM    8  C   UNL     1      -9.893  10.219  64.858  1.00  0.00    -0.404 A  
HETATM    9  C   UNL     1     -10.081  10.307  66.243  1.00  0.00    -0.300 A  
ENDROOT
BRANCH   7  10
HETATM   10  S   UNL     1     -11.050  11.516  68.528  1.00  0.00    -0.261 S  
HETATM   11  O   UNL     1      -9.822  11.037  69.129  1.00  0.00    -0.183 OA 
HETATM   12  O   UNL     1     -11.490  12.880  68.740  1.00  0.00    -0.260 OA 
BRANCH  10  13
HETATM   13  N   UNL     1     -12.326  10.532  69.010  1.00  0.00    -0.408 N  
HETATM   14  H   UNL     1     -13.216  10.523  68.511  1.00  0.00     0.000 HD 
BRANCH  13  15
HETATM   15  C   UNL     1     -12.101   9.723  70.137  1.00  0.00     0.046 A  
HETATM   16  C   UNL     1     -11.170   8.698  70.140  1.00  0.00    -0.152 A  
HETATM   17  C   UNL     1     -10.996   7.987  71.324  1.00  0.00    -0.269 A  
HETATM   18  C   UNL     1     -11.775   8.309  72.430  1.00  0.00    -0.463 A  
HETATM   19  C   UNL     1     -12.694   9.340  72.310  1.00  0.00    -0.363 A  
HETATM   20  N   UNL     1     -12.869  10.065  71.183  1.00  0.00    -0.364 NA 
ENDBRANCH  13  15
ENDBRANCH  10  13
ENDBRANCH   7  10
TORSDOF 3
ENDMDL
MODEL      103
REMARK 921   NORMALIZED FREE ENERGY PREDICTED BY IDOCK:   -4.49 KCAL/MOL
REMARK 922        TOTAL FREE ENERGY PREDICTED BY IDOCK:   -5.50 KCAL/MOL
REMARK 923 INTER-LIGAND FREE ENERGY PREDICTED BY IDOCK:   -5.40 KCAL/MOL
REMARK 924 INTRA-LIGAND FREE ENERGY PREDICTED BY IDOCK:   -0.10 KCAL/MOL
REMARK 927      BINDING AFFINITY PREDICTED BY RF-SCORE:    0.00 PKD
ROOT
HETATM    1  N   UNL     1     -11.726  13.484  63.579  1.00  0.00    -0.692 NA 
HETATM    2  H2  UNL     1     -10.825  13.263  63.155  1.00  0.00     0.000 HD 
HETATM    3  C   UNL     1     -11.495  14.059  64.832  1.00  0.00    -0.358 A  
HETATM    4  H1  UNL     1     -12.330  12.667  63.493  1.00  0.00     0.000 HD 
HETATM    5  C   UNL     1     -10.666  15.180  64.949  1.00  0.00    -0.421 A  
HETATM    6  C   UNL     1     -10.499  15.823  66.180  1.00  0.00    -0.326 A  
HETATM    7  C   UNL     1     -11.212  15.375  67.298  1.00  0.00    -0.270 A  
HETATM    8  C   UNL     1     -12.249  13.663  65.943  1.00  0.00    -0.502 A  
HETATM    9  C   UNL     1     -12.090  14.296  67.182  1.00  0.00    -0.412 A  
ENDROOT
BRANCH   7  10
HETATM   10  S   UNL     1     -10.880  16.089  68.898  1.00  0.00    -0.308 S  
HETATM   11  O   UNL     1     -10.341  17.419  68.691  1.00  0.00    -0.332 OA 
HETATM   12  O   UNL     1     -12.073  15.895  69.695  1.00  0.00    -0.327 OA 
BRANCH  10  13
HETATM   13  N   UNL     1      -9.696  15.109  69.580  1.00  0.00    -0.429 N  
HETATM   14  H   UNL     1      -9.903  14.471  70.349  1.00  0.00     0.000 HD 
BRANCH  13  15
HETATM   15  C   UNL     1      -8.405  15.216  69.034  1.00  0.00    -0.209 A  
HETATM   16  C   UNL     1      -7.628  16.352  69.183  1.00  0.00    -0.225 A  
HETATM   17  C   UNL     1      -6.347  16.336  68.640  1.00  0.00    -0.124 A  
HETATM   18  C   UNL     1      -5.916  15.207  67.951  1.00  0.00    -0.165 A  
HETATM   19  C   UNL     1      -6.785  14.132  67.842  1.00  0.00    -0.167 A  
HETATM   20  N   UNL     1      -8.025  14.108  68.381  1.00  0.00    -0.136 NA 
ENDBRANCH  13  15
ENDBRANCH  10  13
ENDBRANCH   7  10
TORSDOF 3
ENDMDL
MODEL      104
REMARK 921   NORMALIZED FREE ENERGY PREDICTED BY IDOCK:   -4.49 KCAL/MOL
REMARK 922        TOTAL FREE ENERGY PREDICTED BY IDOCK:   -5.49 KCAL/MOL
REMARK 923 INTER-LIGAND FREE ENERGY PREDICTED BY IDOCK:   -5.20 KCAL/MOL
REMARK 924 INTRA-LIGAND FREE ENERGY PREDICTED BY IDOCK:   -0.29 KCAL/MOL
REMARK 927      BINDING AFFINITY PREDICTED BY RF-SCORE:    0.00 PKD
ROOT
HETATM    1  N   UNL     1     -10.896  17.733  67.169  1.00  0.00    -0.202 NA 
HETATM    2  H2  UNL     1     -11.248  17.944  66.234  1.00  0.00     0.000 HD 
HETATM    3  C   UNL     1     -10.525  16.385  67.205  1.00  0.00    -0.303 A  
HETATM    4  H1  UNL     1     -11.558  18.102  67.851  1.00  0.00     0.000 HD 
HETATM    5  C   UNL     1      -9.618  15.879  66.269  1.00  0.00    -0.345 A  
HETATM    6  C   UNL     1      -9.165  14.559  66.349  1.00  0.00    -0.264 A  
HETATM    7  C   UNL     1      -9.581  13.748  67.411  1.00  0.00    -0.229 A  
HETATM    8  C   UNL     1     -10.882  15.582  68.295  1.00  0.00    -0.292 A  
HETATM    9  C   UNL     1     -10.438  14.257  68.388  1.00  0.00    -0.249 A  
ENDROOT
BRANCH   7  10
HETATM   10  S   UNL     1      -9.134  12.021  67.426  1.00  0.00    -0.185 S  
HETATM   11  O   UNL     1      -8.056  11.830  66.477  1.00  0.00    -0.135 OA 
HETATM   12  O   UNL     1      -8.967  11.648  68.815  1.00  0.00    -0.122 OA 
BRANCH  10  13
HETATM   13  N   UNL     1     -10.503  11.207  66.884  1.00  0.00    -0.235 N  
HETATM   14  H   UNL     1     -10.933  10.458  67.427  1.00  0.00     0.000 HD 
BRANCH  13  15
HETATM   15  C   UNL     1     -11.022  11.615  65.643  1.00  0.00    -0.266 A  
HETATM   16  C   UNL     1     -10.384  11.341  64.446  1.00  0.00    -0.388 A  
HETATM   17  C   UNL     1     -11.007  11.752  63.271  1.00  0.00    -0.387 A  
HETATM   18  C   UNL     1     -12.214  12.440  63.349  1.00  0.00    -0.623 A  
HETATM   19  C   UNL     1     -12.754  12.681  64.603  1.00  0.00    -0.377 A  
HETATM   20  N   UNL     1     -12.186  12.273  65.759  1.00  0.00    -0.603 NA 
ENDBRANCH  13  15
ENDBRANCH  10  13
ENDBRANCH   7  10
TORSDOF 3
ENDMDL
MODEL      105
REMARK 921   NORMALIZED FREE ENERGY PREDICTED BY IDOCK:   -4.47 KCAL/MOL
REMARK 922        TOTAL FREE ENERGY PREDICTED BY IDOCK:   -5.47 KCAL/MOL
REMARK 923 INTER-LIGAND FREE ENERGY PREDICTED BY IDOCK:   -5.50 KCAL/MOL
REMARK 924 INTRA-LIGAND FREE ENERGY PREDICTED BY IDOCK:    0.03 KCAL/MOL
REMARK 927      BINDING AFFINITY PREDICTED BY RF-SCORE:    0.00 PKD
ROOT
HETATM    1  N   UNL     1      -8.580   6.453  65.088  1.00  0.00    -0.327 NA 
HETATM    2  H2  UNL     1      -7.561   6.438  65.122  1.00  0.00     0.000 HD 
HETATM    3  C   UNL     1      -9.030   7.543  65.841  1.00  0.00    -0.089 A  
HETATM    4  H1  UNL     1      -8.922   5.514  65.290  1.00  0.00     0.000 HD 
HETATM    5  C   UNL     1      -8.561   8.831  65.564  1.00  0.00    -0.198 A  
HETATM    6  C   UNL     1      -9.071   9.941  66.243  1.00  0.00    -0.187 A  
HETATM    7  C   UNL     1     -10.103   9.771  67.173  1.00  0.00    -0.211 A  
HETATM    8  C   UNL     1     -10.104   7.395  66.726  1.00  0.00    -0.305 A  
HETATM    9  C   UNL     1     -10.624   8.499  67.415  1.00  0.00    -0.304 A  
ENDROOT
BRANCH   7  10
HETATM   10  S   UNL     1     -10.641  11.159  68.155  1.00  0.00    -0.208 S  
HETATM   11  O   UNL     1      -9.917  12.331  67.706  1.00  0.00    -0.191 OA 
HETATM   12  O   UNL     1     -12.089  11.138  68.144  1.00  0.00    -0.633 OA 
BRANCH  10  13
HETATM   13  N   UNL     1     -10.180  10.790  69.730  1.00  0.00    -0.448 N  
HETATM   14  H   UNL     1      -9.222  10.917  70.054  1.00  0.00     0.000 HD 
BRANCH  13  15
HETATM   15  C   UNL     1     -11.188  10.295  70.576  1.00  0.00    -0.330 A  
HETATM   16  C   UNL     1     -11.192   8.991  71.042  1.00  0.00    -0.361 A  
HETATM   17  C   UNL     1     -12.213   8.617  71.910  1.00  0.00    -0.419 A  
HETATM   18  C   UNL     1     -13.193   9.547  72.245  1.00  0.00    -0.507 A  
HETATM   19  C   UNL     1     -13.105  10.820  71.703  1.00  0.00    -0.446 A  
HETATM   20  N   UNL     1     -12.111  11.220  70.878  1.00  0.00    -0.336 NA 
ENDBRANCH  13  15
ENDBRANCH  10  13
ENDBRANCH   7  10
TORSDOF 3
ENDMDL
MODEL      106
REMARK 921   NORMALIZED FREE ENERGY PREDICTED BY IDOCK:   -4.46 KCAL/MOL
REMARK 922        TOTAL FREE ENERGY PREDICTED BY IDOCK:   -5.46 KCAL/MOL
REMARK 923 INTER-LIGAND FREE ENERGY PREDICTED BY IDOCK:   -5.19 KCAL/MOL
REMARK 924 INTRA-LIGAND FREE ENERGY PREDICTED BY IDOCK:   -0.27 KCAL/MOL
REMARK 927      BINDING AFFINITY PREDICTED BY RF-SCORE:    0.00 PKD
ROOT
HETATM    1  N   UNL     1      -9.631   6.853  65.973  1.00  0.00    -0.399 NA 
HETATM    2  H2  UNL     1      -8.752   6.433  65.669  1.00  0.00     0.000 HD 
HETATM    3  C   UNL     1      -9.746   6.682  67.356  1.00  0.00    -0.128 A  
HETATM    4  H1  UNL     1     -10.372   6.529  65.353  1.00  0.00     0.000 HD 
HETATM    5  C   UNL     1      -8.728   7.126  68.207  1.00  0.00    -0.128 A  
HETATM    6  C   UNL     1      -8.869   7.048  69.596  1.00  0.00    -0.141 A  
HETATM    7  C   UNL     1     -10.065   6.572  70.145  1.00  0.00    -0.174 A  
HETATM    8  C   UNL     1     -10.958   6.268  67.920  1.00  0.00    -0.421 A  
HETATM    9  C   UNL     1     -11.113   6.183  69.309  1.00  0.00    -0.463 A  
ENDROOT
BRANCH   7  10
HETATM   10  S   UNL     1     -10.186   6.320  71.907  1.00  0.00    -0.203 S  
HETATM   11  O   UNL     1     -11.419   5.607  72.173  1.00  0.00    -0.258 OA 
HETATM   12  O   UNL     1      -8.914   5.777  72.336  1.00  0.00    -0.140 OA 
BRANCH  10  13
HETATM   13  N   UNL     1     -10.283   7.865  72.566  1.00  0.00    -0.253 N  
HETATM   14  H   UNL     1      -9.683   8.159  73.337  1.00  0.00     0.000 HD 
BRANCH  13  15
HETATM   15  C   UNL     1     -11.236   8.728  71.999  1.00  0.00    -0.373 A  
HETATM   16  C   UNL     1     -12.585   8.643  72.297  1.00  0.00    -0.457 A  
HETATM   17  C   UNL     1     -13.437   9.576  71.712  1.00  0.00    -0.480 A  
HETATM   18  C   UNL     1     -12.910  10.522  70.840  1.00  0.00    -0.485 A  
HETATM   19  C   UNL     1     -11.545  10.503  70.593  1.00  0.00    -0.352 A  
HETATM   20  N   UNL     1     -10.689   9.627  71.165  1.00  0.00    -0.331 NA 
ENDBRANCH  13  15
ENDBRANCH  10  13
ENDBRANCH   7  10
TORSDOF 3
ENDMDL
MODEL      107
REMARK 921   NORMALIZED FREE ENERGY PREDICTED BY IDOCK:   -4.45 KCAL/MOL
REMARK 922        TOTAL FREE ENERGY PREDICTED BY IDOCK:   -5.45 KCAL/MOL
REMARK 923 INTER-LIGAND FREE ENERGY PREDICTED BY IDOCK:   -5.19 KCAL/MOL
REMARK 924 INTRA-LIGAND FREE ENERGY PREDICTED BY IDOCK:   -0.27 KCAL/MOL
REMARK 927      BINDING AFFINITY PREDICTED BY RF-SCORE:    0.00 PKD
ROOT
HETATM    1  N   UNL     1      -7.829  19.720  68.099  1.00  0.00    -0.314 NA 
HETATM    2  H2  UNL     1      -7.906  19.783  69.114  1.00  0.00     0.000 HD 
HETATM    3  C   UNL     1      -8.540  18.593  67.673  1.00  0.00    -0.272 A  
HETATM    4  H1  UNL     1      -6.849  19.835  67.843  1.00  0.00     0.000 HD 
HETATM    5  C   UNL     1      -9.885  18.435  68.024  1.00  0.00    -0.359 A  
HETATM    6  C   UNL     1     -10.634  17.363  67.529  1.00  0.00    -0.330 A  
HETATM    7  C   UNL     1     -10.050  16.467  66.627  1.00  0.00    -0.294 A  
HETATM    8  C   UNL     1      -7.989  17.726  66.722  1.00  0.00    -0.265 A  
HETATM    9  C   UNL     1      -8.727  16.647  66.220  1.00  0.00    -0.359 A  
ENDROOT
BRANCH   7  10
HETATM   10  S   UNL     1     -10.951  15.013  66.123  1.00  0.00    -0.326 S  
HETATM   11  O   UNL     1     -11.819  14.623  67.216  1.00  0.00    -0.392 OA 
HETATM   12  O   UNL     1     -11.500  15.299  64.814  1.00  0.00    -0.401 OA 
BRANCH  10  13
HETATM   13  N   UNL     1      -9.780  13.828  65.891  1.00  0.00    -0.459 N  
HETATM   14  H   UNL     1      -8.993  13.966  65.258  1.00  0.00     0.000 HD 
BRANCH  13  15
HETATM   15  C   UNL     1      -9.947  12.635  66.616  1.00  0.00    -0.242 A  
HETATM   16  C   UNL     1     -10.812  11.634  66.210  1.00  0.00    -0.333 A  
HETATM   17  C   UNL     1     -10.868  10.475  66.979  1.00  0.00    -0.288 A  
HETATM   18  C   UNL     1     -10.086  10.384  68.126  1.00  0.00    -0.179 A  
HETATM   19  C   UNL     1      -9.271  11.457  68.453  1.00  0.00    -0.183 A  
HETATM   20  N   UNL     1      -9.176  12.584  67.714  1.00  0.00    -0.190 NA 
ENDBRANCH  13  15
ENDBRANCH  10  13
ENDBRANCH   7  10
TORSDOF 3
ENDMDL
MODEL      108
REMARK 921   NORMALIZED FREE ENERGY PREDICTED BY IDOCK:   -4.45 KCAL/MOL
REMARK 922        TOTAL FREE ENERGY PREDICTED BY IDOCK:   -5.45 KCAL/MOL
REMARK 923 INTER-LIGAND FREE ENERGY PREDICTED BY IDOCK:   -5.26 KCAL/MOL
REMARK 924 INTRA-LIGAND FREE ENERGY PREDICTED BY IDOCK:   -0.19 KCAL/MOL
REMARK 927      BINDING AFFINITY PREDICTED BY RF-SCORE:    0.00 PKD
ROOT
HETATM    1  N   UNL     1     -10.506  17.187  66.972  1.00  0.00    -0.309 NA 
HETATM    2  H2  UNL     1     -10.838  17.217  66.008  1.00  0.00     0.000 HD 
HETATM    3  C   UNL     1     -10.864  15.953  67.524  1.00  0.00    -0.305 A  
HETATM    4  H1  UNL     1     -10.780  18.055  67.433  1.00  0.00     0.000 HD 
HETATM    5  C   UNL     1     -10.488  14.764  66.891  1.00  0.00    -0.277 A  
HETATM    6  C   UNL     1     -10.757  13.524  67.478  1.00  0.00    -0.266 A  
HETATM    7  C   UNL     1     -11.360  13.470  68.740  1.00  0.00    -0.290 A  
HETATM    8  C   UNL     1     -11.408  15.886  68.812  1.00  0.00    -0.378 A  
HETATM    9  C   UNL     1     -11.684  14.650  69.411  1.00  0.00    -0.355 A  
ENDROOT
BRANCH   7  10
HETATM   10  S   UNL     1     -11.848  11.894  69.416  1.00  0.00    -0.314 S  
HETATM   11  O   UNL     1     -12.651  12.143  70.596  1.00  0.00    -0.266 OA 
HETATM   12  O   UNL     1     -12.379  11.117  68.315  1.00  0.00    -0.532 OA 
BRANCH  10  13
HETATM   13  N   UNL     1     -10.412  11.144  69.868  1.00  0.00    -0.386 N  
HETATM   14  H   UNL     1      -9.534  11.658  69.931  1.00  0.00     0.000 HD 
BRANCH  13  15
HETATM   15  C   UNL     1     -10.487   9.770  70.153  1.00  0.00    -0.286 A  
HETATM   16  C   UNL     1     -10.115   8.801  69.237  1.00  0.00    -0.206 A  
HETATM   17  C   UNL     1     -10.188   7.470  69.638  1.00  0.00    -0.205 A  
HETATM   18  C   UNL     1     -10.656   7.170  70.913  1.00  0.00    -0.238 A  
HETATM   19  C   UNL     1     -11.024   8.219  71.742  1.00  0.00    -0.278 A  
HETATM   20  N   UNL     1     -10.940   9.521  71.391  1.00  0.00    -0.365 NA 
ENDBRANCH  13  15
ENDBRANCH  10  13
ENDBRANCH   7  10
TORSDOF 3
ENDMDL
MODEL      109
REMARK 921   NORMALIZED FREE ENERGY PREDICTED BY IDOCK:   -4.45 KCAL/MOL
REMARK 922        TOTAL FREE ENERGY PREDICTED BY IDOCK:   -5.44 KCAL/MOL
REMARK 923 INTER-LIGAND FREE ENERGY PREDICTED BY IDOCK:   -5.22 KCAL/MOL
REMARK 924 INTRA-LIGAND FREE ENERGY PREDICTED BY IDOCK:   -0.22 KCAL/MOL
REMARK 927      BINDING AFFINITY PREDICTED BY RF-SCORE:    0.00 PKD
ROOT
HETATM    1  N   UNL     1      -8.373   4.653  67.357  1.00  0.00    -0.105 NA 
HETATM    2  H2  UNL     1      -8.152   5.420  66.721  1.00  0.00     0.000 HD 
HETATM    3  C   UNL     1      -9.186   5.149  68.381  1.00  0.00    -0.117 A  
HETATM    4  H1  UNL     1      -7.507   4.162  67.581  1.00  0.00     0.000 HD 
HETATM    5  C   UNL     1     -10.373   5.822  68.073  1.00  0.00    -0.258 A  
HETATM    6  C   UNL     1     -11.242   6.242  69.084  1.00  0.00    -0.439 A  
HETATM    7  C   UNL     1     -10.951   5.936  70.419  1.00  0.00    -0.306 A  
HETATM    8  C   UNL     1      -8.940   4.796  69.713  1.00  0.00    -0.139 A  
HETATM    9  C   UNL     1      -9.802   5.211  70.736  1.00  0.00    -0.270 A  
ENDROOT
BRANCH   7  10
HETATM   10  S   UNL     1     -11.972   6.608  71.718  1.00  0.00    -0.350 S  
HETATM   11  O   UNL     1     -13.251   6.969  71.140  1.00  0.00    -0.324 OA 
HETATM   12  O   UNL     1     -11.900   5.677  72.824  1.00  0.00    -0.258 OA 
BRANCH  10  13
HETATM   13  N   UNL     1     -11.178   8.001  72.226  1.00  0.00    -0.313 N  
HETATM   14  H   UNL     1     -10.519   7.991  73.004  1.00  0.00     0.000 HD 
BRANCH  13  15
HETATM   15  C   UNL     1     -11.473   9.181  71.522  1.00  0.00    -0.367 A  
HETATM   16  C   UNL     1     -12.571   9.970  71.822  1.00  0.00    -0.504 A  
HETATM   17  C   UNL     1     -12.746  11.140  71.090  1.00  0.00    -0.510 A  
HETATM   18  C   UNL     1     -11.842  11.451  70.080  1.00  0.00    -0.440 A  
HETATM   19  C   UNL     1     -10.789  10.577  69.848  1.00  0.00    -0.276 A  
HETATM   20  N   UNL     1     -10.578   9.447  70.558  1.00  0.00    -0.248 NA 
ENDBRANCH  13  15
ENDBRANCH  10  13
ENDBRANCH   7  10
TORSDOF 3
ENDMDL
MODEL      110
REMARK 921   NORMALIZED FREE ENERGY PREDICTED BY IDOCK:   -4.43 KCAL/MOL
REMARK 922        TOTAL FREE ENERGY PREDICTED BY IDOCK:   -5.43 KCAL/MOL
REMARK 923 INTER-LIGAND FREE ENERGY PREDICTED BY IDOCK:   -5.15 KCAL/MOL
REMARK 924 INTRA-LIGAND FREE ENERGY PREDICTED BY IDOCK:   -0.28 KCAL/MOL
REMARK 927      BINDING AFFINITY PREDICTED BY RF-SCORE:    0.00 PKD
ROOT
HETATM    1  N   UNL     1      -9.587   6.744  66.341  1.00  0.00    -0.324 NA 
HETATM    2  H2  UNL     1     -10.507   6.311  66.253  1.00  0.00     0.000 HD 
HETATM    3  C   UNL     1      -9.760   8.128  66.439  1.00  0.00    -0.205 A  
HETATM    4  H1  UNL     1      -8.978   6.352  65.623  1.00  0.00     0.000 HD 
HETATM    5  C   UNL     1     -10.596   8.665  67.423  1.00  0.00    -0.298 A  
HETATM    6  C   UNL     1     -10.706  10.048  67.594  1.00  0.00    -0.340 A  
HETATM    7  C   UNL     1      -9.929  10.908  66.809  1.00  0.00    -0.205 A  
HETATM    8  C   UNL     1      -8.943   8.996  65.705  1.00  0.00    -0.242 A  
HETATM    9  C   UNL     1      -9.044  10.384  65.865  1.00  0.00    -0.192 A  
ENDROOT
BRANCH   7  10
HETATM   10  S   UNL     1     -10.186  12.669  66.913  1.00  0.00    -0.237 S  
HETATM   11  O   UNL     1      -9.216  13.208  67.845  1.00  0.00    -0.191 OA 
HETATM   12  O   UNL     1     -10.251  13.160  65.552  1.00  0.00    -0.287 OA 
BRANCH  10  13
HETATM   13  N   UNL     1     -11.732  12.852  67.551  1.00  0.00    -0.358 N  
HETATM   14  H   UNL     1     -12.536  12.363  67.159  1.00  0.00     0.000 HD 
BRANCH  13  15
HETATM   15  C   UNL     1     -11.855  13.715  68.653  1.00  0.00    -0.374 A  
HETATM   16  C   UNL     1     -12.112  13.252  69.933  1.00  0.00    -0.377 A  
HETATM   17  C   UNL     1     -12.172  14.189  70.960  1.00  0.00    -0.432 A  
HETATM   18  C   UNL     1     -12.004  15.537  70.659  1.00  0.00    -0.416 A  
HETATM   19  C   UNL     1     -11.774  15.893  69.339  1.00  0.00    -0.343 A  
HETATM   20  N   UNL     1     -11.686  15.004  68.324  1.00  0.00    -0.330 NA 
ENDBRANCH  13  15
ENDBRANCH  10  13
ENDBRANCH   7  10
TORSDOF 3
ENDMDL
MODEL      111
REMARK 921   NORMALIZED FREE ENERGY PREDICTED BY IDOCK:   -4.43 KCAL/MOL
REMARK 922        TOTAL FREE ENERGY PREDICTED BY IDOCK:   -5.42 KCAL/MOL
REMARK 923 INTER-LIGAND FREE ENERGY PREDICTED BY IDOCK:   -5.18 KCAL/MOL
REMARK 924 INTRA-LIGAND FREE ENERGY PREDICTED BY IDOCK:   -0.23 KCAL/MOL
REMARK 927      BINDING AFFINITY PREDICTED BY RF-SCORE:    0.00 PKD
ROOT
HETATM    1  N   UNL     1     -10.369  13.443  68.751  1.00  0.00    -0.379 NA 
HETATM    2  H2  UNL     1     -10.174  12.562  68.275  1.00  0.00     0.000 HD 
HETATM    3  C   UNL     1      -9.364  14.356  68.419  1.00  0.00    -0.206 A  
HETATM    4  H1  UNL     1     -10.575  13.240  69.729  1.00  0.00     0.000 HD 
HETATM    5  C   UNL     1      -9.081  14.634  67.077  1.00  0.00    -0.254 A  
HETATM    6  C   UNL     1      -8.145  15.613  66.730  1.00  0.00    -0.280 A  
HETATM    7  C   UNL     1      -7.522  16.364  67.733  1.00  0.00    -0.142 A  
HETATM    8  C   UNL     1      -8.780  15.157  69.408  1.00  0.00    -0.173 A  
HETATM    9  C   UNL     1      -7.840  16.140  69.074  1.00  0.00    -0.227 A  
ENDROOT
BRANCH   7  10
HETATM   10  S   UNL     1      -6.214  17.496  67.301  1.00  0.00    -0.151 S  
HETATM   11  O   UNL     1      -5.658  18.026  68.530  1.00  0.00    -0.165 OA 
HETATM   12  O   UNL     1      -5.368  16.808  66.348  1.00  0.00    -0.354 OA 
BRANCH  10  13
HETATM   13  N   UNL     1      -6.967  18.736  66.450  1.00  0.00    -0.213 N  
HETATM   14  H   UNL     1      -6.489  19.246  65.707  1.00  0.00     0.000 HD 
BRANCH  13  15
HETATM   15  C   UNL     1      -8.291  19.032  66.818  1.00  0.00    -0.288 A  
HETATM   16  C   UNL     1      -8.617  19.555  68.058  1.00  0.00    -0.365 A  
HETATM   17  C   UNL     1      -9.954  19.852  68.303  1.00  0.00    -0.552 A  
HETATM   18  C   UNL     1     -10.900  19.586  67.319  1.00  0.00    -0.557 A  
HETATM   19  C   UNL     1     -10.466  19.039  66.121  1.00  0.00    -0.467 A  
HETATM   20  N   UNL     1      -9.173  18.763  65.843  1.00  0.00    -0.411 NA 
ENDBRANCH  13  15
ENDBRANCH  10  13
ENDBRANCH   7  10
TORSDOF 3
ENDMDL
MODEL      112
REMARK 921   NORMALIZED FREE ENERGY PREDICTED BY IDOCK:   -4.40 KCAL/MOL
REMARK 922        TOTAL FREE ENERGY PREDICTED BY IDOCK:   -5.38 KCAL/MOL
REMARK 923 INTER-LIGAND FREE ENERGY PREDICTED BY IDOCK:   -5.26 KCAL/MOL
REMARK 924 INTRA-LIGAND FREE ENERGY PREDICTED BY IDOCK:   -0.12 KCAL/MOL
REMARK 927      BINDING AFFINITY PREDICTED BY RF-SCORE:    0.00 PKD
ROOT
HETATM    1  N   UNL     1     -10.701  18.664  67.502  1.00  0.00    -0.431 NA 
HETATM    2  H2  UNL     1     -11.247  19.079  66.746  1.00  0.00     0.000 HD 
HETATM    3  C   UNL     1     -10.644  17.282  67.298  1.00  0.00    -0.283 A  
HETATM    4  H1  UNL     1     -11.041  19.039  68.387  1.00  0.00     0.000 HD 
HETATM    5  C   UNL     1     -10.178  16.768  66.083  1.00  0.00    -0.363 A  
HETATM    6  C   UNL     1     -10.028  15.391  65.898  1.00  0.00    -0.374 A  
HETATM    7  C   UNL     1     -10.294  14.516  66.957  1.00  0.00    -0.263 A  
HETATM    8  C   UNL     1     -10.845  16.400  68.366  1.00  0.00    -0.342 A  
HETATM    9  C   UNL     1     -10.700  15.018  68.194  1.00  0.00    -0.256 A  
ENDROOT
BRANCH   7  10
HETATM   10  S   UNL     1     -10.258  12.755  66.675  1.00  0.00    -0.242 S  
HETATM   11  O   UNL     1     -10.234  12.532  65.243  1.00  0.00    -0.279 OA 
HETATM   12  O   UNL     1      -9.211  12.221  67.521  1.00  0.00    -0.171 OA 
BRANCH  10  13
HETATM   13  N   UNL     1     -11.708  12.179  67.304  1.00  0.00    -0.330 N  
HETATM   14  H   UNL     1     -12.603  12.373  66.857  1.00  0.00     0.000 HD 
BRANCH  13  15
HETATM   15  C   UNL     1     -11.618  11.414  68.480  1.00  0.00    -0.318 A  
HETATM   16  C   UNL     1     -12.035  11.893  69.710  1.00  0.00    -0.377 A  
HETATM   17  C   UNL     1     -11.942  11.037  70.803  1.00  0.00    -0.436 A  
HETATM   18  C   UNL     1     -11.413   9.763  70.624  1.00  0.00    -0.397 A  
HETATM   19  C   UNL     1     -11.004   9.393  69.352  1.00  0.00    -0.145 A  
HETATM   20  N   UNL     1     -11.105  10.193  68.266  1.00  0.00    -0.253 NA 
ENDBRANCH  13  15
ENDBRANCH  10  13
ENDBRANCH   7  10
TORSDOF 3
ENDMDL
MODEL      113
REMARK 921   NORMALIZED FREE ENERGY PREDICTED BY IDOCK:   -4.39 KCAL/MOL
REMARK 922        TOTAL FREE ENERGY PREDICTED BY IDOCK:   -5.38 KCAL/MOL
REMARK 923 INTER-LIGAND FREE ENERGY PREDICTED BY IDOCK:   -5.07 KCAL/MOL
REMARK 924 INTRA-LIGAND FREE ENERGY PREDICTED BY IDOCK:   -0.31 KCAL/MOL
REMARK 927      BINDING AFFINITY PREDICTED BY RF-SCORE:    0.00 PKD
ROOT
HETATM    1  N   UNL     1     -10.266   8.190  67.996  1.00  0.00    -0.204 NA 
HETATM    2  H2  UNL     1      -9.391   8.112  67.476  1.00  0.00     0.000 HD 
HETATM    3  C   UNL     1     -10.578   9.546  68.133  1.00  0.00    -0.217 A  
HETATM    4  H1  UNL     1     -10.204   7.592  68.820  1.00  0.00     0.000 HD 
HETATM    5  C   UNL     1     -10.662  10.367  67.003  1.00  0.00    -0.298 A  
HETATM    6  C   UNL     1     -11.063  11.701  67.114  1.00  0.00    -0.354 A  
HETATM    7  C   UNL     1     -11.440  12.210  68.362  1.00  0.00    -0.304 A  
HETATM    8  C   UNL     1     -11.017  10.051  69.363  1.00  0.00    -0.280 A  
HETATM    9  C   UNL     1     -11.421  11.386  69.489  1.00  0.00    -0.381 A  
ENDROOT
BRANCH   7  10
HETATM   10  S   UNL     1     -11.797  13.949  68.532  1.00  0.00    -0.365 S  
HETATM   11  O   UNL     1     -12.329  14.422  67.270  1.00  0.00    -0.322 OA 
HETATM   12  O   UNL     1     -12.559  14.098  69.755  1.00  0.00    -0.294 OA 
BRANCH  10  13
HETATM   13  N   UNL     1     -10.308  14.678  68.817  1.00  0.00    -0.243 N  
HETATM   14  H   UNL     1      -9.664  14.327  69.526  1.00  0.00     0.000 HD 
BRANCH  13  15
HETATM   15  C   UNL     1      -9.999  15.797  68.025  1.00  0.00    -0.222 A  
HETATM   16  C   UNL     1      -9.194  15.713  66.902  1.00  0.00    -0.257 A  
HETATM   17  C   UNL     1      -8.987  16.875  66.165  1.00  0.00    -0.271 A  
HETATM   18  C   UNL     1      -9.564  18.064  66.597  1.00  0.00    -0.315 A  
HETATM   19  C   UNL     1     -10.335  18.041  67.750  1.00  0.00    -0.393 A  
HETATM   20  N   UNL     1     -10.575  16.924  68.473  1.00  0.00    -0.348 NA 
ENDBRANCH  13  15
ENDBRANCH  10  13
ENDBRANCH   7  10
TORSDOF 3
ENDMDL
MODEL      114
REMARK 921   NORMALIZED FREE ENERGY PREDICTED BY IDOCK:   -4.38 KCAL/MOL
REMARK 922        TOTAL FREE ENERGY PREDICTED BY IDOCK:   -5.36 KCAL/MOL
REMARK 923 INTER-LIGAND FREE ENERGY PREDICTED BY IDOCK:   -5.72 KCAL/MOL
REMARK 924 INTRA-LIGAND FREE ENERGY PREDICTED BY IDOCK:    0.36 KCAL/MOL
REMARK 927      BINDING AFFINITY PREDICTED BY RF-SCORE:    0.00 PKD
ROOT
HETATM    1  N   UNL     1     -12.636  16.069  72.042  1.00  0.00    -0.477 NA 
HETATM    2  H2  UNL     1     -13.344  16.734  71.731  1.00  0.00     0.000 HD 
HETATM    3  C   UNL     1     -12.412  15.150  71.012  1.00  0.00    -0.357 A  
HETATM    4  H1  UNL     1     -12.889  15.743  72.974  1.00  0.00     0.000 HD 
HETATM    5  C   UNL     1     -12.065  15.598  69.732  1.00  0.00    -0.346 A  
HETATM    6  C   UNL     1     -11.747  14.691  68.717  1.00  0.00    -0.357 A  
HETATM    7  C   UNL     1     -11.720  13.320  68.996  1.00  0.00    -0.322 A  
HETATM    8  C   UNL     1     -12.319  13.782  71.292  1.00  0.00    -0.394 A  
HETATM    9  C   UNL     1     -12.004  12.862  70.284  1.00  0.00    -0.359 A  
ENDROOT
BRANCH   7  10
HETATM   10  S   UNL     1     -11.474  12.156  67.668  1.00  0.00    -0.337 S  
HETATM   11  O   UNL     1     -11.808  10.835  68.163  1.00  0.00    -0.533 OA 
HETATM   12  O   UNL     1     -12.151  12.700  66.509  1.00  0.00    -0.525 OA 
BRANCH  10  13
HETATM   13  N   UNL     1      -9.829  12.222  67.324  1.00  0.00    -0.203 N  
HETATM   14  H   UNL     1      -9.264  11.378  67.235  1.00  0.00     0.000 HD 
BRANCH  13  15
HETATM   15  C   UNL     1      -9.275  13.504  67.165  1.00  0.00    -0.236 A  
HETATM   16  C   UNL     1      -8.252  13.975  67.970  1.00  0.00    -0.155 A  
HETATM   17  C   UNL     1      -7.747  15.243  67.699  1.00  0.00    -0.185 A  
HETATM   18  C   UNL     1      -8.303  15.988  66.664  1.00  0.00    -0.331 A  
HETATM   19  C   UNL     1      -9.341  15.428  65.934  1.00  0.00    -0.294 A  
HETATM   20  N   UNL     1      -9.836  14.190  66.157  1.00  0.00    -0.303 NA 
ENDBRANCH  13  15
ENDBRANCH  10  13
ENDBRANCH   7  10
TORSDOF 3
ENDMDL
MODEL      115
REMARK 921   NORMALIZED FREE ENERGY PREDICTED BY IDOCK:   -4.35 KCAL/MOL
REMARK 922        TOTAL FREE ENERGY PREDICTED BY IDOCK:   -5.33 KCAL/MOL
REMARK 923 INTER-LIGAND FREE ENERGY PREDICTED BY IDOCK:   -5.04 KCAL/MOL
REMARK 924 INTRA-LIGAND FREE ENERGY PREDICTED BY IDOCK:   -0.29 KCAL/MOL
REMARK 927      BINDING AFFINITY PREDICTED BY RF-SCORE:    0.00 PKD
ROOT
HETATM    1  N   UNL     1     -11.753  16.327  64.018  1.00  0.00    -1.427 NA 
HETATM    2  H2  UNL     1     -12.773  16.326  64.014  1.00  0.00     0.000 HD 
HETATM    3  C   UNL     1     -11.315  15.196  64.716  1.00  0.00    -0.395 A  
HETATM    4  H1  UNL     1     -11.434  17.255  64.293  1.00  0.00     0.000 HD 
HETATM    5  C   UNL     1     -11.754  13.923  64.339  1.00  0.00    -0.427 A  
HETATM    6  C   UNL     1     -11.254  12.777  64.965  1.00  0.00    -0.333 A  
HETATM    7  C   UNL     1     -10.260  12.901  65.943  1.00  0.00    -0.290 A  
HETATM    8  C   UNL     1     -10.277  15.300  65.649  1.00  0.00    -0.398 A  
HETATM    9  C   UNL     1      -9.768  14.161  66.286  1.00  0.00    -0.315 A  
ENDROOT
BRANCH   7  10
HETATM   10  S   UNL     1      -9.738  11.459  66.854  1.00  0.00    -0.195 S  
HETATM   11  O   UNL     1     -10.862  10.547  66.931  1.00  0.00    -0.250 OA 
HETATM   12  O   UNL     1      -8.483  11.032  66.271  1.00  0.00    -0.158 OA 
BRANCH  10  13
HETATM   13  N   UNL     1      -9.371  12.021  68.396  1.00  0.00    -0.265 N  
HETATM   14  H   UNL     1      -9.940  12.729  68.860  1.00  0.00     0.000 HD 
BRANCH  13  15
HETATM   15  C   UNL     1      -8.237  11.463  69.011  1.00  0.00     0.020 A  
HETATM   16  C   UNL     1      -7.007  12.097  69.014  1.00  0.00    -0.086 A  
HETATM   17  C   UNL     1      -5.960  11.476  69.689  1.00  0.00    -0.102 A  
HETATM   18  C   UNL     1      -6.181  10.246  70.299  1.00  0.00    -0.113 A  
HETATM   19  C   UNL     1      -7.448   9.689  70.216  1.00  0.00    -0.158 A  
HETATM   20  N   UNL     1      -8.491  10.279  69.589  1.00  0.00    -0.152 NA 
ENDBRANCH  13  15
ENDBRANCH  10  13
ENDBRANCH   7  10
TORSDOF 3
ENDMDL
MODEL      116
REMARK 921   NORMALIZED FREE ENERGY PREDICTED BY IDOCK:   -4.34 KCAL/MOL
REMARK 922        TOTAL FREE ENERGY PREDICTED BY IDOCK:   -5.31 KCAL/MOL
REMARK 923 INTER-LIGAND FREE ENERGY PREDICTED BY IDOCK:   -5.11 KCAL/MOL
REMARK 924 INTRA-LIGAND FREE ENERGY PREDICTED BY IDOCK:   -0.20 KCAL/MOL
REMARK 927      BINDING AFFINITY PREDICTED BY RF-SCORE:    0.00 PKD
ROOT
HETATM    1  N   UNL     1      -8.879   7.702  65.092  1.00  0.00    -0.372 NA 
HETATM    2  H2  UNL     1      -7.911   7.836  64.801  1.00  0.00     0.000 HD 
HETATM    3  C   UNL     1      -9.354   8.909  65.615  1.00  0.00    -0.191 A  
HETATM    4  H1  UNL     1      -8.933   6.847  65.646  1.00  0.00     0.000 HD 
HETATM    5  C   UNL     1      -9.280  10.082  64.855  1.00  0.00    -0.291 A  
HETATM    6  C   UNL     1      -9.834  11.276  65.325  1.00  0.00    -0.291 A  
HETATM    7  C   UNL     1     -10.520  11.289  66.545  1.00  0.00    -0.253 A  
HETATM    8  C   UNL     1     -10.096   8.923  66.802  1.00  0.00    -0.350 A  
HETATM    9  C   UNL     1     -10.655  10.113  67.285  1.00  0.00    -0.321 A  
ENDROOT
BRANCH   7  10
HETATM   10  S   UNL     1     -11.085  12.840  67.221  1.00  0.00    -0.290 S  
HETATM   11  O   UNL     1     -10.478  13.909  66.453  1.00  0.00    -0.277 OA 
HETATM   12  O   UNL     1     -12.525  12.742  67.336  1.00  0.00    -0.168 OA 
BRANCH  10  13
HETATM   13  N   UNL     1     -10.491  12.878  68.794  1.00  0.00    -0.386 N  
HETATM   14  H   UNL     1      -9.729  12.271  69.096  1.00  0.00     0.000 HD 
BRANCH  13  15
HETATM   15  C   UNL     1     -11.101  13.792  69.670  1.00  0.00    -0.038 A  
HETATM   16  C   UNL     1     -10.736  15.127  69.722  1.00  0.00    -0.288 A  
HETATM   17  C   UNL     1     -11.435  15.955  70.596  1.00  0.00    -0.426 A  
HETATM   18  C   UNL     1     -12.436  15.410  71.393  1.00  0.00    -0.457 A  
HETATM   19  C   UNL     1     -12.705  14.054  71.276  1.00  0.00    -0.365 A  
HETATM   20  N   UNL     1     -12.061  13.230  70.420  1.00  0.00    -0.352 NA 
ENDBRANCH  13  15
ENDBRANCH  10  13
ENDBRANCH   7  10
TORSDOF 3
ENDMDL
MODEL      117
REMARK 921   NORMALIZED FREE ENERGY PREDICTED BY IDOCK:   -4.33 KCAL/MOL
REMARK 922        TOTAL FREE ENERGY PREDICTED BY IDOCK:   -5.30 KCAL/MOL
REMARK 923 INTER-LIGAND FREE ENERGY PREDICTED BY IDOCK:   -4.95 KCAL/MOL
REMARK 924 INTRA-LIGAND FREE ENERGY PREDICTED BY IDOCK:   -0.36 KCAL/MOL
REMARK 927      BINDING AFFINITY PREDICTED BY RF-SCORE:    0.00 PKD
ROOT
HETATM    1  N   UNL     1     -12.083  15.602  68.378  1.00  0.00    -0.458 NA 
HETATM    2  H2  UNL     1     -13.088  15.535  68.543  1.00  0.00     0.000 HD 
HETATM    3  C   UNL     1     -11.602  14.326  68.064  1.00  0.00    -0.332 A  
HETATM    4  H1  UNL     1     -11.667  16.133  69.142  1.00  0.00     0.000 HD 
HETATM    5  C   UNL     1     -12.174  13.597  67.016  1.00  0.00    -0.373 A  
HETATM    6  C   UNL     1     -11.645  12.362  66.630  1.00  0.00    -0.447 A  
HETATM    7  C   UNL     1     -10.496  11.873  67.261  1.00  0.00    -0.222 A  
HETATM    8  C   UNL     1     -10.418  13.855  68.643  1.00  0.00    -0.249 A  
HETATM    9  C   UNL     1      -9.878  12.618  68.266  1.00  0.00    -0.227 A  
ENDROOT
BRANCH   7  10
HETATM   10  S   UNL     1      -9.916  10.229  66.882  1.00  0.00    -0.217 S  
HETATM   11  O   UNL     1     -10.099  10.007  65.462  1.00  0.00    -0.298 OA 
HETATM   12  O   UNL     1      -8.604  10.104  67.483  1.00  0.00    -0.119 OA 
BRANCH  10  13
HETATM   13  N   UNL     1     -10.926   9.196  67.742  1.00  0.00    -0.492 N  
HETATM   14  H   UNL     1     -11.778   8.813  67.333  1.00  0.00     0.000 HD 
BRANCH  13  15
HETATM   15  C   UNL     1     -10.533   8.889  69.056  1.00  0.00    -0.214 A  
HETATM   16  C   UNL     1     -10.862   9.690  70.136  1.00  0.00    -0.325 A  
HETATM   17  C   UNL     1     -10.460   9.270  71.400  1.00  0.00    -0.408 A  
HETATM   18  C   UNL     1      -9.725   8.095  71.523  1.00  0.00    -0.230 A  
HETATM   19  C   UNL     1      -9.430   7.380  70.371  1.00  0.00    -0.165 A  
HETATM   20  N   UNL     1      -9.829   7.749  69.133  1.00  0.00    -0.170 NA 
ENDBRANCH  13  15
ENDBRANCH  10  13
ENDBRANCH   7  10
TORSDOF 3
ENDMDL
MODEL      118
REMARK 921   NORMALIZED FREE ENERGY PREDICTED BY IDOCK:   -4.33 KCAL/MOL
REMARK 922        TOTAL FREE ENERGY PREDICTED BY IDOCK:   -5.30 KCAL/MOL
REMARK 923 INTER-LIGAND FREE ENERGY PREDICTED BY IDOCK:   -5.17 KCAL/MOL
REMARK 924 INTRA-LIGAND FREE ENERGY PREDICTED BY IDOCK:   -0.13 KCAL/MOL
REMARK 927      BINDING AFFINITY PREDICTED BY RF-SCORE:    0.00 PKD
ROOT
HETATM    1  N   UNL     1      -9.508   8.007  67.230  1.00  0.00    -0.149 NA 
HETATM    2  H2  UNL     1      -8.492   7.927  67.176  1.00  0.00     0.000 HD 
HETATM    3  C   UNL     1      -9.881   9.248  66.706  1.00  0.00    -0.225 A  
HETATM    4  H1  UNL     1      -9.801   7.737  68.168  1.00  0.00     0.000 HD 
HETATM    5  C   UNL     1      -9.478   9.619  65.418  1.00  0.00    -0.343 A  
HETATM    6  C   UNL     1      -9.920  10.815  64.845  1.00  0.00    -0.374 A  
HETATM    7  C   UNL     1     -10.821  11.627  65.543  1.00  0.00    -0.279 A  
HETATM    8  C   UNL     1     -10.830  10.038  67.365  1.00  0.00    -0.313 A  
HETATM    9  C   UNL     1     -11.280  11.240  66.803  1.00  0.00    -0.265 A  
ENDROOT
BRANCH   7  10
HETATM   10  S   UNL     1     -11.258  13.225  64.884  1.00  0.00    -0.334 S  
HETATM   11  O   UNL     1     -11.490  13.074  63.462  1.00  0.00    -0.446 OA 
HETATM   12  O   UNL     1     -12.292  13.760  65.746  1.00  0.00    -0.431 OA 
BRANCH  10  13
HETATM   13  N   UNL     1      -9.901  14.188  65.128  1.00  0.00    -0.582 N  
HETATM   14  H   UNL     1      -9.288  14.458  64.359  1.00  0.00     0.000 HD 
BRANCH  13  15
HETATM   15  C   UNL     1      -9.657  14.602  66.449  1.00  0.00    -0.301 A  
HETATM   16  C   UNL     1     -10.322  15.670  67.026  1.00  0.00    -0.289 A  
HETATM   17  C   UNL     1     -10.036  15.968  68.355  1.00  0.00    -0.229 A  
HETATM   18  C   UNL     1      -9.085  15.211  69.031  1.00  0.00    -0.218 A  
HETATM   19  C   UNL     1      -8.462  14.176  68.349  1.00  0.00    -0.170 A  
HETATM   20  N   UNL     1      -8.736  13.847  67.067  1.00  0.00    -0.220 NA 
ENDBRANCH  13  15
ENDBRANCH  10  13
ENDBRANCH   7  10
TORSDOF 3
ENDMDL
MODEL      119
REMARK 921   NORMALIZED FREE ENERGY PREDICTED BY IDOCK:   -4.29 KCAL/MOL
REMARK 922        TOTAL FREE ENERGY PREDICTED BY IDOCK:   -5.26 KCAL/MOL
REMARK 923 INTER-LIGAND FREE ENERGY PREDICTED BY IDOCK:   -5.50 KCAL/MOL
REMARK 924 INTRA-LIGAND FREE ENERGY PREDICTED BY IDOCK:    0.24 KCAL/MOL
REMARK 927      BINDING AFFINITY PREDICTED BY RF-SCORE:    0.00 PKD
ROOT
HETATM    1  N   UNL     1     -13.459  14.831  72.027  1.00  0.00    -0.346 NA 
HETATM    2  H2  UNL     1     -13.379  13.942  72.521  1.00  0.00     0.000 HD 
HETATM    3  C   UNL     1     -12.436  14.901  71.076  1.00  0.00    -0.330 A  
HETATM    4  H1  UNL     1     -13.569  15.574  72.718  1.00  0.00     0.000 HD 
HETATM    5  C   UNL     1     -12.286  13.882  70.129  1.00  0.00    -0.425 A  
HETATM    6  C   UNL     1     -11.329  13.982  69.115  1.00  0.00    -0.323 A  
HETATM    7  C   UNL     1     -10.548  15.138  69.010  1.00  0.00    -0.245 A  
HETATM    8  C   UNL     1     -11.693  16.076  70.921  1.00  0.00    -0.438 A  
HETATM    9  C   UNL     1     -10.729  16.189  69.910  1.00  0.00    -0.328 A  
ENDROOT
BRANCH   7  10
HETATM   10  S   UNL     1      -9.221  15.199  67.820  1.00  0.00    -0.182 S  
HETATM   11  O   UNL     1      -8.049  15.732  68.485  1.00  0.00    -0.141 OA 
HETATM   12  O   UNL     1      -9.178  13.901  67.181  1.00  0.00    -0.219 OA 
BRANCH  10  13
HETATM   13  N   UNL     1      -9.734  16.284  66.642  1.00  0.00    -0.238 N  
HETATM   14  H   UNL     1     -10.129  15.969  65.756  1.00  0.00     0.000 HD 
BRANCH  13  15
HETATM   15  C   UNL     1      -9.589  17.649  66.944  1.00  0.00    -0.286 A  
HETATM   16  C   UNL     1      -8.484  18.384  66.549  1.00  0.00    -0.287 A  
HETATM   17  C   UNL     1      -8.462  19.739  66.863  1.00  0.00    -0.364 A  
HETATM   18  C   UNL     1      -9.521  20.287  67.580  1.00  0.00    -0.539 A  
HETATM   19  C   UNL     1     -10.568  19.455  67.946  1.00  0.00    -0.385 A  
HETATM   20  N   UNL     1     -10.630  18.141  67.634  1.00  0.00    -0.420 NA 
ENDBRANCH  13  15
ENDBRANCH  10  13
ENDBRANCH   7  10
TORSDOF 3
ENDMDL
MODEL      120
REMARK 921   NORMALIZED FREE ENERGY PREDICTED BY IDOCK:   -4.27 KCAL/MOL
REMARK 922        TOTAL FREE ENERGY PREDICTED BY IDOCK:   -5.24 KCAL/MOL
REMARK 923 INTER-LIGAND FREE ENERGY PREDICTED BY IDOCK:   -5.35 KCAL/MOL
REMARK 924 INTRA-LIGAND FREE ENERGY PREDICTED BY IDOCK:    0.11 KCAL/MOL
REMARK 927      BINDING AFFINITY PREDICTED BY RF-SCORE:    0.00 PKD
ROOT
HETATM    1  N   UNL     1     -11.353  14.836  71.173  1.00  0.00    -0.530 NA 
HETATM    2  H2  UNL     1     -10.595  14.271  71.556  1.00  0.00     0.000 HD 
HETATM    3  C   UNL     1     -11.499  14.519  69.819  1.00  0.00    -0.279 A  
HETATM    4  H1  UNL     1     -11.210  15.804  71.461  1.00  0.00     0.000 HD 
HETATM    5  C   UNL     1     -11.696  13.191  69.425  1.00  0.00    -0.386 A  
HETATM    6  C   UNL     1     -11.936  12.869  68.086  1.00  0.00    -0.306 A  
HETATM    7  C   UNL     1     -12.037  13.890  67.135  1.00  0.00    -0.387 A  
HETATM    8  C   UNL     1     -11.665  15.533  68.869  1.00  0.00    -0.385 A  
HETATM    9  C   UNL     1     -11.904  15.224  67.523  1.00  0.00    -0.041 A  
ENDROOT
BRANCH   7  10
HETATM   10  S   UNL     1     -12.182  13.473  65.407  1.00  0.00    -0.477 S  
HETATM   11  O   UNL     1     -12.632  12.098  65.315  1.00  0.00    -0.494 OA 
HETATM   12  O   UNL     1     -12.940  14.538  64.785  1.00  0.00    -0.562 OA 
BRANCH  10  13
HETATM   13  N   UNL     1     -10.620  13.590  64.793  1.00  0.00    -0.395 N  
HETATM   14  H   UNL     1     -10.349  13.133  63.922  1.00  0.00     0.000 HD 
BRANCH  13  15
HETATM   15  C   UNL     1      -9.709  14.351  65.544  1.00  0.00    -0.179 A  
HETATM   16  C   UNL     1      -8.863  13.783  66.481  1.00  0.00    -0.006 A  
HETATM   17  C   UNL     1      -7.968  14.623  67.138  1.00  0.00    -0.184 A  
HETATM   18  C   UNL     1      -7.982  15.984  66.854  1.00  0.00    -0.283 A  
HETATM   19  C   UNL     1      -8.888  16.451  65.914  1.00  0.00    -0.135 A  
HETATM   20  N   UNL     1      -9.751  15.658  65.241  1.00  0.00    -0.323 NA 
ENDBRANCH  13  15
ENDBRANCH  10  13
ENDBRANCH   7  10
TORSDOF 3
ENDMDL
MODEL      121
REMARK 921   NORMALIZED FREE ENERGY PREDICTED BY IDOCK:   -4.26 KCAL/MOL
REMARK 922        TOTAL FREE ENERGY PREDICTED BY IDOCK:   -5.22 KCAL/MOL
REMARK 923 INTER-LIGAND FREE ENERGY PREDICTED BY IDOCK:   -4.96 KCAL/MOL
REMARK 924 INTRA-LIGAND FREE ENERGY PREDICTED BY IDOCK:   -0.27 KCAL/MOL
REMARK 927      BINDING AFFINITY PREDICTED BY RF-SCORE:    0.00 PKD
ROOT
HETATM    1  N   UNL     1      -9.991   4.001  66.211  1.00  0.00    -0.387 NA 
HETATM    2  H2  UNL     1      -9.073   3.589  66.380  1.00  0.00     0.000 HD 
HETATM    3  C   UNL     1      -9.905   5.378  66.436  1.00  0.00    -0.176 A  
HETATM    4  H1  UNL     1     -10.688   3.442  66.703  1.00  0.00     0.000 HD 
HETATM    5  C   UNL     1      -8.948   6.144  65.762  1.00  0.00    -0.099 A  
HETATM    6  C   UNL     1      -8.911   7.534  65.905  1.00  0.00    -0.157 A  
HETATM    7  C   UNL     1      -9.876   8.176  66.689  1.00  0.00    -0.261 A  
HETATM    8  C   UNL     1     -10.901   6.039  67.165  1.00  0.00    -0.414 A  
HETATM    9  C   UNL     1     -10.875   7.431  67.319  1.00  0.00    -0.326 A  
ENDROOT
BRANCH   7  10
HETATM   10  S   UNL     1      -9.734   9.925  67.003  1.00  0.00    -0.191 S  
HETATM   11  O   UNL     1     -11.036  10.415  67.408  1.00  0.00    -0.299 OA 
HETATM   12  O   UNL     1      -8.582  10.100  67.863  1.00  0.00    -0.118 OA 
BRANCH  10  13
HETATM   13  N   UNL     1      -9.319  10.606  65.521  1.00  0.00    -0.193 N  
HETATM   14  H   UNL     1      -8.463  10.347  65.031  1.00  0.00     0.000 HD 
BRANCH  13  15
HETATM   15  C   UNL     1     -10.216  11.551  64.995  1.00  0.00    -0.280 A  
HETATM   16  C   UNL     1     -11.159  11.226  64.035  1.00  0.00    -0.316 A  
HETATM   17  C   UNL     1     -12.027  12.229  63.614  1.00  0.00    -0.633 A  
HETATM   18  C   UNL     1     -11.895  13.508  64.145  1.00  0.00    -0.483 A  
HETATM   19  C   UNL     1     -10.900  13.730  65.085  1.00  0.00    -0.345 A  
HETATM   20  N   UNL     1     -10.059  12.771  65.532  1.00  0.00    -0.279 NA 
ENDBRANCH  13  15
ENDBRANCH  10  13
ENDBRANCH   7  10
TORSDOF 3
ENDMDL
MODEL      122
REMARK 921   NORMALIZED FREE ENERGY PREDICTED BY IDOCK:   -4.22 KCAL/MOL
REMARK 922        TOTAL FREE ENERGY PREDICTED BY IDOCK:   -5.18 KCAL/MOL
REMARK 923 INTER-LIGAND FREE ENERGY PREDICTED BY IDOCK:   -4.93 KCAL/MOL
REMARK 924 INTRA-LIGAND FREE ENERGY PREDICTED BY IDOCK:   -0.25 KCAL/MOL
REMARK 927      BINDING AFFINITY PREDICTED BY RF-SCORE:    0.00 PKD
ROOT
HETATM    1  N   UNL     1      -9.379  14.271  66.010  1.00  0.00    -0.521 NA 
HETATM    2  H2  UNL     1     -10.013  14.926  66.469  1.00  0.00     0.000 HD 
HETATM    3  C   UNL     1      -9.567  13.006  66.577  1.00  0.00    -0.260 A  
HETATM    4  H1  UNL     1      -8.450  14.689  65.983  1.00  0.00     0.000 HD 
HETATM    5  C   UNL     1     -10.842  12.434  66.615  1.00  0.00    -0.281 A  
HETATM    6  C   UNL     1     -11.031  11.134  67.093  1.00  0.00    -0.350 A  
HETATM    7  C   UNL     1      -9.924  10.373  67.488  1.00  0.00    -0.181 A  
HETATM    8  C   UNL     1      -8.464  12.213  66.916  1.00  0.00    -0.173 A  
HETATM    9  C   UNL     1      -8.639  10.909  67.398  1.00  0.00    -0.127 A  
ENDROOT
BRANCH   7  10
HETATM   10  S   UNL     1     -10.177   8.779  68.247  1.00  0.00    -0.203 S  
HETATM   11  O   UNL     1     -10.760   7.899  67.254  1.00  0.00    -0.301 OA 
HETATM   12  O   UNL     1      -8.934   8.430  68.901  1.00  0.00    -0.145 OA 
BRANCH  10  13
HETATM   13  N   UNL     1     -11.294   9.049  69.476  1.00  0.00    -0.432 N  
HETATM   14  H   UNL     1     -11.960   9.820  69.438  1.00  0.00     0.000 HD 
BRANCH  13  15
HETATM   15  C   UNL     1     -11.259   8.154  70.558  1.00  0.00    -0.247 A  
HETATM   16  C   UNL     1     -11.496   6.798  70.408  1.00  0.00    -0.419 A  
HETATM   17  C   UNL     1     -11.394   5.994  71.539  1.00  0.00    -0.309 A  
HETATM   18  C   UNL     1     -11.094   6.581  72.764  1.00  0.00    -0.279 A  
HETATM   19  C   UNL     1     -10.899   7.953  72.806  1.00  0.00    -0.386 A  
HETATM   20  N   UNL     1     -10.966   8.756  71.721  1.00  0.00    -0.320 NA 
ENDBRANCH  13  15
ENDBRANCH  10  13
ENDBRANCH   7  10
TORSDOF 3
ENDMDL
MODEL      123
REMARK 921   NORMALIZED FREE ENERGY PREDICTED BY IDOCK:   -4.22 KCAL/MOL
REMARK 922        TOTAL FREE ENERGY PREDICTED BY IDOCK:   -5.17 KCAL/MOL
REMARK 923 INTER-LIGAND FREE ENERGY PREDICTED BY IDOCK:   -4.79 KCAL/MOL
REMARK 924 INTRA-LIGAND FREE ENERGY PREDICTED BY IDOCK:   -0.38 KCAL/MOL
REMARK 927      BINDING AFFINITY PREDICTED BY RF-SCORE:    0.00 PKD
ROOT
HETATM    1  N   UNL     1      -6.459  10.225  69.474  1.00  0.00    -0.052 NA 
HETATM    2  H2  UNL     1      -6.461  11.222  69.258  1.00  0.00     0.000 HD 
HETATM    3  C   UNL     1      -7.714   9.883  69.988  1.00  0.00    -0.178 A  
HETATM    4  H1  UNL     1      -5.613  10.012  70.002  1.00  0.00     0.000 HD 
HETATM    5  C   UNL     1      -8.875  10.175  69.263  1.00  0.00    -0.191 A  
HETATM    6  C   UNL     1     -10.129   9.757  69.719  1.00  0.00    -0.268 A  
HETATM    7  C   UNL     1     -10.221   8.988  70.885  1.00  0.00    -0.257 A  
HETATM    8  C   UNL     1      -7.817   9.061  71.116  1.00  0.00    -0.154 A  
HETATM    9  C   UNL     1      -9.066   8.636  71.585  1.00  0.00    -0.318 A  
ENDROOT
BRANCH   7  10
HETATM   10  S   UNL     1     -11.827   8.592  71.552  1.00  0.00    -0.326 S  
HETATM   11  O   UNL     1     -11.641   8.106  72.905  1.00  0.00    -0.386 OA 
HETATM   12  O   UNL     1     -12.677   9.735  71.292  1.00  0.00    -0.325 OA 
BRANCH  10  13
HETATM   13  N   UNL     1     -12.410   7.345  70.587  1.00  0.00    -0.559 N  
HETATM   14  H   UNL     1     -13.395   7.278  70.331  1.00  0.00     0.000 HD 
BRANCH  13  15
HETATM   15  C   UNL     1     -11.467   6.397  70.153  1.00  0.00    -0.417 A  
HETATM   16  C   UNL     1     -11.044   6.321  68.837  1.00  0.00    -0.434 A  
HETATM   17  C   UNL     1     -10.074   5.374  68.523  1.00  0.00    -0.242 A  
HETATM   18  C   UNL     1      -9.598   4.533  69.524  1.00  0.00    -0.266 A  
HETATM   19  C   UNL     1     -10.108   4.680  70.805  1.00  0.00    -0.194 A  
HETATM   20  N   UNL     1     -11.032   5.607  71.146  1.00  0.00    -0.220 NA 
ENDBRANCH  13  15
ENDBRANCH  10  13
ENDBRANCH   7  10
TORSDOF 3
ENDMDL
MODEL      124
REMARK 921   NORMALIZED FREE ENERGY PREDICTED BY IDOCK:   -4.20 KCAL/MOL
REMARK 922        TOTAL FREE ENERGY PREDICTED BY IDOCK:   -5.15 KCAL/MOL
REMARK 923 INTER-LIGAND FREE ENERGY PREDICTED BY IDOCK:   -4.89 KCAL/MOL
REMARK 924 INTRA-LIGAND FREE ENERGY PREDICTED BY IDOCK:   -0.26 KCAL/MOL
REMARK 927      BINDING AFFINITY PREDICTED BY RF-SCORE:    0.00 PKD
ROOT
HETATM    1  N   UNL     1      -8.495   8.450  72.842  1.00  0.00    -0.341 NA 
HETATM    2  H2  UNL     1      -7.651   8.983  73.051  1.00  0.00     0.000 HD 
HETATM    3  C   UNL     1      -9.035   8.931  71.645  1.00  0.00    -0.173 A  
HETATM    4  H1  UNL     1      -9.068   8.414  73.685  1.00  0.00     0.000 HD 
HETATM    5  C   UNL     1      -8.248   8.981  70.489  1.00  0.00    -0.187 A  
HETATM    6  C   UNL     1      -8.799   9.370  69.264  1.00  0.00    -0.150 A  
HETATM    7  C   UNL     1     -10.165   9.659  69.179  1.00  0.00    -0.202 A  
HETATM    8  C   UNL     1     -10.411   9.162  71.531  1.00  0.00    -0.414 A  
HETATM    9  C   UNL     1     -10.975   9.554  70.311  1.00  0.00    -0.317 A  
ENDROOT
BRANCH   7  10
HETATM   10  S   UNL     1     -10.834  10.309  67.658  1.00  0.00    -0.297 S  
HETATM   11  O   UNL     1     -10.689   9.293  66.636  1.00  0.00    -0.145 OA 
HETATM   12  O   UNL     1     -12.138  10.852  67.978  1.00  0.00    -0.563 OA 
BRANCH  10  13
HETATM   13  N   UNL     1      -9.860  11.626  67.276  1.00  0.00    -0.187 N  
HETATM   14  H   UNL     1      -8.889  11.685  67.585  1.00  0.00     0.000 HD 
BRANCH  13  15
HETATM   15  C   UNL     1     -10.455  12.642  66.508  1.00  0.00    -0.247 A  
HETATM   16  C   UNL     1     -10.768  13.883  67.034  1.00  0.00    -0.283 A  
HETATM   17  C   UNL     1     -11.315  14.831  66.175  1.00  0.00    -0.330 A  
HETATM   18  C   UNL     1     -11.551  14.487  64.847  1.00  0.00    -0.401 A  
HETATM   19  C   UNL     1     -11.220  13.207  64.431  1.00  0.00    -0.371 A  
HETATM   20  N   UNL     1     -10.665  12.273  65.235  1.00  0.00    -0.282 NA 
ENDBRANCH  13  15
ENDBRANCH  10  13
ENDBRANCH   7  10
TORSDOF 3
ENDMDL
MODEL      125
REMARK 921   NORMALIZED FREE ENERGY PREDICTED BY IDOCK:   -4.19 KCAL/MOL
REMARK 922        TOTAL FREE ENERGY PREDICTED BY IDOCK:   -5.14 KCAL/MOL
REMARK 923 INTER-LIGAND FREE ENERGY PREDICTED BY IDOCK:   -4.71 KCAL/MOL
REMARK 924 INTRA-LIGAND FREE ENERGY PREDICTED BY IDOCK:   -0.43 KCAL/MOL
REMARK 927      BINDING AFFINITY PREDICTED BY RF-SCORE:    0.00 PKD
ROOT
HETATM    1  N   UNL     1      -9.710  14.005  66.562  1.00  0.00    -0.286 NA 
HETATM    2  H2  UNL     1     -10.616  14.444  66.730  1.00  0.00     0.000 HD 
HETATM    3  C   UNL     1      -9.675  12.788  67.250  1.00  0.00    -0.206 A  
HETATM    4  H1  UNL     1      -8.982  14.703  66.715  1.00  0.00     0.000 HD 
HETATM    5  C   UNL     1     -10.673  11.832  67.040  1.00  0.00    -0.286 A  
HETATM    6  C   UNL     1     -10.602  10.575  67.648  1.00  0.00    -0.295 A  
HETATM    7  C   UNL     1      -9.491  10.248  68.434  1.00  0.00    -0.146 A  
HETATM    8  C   UNL     1      -8.541  12.425  67.986  1.00  0.00    -0.180 A  
HETATM    9  C   UNL     1      -8.457  11.170  68.603  1.00  0.00    -0.153 A  
ENDROOT
BRANCH   7  10
HETATM   10  S   UNL     1      -9.475   8.711  69.339  1.00  0.00    -0.162 S  
HETATM   11  O   UNL     1     -10.580   7.902  68.865  1.00  0.00    -0.211 OA 
HETATM   12  O   UNL     1      -8.117   8.210  69.281  1.00  0.00    -0.113 OA 
BRANCH  10  13
HETATM   13  N   UNL     1      -9.746   9.141  70.942  1.00  0.00    -0.264 N  
HETATM   14  H   UNL     1      -8.979   9.290  71.597  1.00  0.00     0.000 HD 
BRANCH  13  15
HETATM   15  C   UNL     1     -11.089   9.283  71.332  1.00  0.00    -0.367 A  
HETATM   16  C   UNL     1     -11.797  10.457  71.140  1.00  0.00    -0.432 A  
HETATM   17  C   UNL     1     -13.135  10.477  71.524  1.00  0.00    -0.532 A  
HETATM   18  C   UNL     1     -13.690   9.341  72.105  1.00  0.00    -0.517 A  
HETATM   19  C   UNL     1     -12.884   8.226  72.271  1.00  0.00    -0.277 A  
HETATM   20  N   UNL     1     -11.589   8.168  71.886  1.00  0.00    -0.286 NA 
ENDBRANCH  13  15
ENDBRANCH  10  13
ENDBRANCH   7  10
TORSDOF 3
ENDMDL
MODEL      126
REMARK 921   NORMALIZED FREE ENERGY PREDICTED BY IDOCK:   -4.19 KCAL/MOL
REMARK 922        TOTAL FREE ENERGY PREDICTED BY IDOCK:   -5.14 KCAL/MOL
REMARK 923 INTER-LIGAND FREE ENERGY PREDICTED BY IDOCK:   -4.88 KCAL/MOL
REMARK 924 INTRA-LIGAND FREE ENERGY PREDICTED BY IDOCK:   -0.26 KCAL/MOL
REMARK 927      BINDING AFFINITY PREDICTED BY RF-SCORE:    0.00 PKD
ROOT
HETATM    1  N   UNL     1      -5.867  13.122  69.158  1.00  0.00    -0.076 NA 
HETATM    2  H2  UNL     1      -5.263  12.444  68.695  1.00  0.00     0.000 HD 
HETATM    3  C   UNL     1      -6.903  13.461  68.281  1.00  0.00    -0.106 A  
HETATM    4  H1  UNL     1      -5.280  13.850  69.564  1.00  0.00     0.000 HD 
HETATM    5  C   UNL     1      -7.708  12.462  67.724  1.00  0.00    -0.139 A  
HETATM    6  C   UNL     1      -8.805  12.790  66.921  1.00  0.00    -0.194 A  
HETATM    7  C   UNL     1      -9.136  14.135  66.716  1.00  0.00    -0.247 A  
HETATM    8  C   UNL     1      -7.284  14.799  68.120  1.00  0.00    -0.125 A  
HETATM    9  C   UNL     1      -8.379  15.142  67.317  1.00  0.00    -0.225 A  
ENDROOT
BRANCH   7  10
HETATM   10  S   UNL     1     -10.432  14.556  65.566  1.00  0.00    -0.382 S  
HETATM   11  O   UNL     1     -10.364  15.982  65.318  1.00  0.00    -0.471 OA 
HETATM   12  O   UNL     1     -10.336  13.613  64.471  1.00  0.00    -0.433 OA 
BRANCH  10  13
HETATM   13  N   UNL     1     -11.867  14.198  66.367  1.00  0.00    -0.405 N  
HETATM   14  H   UNL     1     -12.710  13.923  65.864  1.00  0.00     0.000 HD 
BRANCH  13  15
HETATM   15  C   UNL     1     -11.841  14.300  67.769  1.00  0.00    -0.379 A  
HETATM   16  C   UNL     1     -11.732  15.516  68.423  1.00  0.00    -0.323 A  
HETATM   17  C   UNL     1     -11.760  15.507  69.814  1.00  0.00    -0.362 A  
HETATM   18  C   UNL     1     -11.864  14.292  70.483  1.00  0.00    -0.364 A  
HETATM   19  C   UNL     1     -11.945  13.130  69.729  1.00  0.00    -0.314 A  
HETATM   20  N   UNL     1     -11.946  13.109  68.377  1.00  0.00    -0.333 NA 
ENDBRANCH  13  15
ENDBRANCH  10  13
ENDBRANCH   7  10
TORSDOF 3
ENDMDL
MODEL      127
REMARK 921   NORMALIZED FREE ENERGY PREDICTED BY IDOCK:   -4.18 KCAL/MOL
REMARK 922        TOTAL FREE ENERGY PREDICTED BY IDOCK:   -5.13 KCAL/MOL
REMARK 923 INTER-LIGAND FREE ENERGY PREDICTED BY IDOCK:   -4.85 KCAL/MOL
REMARK 924 INTRA-LIGAND FREE ENERGY PREDICTED BY IDOCK:   -0.28 KCAL/MOL
REMARK 927      BINDING AFFINITY PREDICTED BY RF-SCORE:    0.00 PKD
ROOT
HETATM    1  N   UNL     1      -9.868   2.494  72.295  1.00  0.00    -0.139 NA 
HETATM    2  H2  UNL     1      -8.861   2.359  72.198  1.00  0.00     0.000 HD 
HETATM    3  C   UNL     1     -10.141   3.862  72.190  1.00  0.00    -0.155 A  
HETATM    4  H1  UNL     1     -10.185   1.969  73.110  1.00  0.00     0.000 HD 
HETATM    5  C   UNL     1      -9.705   4.582  71.072  1.00  0.00    -0.259 A  
HETATM    6  C   UNL     1     -10.050   5.927  70.907  1.00  0.00    -0.251 A  
HETATM    7  C   UNL     1     -10.887   6.547  71.841  1.00  0.00    -0.237 A  
HETATM    8  C   UNL     1     -11.028   4.477  73.081  1.00  0.00    -0.346 A  
HETATM    9  C   UNL     1     -11.381   5.824  72.928  1.00  0.00    -0.298 A  
ENDROOT
BRANCH   7  10
HETATM   10  S   UNL     1     -11.196   8.300  71.719  1.00  0.00    -0.306 S  
HETATM   11  O   UNL     1     -12.396   8.596  72.475  1.00  0.00    -0.390 OA 
HETATM   12  O   UNL     1      -9.947   8.963  72.029  1.00  0.00    -0.329 OA 
BRANCH  10  13
HETATM   13  N   UNL     1     -11.483   8.584  70.086  1.00  0.00    -0.462 N  
HETATM   14  H   UNL     1     -11.790   7.842  69.457  1.00  0.00     0.000 HD 
BRANCH  13  15
HETATM   15  C   UNL     1     -11.277   9.898  69.635  1.00  0.00    -0.208 A  
HETATM   16  C   UNL     1     -12.104  10.947  70.000  1.00  0.00    -0.433 A  
HETATM   17  C   UNL     1     -11.784  12.217  69.531  1.00  0.00    -0.398 A  
HETATM   18  C   UNL     1     -10.680  12.376  68.700  1.00  0.00    -0.260 A  
HETATM   19  C   UNL     1      -9.932  11.253  68.379  1.00  0.00    -0.197 A  
HETATM   20  N   UNL     1     -10.203  10.011  68.838  1.00  0.00    -0.183 NA 
ENDBRANCH  13  15
ENDBRANCH  10  13
ENDBRANCH   7  10
TORSDOF 3
ENDMDL
MODEL      128
REMARK 921   NORMALIZED FREE ENERGY PREDICTED BY IDOCK:   -4.18 KCAL/MOL
REMARK 922        TOTAL FREE ENERGY PREDICTED BY IDOCK:   -5.12 KCAL/MOL
REMARK 923 INTER-LIGAND FREE ENERGY PREDICTED BY IDOCK:   -4.85 KCAL/MOL
REMARK 924 INTRA-LIGAND FREE ENERGY PREDICTED BY IDOCK:   -0.27 KCAL/MOL
REMARK 927      BINDING AFFINITY PREDICTED BY RF-SCORE:    0.00 PKD
ROOT
HETATM    1  N   UNL     1     -13.802  15.337  72.659  1.00  0.00    -0.494 NA 
HETATM    2  H2  UNL     1     -13.488  15.281  73.628  1.00  0.00     0.000 HD 
HETATM    3  C   UNL     1     -13.297  14.231  71.968  1.00  0.00    -0.398 A  
HETATM    4  H1  UNL     1     -13.624  16.281  72.317  1.00  0.00     0.000 HD 
HETATM    5  C   UNL     1     -13.541  12.936  72.438  1.00  0.00    -0.577 A  
HETATM    6  C   UNL     1     -13.123  11.818  71.709  1.00  0.00    -0.480 A  
HETATM    7  C   UNL     1     -12.501  11.993  70.468  1.00  0.00    -0.207 A  
HETATM    8  C   UNL     1     -12.731  14.388  70.698  1.00  0.00    -0.421 A  
HETATM    9  C   UNL     1     -12.306  13.278  69.958  1.00  0.00    -0.269 A  
ENDROOT
BRANCH   7  10
HETATM   10  S   UNL     1     -11.825  10.580  69.615  1.00  0.00    -0.199 S  
HETATM   11  O   UNL     1     -12.250   9.388  70.319  1.00  0.00     0.004 OA 
HETATM   12  O   UNL     1     -12.134  10.756  68.212  1.00  0.00    -0.496 OA 
BRANCH  10  13
HETATM   13  N   UNL     1     -10.156  10.741  69.751  1.00  0.00    -0.438 N  
HETATM   14  H   UNL     1      -9.688  11.636  69.606  1.00  0.00     0.000 HD 
BRANCH  13  15
HETATM   15  C   UNL     1      -9.440   9.576  70.074  1.00  0.00    -0.232 A  
HETATM   16  C   UNL     1      -9.207   8.569  69.153  1.00  0.00    -0.150 A  
HETATM   17  C   UNL     1      -8.449   7.477  69.567  1.00  0.00    -0.132 A  
HETATM   18  C   UNL     1      -7.990   7.427  70.879  1.00  0.00    -0.097 A  
HETATM   19  C   UNL     1      -8.301   8.481  71.725  1.00  0.00    -0.163 A  
HETATM   20  N   UNL     1      -9.012   9.566  71.346  1.00  0.00    -0.101 NA 
ENDBRANCH  13  15
ENDBRANCH  10  13
ENDBRANCH   7  10
TORSDOF 3
ENDMDL
MODEL      129
REMARK 921   NORMALIZED FREE ENERGY PREDICTED BY IDOCK:   -4.15 KCAL/MOL
REMARK 922        TOTAL FREE ENERGY PREDICTED BY IDOCK:   -5.09 KCAL/MOL
REMARK 923 INTER-LIGAND FREE ENERGY PREDICTED BY IDOCK:   -4.81 KCAL/MOL
REMARK 924 INTRA-LIGAND FREE ENERGY PREDICTED BY IDOCK:   -0.29 KCAL/MOL
REMARK 927      BINDING AFFINITY PREDICTED BY RF-SCORE:    0.00 PKD
ROOT
HETATM    1  N   UNL     1     -11.907  16.207  63.665  1.00  0.00    -1.180 NA 
HETATM    2  H2  UNL     1     -12.911  16.037  63.716  1.00  0.00     0.000 HD 
HETATM    3  C   UNL     1     -11.270  15.363  64.581  1.00  0.00    -0.364 A  
HETATM    4  H1  UNL     1     -11.750  17.214  63.700  1.00  0.00     0.000 HD 
HETATM    5  C   UNL     1     -11.486  13.982  64.533  1.00  0.00    -0.380 A  
HETATM    6  C   UNL     1     -10.786  13.117  65.380  1.00  0.00    -0.308 A  
HETATM    7  C   UNL     1      -9.817  13.632  66.249  1.00  0.00    -0.301 A  
HETATM    8  C   UNL     1     -10.254  15.856  65.409  1.00  0.00    -0.354 A  
HETATM    9  C   UNL     1      -9.546  15.001  66.264  1.00  0.00    -0.335 A  
ENDROOT
BRANCH   7  10
HETATM   10  S   UNL     1      -9.041  12.554  67.439  1.00  0.00    -0.194 S  
HETATM   11  O   UNL     1      -8.337  13.381  68.399  1.00  0.00    -0.159 OA 
HETATM   12  O   UNL     1     -10.058  11.621  67.878  1.00  0.00    -0.180 OA 
BRANCH  10  13
HETATM   13  N   UNL     1      -7.927  11.654  66.558  1.00  0.00    -0.332 N  
HETATM   14  H   UNL     1      -7.071  12.069  66.189  1.00  0.00     0.000 HD 
BRANCH  13  15
HETATM   15  C   UNL     1      -8.238  10.298  66.357  1.00  0.00    -0.129 A  
HETATM   16  C   UNL     1      -8.873   9.845  65.213  1.00  0.00    -0.210 A  
HETATM   17  C   UNL     1      -9.096   8.476  65.096  1.00  0.00     0.018 A  
HETATM   18  C   UNL     1      -8.706   7.634  66.133  1.00  0.00    -0.176 A  
HETATM   19  C   UNL     1      -8.098   8.197  67.244  1.00  0.00    -0.121 A  
HETATM   20  N   UNL     1      -7.845   9.519  67.376  1.00  0.00    -0.102 NA 
ENDBRANCH  13  15
ENDBRANCH  10  13
ENDBRANCH   7  10
TORSDOF 3
ENDMDL
MODEL      130
REMARK 921   NORMALIZED FREE ENERGY PREDICTED BY IDOCK:   -4.15 KCAL/MOL
REMARK 922        TOTAL FREE ENERGY PREDICTED BY IDOCK:   -5.09 KCAL/MOL
REMARK 923 INTER-LIGAND FREE ENERGY PREDICTED BY IDOCK:   -4.98 KCAL/MOL
REMARK 924 INTRA-LIGAND FREE ENERGY PREDICTED BY IDOCK:   -0.11 KCAL/MOL
REMARK 927      BINDING AFFINITY PREDICTED BY RF-SCORE:    0.00 PKD
ROOT
HETATM    1  N   UNL     1     -12.723  13.306  70.657  1.00  0.00    -0.210 NA 
HETATM    2  H2  UNL     1     -12.645  13.779  71.558  1.00  0.00     0.000 HD 
HETATM    3  C   UNL     1     -12.388  11.960  70.836  1.00  0.00    -0.300 A  
HETATM    4  H1  UNL     1     -12.238  13.867  69.957  1.00  0.00     0.000 HD 
HETATM    5  C   UNL     1     -13.052  11.190  71.796  1.00  0.00    -0.536 A  
HETATM    6  C   UNL     1     -12.795   9.822  71.922  1.00  0.00    -0.520 A  
HETATM    7  C   UNL     1     -11.902   9.201  71.042  1.00  0.00    -0.292 A  
HETATM    8  C   UNL     1     -11.546  11.314  69.923  1.00  0.00    -0.413 A  
HETATM    9  C   UNL     1     -11.278   9.944  70.038  1.00  0.00    -0.327 A  
ENDROOT
BRANCH   7  10
HETATM   10  S   UNL     1     -11.451   7.495  71.303  1.00  0.00    -0.281 S  
HETATM   11  O   UNL     1     -11.191   7.313  72.717  1.00  0.00    -0.296 OA 
HETATM   12  O   UNL     1     -12.452   6.694  70.630  1.00  0.00    -0.289 OA 
BRANCH  10  13
HETATM   13  N   UNL     1     -10.023   7.280  70.442  1.00  0.00    -0.190 N  
HETATM   14  H   UNL     1      -9.131   7.639  70.781  1.00  0.00     0.000 HD 
BRANCH  13  15
HETATM   15  C   UNL     1     -10.125   6.578  69.228  1.00  0.00    -0.168 A  
HETATM   16  C   UNL     1     -10.739   7.115  68.110  1.00  0.00    -0.214 A  
HETATM   17  C   UNL     1     -10.746   6.352  66.946  1.00  0.00    -0.408 A  
HETATM   18  C   UNL     1     -10.172   5.085  66.962  1.00  0.00    -0.253 A  
HETATM   19  C   UNL     1      -9.603   4.635  68.144  1.00  0.00    -0.148 A  
HETATM   20  N   UNL     1      -9.558   5.363  69.283  1.00  0.00    -0.135 NA 
ENDBRANCH  13  15
ENDBRANCH  10  13
ENDBRANCH   7  10
TORSDOF 3
ENDMDL
MODEL      131
REMARK 921   NORMALIZED FREE ENERGY PREDICTED BY IDOCK:   -4.13 KCAL/MOL
REMARK 922        TOTAL FREE ENERGY PREDICTED BY IDOCK:   -5.07 KCAL/MOL
REMARK 923 INTER-LIGAND FREE ENERGY PREDICTED BY IDOCK:   -4.83 KCAL/MOL
REMARK 924 INTRA-LIGAND FREE ENERGY PREDICTED BY IDOCK:   -0.24 KCAL/MOL
REMARK 927      BINDING AFFINITY PREDICTED BY RF-SCORE:    0.00 PKD
ROOT
HETATM    1  N   UNL     1     -12.699  11.463  62.852  1.00  0.00    -0.796 NA 
HETATM    2  H2  UNL     1     -12.549  11.806  61.903  1.00  0.00     0.000 HD 
HETATM    3  C   UNL     1     -12.028  12.311  63.739  1.00  0.00    -0.519 A  
HETATM    4  H1  UNL     1     -12.516  10.460  62.864  1.00  0.00     0.000 HD 
HETATM    5  C   UNL     1     -12.279  13.687  63.723  1.00  0.00    -0.413 A  
HETATM    6  C   UNL     1     -11.687  14.535  64.664  1.00  0.00    -0.438 A  
HETATM    7  C   UNL     1     -10.877  13.996  65.670  1.00  0.00    -0.295 A  
HETATM    8  C   UNL     1     -11.267  11.780  64.787  1.00  0.00    -0.333 A  
HETATM    9  C   UNL     1     -10.667  12.618  65.736  1.00  0.00    -0.295 A  
ENDROOT
BRANCH   7  10
HETATM   10  S   UNL     1      -9.995  15.088  66.769  1.00  0.00    -0.255 S  
HETATM   11  O   UNL     1      -8.898  15.678  66.028  1.00  0.00    -0.318 OA 
HETATM   12  O   UNL     1     -10.989  15.928  67.404  1.00  0.00    -0.318 OA 
BRANCH  10  13
HETATM   13  N   UNL     1      -9.380  14.094  67.978  1.00  0.00    -0.196 N  
HETATM   14  H   UNL     1      -9.983  13.663  68.679  1.00  0.00     0.000 HD 
BRANCH  13  15
HETATM   15  C   UNL     1      -7.989  13.890  67.972  1.00  0.00    -0.154 A  
HETATM   16  C   UNL     1      -7.117  14.703  68.675  1.00  0.00    -0.115 A  
HETATM   17  C   UNL     1      -5.762  14.385  68.635  1.00  0.00    -0.088 A  
HETATM   18  C   UNL     1      -5.342  13.298  67.876  1.00  0.00    -0.108 A  
HETATM   19  C   UNL     1      -6.300  12.564  67.192  1.00  0.00    -0.044 A  
HETATM   20  N   UNL     1      -7.624  12.832  67.232  1.00  0.00    -0.143 NA 
ENDBRANCH  13  15
ENDBRANCH  10  13
ENDBRANCH   7  10
TORSDOF 3
ENDMDL
MODEL      132
REMARK 921   NORMALIZED FREE ENERGY PREDICTED BY IDOCK:   -4.10 KCAL/MOL
REMARK 922        TOTAL FREE ENERGY PREDICTED BY IDOCK:   -5.03 KCAL/MOL
REMARK 923 INTER-LIGAND FREE ENERGY PREDICTED BY IDOCK:   -4.76 KCAL/MOL
REMARK 924 INTRA-LIGAND FREE ENERGY PREDICTED BY IDOCK:   -0.27 KCAL/MOL
REMARK 927      BINDING AFFINITY PREDICTED BY RF-SCORE:    0.00 PKD
ROOT
HETATM    1  N   UNL     1     -10.054  16.483  65.242  1.00  0.00    -0.548 NA 
HETATM    2  H2  UNL     1     -11.041  16.726  65.162  1.00  0.00     0.000 HD 
HETATM    3  C   UNL     1      -9.952  15.267  65.925  1.00  0.00    -0.340 A  
HETATM    4  H1  UNL     1      -9.548  17.303  65.575  1.00  0.00     0.000 HD 
HETATM    5  C   UNL     1     -10.646  14.142  65.467  1.00  0.00    -0.335 A  
HETATM    6  C   UNL     1     -10.481  12.898  66.083  1.00  0.00    -0.283 A  
HETATM    7  C   UNL     1      -9.569  12.762  67.136  1.00  0.00    -0.219 A  
HETATM    8  C   UNL     1      -8.997  15.102  66.936  1.00  0.00    -0.277 A  
HETATM    9  C   UNL     1      -8.823  13.861  67.563  1.00  0.00    -0.196 A  
ENDROOT
BRANCH   7  10
HETATM   10  S   UNL     1      -9.476  11.219  68.025  1.00  0.00    -0.180 S  
HETATM   11  O   UNL     1     -10.353  10.270  67.367  1.00  0.00    -0.204 OA 
HETATM   12  O   UNL     1      -8.069  10.923  68.197  1.00  0.00    -0.110 OA 
BRANCH  10  13
HETATM   13  N   UNL     1     -10.075  11.558  69.560  1.00  0.00    -0.325 N  
HETATM   14  H   UNL     1      -9.962  12.476  69.990  1.00  0.00     0.000 HD 
BRANCH  13  15
HETATM   15  C   UNL     1     -10.739  10.509  70.218  1.00  0.00    -0.100 A  
HETATM   16  C   UNL     1     -10.090   9.352  70.614  1.00  0.00    -0.356 A  
HETATM   17  C   UNL     1     -10.834   8.394  71.297  1.00  0.00    -0.293 A  
HETATM   18  C   UNL     1     -12.188   8.620  71.523  1.00  0.00    -0.368 A  
HETATM   19  C   UNL     1     -12.742   9.805  71.062  1.00  0.00    -0.304 A  
HETATM   20  N   UNL     1     -12.041  10.765  70.419  1.00  0.00    -0.323 NA 
ENDBRANCH  13  15
ENDBRANCH  10  13
ENDBRANCH   7  10
TORSDOF 3
ENDMDL
MODEL      133
REMARK 921   NORMALIZED FREE ENERGY PREDICTED BY IDOCK:   -4.08 KCAL/MOL
REMARK 922        TOTAL FREE ENERGY PREDICTED BY IDOCK:   -5.01 KCAL/MOL
REMARK 923 INTER-LIGAND FREE ENERGY PREDICTED BY IDOCK:   -4.68 KCAL/MOL
REMARK 924 INTRA-LIGAND FREE ENERGY PREDICTED BY IDOCK:   -0.33 KCAL/MOL
REMARK 927      BINDING AFFINITY PREDICTED BY RF-SCORE:    0.00 PKD
ROOT
HETATM    1  N   UNL     1     -12.080  15.164  72.517  1.00  0.00    -0.376 NA 
HETATM    2  H2  UNL     1     -12.719  14.376  72.623  1.00  0.00     0.000 HD 
HETATM    3  C   UNL     1     -11.681  15.231  71.178  1.00  0.00    -0.360 A  
HETATM    4  H1  UNL     1     -11.382  15.113  73.258  1.00  0.00     0.000 HD 
HETATM    5  C   UNL     1     -12.639  15.300  70.161  1.00  0.00    -0.334 A  
HETATM    6  C   UNL     1     -12.257  15.461  68.826  1.00  0.00    -0.061 A  
HETATM    7  C   UNL     1     -10.903  15.611  68.506  1.00  0.00    -0.282 A  
HETATM    8  C   UNL     1     -10.337  15.445  70.850  1.00  0.00     0.311 A  
HETATM    9  C   UNL     1      -9.940  15.606  69.516  1.00  0.00    -0.285 A  
ENDROOT
BRANCH   7  10
HETATM   10  S   UNL     1     -10.403  15.655  66.794  1.00  0.00    -0.292 S  
HETATM   11  O   UNL     1     -10.449  17.033  66.350  1.00  0.00    -0.309 OA 
HETATM   12  O   UNL     1      -9.175  14.892  66.702  1.00  0.00    -0.245 OA 
BRANCH  10  13
HETATM   13  N   UNL     1     -11.570  14.765  65.972  1.00  0.00    -0.326 N  
HETATM   14  H   UNL     1     -12.497  15.142  65.780  1.00  0.00     0.000 HD 
BRANCH  13  15
HETATM   15  C   UNL     1     -11.197  13.473  65.563  1.00  0.00    -0.292 A  
HETATM   16  C   UNL     1     -11.239  12.384  66.417  1.00  0.00    -0.365 A  
HETATM   17  C   UNL     1     -10.889  11.141  65.897  1.00  0.00    -0.223 A  
HETATM   18  C   UNL     1     -10.488  11.049  64.568  1.00  0.00    -0.411 A  
HETATM   19  C   UNL     1     -10.461  12.209  63.808  1.00  0.00    -0.437 A  
HETATM   20  N   UNL     1     -10.818  13.425  64.277  1.00  0.00    -0.395 NA 
ENDBRANCH  13  15
ENDBRANCH  10  13
ENDBRANCH   7  10
TORSDOF 3
ENDMDL
MODEL      134
REMARK 921   NORMALIZED FREE ENERGY PREDICTED BY IDOCK:   -4.07 KCAL/MOL
REMARK 922        TOTAL FREE ENERGY PREDICTED BY IDOCK:   -5.01 KCAL/MOL
REMARK 923 INTER-LIGAND FREE ENERGY PREDICTED BY IDOCK:   -4.81 KCAL/MOL
REMARK 924 INTRA-LIGAND FREE ENERGY PREDICTED BY IDOCK:   -0.20 KCAL/MOL
REMARK 927      BINDING AFFINITY PREDICTED BY RF-SCORE:    0.00 PKD
ROOT
HETATM    1  N   UNL     1      -6.936   7.845  62.787  1.00  0.00    -0.084 NA 
HETATM    2  H2  UNL     1      -7.356   6.923  62.898  1.00  0.00     0.000 HD 
HETATM    3  C   UNL     1      -7.879   8.807  63.164  1.00  0.00    -0.149 A  
HETATM    4  H1  UNL     1      -6.497   7.890  61.868  1.00  0.00     0.000 HD 
HETATM    5  C   UNL     1      -8.481   8.746  64.425  1.00  0.00    -0.146 A  
HETATM    6  C   UNL     1      -9.354   9.751  64.852  1.00  0.00    -0.327 A  
HETATM    7  C   UNL     1      -9.587  10.861  64.033  1.00  0.00    -0.278 A  
HETATM    8  C   UNL     1      -8.072   9.953  62.383  1.00  0.00    -0.143 A  
HETATM    9  C   UNL     1      -8.945  10.966  62.798  1.00  0.00    -0.326 A  
ENDROOT
BRANCH   7  10
HETATM   10  S   UNL     1     -10.821  12.060  64.505  1.00  0.00    -0.336 S  
HETATM   11  O   UNL     1     -11.699  12.268  63.371  1.00  0.00    -0.455 OA 
HETATM   12  O   UNL     1     -11.354  11.626  65.779  1.00  0.00    -0.284 OA 
BRANCH  10  13
HETATM   13  N   UNL     1      -9.965  13.474  64.813  1.00  0.00    -0.627 N  
HETATM   14  H   UNL     1      -9.378  13.913  64.103  1.00  0.00     0.000 HD 
BRANCH  13  15
HETATM   15  C   UNL     1     -10.101  14.019  66.101  1.00  0.00    -0.309 A  
HETATM   16  C   UNL     1     -11.152  14.851  66.447  1.00  0.00    -0.342 A  
HETATM   17  C   UNL     1     -11.215  15.301  67.763  1.00  0.00    -0.327 A  
HETATM   18  C   UNL     1     -10.217  14.927  68.656  1.00  0.00    -0.236 A  
HETATM   19  C   UNL     1      -9.197  14.107  68.197  1.00  0.00    -0.194 A  
HETATM   20  N   UNL     1      -9.122  13.634  66.934  1.00  0.00    -0.246 NA 
ENDBRANCH  13  15
ENDBRANCH  10  13
ENDBRANCH   7  10
TORSDOF 3
ENDMDL
MODEL      135
REMARK 921   NORMALIZED FREE ENERGY PREDICTED BY IDOCK:   -4.03 KCAL/MOL
REMARK 922        TOTAL FREE ENERGY PREDICTED BY IDOCK:   -4.95 KCAL/MOL
REMARK 923 INTER-LIGAND FREE ENERGY PREDICTED BY IDOCK:   -4.67 KCAL/MOL
REMARK 924 INTRA-LIGAND FREE ENERGY PREDICTED BY IDOCK:   -0.28 KCAL/MOL
REMARK 927      BINDING AFFINITY PREDICTED BY RF-SCORE:    0.00 PKD
ROOT
HETATM    1  N   UNL     1      -7.317  11.183  69.895  1.00  0.00    -0.379 NA 
HETATM    2  H2  UNL     1      -7.923  11.901  70.292  1.00  0.00     0.000 HD 
HETATM    3  C   UNL     1      -8.104  10.076  69.562  1.00  0.00    -0.161 A  
HETATM    4  H1  UNL     1      -6.507  11.072  70.505  1.00  0.00     0.000 HD 
HETATM    5  C   UNL     1      -9.215  10.229  68.725  1.00  0.00    -0.166 A  
HETATM    6  C   UNL     1      -9.956   9.120  68.307  1.00  0.00    -0.199 A  
HETATM    7  C   UNL     1      -9.551   7.834  68.685  1.00  0.00    -0.154 A  
HETATM    8  C   UNL     1      -7.676   8.782  69.879  1.00  0.00    -0.081 A  
HETATM    9  C   UNL     1      -8.409   7.662  69.469  1.00  0.00    -0.130 A  
ENDROOT
BRANCH   7  10
HETATM   10  S   UNL     1     -10.584   6.435  68.289  1.00  0.00    -0.286 S  
HETATM   11  O   UNL     1     -11.126   6.641  66.961  1.00  0.00    -0.403 OA 
HETATM   12  O   UNL     1      -9.809   5.249  68.592  1.00  0.00    -0.136 OA 
BRANCH  10  13
HETATM   13  N   UNL     1     -11.834   6.478  69.413  1.00  0.00    -0.554 N  
HETATM   14  H   UNL     1     -12.808   6.345  69.140  1.00  0.00     0.000 HD 
BRANCH  13  15
HETATM   15  C   UNL     1     -11.465   6.708  70.750  1.00  0.00    -0.353 A  
HETATM   16  C   UNL     1     -10.881   5.730  71.537  1.00  0.00    -0.316 A  
HETATM   17  C   UNL     1     -10.514   6.076  72.834  1.00  0.00    -0.243 A  
HETATM   18  C   UNL     1     -10.775   7.364  73.291  1.00  0.00    -0.441 A  
HETATM   19  C   UNL     1     -11.385   8.259  72.425  1.00  0.00    -0.388 A  
HETATM   20  N   UNL     1     -11.730   7.960  71.153  1.00  0.00    -0.284 NA 
ENDBRANCH  13  15
ENDBRANCH  10  13
ENDBRANCH   7  10
TORSDOF 3
ENDMDL
MODEL      136
REMARK 921   NORMALIZED FREE ENERGY PREDICTED BY IDOCK:   -4.01 KCAL/MOL
REMARK 922        TOTAL FREE ENERGY PREDICTED BY IDOCK:   -4.93 KCAL/MOL
REMARK 923 INTER-LIGAND FREE ENERGY PREDICTED BY IDOCK:   -4.71 KCAL/MOL
REMARK 924 INTRA-LIGAND FREE ENERGY PREDICTED BY IDOCK:   -0.22 KCAL/MOL
REMARK 927      BINDING AFFINITY PREDICTED BY RF-SCORE:    0.00 PKD
ROOT
HETATM    1  N   UNL     1      -6.677  21.232  67.764  1.00  0.00    -0.405 NA 
HETATM    2  H2  UNL     1      -5.661  21.160  67.709  1.00  0.00     0.000 HD 
HETATM    3  C   UNL     1      -7.205  19.942  67.876  1.00  0.00    -0.282 A  
HETATM    4  H1  UNL     1      -6.995  21.855  67.022  1.00  0.00     0.000 HD 
HETATM    5  C   UNL     1      -6.768  19.089  68.894  1.00  0.00    -0.321 A  
HETATM    6  C   UNL     1      -7.353  17.832  69.077  1.00  0.00    -0.182 A  
HETATM    7  C   UNL     1      -8.427  17.443  68.267  1.00  0.00    -0.249 A  
HETATM    8  C   UNL     1      -8.320  19.566  67.117  1.00  0.00    -0.321 A  
HETATM    9  C   UNL     1      -8.914  18.310  67.287  1.00  0.00    -0.259 A  
ENDROOT
BRANCH   7  10
HETATM   10  S   UNL     1      -9.066  15.783  68.391  1.00  0.00    -0.194 S  
HETATM   11  O   UNL     1      -8.706  15.074  67.179  1.00  0.00    -0.192 OA 
HETATM   12  O   UNL     1      -8.661  15.279  69.687  1.00  0.00    -0.235 OA 
BRANCH  10  13
HETATM   13  N   UNL     1     -10.737  15.958  68.457  1.00  0.00    -0.260 N  
HETATM   14  H   UNL     1     -11.283  16.229  67.639  1.00  0.00     0.000 HD 
BRANCH  13  15
HETATM   15  C   UNL     1     -11.343  15.711  69.701  1.00  0.00    -0.329 A  
HETATM   16  C   UNL     1     -11.293  16.620  70.744  1.00  0.00     0.104 A  
HETATM   17  C   UNL     1     -11.963  16.293  71.920  1.00  0.00    -0.513 A  
HETATM   18  C   UNL     1     -12.620  15.070  72.009  1.00  0.00    -0.405 A  
HETATM   19  C   UNL     1     -12.587  14.224  70.910  1.00  0.00    -0.356 A  
HETATM   20  N   UNL     1     -11.967  14.524  69.748  1.00  0.00    -0.313 NA 
ENDBRANCH  13  15
ENDBRANCH  10  13
ENDBRANCH   7  10
TORSDOF 3
ENDMDL
MODEL      137
REMARK 921   NORMALIZED FREE ENERGY PREDICTED BY IDOCK:   -4.01 KCAL/MOL
REMARK 922        TOTAL FREE ENERGY PREDICTED BY IDOCK:   -4.93 KCAL/MOL
REMARK 923 INTER-LIGAND FREE ENERGY PREDICTED BY IDOCK:   -4.53 KCAL/MOL
REMARK 924 INTRA-LIGAND FREE ENERGY PREDICTED BY IDOCK:   -0.40 KCAL/MOL
REMARK 927      BINDING AFFINITY PREDICTED BY RF-SCORE:    0.00 PKD
ROOT
HETATM    1  N   UNL     1     -12.254  15.029  68.121  1.00  0.00    -0.531 NA 
HETATM    2  H2  UNL     1     -13.129  14.627  68.458  1.00  0.00     0.000 HD 
HETATM    3  C   UNL     1     -11.575  14.053  67.384  1.00  0.00    -0.368 A  
HETATM    4  H1  UNL     1     -11.792  15.494  68.902  1.00  0.00     0.000 HD 
HETATM    5  C   UNL     1     -12.209  13.415  66.312  1.00  0.00    -0.456 A  
HETATM    6  C   UNL     1     -11.514  12.506  65.508  1.00  0.00    -0.389 A  
HETATM    7  C   UNL     1     -10.154  12.272  65.740  1.00  0.00    -0.252 A  
HETATM    8  C   UNL     1     -10.201  13.858  67.565  1.00  0.00    -0.245 A  
HETATM    9  C   UNL     1      -9.494  12.949  66.767  1.00  0.00    -0.245 A  
ENDROOT
BRANCH   7  10
HETATM   10  S   UNL     1      -9.310  10.998  64.822  1.00  0.00    -0.188 S  
HETATM   11  O   UNL     1      -9.394  11.332  63.414  1.00  0.00    -0.251 OA 
HETATM   12  O   UNL     1      -8.023  10.811  65.458  1.00  0.00    -0.145 OA 
BRANCH  10  13
HETATM   13  N   UNL     1     -10.186   9.592  65.113  1.00  0.00    -0.140 N  
HETATM   14  H   UNL     1     -10.826   9.203  64.421  1.00  0.00     0.000 HD 
BRANCH  13  15
HETATM   15  C   UNL     1      -9.987   8.980  66.363  1.00  0.00    -0.300 A  
HETATM   16  C   UNL     1     -10.591   9.443  67.520  1.00  0.00    -0.333 A  
HETATM   17  C   UNL     1     -10.361   8.736  68.697  1.00  0.00    -0.230 A  
HETATM   18  C   UNL     1      -9.520   7.629  68.670  1.00  0.00    -0.151 A  
HETATM   19  C   UNL     1      -8.949   7.265  67.459  1.00  0.00    -0.122 A  
HETATM   20  N   UNL     1      -9.173   7.915  66.296  1.00  0.00    -0.187 NA 
ENDBRANCH  13  15
ENDBRANCH  10  13
ENDBRANCH   7  10
TORSDOF 3
ENDMDL
MODEL      138
REMARK 921   NORMALIZED FREE ENERGY PREDICTED BY IDOCK:   -3.97 KCAL/MOL
REMARK 922        TOTAL FREE ENERGY PREDICTED BY IDOCK:   -4.89 KCAL/MOL
REMARK 923 INTER-LIGAND FREE ENERGY PREDICTED BY IDOCK:   -4.59 KCAL/MOL
REMARK 924 INTRA-LIGAND FREE ENERGY PREDICTED BY IDOCK:   -0.29 KCAL/MOL
REMARK 927      BINDING AFFINITY PREDICTED BY RF-SCORE:    0.00 PKD
ROOT
HETATM    1  N   UNL     1     -12.327  14.000  68.422  1.00  0.00    -0.504 NA 
HETATM    2  H2  UNL     1     -11.887  14.418  69.242  1.00  0.00     0.000 HD 
HETATM    3  C   UNL     1     -11.725  12.761  68.182  1.00  0.00    -0.345 A  
HETATM    4  H1  UNL     1     -12.365  14.703  67.685  1.00  0.00     0.000 HD 
HETATM    5  C   UNL     1     -11.672  11.796  69.194  1.00  0.00    -0.388 A  
HETATM    6  C   UNL     1     -11.159  10.520  68.943  1.00  0.00    -0.312 A  
HETATM    7  C   UNL     1     -10.743  10.183  67.650  1.00  0.00    -0.285 A  
HETATM    8  C   UNL     1     -11.365  12.389  66.882  1.00  0.00    -0.392 A  
HETATM    9  C   UNL     1     -10.847  11.115  66.616  1.00  0.00    -0.308 A  
ENDROOT
BRANCH   7  10
HETATM   10  S   UNL     1      -9.940   8.617  67.364  1.00  0.00    -0.231 S  
HETATM   11  O   UNL     1     -10.970   7.614  67.177  1.00  0.00    -0.266 OA 
HETATM   12  O   UNL     1      -8.940   8.844  66.342  1.00  0.00    -0.141 OA 
BRANCH  10  13
HETATM   13  N   UNL     1      -9.095   8.289  68.781  1.00  0.00    -0.144 N  
HETATM   14  H   UNL     1      -8.274   8.828  69.054  1.00  0.00     0.000 HD 
BRANCH  13  15
HETATM   15  C   UNL     1      -9.582   7.232  69.569  1.00  0.00    -0.155 A  
HETATM   16  C   UNL     1     -10.637   7.389  70.452  1.00  0.00    -0.238 A  
HETATM   17  C   UNL     1     -11.068   6.266  71.151  1.00  0.00    -0.356 A  
HETATM   18  C   UNL     1     -10.411   5.055  70.961  1.00  0.00    -0.254 A  
HETATM   19  C   UNL     1      -9.351   5.014  70.068  1.00  0.00    -0.150 A  
HETATM   20  N   UNL     1      -8.925   6.081  69.356  1.00  0.00    -0.126 NA 
ENDBRANCH  13  15
ENDBRANCH  10  13
ENDBRANCH   7  10
TORSDOF 3
ENDMDL
MODEL      139
REMARK 921   NORMALIZED FREE ENERGY PREDICTED BY IDOCK:   -3.97 KCAL/MOL
REMARK 922        TOTAL FREE ENERGY PREDICTED BY IDOCK:   -4.89 KCAL/MOL
REMARK 923 INTER-LIGAND FREE ENERGY PREDICTED BY IDOCK:   -4.60 KCAL/MOL
REMARK 924 INTRA-LIGAND FREE ENERGY PREDICTED BY IDOCK:   -0.29 KCAL/MOL
REMARK 927      BINDING AFFINITY PREDICTED BY RF-SCORE:    0.00 PKD
ROOT
HETATM    1  N   UNL     1      -9.605   4.937  72.336  1.00  0.00    -0.144 NA 
HETATM    2  H2  UNL     1      -9.099   5.307  73.141  1.00  0.00     0.000 HD 
HETATM    3  C   UNL     1      -9.765   5.967  71.404  1.00  0.00    -0.164 A  
HETATM    4  H1  UNL     1     -10.417   4.422  72.676  1.00  0.00     0.000 HD 
HETATM    5  C   UNL     1      -8.651   6.674  70.938  1.00  0.00    -0.134 A  
HETATM    6  C   UNL     1      -8.783   7.642  69.939  1.00  0.00    -0.139 A  
HETATM    7  C   UNL     1     -10.034   7.871  69.356  1.00  0.00    -0.189 A  
HETATM    8  C   UNL     1     -10.997   6.162  70.769  1.00  0.00    -0.365 A  
HETATM    9  C   UNL     1     -11.144   7.130  69.767  1.00  0.00    -0.239 A  
ENDROOT
BRANCH   7  10
HETATM   10  S   UNL     1     -10.235   9.213  68.199  1.00  0.00    -0.216 S  
HETATM   11  O   UNL     1      -9.106  10.109  68.354  1.00  0.00    -0.128 OA 
HETATM   12  O   UNL     1     -10.527   8.613  66.914  1.00  0.00    -0.294 OA 
BRANCH  10  13
HETATM   13  N   UNL     1     -11.641  10.001  68.678  1.00  0.00    -0.506 N  
HETATM   14  H   UNL     1     -12.437   9.494  69.066  1.00  0.00     0.000 HD 
BRANCH  13  15
HETATM   15  C   UNL     1     -11.662  11.397  68.515  1.00  0.00    -0.318 A  
HETATM   16  C   UNL     1     -11.705  11.998  67.269  1.00  0.00    -0.339 A  
HETATM   17  C   UNL     1     -11.766  13.387  67.222  1.00  0.00    -0.424 A  
HETATM   18  C   UNL     1     -11.751  14.108  68.412  1.00  0.00    -0.380 A  
HETATM   19  C   UNL     1     -11.683  13.405  69.605  1.00  0.00    -0.310 A  
HETATM   20  N   UNL     1     -11.648  12.056  69.684  1.00  0.00    -0.307 NA 
ENDBRANCH  13  15
ENDBRANCH  10  13
ENDBRANCH   7  10
TORSDOF 3
ENDMDL
MODEL      140
REMARK 921   NORMALIZED FREE ENERGY PREDICTED BY IDOCK:   -3.97 KCAL/MOL
REMARK 922        TOTAL FREE ENERGY PREDICTED BY IDOCK:   -4.88 KCAL/MOL
REMARK 923 INTER-LIGAND FREE ENERGY PREDICTED BY IDOCK:   -4.65 KCAL/MOL
REMARK 924 INTRA-LIGAND FREE ENERGY PREDICTED BY IDOCK:   -0.23 KCAL/MOL
REMARK 927      BINDING AFFINITY PREDICTED BY RF-SCORE:    0.00 PKD
ROOT
HETATM    1  N   UNL     1     -11.059   5.623  66.181  1.00  0.00    -0.756 NA 
HETATM    2  H2  UNL     1     -10.237   5.669  65.579  1.00  0.00     0.000 HD 
HETATM    3  C   UNL     1     -10.832   6.431  67.300  1.00  0.00    -0.385 A  
HETATM    4  H1  UNL     1     -11.317   4.644  66.299  1.00  0.00     0.000 HD 
HETATM    5  C   UNL     1     -10.478   7.774  67.138  1.00  0.00    -0.413 A  
HETATM    6  C   UNL     1     -10.339   8.617  68.244  1.00  0.00    -0.252 A  
HETATM    7  C   UNL     1     -10.610   8.128  69.527  1.00  0.00    -0.213 A  
HETATM    8  C   UNL     1     -11.161   5.973  68.581  1.00  0.00    -0.293 A  
HETATM    9  C   UNL     1     -11.024   6.806  69.699  1.00  0.00    -0.336 A  
ENDROOT
BRANCH   7  10
HETATM   10  S   UNL     1     -10.278   9.153  70.948  1.00  0.00    -0.306 S  
HETATM   11  O   UNL     1      -8.939   9.689  70.809  1.00  0.00    -0.187 OA 
HETATM   12  O   UNL     1     -11.414  10.038  71.095  1.00  0.00    -0.357 OA 
BRANCH  10  13
HETATM   13  N   UNL     1     -10.325   8.108  72.266  1.00  0.00    -0.265 N  
HETATM   14  H   UNL     1     -11.206   7.803  72.679  1.00  0.00     0.000 HD 
BRANCH  13  15
HETATM   15  C   UNL     1      -9.085   7.678  72.767  1.00  0.00    -0.165 A  
HETATM   16  C   UNL     1      -8.542   8.182  73.936  1.00  0.00    -0.288 A  
HETATM   17  C   UNL     1      -7.327   7.654  74.366  1.00  0.00    -0.158 A  
HETATM   18  C   UNL     1      -6.702   6.678  73.597  1.00  0.00    -0.072 A  
HETATM   19  C   UNL     1      -7.324   6.261  72.430  1.00  0.00    -0.092 A  
HETATM   20  N   UNL     1      -8.514   6.736  72.000  1.00  0.00    -0.112 NA 
ENDBRANCH  13  15
ENDBRANCH  10  13
ENDBRANCH   7  10
TORSDOF 3
ENDMDL
MODEL      141
REMARK 921   NORMALIZED FREE ENERGY PREDICTED BY IDOCK:   -3.96 KCAL/MOL
REMARK 922        TOTAL FREE ENERGY PREDICTED BY IDOCK:   -4.87 KCAL/MOL
REMARK 923 INTER-LIGAND FREE ENERGY PREDICTED BY IDOCK:   -4.58 KCAL/MOL
REMARK 924 INTRA-LIGAND FREE ENERGY PREDICTED BY IDOCK:   -0.29 KCAL/MOL
REMARK 927      BINDING AFFINITY PREDICTED BY RF-SCORE:    0.00 PKD
ROOT
HETATM    1  N   UNL     1     -12.078   8.133  73.047  1.00  0.00    -0.617 NA 
HETATM    2  H2  UNL     1     -11.210   7.772  73.443  1.00  0.00     0.000 HD 
HETATM    3  C   UNL     1     -11.782   8.756  71.830  1.00  0.00    -0.359 A  
HETATM    4  H1  UNL     1     -12.576   8.642  73.777  1.00  0.00     0.000 HD 
HETATM    5  C   UNL     1     -11.099   8.058  70.830  1.00  0.00    -0.269 A  
HETATM    6  C   UNL     1     -10.878   8.635  69.576  1.00  0.00    -0.138 A  
HETATM    7  C   UNL     1     -11.395   9.905  69.297  1.00  0.00    -0.067 A  
HETATM    8  C   UNL     1     -12.347   9.998  71.516  1.00  0.00    -0.513 A  
HETATM    9  C   UNL     1     -12.132  10.589  70.265  1.00  0.00    -0.402 A  
ENDROOT
BRANCH   7  10
HETATM   10  S   UNL     1     -10.977  10.707  67.759  1.00  0.00    -0.320 S  
HETATM   11  O   UNL     1     -12.013  11.676  67.465  1.00  0.00    -0.622 OA 
HETATM   12  O   UNL     1      -9.593  11.119  67.869  1.00  0.00    -0.167 OA 
BRANCH  10  13
HETATM   13  N   UNL     1     -11.012   9.486  66.602  1.00  0.00     0.090 N  
HETATM   14  H   UNL     1     -11.765   8.799  66.569  1.00  0.00     0.000 HD 
BRANCH  13  15
HETATM   15  C   UNL     1      -9.948   9.464  65.685  1.00  0.00    -0.139 A  
HETATM   16  C   UNL     1      -8.847   8.641  65.845  1.00  0.00    -0.221 A  
HETATM   17  C   UNL     1      -7.870   8.667  64.854  1.00  0.00    -0.116 A  
HETATM   18  C   UNL     1      -8.022   9.530  63.774  1.00  0.00    -0.142 A  
HETATM   19  C   UNL     1      -9.154  10.328  63.724  1.00  0.00    -0.256 A  
HETATM   20  N   UNL     1     -10.132  10.307  64.657  1.00  0.00    -0.321 NA 
ENDBRANCH  13  15
ENDBRANCH  10  13
ENDBRANCH   7  10
TORSDOF 3
ENDMDL
MODEL      142
REMARK 921   NORMALIZED FREE ENERGY PREDICTED BY IDOCK:   -3.94 KCAL/MOL
REMARK 922        TOTAL FREE ENERGY PREDICTED BY IDOCK:   -4.85 KCAL/MOL
REMARK 923 INTER-LIGAND FREE ENERGY PREDICTED BY IDOCK:   -4.62 KCAL/MOL
REMARK 924 INTRA-LIGAND FREE ENERGY PREDICTED BY IDOCK:   -0.22 KCAL/MOL
REMARK 927      BINDING AFFINITY PREDICTED BY RF-SCORE:    0.00 PKD
ROOT
HETATM    1  N   UNL     1      -6.289  12.118  70.570  1.00  0.00    -0.513 NA 
HETATM    2  H2  UNL     1      -6.527  13.104  70.680  1.00  0.00     0.000 HD 
HETATM    3  C   UNL     1      -6.910  11.641  69.412  1.00  0.00    -0.086 A  
HETATM    4  H1  UNL     1      -6.440  11.649  71.463  1.00  0.00     0.000 HD 
HETATM    5  C   UNL     1      -6.703  12.284  68.186  1.00  0.00    -0.069 A  
HETATM    6  C   UNL     1      -7.241  11.765  67.005  1.00  0.00    -0.134 A  
HETATM    7  C   UNL     1      -7.949  10.558  67.037  1.00  0.00    -0.118 A  
HETATM    8  C   UNL     1      -7.565  10.404  69.418  1.00  0.00    -0.140 A  
HETATM    9  C   UNL     1      -8.111   9.873  68.242  1.00  0.00    -0.104 A  
ENDROOT
BRANCH   7  10
HETATM   10  S   UNL     1      -8.771   9.981  65.563  1.00  0.00    -0.165 S  
HETATM   11  O   UNL     1      -7.883   9.054  64.890  1.00  0.00    -0.109 OA 
HETATM   12  O   UNL     1     -10.099   9.567  65.964  1.00  0.00    -0.295 OA 
BRANCH  10  13
HETATM   13  N   UNL     1      -8.975  11.350  64.607  1.00  0.00    -0.394 N  
HETATM   14  H   UNL     1      -8.207  11.748  64.067  1.00  0.00     0.000 HD 
BRANCH  13  15
HETATM   15  C   UNL     1     -10.261  11.916  64.594  1.00  0.00    -0.278 A  
HETATM   16  C   UNL     1     -11.130  11.758  63.528  1.00  0.00    -0.503 A  
HETATM   17  C   UNL     1     -12.397  12.324  63.636  1.00  0.00    -0.664 A  
HETATM   18  C   UNL     1     -12.723  13.044  64.781  1.00  0.00    -0.409 A  
HETATM   19  C   UNL     1     -11.767  13.159  65.779  1.00  0.00    -0.374 A  
HETATM   20  N   UNL     1     -10.538  12.599  65.715  1.00  0.00    -0.266 NA 
ENDBRANCH  13  15
ENDBRANCH  10  13
ENDBRANCH   7  10
TORSDOF 3
ENDMDL
MODEL      143
REMARK 921   NORMALIZED FREE ENERGY PREDICTED BY IDOCK:   -3.94 KCAL/MOL
REMARK 922        TOTAL FREE ENERGY PREDICTED BY IDOCK:   -4.84 KCAL/MOL
REMARK 923 INTER-LIGAND FREE ENERGY PREDICTED BY IDOCK:   -4.52 KCAL/MOL
REMARK 924 INTRA-LIGAND FREE ENERGY PREDICTED BY IDOCK:   -0.32 KCAL/MOL
REMARK 927      BINDING AFFINITY PREDICTED BY RF-SCORE:    0.00 PKD
ROOT
HETATM    1  N   UNL     1     -10.391  17.475  68.250  1.00  0.00    -0.359 NA 
HETATM    2  H2  UNL     1     -11.282  17.919  68.027  1.00  0.00     0.000 HD 
HETATM    3  C   UNL     1     -10.525  16.097  68.057  1.00  0.00    -0.281 A  
HETATM    4  H1  UNL     1     -10.067  17.839  69.146  1.00  0.00     0.000 HD 
HETATM    5  C   UNL     1     -10.970  15.598  66.828  1.00  0.00    -0.230 A  
HETATM    6  C   UNL     1     -11.019  14.222  66.588  1.00  0.00    -0.310 A  
HETATM    7  C   UNL     1     -10.567  13.331  67.568  1.00  0.00    -0.246 A  
HETATM    8  C   UNL     1     -10.017  15.197  69.002  1.00  0.00    -0.239 A  
HETATM    9  C   UNL     1     -10.062  13.816  68.775  1.00  0.00    -0.141 A  
ENDROOT
BRANCH   7  10
HETATM   10  S   UNL     1     -10.779  11.576  67.328  1.00  0.00    -0.259 S  
HETATM   11  O   UNL     1     -12.141  11.237  67.689  1.00  0.00    -0.600 OA 
HETATM   12  O   UNL     1     -10.272  11.275  66.006  1.00  0.00    -0.231 OA 
BRANCH  10  13
HETATM   13  N   UNL     1      -9.718  10.851  68.413  1.00  0.00    -0.169 N  
HETATM   14  H   UNL     1      -8.784  11.224  68.583  1.00  0.00     0.000 HD 
BRANCH  13  15
HETATM   15  C   UNL     1     -10.188   9.703  69.074  1.00  0.00    -0.199 A  
HETATM   16  C   UNL     1     -10.227   8.460  68.465  1.00  0.00    -0.228 A  
HETATM   17  C   UNL     1     -10.670   7.382  69.224  1.00  0.00    -0.197 A  
HETATM   18  C   UNL     1     -11.080   7.598  70.536  1.00  0.00    -0.267 A  
HETATM   19  C   UNL     1     -11.021   8.889  71.039  1.00  0.00    -0.276 A  
HETATM   20  N   UNL     1     -10.572   9.952  70.335  1.00  0.00    -0.291 NA 
ENDBRANCH  13  15
ENDBRANCH  10  13
ENDBRANCH   7  10
TORSDOF 3
ENDMDL
MODEL      144
REMARK 921   NORMALIZED FREE ENERGY PREDICTED BY IDOCK:   -3.93 KCAL/MOL
REMARK 922        TOTAL FREE ENERGY PREDICTED BY IDOCK:   -4.84 KCAL/MOL
REMARK 923 INTER-LIGAND FREE ENERGY PREDICTED BY IDOCK:   -4.69 KCAL/MOL
REMARK 924 INTRA-LIGAND FREE ENERGY PREDICTED BY IDOCK:   -0.15 KCAL/MOL
REMARK 927      BINDING AFFINITY PREDICTED BY RF-SCORE:    0.00 PKD
ROOT
HETATM    1  N   UNL     1      -6.701  21.374  67.621  1.00  0.00    -0.484 NA 
HETATM    2  H2  UNL     1      -5.686  21.453  67.694  1.00  0.00     0.000 HD 
HETATM    3  C   UNL     1      -7.044  20.020  67.695  1.00  0.00    -0.266 A  
HETATM    4  H1  UNL     1      -7.011  21.940  66.831  1.00  0.00     0.000 HD 
HETATM    5  C   UNL     1      -6.619  19.245  68.778  1.00  0.00    -0.308 A  
HETATM    6  C   UNL     1      -7.031  17.916  68.915  1.00  0.00    -0.260 A  
HETATM    7  C   UNL     1      -7.925  17.369  67.987  1.00  0.00    -0.224 A  
HETATM    8  C   UNL     1      -7.987  19.480  66.812  1.00  0.00    -0.307 A  
HETATM    9  C   UNL     1      -8.407  18.150  66.935  1.00  0.00    -0.258 A  
ENDROOT
BRANCH   7  10
HETATM   10  S   UNL     1      -8.324  15.633  68.068  1.00  0.00    -0.147 S  
HETATM   11  O   UNL     1      -7.589  14.956  67.019  1.00  0.00    -0.166 OA 
HETATM   12  O   UNL     1      -8.168  15.236  69.451  1.00  0.00    -0.227 OA 
BRANCH  10  13
HETATM   13  N   UNL     1      -9.972  15.544  67.739  1.00  0.00    -0.222 N  
HETATM   14  H   UNL     1     -10.523  16.375  67.524  1.00  0.00     0.000 HD 
BRANCH  13  15
HETATM   15  C   UNL     1     -10.548  14.262  67.776  1.00  0.00    -0.253 A  
HETATM   16  C   UNL     1     -10.989  13.681  68.952  1.00  0.00    -0.281 A  
HETATM   17  C   UNL     1     -11.584  12.425  68.870  1.00  0.00    -0.364 A  
HETATM   18  C   UNL     1     -11.681  11.801  67.631  1.00  0.00    -0.320 A  
HETATM   19  C   UNL     1     -11.186  12.464  66.518  1.00  0.00    -0.319 A  
HETATM   20  N   UNL     1     -10.626  13.694  66.563  1.00  0.00    -0.280 NA 
ENDBRANCH  13  15
ENDBRANCH  10  13
ENDBRANCH   7  10
TORSDOF 3
ENDMDL
MODEL      145
REMARK 921   NORMALIZED FREE ENERGY PREDICTED BY IDOCK:   -3.91 KCAL/MOL
REMARK 922        TOTAL FREE ENERGY PREDICTED BY IDOCK:   -4.81 KCAL/MOL
REMARK 923 INTER-LIGAND FREE ENERGY PREDICTED BY IDOCK:   -4.57 KCAL/MOL
REMARK 924 INTRA-LIGAND FREE ENERGY PREDICTED BY IDOCK:   -0.24 KCAL/MOL
REMARK 927      BINDING AFFINITY PREDICTED BY RF-SCORE:    0.00 PKD
ROOT
HETATM    1  N   UNL     1     -10.217   4.104  66.304  1.00  0.00    -0.412 NA 
HETATM    2  H2  UNL     1      -9.396   3.572  66.592  1.00  0.00     0.000 HD 
HETATM    3  C   UNL     1      -9.932   5.466  66.443  1.00  0.00    -0.191 A  
HETATM    4  H1  UNL     1     -11.036   3.702  66.760  1.00  0.00     0.000 HD 
HETATM    5  C   UNL     1      -8.809   6.017  65.818  1.00  0.00    -0.143 A  
HETATM    6  C   UNL     1      -8.563   7.393  65.870  1.00  0.00    -0.165 A  
HETATM    7  C   UNL     1      -9.478   8.237  66.507  1.00  0.00    -0.220 A  
HETATM    8  C   UNL     1     -10.870   6.329  67.021  1.00  0.00    -0.458 A  
HETATM    9  C   UNL     1     -10.635   7.709  67.082  1.00  0.00    -0.410 A  
ENDROOT
BRANCH   7  10
HETATM   10  S   UNL     1      -9.086   9.965  66.714  1.00  0.00    -0.144 S  
HETATM   11  O   UNL     1      -8.638  10.161  68.078  1.00  0.00    -0.117 OA 
HETATM   12  O   UNL     1      -8.237  10.333  65.600  1.00  0.00    -0.141 OA 
BRANCH  10  13
HETATM   13  N   UNL     1     -10.540  10.778  66.483  1.00  0.00    -0.240 N  
HETATM   14  H   UNL     1     -11.082  10.676  65.625  1.00  0.00     0.000 HD 
BRANCH  13  15
HETATM   15  C   UNL     1     -10.968  11.604  67.536  1.00  0.00    -0.259 A  
HETATM   16  C   UNL     1     -11.555  11.100  68.683  1.00  0.00    -0.383 A  
HETATM   17  C   UNL     1     -11.902  12.004  69.683  1.00  0.00    -0.401 A  
HETATM   18  C   UNL     1     -11.677  13.361  69.479  1.00  0.00    -0.385 A  
HETATM   19  C   UNL     1     -11.103  13.760  68.281  1.00  0.00    -0.255 A  
HETATM   20  N   UNL     1     -10.732  12.905  67.302  1.00  0.00    -0.243 NA 
ENDBRANCH  13  15
ENDBRANCH  10  13
ENDBRANCH   7  10
TORSDOF 3
ENDMDL
MODEL      146
REMARK 921   NORMALIZED FREE ENERGY PREDICTED BY IDOCK:   -3.88 KCAL/MOL
REMARK 922        TOTAL FREE ENERGY PREDICTED BY IDOCK:   -4.78 KCAL/MOL
REMARK 923 INTER-LIGAND FREE ENERGY PREDICTED BY IDOCK:   -4.47 KCAL/MOL
REMARK 924 INTRA-LIGAND FREE ENERGY PREDICTED BY IDOCK:   -0.32 KCAL/MOL
REMARK 927      BINDING AFFINITY PREDICTED BY RF-SCORE:    0.00 PKD
ROOT
HETATM    1  N   UNL     1     -12.163  13.018  69.862  1.00  0.00    -0.248 NA 
HETATM    2  H2  UNL     1     -11.946  13.439  70.765  1.00  0.00     0.000 HD 
HETATM    3  C   UNL     1     -11.692  11.701  69.865  1.00  0.00    -0.337 A  
HETATM    4  H1  UNL     1     -11.874  13.665  69.128  1.00  0.00     0.000 HD 
HETATM    5  C   UNL     1     -12.088  10.814  70.872  1.00  0.00    -0.475 A  
HETATM    6  C   UNL     1     -11.701   9.472  70.837  1.00  0.00    -0.391 A  
HETATM    7  C   UNL     1     -10.954   8.993  69.754  1.00  0.00    -0.166 A  
HETATM    8  C   UNL     1     -10.999  11.195  68.759  1.00  0.00    -0.268 A  
HETATM    9  C   UNL     1     -10.604   9.852  68.712  1.00  0.00    -0.246 A  
ENDROOT
BRANCH   7  10
HETATM   10  S   UNL     1     -10.325   7.325  69.788  1.00  0.00    -0.226 S  
HETATM   11  O   UNL     1     -11.416   6.429  69.461  1.00  0.00    -0.407 OA 
HETATM   12  O   UNL     1      -9.110   7.324  68.999  1.00  0.00    -0.135 OA 
BRANCH  10  13
HETATM   13  N   UNL     1      -9.849   7.066  71.380  1.00  0.00    -0.177 N  
HETATM   14  H   UNL     1      -9.419   7.802  71.940  1.00  0.00     0.000 HD 
BRANCH  13  15
HETATM   15  C   UNL     1     -10.076   5.779  71.898  1.00  0.00    -0.185 A  
HETATM   16  C   UNL     1      -9.334   4.679  71.503  1.00  0.00    -0.202 A  
HETATM   17  C   UNL     1      -9.613   3.458  72.112  1.00  0.00    -0.206 A  
HETATM   18  C   UNL     1     -10.631   3.388  73.056  1.00  0.00    -0.244 A  
HETATM   19  C   UNL     1     -11.327   4.548  73.362  1.00  0.00    -0.286 A  
HETATM   20  N   UNL     1     -11.063   5.752  72.807  1.00  0.00    -0.269 NA 
ENDBRANCH  13  15
ENDBRANCH  10  13
ENDBRANCH   7  10
TORSDOF 3
ENDMDL
MODEL      147
REMARK 921   NORMALIZED FREE ENERGY PREDICTED BY IDOCK:   -3.88 KCAL/MOL
REMARK 922        TOTAL FREE ENERGY PREDICTED BY IDOCK:   -4.78 KCAL/MOL
REMARK 923 INTER-LIGAND FREE ENERGY PREDICTED BY IDOCK:   -4.64 KCAL/MOL
REMARK 924 INTRA-LIGAND FREE ENERGY PREDICTED BY IDOCK:   -0.14 KCAL/MOL
REMARK 927      BINDING AFFINITY PREDICTED BY RF-SCORE:    0.00 PKD
ROOT
HETATM    1  N   UNL     1     -11.031  19.569  65.564  1.00  0.00    -0.372 NA 
HETATM    2  H2  UNL     1     -10.809  19.053  64.713  1.00  0.00     0.000 HD 
HETATM    3  C   UNL     1      -9.890  19.594  66.373  1.00  0.00    -0.437 A  
HETATM    4  H1  UNL     1     -11.914  19.215  65.933  1.00  0.00     0.000 HD 
HETATM    5  C   UNL     1      -8.679  20.078  65.868  1.00  0.00    -0.138 A  
HETATM    6  C   UNL     1      -7.555  20.197  66.690  1.00  0.00    -0.315 A  
HETATM    7  C   UNL     1      -7.655  19.882  68.050  1.00  0.00    -0.297 A  
HETATM    8  C   UNL     1      -9.992  19.343  67.747  1.00  0.00    -0.484 A  
HETATM    9  C   UNL     1      -8.873  19.456  68.582  1.00  0.00    -0.417 A  
ENDROOT
BRANCH   7  10
HETATM   10  S   UNL     1      -6.187  19.879  69.063  1.00  0.00    -0.315 S  
HETATM   11  O   UNL     1      -5.302  20.915  68.569  1.00  0.00    -0.276 OA 
HETATM   12  O   UNL     1      -6.634  19.887  70.440  1.00  0.00    -0.282 OA 
BRANCH  10  13
HETATM   13  N   UNL     1      -5.479  18.374  68.808  1.00  0.00    -0.183 N  
HETATM   14  H   UNL     1      -4.468  18.243  68.841  1.00  0.00     0.000 HD 
BRANCH  13  15
HETATM   15  C   UNL     1      -6.356  17.307  68.549  1.00  0.00    -0.163 A  
HETATM   16  C   UNL     1      -6.737  16.955  67.265  1.00  0.00    -0.202 A  
HETATM   17  C   UNL     1      -7.576  15.854  67.118  1.00  0.00    -0.255 A  
HETATM   18  C   UNL     1      -8.017  15.181  68.253  1.00  0.00    -0.129 A  
HETATM   19  C   UNL     1      -7.591  15.633  69.493  1.00  0.00    -0.187 A  
HETATM   20  N   UNL     1      -6.757  16.682  69.667  1.00  0.00    -0.187 NA 
ENDBRANCH  13  15
ENDBRANCH  10  13
ENDBRANCH   7  10
TORSDOF 3
ENDMDL
MODEL      148
REMARK 921   NORMALIZED FREE ENERGY PREDICTED BY IDOCK:   -3.87 KCAL/MOL
REMARK 922        TOTAL FREE ENERGY PREDICTED BY IDOCK:   -4.77 KCAL/MOL
REMARK 923 INTER-LIGAND FREE ENERGY PREDICTED BY IDOCK:   -4.39 KCAL/MOL
REMARK 924 INTRA-LIGAND FREE ENERGY PREDICTED BY IDOCK:   -0.37 KCAL/MOL
REMARK 927      BINDING AFFINITY PREDICTED BY RF-SCORE:    0.00 PKD
ROOT
HETATM    1  N   UNL     1     -12.089  15.261  68.382  1.00  0.00    -0.552 NA 
HETATM    2  H2  UNL     1     -12.675  15.880  67.821  1.00  0.00     0.000 HD 
HETATM    3  C   UNL     1     -11.659  14.206  67.570  1.00  0.00    -0.367 A  
HETATM    4  H1  UNL     1     -12.572  15.069  69.260  1.00  0.00     0.000 HD 
HETATM    5  C   UNL     1     -10.997  14.470  66.367  1.00  0.00    -0.324 A  
HETATM    6  C   UNL     1     -10.478  13.429  65.591  1.00  0.00    -0.293 A  
HETATM    7  C   UNL     1     -10.573  12.110  66.049  1.00  0.00    -0.257 A  
HETATM    8  C   UNL     1     -11.689  12.890  68.046  1.00  0.00    -0.401 A  
HETATM    9  C   UNL     1     -11.175  11.837  67.278  1.00  0.00    -0.364 A  
ENDROOT
BRANCH   7  10
HETATM   10  S   UNL     1     -10.058  10.771  64.989  1.00  0.00    -0.321 S  
HETATM   11  O   UNL     1     -10.248   9.530  65.713  1.00  0.00    -0.255 OA 
HETATM   12  O   UNL     1     -10.703  10.984  63.710  1.00  0.00    -0.362 OA 
BRANCH  10  13
HETATM   13  N   UNL     1      -8.414  11.020  64.732  1.00  0.00    -0.376 N  
HETATM   14  H   UNL     1      -8.073  11.690  64.043  1.00  0.00     0.000 HD 
BRANCH  13  15
HETATM   15  C   UNL     1      -7.536  10.253  65.517  1.00  0.00    -0.149 A  
HETATM   16  C   UNL     1      -7.155  10.635  66.792  1.00  0.00    -0.118 A  
HETATM   17  C   UNL     1      -6.315   9.781  67.499  1.00  0.00    -0.064 A  
HETATM   18  C   UNL     1      -5.873   8.609  66.894  1.00  0.00    -0.049 A  
HETATM   19  C   UNL     1      -6.298   8.334  65.603  1.00  0.00    -0.049 A  
HETATM   20  N   UNL     1      -7.134   9.131  64.900  1.00  0.00    -0.094 NA 
ENDBRANCH  13  15
ENDBRANCH  10  13
ENDBRANCH   7  10
TORSDOF 3
ENDMDL
MODEL      149
REMARK 921   NORMALIZED FREE ENERGY PREDICTED BY IDOCK:   -3.87 KCAL/MOL
REMARK 922        TOTAL FREE ENERGY PREDICTED BY IDOCK:   -4.76 KCAL/MOL
REMARK 923 INTER-LIGAND FREE ENERGY PREDICTED BY IDOCK:   -4.67 KCAL/MOL
REMARK 924 INTRA-LIGAND FREE ENERGY PREDICTED BY IDOCK:   -0.09 KCAL/MOL
REMARK 927      BINDING AFFINITY PREDICTED BY RF-SCORE:    0.00 PKD
ROOT
HETATM    1  N   UNL     1     -13.566  13.570  72.635  1.00  0.00    -0.692 NA 
HETATM    2  H2  UNL     1     -13.599  12.583  72.377  1.00  0.00     0.000 HD 
HETATM    3  C   UNL     1     -12.758  14.240  71.711  1.00  0.00    -0.347 A  
HETATM    4  H1  UNL     1     -13.366  13.634  73.633  1.00  0.00     0.000 HD 
HETATM    5  C   UNL     1     -13.032  14.151  70.342  1.00  0.00    -0.150 A  
HETATM    6  C   UNL     1     -12.292  14.889  69.413  1.00  0.00    -0.168 A  
HETATM    7  C   UNL     1     -11.301  15.770  69.860  1.00  0.00    -0.349 A  
HETATM    8  C   UNL     1     -11.808  15.171  72.146  1.00  0.00    -0.501 A  
HETATM    9  C   UNL     1     -11.059  15.916  71.227  1.00  0.00    -0.197 A  
ENDROOT
BRANCH   7  10
HETATM   10  S   UNL     1     -10.251  16.588  68.673  1.00  0.00    -0.283 S  
HETATM   11  O   UNL     1     -10.501  15.998  67.373  1.00  0.00    -0.296 OA 
HETATM   12  O   UNL     1     -10.421  18.011  68.881  1.00  0.00    -0.302 OA 
BRANCH  10  13
HETATM   13  N   UNL     1      -8.680  16.230  69.154  1.00  0.00    -0.240 N  
HETATM   14  H   UNL     1      -8.485  15.562  69.900  1.00  0.00     0.000 HD 
BRANCH  13  15
HETATM   15  C   UNL     1      -7.649  16.900  68.473  1.00  0.00    -0.221 A  
HETATM   16  C   UNL     1      -7.319  18.218  68.739  1.00  0.00    -0.298 A  
HETATM   17  C   UNL     1      -6.253  18.772  68.037  1.00  0.00    -0.209 A  
HETATM   18  C   UNL     1      -5.591  18.001  67.087  1.00  0.00    -0.152 A  
HETATM   19  C   UNL     1      -6.020  16.697  66.884  1.00  0.00    -0.117 A  
HETATM   20  N   UNL     1      -7.035  16.123  67.568  1.00  0.00    -0.151 NA 
ENDBRANCH  13  15
ENDBRANCH  10  13
ENDBRANCH   7  10
TORSDOF 3
ENDMDL
MODEL      150
REMARK 921   NORMALIZED FREE ENERGY PREDICTED BY IDOCK:   -3.85 KCAL/MOL
REMARK 922        TOTAL FREE ENERGY PREDICTED BY IDOCK:   -4.74 KCAL/MOL
REMARK 923 INTER-LIGAND FREE ENERGY PREDICTED BY IDOCK:   -4.53 KCAL/MOL
REMARK 924 INTRA-LIGAND FREE ENERGY PREDICTED BY IDOCK:   -0.21 KCAL/MOL
REMARK 927      BINDING AFFINITY PREDICTED BY RF-SCORE:    0.00 PKD
ROOT
HETATM    1  N   UNL     1     -12.144  15.460  68.516  1.00  0.00    -0.556 NA 
HETATM    2  H2  UNL     1     -13.159  15.431  68.615  1.00  0.00     0.000 HD 
HETATM    3  C   UNL     1     -11.700  14.182  68.161  1.00  0.00    -0.355 A  
HETATM    4  H1  UNL     1     -11.755  15.930  69.332  1.00  0.00     0.000 HD 
HETATM    5  C   UNL     1     -12.235  13.537  67.041  1.00  0.00    -0.351 A  
HETATM    6  C   UNL     1     -11.736  12.301  66.620  1.00  0.00    -0.417 A  
HETATM    7  C   UNL     1     -10.651  11.726  67.292  1.00  0.00    -0.224 A  
HETATM    8  C   UNL     1     -10.576  13.626  68.783  1.00  0.00    -0.247 A  
HETATM    9  C   UNL     1     -10.067  12.387  68.373  1.00  0.00    -0.217 A  
ENDROOT
BRANCH   7  10
HETATM   10  S   UNL     1     -10.120  10.080  66.857  1.00  0.00    -0.241 S  
HETATM   11  O   UNL     1     -10.249   9.932  65.422  1.00  0.00    -0.273 OA 
HETATM   12  O   UNL     1      -8.842   9.872  67.507  1.00  0.00    -0.128 OA 
BRANCH  10  13
HETATM   13  N   UNL     1     -11.207   9.049  67.623  1.00  0.00    -0.289 N  
HETATM   14  H   UNL     1     -12.122   9.371  67.937  1.00  0.00     0.000 HD 
BRANCH  13  15
HETATM   15  C   UNL     1     -10.786   7.721  67.806  1.00  0.00    -0.127 A  
HETATM   16  C   UNL     1     -10.529   7.190  69.059  1.00  0.00    -0.221 A  
HETATM   17  C   UNL     1     -10.159   5.851  69.131  1.00  0.00    -0.244 A  
HETATM   18  C   UNL     1     -10.033   5.118  67.955  1.00  0.00    -0.200 A  
HETATM   19  C   UNL     1     -10.292   5.755  66.751  1.00  0.00    -0.256 A  
HETATM   20  N   UNL     1     -10.678   7.047  66.651  1.00  0.00    -0.185 NA 
ENDBRANCH  13  15
ENDBRANCH  10  13
ENDBRANCH   7  10
TORSDOF 3
ENDMDL
MODEL      151
REMARK 921   NORMALIZED FREE ENERGY PREDICTED BY IDOCK:   -3.84 KCAL/MOL
REMARK 922        TOTAL FREE ENERGY PREDICTED BY IDOCK:   -4.73 KCAL/MOL
REMARK 923 INTER-LIGAND FREE ENERGY PREDICTED BY IDOCK:   -4.59 KCAL/MOL
REMARK 924 INTRA-LIGAND FREE ENERGY PREDICTED BY IDOCK:   -0.14 KCAL/MOL
REMARK 927      BINDING AFFINITY PREDICTED BY RF-SCORE:    0.00 PKD
ROOT
HETATM    1  N   UNL     1     -13.160  12.602  64.469  1.00  0.00    -0.820 NA 
HETATM    2  H2  UNL     1     -13.452  11.762  63.968  1.00  0.00     0.000 HD 
HETATM    3  C   UNL     1     -11.970  12.318  65.148  1.00  0.00    -0.337 A  
HETATM    4  H1  UNL     1     -13.965  12.970  64.975  1.00  0.00     0.000 HD 
HETATM    5  C   UNL     1     -10.866  11.813  64.454  1.00  0.00    -0.389 A  
HETATM    6  C   UNL     1      -9.643  11.613  65.100  1.00  0.00    -0.206 A  
HETATM    7  C   UNL     1      -9.503  11.974  66.445  1.00  0.00    -0.231 A  
HETATM    8  C   UNL     1     -11.797  12.733  66.474  1.00  0.00    -0.471 A  
HETATM    9  C   UNL     1     -10.578  12.538  67.134  1.00  0.00    -0.247 A  
ENDROOT
BRANCH   7  10
HETATM   10  S   UNL     1      -7.997  11.572  67.311  1.00  0.00    -0.161 S  
HETATM   11  O   UNL     1      -8.313  11.440  68.719  1.00  0.00    -0.150 OA 
HETATM   12  O   UNL     1      -7.383  10.477  66.589  1.00  0.00    -0.107 OA 
BRANCH  10  13
HETATM   13  N   UNL     1      -6.991  12.902  67.089  1.00  0.00    -0.355 N  
HETATM   14  H   UNL     1      -6.128  12.839  66.550  1.00  0.00     0.000 HD 
BRANCH  13  15
HETATM   15  C   UNL     1      -7.405  14.105  67.686  1.00  0.00    -0.176 A  
HETATM   16  C   UNL     1      -8.264  14.989  67.056  1.00  0.00    -0.246 A  
HETATM   17  C   UNL     1      -8.644  16.131  67.755  1.00  0.00    -0.172 A  
HETATM   18  C   UNL     1      -8.129  16.350  69.028  1.00  0.00    -0.223 A  
HETATM   19  C   UNL     1      -7.257  15.410  69.556  1.00  0.00    -0.202 A  
HETATM   20  N   UNL     1      -6.889  14.279  68.912  1.00  0.00    -0.098 NA 
ENDBRANCH  13  15
ENDBRANCH  10  13
ENDBRANCH   7  10
TORSDOF 3
ENDMDL
MODEL      152
REMARK 921   NORMALIZED FREE ENERGY PREDICTED BY IDOCK:   -3.83 KCAL/MOL
REMARK 922        TOTAL FREE ENERGY PREDICTED BY IDOCK:   -4.72 KCAL/MOL
REMARK 923 INTER-LIGAND FREE ENERGY PREDICTED BY IDOCK:   -4.46 KCAL/MOL
REMARK 924 INTRA-LIGAND FREE ENERGY PREDICTED BY IDOCK:   -0.26 KCAL/MOL
REMARK 927      BINDING AFFINITY PREDICTED BY RF-SCORE:    0.00 PKD
ROOT
HETATM    1  N   UNL     1      -8.256   5.618  67.499  1.00  0.00    -0.102 NA 
HETATM    2  H2  UNL     1      -8.067   5.460  66.510  1.00  0.00     0.000 HD 
HETATM    3  C   UNL     1      -8.795   6.901  67.645  1.00  0.00    -0.118 A  
HETATM    4  H1  UNL     1      -7.431   5.345  68.032  1.00  0.00     0.000 HD 
HETATM    5  C   UNL     1      -9.927   7.276  66.915  1.00  0.00    -0.302 A  
HETATM    6  C   UNL     1     -10.532   8.520  67.118  1.00  0.00    -0.370 A  
HETATM    7  C   UNL     1     -10.034   9.380  68.104  1.00  0.00    -0.175 A  
HETATM    8  C   UNL     1      -8.347   7.744  68.669  1.00  0.00    -0.129 A  
HETATM    9  C   UNL     1      -8.943   8.993  68.883  1.00  0.00    -0.140 A  
ENDROOT
BRANCH   7  10
HETATM   10  S   UNL     1     -10.702  11.027  68.254  1.00  0.00    -0.214 S  
HETATM   11  O   UNL     1     -12.131  10.952  68.024  1.00  0.00    -0.563 OA 
HETATM   12  O   UNL     1     -10.183  11.573  69.490  1.00  0.00     0.071 OA 
BRANCH  10  13
HETATM   13  N   UNL     1      -9.984  11.908  67.014  1.00  0.00    -0.201 N  
HETATM   14  H   UNL     1      -8.980  12.086  66.992  1.00  0.00     0.000 HD 
BRANCH  13  15
HETATM   15  C   UNL     1     -10.843  12.386  66.009  1.00  0.00    -0.273 A  
HETATM   16  C   UNL     1     -10.937  11.785  64.765  1.00  0.00    -0.360 A  
HETATM   17  C   UNL     1     -11.851  12.314  63.858  1.00  0.00    -0.553 A  
HETATM   18  C   UNL     1     -12.600  13.428  64.222  1.00  0.00    -0.225 A  
HETATM   19  C   UNL     1     -12.409  13.965  65.486  1.00  0.00    -0.480 A  
HETATM   20  N   UNL     1     -11.549  13.459  66.397  1.00  0.00    -0.331 NA 
ENDBRANCH  13  15
ENDBRANCH  10  13
ENDBRANCH   7  10
TORSDOF 3
ENDMDL
MODEL      153
REMARK 921   NORMALIZED FREE ENERGY PREDICTED BY IDOCK:   -3.81 KCAL/MOL
REMARK 922        TOTAL FREE ENERGY PREDICTED BY IDOCK:   -4.69 KCAL/MOL
REMARK 923 INTER-LIGAND FREE ENERGY PREDICTED BY IDOCK:   -4.56 KCAL/MOL
REMARK 924 INTRA-LIGAND FREE ENERGY PREDICTED BY IDOCK:   -0.13 KCAL/MOL
REMARK 927      BINDING AFFINITY PREDICTED BY RF-SCORE:    0.00 PKD
ROOT
HETATM    1  N   UNL     1      -9.816   7.145  66.343  1.00  0.00    -0.414 NA 
HETATM    2  H2  UNL     1     -10.499   6.711  65.721  1.00  0.00     0.000 HD 
HETATM    3  C   UNL     1     -10.418   7.341  67.590  1.00  0.00    -0.242 A  
HETATM    4  H1  UNL     1      -9.387   7.928  65.851  1.00  0.00     0.000 HD 
HETATM    5  C   UNL     1     -11.008   6.267  68.264  1.00  0.00    -0.408 A  
HETATM    6  C   UNL     1     -11.530   6.427  69.551  1.00  0.00    -0.412 A  
HETATM    7  C   UNL     1     -11.414   7.663  70.197  1.00  0.00    -0.066 A  
HETATM    8  C   UNL     1     -10.253   8.552  68.272  1.00  0.00    -0.244 A  
HETATM    9  C   UNL     1     -10.773   8.728  69.561  1.00  0.00    -0.196 A  
ENDROOT
BRANCH   7  10
HETATM   10  S   UNL     1     -12.220   7.914  71.768  1.00  0.00    -0.323 S  
HETATM   11  O   UNL     1     -11.752   9.172  72.314  1.00  0.00    -0.304 OA 
HETATM   12  O   UNL     1     -13.633   7.686  71.550  1.00  0.00    -0.368 OA 
BRANCH  10  13
HETATM   13  N   UNL     1     -11.687   6.651  72.743  1.00  0.00    -0.485 N  
HETATM   14  H   UNL     1     -12.337   6.000  73.182  1.00  0.00     0.000 HD 
BRANCH  13  15
HETATM   15  C   UNL     1     -10.297   6.543  72.921  1.00  0.00    -0.210 A  
HETATM   16  C   UNL     1      -9.549   5.539  72.330  1.00  0.00    -0.173 A  
HETATM   17  C   UNL     1      -8.173   5.550  72.537  1.00  0.00    -0.114 A  
HETATM   18  C   UNL     1      -7.616   6.536  73.344  1.00  0.00    -0.092 A  
HETATM   19  C   UNL     1      -8.461   7.482  73.905  1.00  0.00    -0.206 A  
HETATM   20  N   UNL     1      -9.797   7.512  73.703  1.00  0.00    -0.307 NA 
ENDBRANCH  13  15
ENDBRANCH  10  13
ENDBRANCH   7  10
TORSDOF 3
ENDMDL
MODEL      154
REMARK 921   NORMALIZED FREE ENERGY PREDICTED BY IDOCK:   -3.81 KCAL/MOL
REMARK 922        TOTAL FREE ENERGY PREDICTED BY IDOCK:   -4.69 KCAL/MOL
REMARK 923 INTER-LIGAND FREE ENERGY PREDICTED BY IDOCK:   -4.42 KCAL/MOL
REMARK 924 INTRA-LIGAND FREE ENERGY PREDICTED BY IDOCK:   -0.27 KCAL/MOL
REMARK 927      BINDING AFFINITY PREDICTED BY RF-SCORE:    0.00 PKD
ROOT
HETATM    1  N   UNL     1     -14.297   8.961  72.616  1.00  0.00    -0.945 NA 
HETATM    2  H2  UNL     1     -14.407   8.338  73.417  1.00  0.00     0.000 HD 
HETATM    3  C   UNL     1     -13.083   8.662  71.989  1.00  0.00    -0.381 A  
HETATM    4  H1  UNL     1     -14.496   9.913  72.921  1.00  0.00     0.000 HD 
HETATM    5  C   UNL     1     -12.810   7.355  71.571  1.00  0.00    -0.416 A  
HETATM    6  C   UNL     1     -11.643   7.058  70.860  1.00  0.00    -0.370 A  
HETATM    7  C   UNL     1     -10.763   8.089  70.512  1.00  0.00    -0.229 A  
HETATM    8  C   UNL     1     -12.226   9.690  71.579  1.00  0.00    -0.483 A  
HETATM    9  C   UNL     1     -11.053   9.407  70.868  1.00  0.00    -0.389 A  
ENDROOT
BRANCH   7  10
HETATM   10  S   UNL     1      -9.201   7.692  69.749  1.00  0.00    -0.146 S  
HETATM   11  O   UNL     1      -8.767   8.848  68.991  1.00  0.00    -0.132 OA 
HETATM   12  O   UNL     1      -8.361   7.136  70.789  1.00  0.00    -0.125 OA 
BRANCH  10  13
HETATM   13  N   UNL     1      -9.536   6.427  68.692  1.00  0.00    -0.121 N  
HETATM   14  H   UNL     1     -10.171   6.541  67.902  1.00  0.00     0.000 HD 
BRANCH  13  15
HETATM   15  C   UNL     1      -8.894   5.205  68.956  1.00  0.00    -0.092 A  
HETATM   16  C   UNL     1      -9.538   4.147  69.575  1.00  0.00    -0.274 A  
HETATM   17  C   UNL     1      -8.822   2.967  69.749  1.00  0.00    -0.146 A  
HETATM   18  C   UNL     1      -7.497   2.909  69.329  1.00  0.00    -0.044 A  
HETATM   19  C   UNL     1      -6.943   4.036  68.741  1.00  0.00    -0.047 A  
HETATM   20  N   UNL     1      -7.620   5.187  68.535  1.00  0.00    -0.078 NA 
ENDBRANCH  13  15
ENDBRANCH  10  13
ENDBRANCH   7  10
TORSDOF 3
ENDMDL
MODEL      155
REMARK 921   NORMALIZED FREE ENERGY PREDICTED BY IDOCK:   -3.80 KCAL/MOL
REMARK 922        TOTAL FREE ENERGY PREDICTED BY IDOCK:   -4.68 KCAL/MOL
REMARK 923 INTER-LIGAND FREE ENERGY PREDICTED BY IDOCK:   -4.54 KCAL/MOL
REMARK 924 INTRA-LIGAND FREE ENERGY PREDICTED BY IDOCK:   -0.15 KCAL/MOL
REMARK 927      BINDING AFFINITY PREDICTED BY RF-SCORE:    0.00 PKD
ROOT
HETATM    1  N   UNL     1     -12.531  10.949  69.132  1.00  0.00    -0.670 NA 
HETATM    2  H2  UNL     1     -13.115  11.553  69.710  1.00  0.00     0.000 HD 
HETATM    3  C   UNL     1     -11.599  10.313  69.959  1.00  0.00    -0.276 A  
HETATM    4  H1  UNL     1     -12.217  11.485  68.323  1.00  0.00     0.000 HD 
HETATM    5  C   UNL     1     -12.030   9.579  71.069  1.00  0.00    -0.407 A  
HETATM    6  C   UNL     1     -11.119   8.861  71.851  1.00  0.00    -0.442 A  
HETATM    7  C   UNL     1      -9.768   8.831  71.488  1.00  0.00    -0.291 A  
HETATM    8  C   UNL     1     -10.257  10.222  69.573  1.00  0.00    -0.261 A  
HETATM    9  C   UNL     1      -9.334   9.508  70.348  1.00  0.00    -0.311 A  
ENDROOT
BRANCH   7  10
HETATM   10  S   UNL     1      -8.584   8.052  72.571  1.00  0.00    -0.187 S  
HETATM   11  O   UNL     1      -7.295   8.677  72.347  1.00  0.00    -0.263 OA 
HETATM   12  O   UNL     1      -9.176   8.040  73.892  1.00  0.00    -0.231 OA 
BRANCH  10  13
HETATM   13  N   UNL     1      -8.519   6.447  72.072  1.00  0.00    -0.116 N  
HETATM   14  H   UNL     1      -8.224   5.700  72.700  1.00  0.00     0.000 HD 
BRANCH  13  15
HETATM   15  C   UNL     1      -8.893   6.191  70.742  1.00  0.00    -0.140 A  
HETATM   16  C   UNL     1     -10.207   5.961  70.372  1.00  0.00    -0.273 A  
HETATM   17  C   UNL     1     -10.474   5.760  69.021  1.00  0.00    -0.336 A  
HETATM   18  C   UNL     1      -9.420   5.768  68.113  1.00  0.00    -0.120 A  
HETATM   19  C   UNL     1      -8.138   5.986  68.595  1.00  0.00    -0.107 A  
HETATM   20  N   UNL     1      -7.851   6.209  69.897  1.00  0.00    -0.107 NA 
ENDBRANCH  13  15
ENDBRANCH  10  13
ENDBRANCH   7  10
TORSDOF 3
ENDMDL
MODEL      156
REMARK 921   NORMALIZED FREE ENERGY PREDICTED BY IDOCK:   -3.80 KCAL/MOL
REMARK 922        TOTAL FREE ENERGY PREDICTED BY IDOCK:   -4.68 KCAL/MOL
REMARK 923 INTER-LIGAND FREE ENERGY PREDICTED BY IDOCK:   -4.79 KCAL/MOL
REMARK 924 INTRA-LIGAND FREE ENERGY PREDICTED BY IDOCK:    0.10 KCAL/MOL
REMARK 927      BINDING AFFINITY PREDICTED BY RF-SCORE:    0.00 PKD
ROOT
HETATM    1  N   UNL     1     -13.748  13.857  72.818  1.00  0.00    -0.702 NA 
HETATM    2  H2  UNL     1     -13.531  12.894  73.074  1.00  0.00     0.000 HD 
HETATM    3  C   UNL     1     -12.818  14.279  71.862  1.00  0.00    -0.348 A  
HETATM    4  H1  UNL     1     -13.883  14.394  73.675  1.00  0.00     0.000 HD 
HETATM    5  C   UNL     1     -12.633  13.542  70.688  1.00  0.00    -0.345 A  
HETATM    6  C   UNL     1     -11.778  14.000  69.681  1.00  0.00    -0.368 A  
HETATM    7  C   UNL     1     -11.140  15.237  69.824  1.00  0.00    -0.282 A  
HETATM    8  C   UNL     1     -12.224  15.542  71.963  1.00  0.00    -0.484 A  
HETATM    9  C   UNL     1     -11.363  16.013  70.963  1.00  0.00    -0.423 A  
ENDROOT
BRANCH   7  10
HETATM   10  S   UNL     1      -9.927  15.746  68.620  1.00  0.00    -0.216 S  
HETATM   11  O   UNL     1     -10.530  16.761  67.779  1.00  0.00    -0.313 OA 
HETATM   12  O   UNL     1      -8.708  16.025  69.351  1.00  0.00    -0.245 OA 
BRANCH  10  13
HETATM   13  N   UNL     1      -9.617  14.373  67.699  1.00  0.00    -0.211 N  
HETATM   14  H   UNL     1     -10.300  14.003  67.038  1.00  0.00     0.000 HD 
BRANCH  13  15
HETATM   15  C   UNL     1      -8.366  13.762  67.890  1.00  0.00    -0.172 A  
HETATM   16  C   UNL     1      -7.174  14.411  67.619  1.00  0.00    -0.201 A  
HETATM   17  C   UNL     1      -5.990  13.729  67.885  1.00  0.00    -0.145 A  
HETATM   18  C   UNL     1      -6.052  12.429  68.376  1.00  0.00    -0.056 A  
HETATM   19  C   UNL     1      -7.301  11.865  68.590  1.00  0.00    -0.115 A  
HETATM   20  N   UNL     1      -8.467  12.511  68.365  1.00  0.00    -0.156 NA 
ENDBRANCH  13  15
ENDBRANCH  10  13
ENDBRANCH   7  10
TORSDOF 3
ENDMDL
MODEL      157
REMARK 921   NORMALIZED FREE ENERGY PREDICTED BY IDOCK:   -3.80 KCAL/MOL
REMARK 922        TOTAL FREE ENERGY PREDICTED BY IDOCK:   -4.68 KCAL/MOL
REMARK 923 INTER-LIGAND FREE ENERGY PREDICTED BY IDOCK:   -4.73 KCAL/MOL
REMARK 924 INTRA-LIGAND FREE ENERGY PREDICTED BY IDOCK:    0.05 KCAL/MOL
REMARK 927      BINDING AFFINITY PREDICTED BY RF-SCORE:    0.00 PKD
ROOT
HETATM    1  N   UNL     1      -7.618  18.295  65.782  1.00  0.00    -0.534 NA 
HETATM    2  H2  UNL     1      -8.071  19.163  66.067  1.00  0.00     0.000 HD 
HETATM    3  C   UNL     1      -8.376  17.223  66.263  1.00  0.00    -0.254 A  
HETATM    4  H1  UNL     1      -6.625  18.363  66.007  1.00  0.00     0.000 HD 
HETATM    5  C   UNL     1      -9.738  17.130  65.955  1.00  0.00    -0.213 A  
HETATM    6  C   UNL     1     -10.488  16.018  66.349  1.00  0.00    -0.313 A  
HETATM    7  C   UNL     1      -9.859  14.957  67.011  1.00  0.00    -0.237 A  
HETATM    8  C   UNL     1      -7.749  16.128  66.869  1.00  0.00    -0.284 A  
HETATM    9  C   UNL     1      -8.488  15.008  67.270  1.00  0.00    -0.220 A  
ENDROOT
BRANCH   7  10
HETATM   10  S   UNL     1     -10.842  13.616  67.654  1.00  0.00    -0.260 S  
HETATM   11  O   UNL     1     -10.085  12.974  68.710  1.00  0.00    -0.175 OA 
HETATM   12  O   UNL     1     -12.159  14.156  67.917  1.00  0.00    -0.358 OA 
BRANCH  10  13
HETATM   13  N   UNL     1     -11.022  12.546  66.369  1.00  0.00    -0.264 N  
HETATM   14  H   UNL     1     -11.374  12.850  65.462  1.00  0.00     0.000 HD 
BRANCH  13  15
HETATM   15  C   UNL     1     -10.661  11.210  66.613  1.00  0.00    -0.264 A  
HETATM   16  C   UNL     1      -9.721  10.543  65.845  1.00  0.00    -0.270 A  
HETATM   17  C   UNL     1      -9.406   9.235  66.200  1.00  0.00    -0.270 A  
HETATM   18  C   UNL     1     -10.060   8.647  67.278  1.00  0.00    -0.310 A  
HETATM   19  C   UNL     1     -11.002   9.399  67.965  1.00  0.00    -0.059 A  
HETATM   20  N   UNL     1     -11.311  10.679  67.660  1.00  0.00    -0.448 NA 
ENDBRANCH  13  15
ENDBRANCH  10  13
ENDBRANCH   7  10
TORSDOF 3
ENDMDL
MODEL      158
REMARK 921   NORMALIZED FREE ENERGY PREDICTED BY IDOCK:   -3.77 KCAL/MOL
REMARK 922        TOTAL FREE ENERGY PREDICTED BY IDOCK:   -4.65 KCAL/MOL
REMARK 923 INTER-LIGAND FREE ENERGY PREDICTED BY IDOCK:   -4.43 KCAL/MOL
REMARK 924 INTRA-LIGAND FREE ENERGY PREDICTED BY IDOCK:   -0.21 KCAL/MOL
REMARK 927      BINDING AFFINITY PREDICTED BY RF-SCORE:    0.00 PKD
ROOT
HETATM    1  N   UNL     1      -6.257   8.953  73.732  1.00  0.00    -0.287 NA 
HETATM    2  H2  UNL     1      -5.833   9.426  72.933  1.00  0.00     0.000 HD 
HETATM    3  C   UNL     1      -7.280   8.125  73.261  1.00  0.00    -0.127 A  
HETATM    4  H1  UNL     1      -6.450   9.649  74.452  1.00  0.00     0.000 HD 
HETATM    5  C   UNL     1      -7.015   7.170  72.274  1.00  0.00    -0.064 A  
HETATM    6  C   UNL     1      -8.005   6.273  71.860  1.00  0.00    -0.102 A  
HETATM    7  C   UNL     1      -9.259   6.291  72.480  1.00  0.00    -0.140 A  
HETATM    8  C   UNL     1      -8.518   8.089  73.915  1.00  0.00    -0.321 A  
HETATM    9  C   UNL     1      -9.518   7.196  73.510  1.00  0.00    -0.249 A  
ENDROOT
BRANCH   7  10
HETATM   10  S   UNL     1     -10.569   5.259  71.846  1.00  0.00    -0.180 S  
HETATM   11  O   UNL     1      -9.972   4.037  71.345  1.00  0.00    -0.185 OA 
HETATM   12  O   UNL     1     -11.592   5.213  72.869  1.00  0.00    -0.297 OA 
BRANCH  10  13
HETATM   13  N   UNL     1     -11.228   6.123  70.562  1.00  0.00    -0.336 N  
HETATM   14  H   UNL     1     -11.387   5.694  69.650  1.00  0.00     0.000 HD 
BRANCH  13  15
HETATM   15  C   UNL     1     -11.547   7.468  70.813  1.00  0.00    -0.277 A  
HETATM   16  C   UNL     1     -10.708   8.510  70.454  1.00  0.00    -0.246 A  
HETATM   17  C   UNL     1     -11.140   9.807  70.710  1.00  0.00    -0.415 A  
HETATM   18  C   UNL     1     -12.368  10.002  71.336  1.00  0.00    -0.512 A  
HETATM   19  C   UNL     1     -13.119   8.886  71.672  1.00  0.00    -0.357 A  
HETATM   20  N   UNL     1     -12.737   7.616  71.414  1.00  0.00    -0.338 NA 
ENDBRANCH  13  15
ENDBRANCH  10  13
ENDBRANCH   7  10
TORSDOF 3
ENDMDL
MODEL      159
REMARK 921   NORMALIZED FREE ENERGY PREDICTED BY IDOCK:   -3.76 KCAL/MOL
REMARK 922        TOTAL FREE ENERGY PREDICTED BY IDOCK:   -4.63 KCAL/MOL
REMARK 923 INTER-LIGAND FREE ENERGY PREDICTED BY IDOCK:   -4.37 KCAL/MOL
REMARK 924 INTRA-LIGAND FREE ENERGY PREDICTED BY IDOCK:   -0.26 KCAL/MOL
REMARK 927      BINDING AFFINITY PREDICTED BY RF-SCORE:    0.00 PKD
ROOT
HETATM    1  N   UNL     1      -8.461   9.959  70.514  1.00  0.00    -0.379 NA 
HETATM    2  H2  UNL     1      -8.568   8.966  70.305  1.00  0.00     0.000 HD 
HETATM    3  C   UNL     1      -8.994  10.694  69.450  1.00  0.00    -0.029 A  
HETATM    4  H1  UNL     1      -7.501  10.121  70.819  1.00  0.00     0.000 HD 
HETATM    5  C   UNL     1     -10.310  10.472  69.031  1.00  0.00    -0.232 A  
HETATM    6  C   UNL     1     -10.887  11.262  68.032  1.00  0.00    -0.266 A  
HETATM    7  C   UNL     1     -10.161  12.324  67.482  1.00  0.00    -0.201 A  
HETATM    8  C   UNL     1      -8.303  11.797  68.936  1.00  0.00     0.073 A  
HETATM    9  C   UNL     1      -8.868  12.596  67.934  1.00  0.00    -0.182 A  
ENDROOT
BRANCH   7  10
HETATM   10  S   UNL     1     -10.834  13.227  66.100  1.00  0.00    -0.282 S  
HETATM   11  O   UNL     1     -10.844  12.344  64.951  1.00  0.00    -0.279 OA 
HETATM   12  O   UNL     1     -12.058  13.844  66.565  1.00  0.00    -0.416 OA 
BRANCH  10  13
HETATM   13  N   UNL     1      -9.750  14.485  65.826  1.00  0.00    -0.464 N  
HETATM   14  H   UNL     1      -8.859  14.333  65.355  1.00  0.00     0.000 HD 
BRANCH  13  15
HETATM   15  C   UNL     1     -10.141  15.756  66.281  1.00  0.00    -0.303 A  
HETATM   16  C   UNL     1     -10.153  16.091  67.625  1.00  0.00    -0.245 A  
HETATM   17  C   UNL     1     -10.515  17.391  67.964  1.00  0.00    -0.383 A  
HETATM   18  C   UNL     1     -10.875  18.280  66.956  1.00  0.00    -0.196 A  
HETATM   19  C   UNL     1     -10.850  17.832  65.644  1.00  0.00     0.050 A  
HETATM   20  N   UNL     1     -10.479  16.584  65.281  1.00  0.00    -0.637 NA 
ENDBRANCH  13  15
ENDBRANCH  10  13
ENDBRANCH   7  10
TORSDOF 3
ENDMDL
MODEL      160
REMARK 921   NORMALIZED FREE ENERGY PREDICTED BY IDOCK:   -3.73 KCAL/MOL
REMARK 922        TOTAL FREE ENERGY PREDICTED BY IDOCK:   -4.60 KCAL/MOL
REMARK 923 INTER-LIGAND FREE ENERGY PREDICTED BY IDOCK:   -4.28 KCAL/MOL
REMARK 924 INTRA-LIGAND FREE ENERGY PREDICTED BY IDOCK:   -0.32 KCAL/MOL
REMARK 927      BINDING AFFINITY PREDICTED BY RF-SCORE:    0.00 PKD
ROOT
HETATM    1  N   UNL     1      -8.879   2.279  74.044  1.00  0.00    -0.072 NA 
HETATM    2  H2  UNL     1      -7.913   2.199  73.728  1.00  0.00     0.000 HD 
HETATM    3  C   UNL     1      -9.424   3.449  73.505  1.00  0.00    -0.102 A  
HETATM    4  H1  UNL     1      -8.901   2.120  75.051  1.00  0.00     0.000 HD 
HETATM    5  C   UNL     1      -9.393   3.668  72.124  1.00  0.00    -0.184 A  
HETATM    6  C   UNL     1     -10.015   4.786  71.561  1.00  0.00    -0.263 A  
HETATM    7  C   UNL     1     -10.726   5.670  72.381  1.00  0.00    -0.237 A  
HETATM    8  C   UNL     1     -10.190   4.306  74.303  1.00  0.00    -0.263 A  
HETATM    9  C   UNL     1     -10.817   5.431  73.753  1.00  0.00    -0.282 A  
ENDROOT
BRANCH   7  10
HETATM   10  S   UNL     1     -11.381   7.178  71.690  1.00  0.00    -0.262 S  
HETATM   11  O   UNL     1     -12.369   6.820  70.692  1.00  0.00    -0.359 OA 
HETATM   12  O   UNL     1     -11.738   8.025  72.809  1.00  0.00    -0.396 OA 
BRANCH  10  13
HETATM   13  N   UNL     1     -10.074   7.922  70.937  1.00  0.00    -0.190 N  
HETATM   14  H   UNL     1      -9.120   7.804  71.276  1.00  0.00     0.000 HD 
BRANCH  13  15
HETATM   15  C   UNL     1     -10.368   8.716  69.816  1.00  0.00    -0.212 A  
HETATM   16  C   UNL     1     -10.128   8.290  68.521  1.00  0.00    -0.217 A  
HETATM   17  C   UNL     1     -10.497   9.138  67.481  1.00  0.00    -0.335 A  
HETATM   18  C   UNL     1     -11.056  10.376  67.781  1.00  0.00    -0.365 A  
HETATM   19  C   UNL     1     -11.231  10.712  69.115  1.00  0.00    -0.265 A  
HETATM   20  N   UNL     1     -10.907   9.900  70.146  1.00  0.00    -0.281 NA 
ENDBRANCH  13  15
ENDBRANCH  10  13
ENDBRANCH   7  10
TORSDOF 3
ENDMDL
MODEL      161
REMARK 921   NORMALIZED FREE ENERGY PREDICTED BY IDOCK:   -3.73 KCAL/MOL
REMARK 922        TOTAL FREE ENERGY PREDICTED BY IDOCK:   -4.60 KCAL/MOL
REMARK 923 INTER-LIGAND FREE ENERGY PREDICTED BY IDOCK:   -4.27 KCAL/MOL
REMARK 924 INTRA-LIGAND FREE ENERGY PREDICTED BY IDOCK:   -0.33 KCAL/MOL
REMARK 927      BINDING AFFINITY PREDICTED BY RF-SCORE:    0.00 PKD
ROOT
HETATM    1  N   UNL     1     -13.586   6.788  72.241  1.00  0.00    -0.471 NA 
HETATM    2  H2  UNL     1     -14.441   7.345  72.248  1.00  0.00     0.000 HD 
HETATM    3  C   UNL     1     -12.614   7.482  71.512  1.00  0.00    -0.355 A  
HETATM    4  H1  UNL     1     -13.829   5.830  71.990  1.00  0.00     0.000 HD 
HETATM    5  C   UNL     1     -12.281   8.796  71.856  1.00  0.00    -0.429 A  
HETATM    6  C   UNL     1     -11.248   9.469  71.199  1.00  0.00    -0.446 A  
HETATM    7  C   UNL     1     -10.498   8.803  70.222  1.00  0.00    -0.208 A  
HETATM    8  C   UNL     1     -11.817   6.809  70.579  1.00  0.00    -0.418 A  
HETATM    9  C   UNL     1     -10.779   7.472  69.911  1.00  0.00    -0.254 A  
ENDROOT
BRANCH   7  10
HETATM   10  S   UNL     1      -9.290   9.708  69.272  1.00  0.00    -0.192 S  
HETATM   11  O   UNL     1      -9.957  10.842  68.664  1.00  0.00    -0.167 OA 
HETATM   12  O   UNL     1      -8.145   9.903  70.137  1.00  0.00    -0.179 OA 
BRANCH  10  13
HETATM   13  N   UNL     1      -8.791   8.645  68.068  1.00  0.00    -0.141 N  
HETATM   14  H   UNL     1      -8.603   7.661  68.263  1.00  0.00     0.000 HD 
BRANCH  13  15
HETATM   15  C   UNL     1      -8.647   9.184  66.778  1.00  0.00    -0.127 A  
HETATM   16  C   UNL     1      -9.608   9.024  65.795  1.00  0.00    -0.287 A  
HETATM   17  C   UNL     1      -9.385   9.637  64.566  1.00  0.00    -0.247 A  
HETATM   18  C   UNL     1      -8.206  10.349  64.367  1.00  0.00    -0.125 A  
HETATM   19  C   UNL     1      -7.300  10.427  65.413  1.00  0.00    -0.124 A  
HETATM   20  N   UNL     1      -7.500   9.865  66.626  1.00  0.00    -0.098 NA 
ENDBRANCH  13  15
ENDBRANCH  10  13
ENDBRANCH   7  10
TORSDOF 3
ENDMDL
MODEL      162
REMARK 921   NORMALIZED FREE ENERGY PREDICTED BY IDOCK:   -3.71 KCAL/MOL
REMARK 922        TOTAL FREE ENERGY PREDICTED BY IDOCK:   -4.57 KCAL/MOL
REMARK 923 INTER-LIGAND FREE ENERGY PREDICTED BY IDOCK:   -4.16 KCAL/MOL
REMARK 924 INTRA-LIGAND FREE ENERGY PREDICTED BY IDOCK:   -0.42 KCAL/MOL
REMARK 927      BINDING AFFINITY PREDICTED BY RF-SCORE:    0.00 PKD
ROOT
HETATM    1  N   UNL     1     -14.337   7.170  71.945  1.00  0.00    -0.601 NA 
HETATM    2  H2  UNL     1     -14.971   7.679  71.329  1.00  0.00     0.000 HD 
HETATM    3  C   UNL     1     -13.028   7.573  71.662  1.00  0.00    -0.358 A  
HETATM    4  H1  UNL     1     -14.588   6.182  71.918  1.00  0.00     0.000 HD 
HETATM    5  C   UNL     1     -12.685   8.928  71.700  1.00  0.00    -0.403 A  
HETATM    6  C   UNL     1     -11.362   9.339  71.511  1.00  0.00    -0.455 A  
HETATM    7  C   UNL     1     -10.357   8.380  71.338  1.00  0.00    -0.222 A  
HETATM    8  C   UNL     1     -12.005   6.624  71.551  1.00  0.00    -0.402 A  
HETATM    9  C   UNL     1     -10.675   7.021  71.360  1.00  0.00    -0.241 A  
ENDROOT
BRANCH   7  10
HETATM   10  S   UNL     1      -8.700   8.904  70.937  1.00  0.00    -0.225 S  
HETATM   11  O   UNL     1      -8.794   9.995  69.987  1.00  0.00    -0.192 OA 
HETATM   12  O   UNL     1      -8.007   9.082  72.196  1.00  0.00    -0.356 OA 
BRANCH  10  13
HETATM   13  N   UNL     1      -7.986   7.576  70.192  1.00  0.00    -0.109 N  
HETATM   14  H   UNL     1      -7.650   6.776  70.727  1.00  0.00     0.000 HD 
BRANCH  13  15
HETATM   15  C   UNL     1      -7.876   7.630  68.792  1.00  0.00    -0.120 A  
HETATM   16  C   UNL     1      -8.930   7.312  67.952  1.00  0.00    -0.130 A  
HETATM   17  C   UNL     1      -8.726   7.441  66.581  1.00  0.00    -0.141 A  
HETATM   18  C   UNL     1      -7.480   7.847  66.116  1.00  0.00    -0.079 A  
HETATM   19  C   UNL     1      -6.487   8.119  67.045  1.00  0.00    -0.057 A  
HETATM   20  N   UNL     1      -6.662   8.028  68.382  1.00  0.00    -0.065 NA 
ENDBRANCH  13  15
ENDBRANCH  10  13
ENDBRANCH   7  10
TORSDOF 3
ENDMDL
MODEL      163
REMARK 921   NORMALIZED FREE ENERGY PREDICTED BY IDOCK:   -3.70 KCAL/MOL
REMARK 922        TOTAL FREE ENERGY PREDICTED BY IDOCK:   -4.57 KCAL/MOL
REMARK 923 INTER-LIGAND FREE ENERGY PREDICTED BY IDOCK:   -4.42 KCAL/MOL
REMARK 924 INTRA-LIGAND FREE ENERGY PREDICTED BY IDOCK:   -0.15 KCAL/MOL
REMARK 927      BINDING AFFINITY PREDICTED BY RF-SCORE:    0.00 PKD
ROOT
HETATM    1  N   UNL     1      -7.712   9.095  67.893  1.00  0.00    -0.092 NA 
HETATM    2  H2  UNL     1      -6.868   9.351  68.406  1.00  0.00     0.000 HD 
HETATM    3  C   UNL     1      -8.724   8.821  68.819  1.00  0.00    -0.137 A  
HETATM    4  H1  UNL     1      -7.462   8.404  67.187  1.00  0.00     0.000 HD 
HETATM    5  C   UNL     1      -9.068   9.769  69.788  1.00  0.00    -0.246 A  
HETATM    6  C   UNL     1     -10.138   9.549  70.659  1.00  0.00    -0.353 A  
HETATM    7  C   UNL     1     -10.912   8.391  70.527  1.00  0.00    -0.242 A  
HETATM    8  C   UNL     1      -9.545   7.699  68.657  1.00  0.00    -0.152 A  
HETATM    9  C   UNL     1     -10.620   7.464  69.524  1.00  0.00    -0.244 A  
ENDROOT
BRANCH   7  10
HETATM   10  S   UNL     1     -12.173   8.031  71.736  1.00  0.00    -0.330 S  
HETATM   11  O   UNL     1     -12.869   9.267  72.036  1.00  0.00    -0.361 OA 
HETATM   12  O   UNL     1     -12.899   6.878  71.247  1.00  0.00    -0.359 OA 
BRANCH  10  13
HETATM   13  N   UNL     1     -11.339   7.516  73.102  1.00  0.00    -0.604 N  
HETATM   14  H   UNL     1     -11.331   8.060  73.965  1.00  0.00     0.000 HD 
BRANCH  13  15
HETATM   15  C   UNL     1     -10.653   6.294  72.992  1.00  0.00    -0.239 A  
HETATM   16  C   UNL     1     -11.284   5.072  73.151  1.00  0.00    -0.408 A  
HETATM   17  C   UNL     1     -10.520   3.922  72.978  1.00  0.00    -0.253 A  
HETATM   18  C   UNL     1      -9.166   4.044  72.686  1.00  0.00    -0.138 A  
HETATM   19  C   UNL     1      -8.630   5.319  72.570  1.00  0.00    -0.121 A  
HETATM   20  N   UNL     1      -9.352   6.454  72.708  1.00  0.00    -0.141 NA 
ENDBRANCH  13  15
ENDBRANCH  10  13
ENDBRANCH   7  10
TORSDOF 3
ENDMDL
MODEL      164
REMARK 921   NORMALIZED FREE ENERGY PREDICTED BY IDOCK:   -3.70 KCAL/MOL
REMARK 922        TOTAL FREE ENERGY PREDICTED BY IDOCK:   -4.56 KCAL/MOL
REMARK 923 INTER-LIGAND FREE ENERGY PREDICTED BY IDOCK:   -4.29 KCAL/MOL
REMARK 924 INTRA-LIGAND FREE ENERGY PREDICTED BY IDOCK:   -0.27 KCAL/MOL
REMARK 927      BINDING AFFINITY PREDICTED BY RF-SCORE:    0.00 PKD
ROOT
HETATM    1  N   UNL     1     -12.377  14.657  68.225  1.00  0.00    -0.593 NA 
HETATM    2  H2  UNL     1     -13.369  14.609  67.993  1.00  0.00     0.000 HD 
HETATM    3  C   UNL     1     -11.776  13.454  67.842  1.00  0.00    -0.361 A  
HETATM    4  H1  UNL     1     -12.287  14.994  69.183  1.00  0.00     0.000 HD 
HETATM    5  C   UNL     1     -11.900  12.992  66.527  1.00  0.00    -0.464 A  
HETATM    6  C   UNL     1     -11.228  11.841  66.106  1.00  0.00    -0.363 A  
HETATM    7  C   UNL     1     -10.377  11.171  66.992  1.00  0.00    -0.224 A  
HETATM    8  C   UNL     1     -10.873  12.810  68.697  1.00  0.00    -0.284 A  
HETATM    9  C   UNL     1     -10.196  11.655  68.288  1.00  0.00    -0.206 A  
ENDROOT
BRANCH   7  10
HETATM   10  S   UNL     1      -9.649   9.617  66.508  1.00  0.00    -0.212 S  
HETATM   11  O   UNL     1      -8.249   9.643  66.881  1.00  0.00    -0.112 OA 
HETATM   12  O   UNL     1     -10.524   8.576  67.006  1.00  0.00    -0.300 OA 
BRANCH  10  13
HETATM   13  N   UNL     1      -9.777   9.573  64.831  1.00  0.00    -0.438 N  
HETATM   14  H   UNL     1     -10.666   9.728  64.356  1.00  0.00     0.000 HD 
BRANCH  13  15
HETATM   15  C   UNL     1      -8.593   9.312  64.120  1.00  0.00    -0.188 A  
HETATM   16  C   UNL     1      -8.068   8.037  63.997  1.00  0.00    -0.102 A  
HETATM   17  C   UNL     1      -6.914   7.883  63.234  1.00  0.00    -0.080 A  
HETATM   18  C   UNL     1      -6.325   9.006  62.661  1.00  0.00    -0.094 A  
HETATM   19  C   UNL     1      -6.922  10.240  62.868  1.00  0.00    -0.129 A  
HETATM   20  N   UNL     1      -8.056  10.418  63.582  1.00  0.00    -0.143 NA 
ENDBRANCH  13  15
ENDBRANCH  10  13
ENDBRANCH   7  10
TORSDOF 3
ENDMDL
MODEL      165
REMARK 921   NORMALIZED FREE ENERGY PREDICTED BY IDOCK:   -3.68 KCAL/MOL
REMARK 922        TOTAL FREE ENERGY PREDICTED BY IDOCK:   -4.54 KCAL/MOL
REMARK 923 INTER-LIGAND FREE ENERGY PREDICTED BY IDOCK:   -4.34 KCAL/MOL
REMARK 924 INTRA-LIGAND FREE ENERGY PREDICTED BY IDOCK:   -0.20 KCAL/MOL
REMARK 927      BINDING AFFINITY PREDICTED BY RF-SCORE:    0.00 PKD
ROOT
HETATM    1  N   UNL     1     -11.030  17.699  68.453  1.00  0.00    -0.210 NA 
HETATM    2  H2  UNL     1     -11.320  18.002  67.523  1.00  0.00     0.000 HD 
HETATM    3  C   UNL     1     -11.135  16.306  68.516  1.00  0.00    -0.368 A  
HETATM    4  H1  UNL     1     -11.504  18.281  69.143  1.00  0.00     0.000 HD 
HETATM    5  C   UNL     1     -10.484  15.508  67.569  1.00  0.00    -0.282 A  
HETATM    6  C   UNL     1     -10.502  14.114  67.673  1.00  0.00    -0.245 A  
HETATM    7  C   UNL     1     -11.132  13.508  68.766  1.00  0.00    -0.264 A  
HETATM    8  C   UNL     1     -11.705  15.689  69.635  1.00  0.00    -0.373 A  
HETATM    9  C   UNL     1     -11.732  14.294  69.751  1.00  0.00    -0.367 A  
ENDROOT
BRANCH   7  10
HETATM   10  S   UNL     1     -11.295  11.733  68.815  1.00  0.00    -0.295 S  
HETATM   11  O   UNL     1     -10.051  11.183  69.314  1.00  0.00    -0.159 OA 
HETATM   12  O   UNL     1     -12.547  11.450  69.487  1.00  0.00    -0.120 OA 
BRANCH  10  13
HETATM   13  N   UNL     1     -11.508  11.265  67.213  1.00  0.00    -0.257 N  
HETATM   14  H   UNL     1     -12.337  11.529  66.682  1.00  0.00     0.000 HD 
BRANCH  13  15
HETATM   15  C   UNL     1     -10.481  10.491  66.647  1.00  0.00    -0.228 A  
HETATM   16  C   UNL     1     -10.322   9.146  66.932  1.00  0.00    -0.321 A  
HETATM   17  C   UNL     1      -9.298   8.463  66.283  1.00  0.00    -0.283 A  
HETATM   18  C   UNL     1      -8.467   9.157  65.409  1.00  0.00    -0.163 A  
HETATM   19  C   UNL     1      -8.701  10.509  65.213  1.00  0.00    -0.188 A  
HETATM   20  N   UNL     1      -9.703  11.194  65.810  1.00  0.00    -0.215 NA 
ENDBRANCH  13  15
ENDBRANCH  10  13
ENDBRANCH   7  10
TORSDOF 3
ENDMDL
MODEL      166
REMARK 921   NORMALIZED FREE ENERGY PREDICTED BY IDOCK:   -3.66 KCAL/MOL
REMARK 922        TOTAL FREE ENERGY PREDICTED BY IDOCK:   -4.52 KCAL/MOL
REMARK 923 INTER-LIGAND FREE ENERGY PREDICTED BY IDOCK:   -4.27 KCAL/MOL
REMARK 924 INTRA-LIGAND FREE ENERGY PREDICTED BY IDOCK:   -0.25 KCAL/MOL
REMARK 927      BINDING AFFINITY PREDICTED BY RF-SCORE:    0.00 PKD
ROOT
HETATM    1  N   UNL     1     -10.774  11.771  62.969  1.00  0.00    -0.680 NA 
HETATM    2  H2  UNL     1     -10.563  12.764  62.877  1.00  0.00     0.000 HD 
HETATM    3  C   UNL     1     -10.674  11.423  64.320  1.00  0.00    -0.356 A  
HETATM    4  H1  UNL     1     -10.238  11.262  62.267  1.00  0.00     0.000 HD 
HETATM    5  C   UNL     1     -11.410  12.121  65.283  1.00  0.00    -0.386 A  
HETATM    6  C   UNL     1     -11.393  11.726  66.624  1.00  0.00    -0.381 A  
HETATM    7  C   UNL     1     -10.676  10.585  67.001  1.00  0.00    -0.250 A  
HETATM    8  C   UNL     1     -10.014  10.248  64.701  1.00  0.00    -0.377 A  
HETATM    9  C   UNL     1      -9.987   9.842  66.041  1.00  0.00    -0.342 A  
ENDROOT
BRANCH   7  10
HETATM   10  S   UNL     1     -10.522  10.173  68.730  1.00  0.00    -0.216 S  
HETATM   11  O   UNL     1     -11.210  11.194  69.495  1.00  0.00    -0.244 OA 
HETATM   12  O   UNL     1     -10.894   8.780  68.859  1.00  0.00    -0.143 OA 
BRANCH  10  13
HETATM   13  N   UNL     1      -8.874  10.250  69.055  1.00  0.00    -0.158 N  
HETATM   14  H   UNL     1      -8.302  11.038  68.752  1.00  0.00     0.000 HD 
BRANCH  13  15
HETATM   15  C   UNL     1      -8.327   9.170  69.768  1.00  0.00    -0.136 A  
HETATM   16  C   UNL     1      -8.540   8.991  71.125  1.00  0.00    -0.250 A  
HETATM   17  C   UNL     1      -7.987   7.863  71.724  1.00  0.00    -0.118 A  
HETATM   18  C   UNL     1      -7.228   6.989  70.953  1.00  0.00    -0.072 A  
HETATM   19  C   UNL     1      -7.059   7.276  69.607  1.00  0.00    -0.073 A  
HETATM   20  N   UNL     1      -7.603   8.349  68.991  1.00  0.00    -0.090 NA 
ENDBRANCH  13  15
ENDBRANCH  10  13
ENDBRANCH   7  10
TORSDOF 3
ENDMDL
MODEL      167
REMARK 921   NORMALIZED FREE ENERGY PREDICTED BY IDOCK:   -3.66 KCAL/MOL
REMARK 922        TOTAL FREE ENERGY PREDICTED BY IDOCK:   -4.52 KCAL/MOL
REMARK 923 INTER-LIGAND FREE ENERGY PREDICTED BY IDOCK:   -4.31 KCAL/MOL
REMARK 924 INTRA-LIGAND FREE ENERGY PREDICTED BY IDOCK:   -0.21 KCAL/MOL
REMARK 927      BINDING AFFINITY PREDICTED BY RF-SCORE:    0.00 PKD
ROOT
HETATM    1  N   UNL     1      -9.187   4.802  66.835  1.00  0.00    -0.120 NA 
HETATM    2  H2  UNL     1      -8.891   5.596  66.267  1.00  0.00     0.000 HD 
HETATM    3  C   UNL     1      -9.777   5.293  68.004  1.00  0.00    -0.141 A  
HETATM    4  H1  UNL     1      -8.413   4.140  66.889  1.00  0.00     0.000 HD 
HETATM    5  C   UNL     1     -10.838   6.201  67.930  1.00  0.00    -0.406 A  
HETATM    6  C   UNL     1     -11.498   6.629  69.085  1.00  0.00    -0.199 A  
HETATM    7  C   UNL     1     -11.132   6.100  70.328  1.00  0.00    -0.366 A  
HETATM    8  C   UNL     1      -9.464   4.726  69.245  1.00  0.00    -0.221 A  
HETATM    9  C   UNL     1     -10.117   5.146  70.411  1.00  0.00    -0.333 A  
ENDROOT
BRANCH   7  10
HETATM   10  S   UNL     1     -11.862   6.761  71.815  1.00  0.00    -0.344 S  
HETATM   11  O   UNL     1     -13.289   6.883  71.597  1.00  0.00    -0.341 OA 
HETATM   12  O   UNL     1     -11.351   5.970  72.915  1.00  0.00    -0.256 OA 
BRANCH  10  13
HETATM   13  N   UNL     1     -11.193   8.294  71.990  1.00  0.00    -0.298 N  
HETATM   14  H   UNL     1     -11.770   9.134  72.009  1.00  0.00     0.000 HD 
BRANCH  13  15
HETATM   15  C   UNL     1      -9.793   8.355  72.108  1.00  0.00    -0.302 A  
HETATM   16  C   UNL     1      -8.982   8.815  71.085  1.00  0.00    -0.280 A  
HETATM   17  C   UNL     1      -7.612   8.875  71.323  1.00  0.00    -0.132 A  
HETATM   18  C   UNL     1      -7.117   8.447  72.551  1.00  0.00    -0.107 A  
HETATM   19  C   UNL     1      -8.018   7.983  73.498  1.00  0.00    -0.190 A  
HETATM   20  N   UNL     1      -9.355   7.937  73.306  1.00  0.00    -0.273 NA 
ENDBRANCH  13  15
ENDBRANCH  10  13
ENDBRANCH   7  10
TORSDOF 3
ENDMDL
MODEL      168
REMARK 921   NORMALIZED FREE ENERGY PREDICTED BY IDOCK:   -3.65 KCAL/MOL
REMARK 922        TOTAL FREE ENERGY PREDICTED BY IDOCK:   -4.51 KCAL/MOL
REMARK 923 INTER-LIGAND FREE ENERGY PREDICTED BY IDOCK:   -4.21 KCAL/MOL
REMARK 924 INTRA-LIGAND FREE ENERGY PREDICTED BY IDOCK:   -0.30 KCAL/MOL
REMARK 927      BINDING AFFINITY PREDICTED BY RF-SCORE:    0.00 PKD
ROOT
HETATM    1  N   UNL     1      -8.980   4.712  67.299  1.00  0.00    -0.112 NA 
HETATM    2  H2  UNL     1      -9.651   4.177  66.748  1.00  0.00     0.000 HD 
HETATM    3  C   UNL     1      -9.167   6.071  67.024  1.00  0.00    -0.121 A  
HETATM    4  H1  UNL     1      -8.060   4.288  67.185  1.00  0.00     0.000 HD 
HETATM    5  C   UNL     1     -10.429   6.653  67.180  1.00  0.00    -0.358 A  
HETATM    6  C   UNL     1     -10.612   8.028  66.999  1.00  0.00    -0.364 A  
HETATM    7  C   UNL     1      -9.510   8.841  66.713  1.00  0.00    -0.191 A  
HETATM    8  C   UNL     1      -8.065   6.905  66.800  1.00  0.00    -0.109 A  
HETATM    9  C   UNL     1      -8.234   8.283  66.615  1.00  0.00    -0.106 A  
ENDROOT
BRANCH   7  10
HETATM   10  S   UNL     1      -9.765  10.563  66.324  1.00  0.00    -0.215 S  
HETATM   11  O   UNL     1      -8.627  11.308  66.825  1.00  0.00    -0.148 OA 
HETATM   12  O   UNL     1     -10.124  10.622  64.922  1.00  0.00    -0.296 OA 
BRANCH  10  13
HETATM   13  N   UNL     1     -11.143  11.009  67.180  1.00  0.00    -0.289 N  
HETATM   14  H   UNL     1     -11.865  10.332  67.426  1.00  0.00     0.000 HD 
BRANCH  13  15
HETATM   15  C   UNL     1     -11.245  12.364  67.537  1.00  0.00    -0.294 A  
HETATM   16  C   UNL     1     -11.503  13.359  66.609  1.00  0.00    -0.376 A  
HETATM   17  C   UNL     1     -11.628  14.663  67.077  1.00  0.00    -0.385 A  
HETATM   18  C   UNL     1     -11.459  14.917  68.434  1.00  0.00    -0.338 A  
HETATM   19  C   UNL     1     -11.181  13.848  69.273  1.00  0.00    -0.251 A  
HETATM   20  N   UNL     1     -11.079  12.567  68.853  1.00  0.00    -0.256 NA 
ENDBRANCH  13  15
ENDBRANCH  10  13
ENDBRANCH   7  10
TORSDOF 3
ENDMDL
MODEL      169
REMARK 921   NORMALIZED FREE ENERGY PREDICTED BY IDOCK:   -3.64 KCAL/MOL
REMARK 922        TOTAL FREE ENERGY PREDICTED BY IDOCK:   -4.50 KCAL/MOL
REMARK 923 INTER-LIGAND FREE ENERGY PREDICTED BY IDOCK:   -4.30 KCAL/MOL
REMARK 924 INTRA-LIGAND FREE ENERGY PREDICTED BY IDOCK:   -0.20 KCAL/MOL
REMARK 927      BINDING AFFINITY PREDICTED BY RF-SCORE:    0.00 PKD
ROOT
HETATM    1  N   UNL     1      -8.314   9.761  68.340  1.00  0.00    -0.109 NA 
HETATM    2  H2  UNL     1      -8.835   9.404  67.539  1.00  0.00     0.000 HD 
HETATM    3  C   UNL     1      -8.273  11.157  68.252  1.00  0.00    -0.134 A  
HETATM    4  H1  UNL     1      -7.450   9.227  68.426  1.00  0.00     0.000 HD 
HETATM    5  C   UNL     1      -9.459  11.889  68.134  1.00  0.00    -0.195 A  
HETATM    6  C   UNL     1      -9.442  13.287  68.139  1.00  0.00    -0.222 A  
HETATM    7  C   UNL     1      -8.230  13.964  68.320  1.00  0.00    -0.158 A  
HETATM    8  C   UNL     1      -7.080  11.846  68.495  1.00  0.00    -0.089 A  
HETATM    9  C   UNL     1      -7.047  13.247  68.501  1.00  0.00    -0.105 A  
ENDROOT
BRANCH   7  10
HETATM   10  S   UNL     1      -8.184  15.741  68.165  1.00  0.00    -0.144 S  
HETATM   11  O   UNL     1      -7.697  16.286  69.417  1.00  0.00    -0.231 OA 
HETATM   12  O   UNL     1      -7.502  16.030  66.921  1.00  0.00    -0.216 OA 
BRANCH  10  13
HETATM   13  N   UNL     1      -9.785  16.205  67.941  1.00  0.00    -0.224 N  
HETATM   14  H   UNL     1     -10.560  15.565  68.111  1.00  0.00     0.000 HD 
BRANCH  13  15
HETATM   15  C   UNL     1      -9.997  17.525  67.506  1.00  0.00    -0.315 A  
HETATM   16  C   UNL     1     -10.380  17.826  66.210  1.00  0.00    -0.358 A  
HETATM   17  C   UNL     1     -10.605  19.163  65.897  1.00  0.00    -0.495 A  
HETATM   18  C   UNL     1     -10.410  20.132  66.876  1.00  0.00    -0.503 A  
HETATM   19  C   UNL     1     -10.003  19.721  68.136  1.00  0.00    -0.440 A  
HETATM   20  N   UNL     1      -9.801  18.429  68.478  1.00  0.00    -0.359 NA 
ENDBRANCH  13  15
ENDBRANCH  10  13
ENDBRANCH   7  10
TORSDOF 3
ENDMDL
MODEL      170
REMARK 921   NORMALIZED FREE ENERGY PREDICTED BY IDOCK:   -3.64 KCAL/MOL
REMARK 922        TOTAL FREE ENERGY PREDICTED BY IDOCK:   -4.50 KCAL/MOL
REMARK 923 INTER-LIGAND FREE ENERGY PREDICTED BY IDOCK:   -4.42 KCAL/MOL
REMARK 924 INTRA-LIGAND FREE ENERGY PREDICTED BY IDOCK:   -0.08 KCAL/MOL
REMARK 927      BINDING AFFINITY PREDICTED BY RF-SCORE:    0.00 PKD
ROOT
HETATM    1  N   UNL     1     -10.000  10.674  62.473  1.00  0.00    -0.750 NA 
HETATM    2  H2  UNL     1      -9.937  11.657  62.209  1.00  0.00     0.000 HD 
HETATM    3  C   UNL     1      -9.893  10.583  63.865  1.00  0.00    -0.310 A  
HETATM    4  H1  UNL     1      -9.370  10.140  61.875  1.00  0.00     0.000 HD 
HETATM    5  C   UNL     1     -10.757  11.316  64.686  1.00  0.00    -0.371 A  
HETATM    6  C   UNL     1     -10.725  11.165  66.075  1.00  0.00    -0.272 A  
HETATM    7  C   UNL     1      -9.858  10.229  66.651  1.00  0.00    -0.204 A  
HETATM    8  C   UNL     1      -9.077   9.608  64.450  1.00  0.00    -0.279 A  
HETATM    9  C   UNL     1      -9.034   9.447  65.840  1.00  0.00    -0.217 A  
ENDROOT
BRANCH   7  10
HETATM   10  S   UNL     1      -9.701  10.151  68.426  1.00  0.00    -0.151 S  
HETATM   11  O   UNL     1      -8.333   9.789  68.738  1.00  0.00    -0.106 OA 
HETATM   12  O   UNL     1     -10.276  11.373  68.947  1.00  0.00    -0.207 OA 
BRANCH  10  13
HETATM   13  N   UNL     1     -10.728   8.908  68.905  1.00  0.00    -0.386 N  
HETATM   14  H   UNL     1     -11.547   9.082  69.488  1.00  0.00     0.000 HD 
BRANCH  13  15
HETATM   15  C   UNL     1     -10.398   7.617  68.458  1.00  0.00    -0.198 A  
HETATM   16  C   UNL     1      -9.434   6.841  69.079  1.00  0.00    -0.133 A  
HETATM   17  C   UNL     1      -9.216   5.560  68.582  1.00  0.00    -0.140 A  
HETATM   18  C   UNL     1      -9.943   5.128  67.477  1.00  0.00    -0.211 A  
HETATM   19  C   UNL     1     -10.868   5.997  66.918  1.00  0.00    -0.318 A  
HETATM   20  N   UNL     1     -11.121   7.236  67.393  1.00  0.00    -0.165 NA 
ENDBRANCH  13  15
ENDBRANCH  10  13
ENDBRANCH   7  10
TORSDOF 3
ENDMDL
MODEL      171
REMARK 921   NORMALIZED FREE ENERGY PREDICTED BY IDOCK:   -3.63 KCAL/MOL
REMARK 922        TOTAL FREE ENERGY PREDICTED BY IDOCK:   -4.48 KCAL/MOL
REMARK 923 INTER-LIGAND FREE ENERGY PREDICTED BY IDOCK:   -4.26 KCAL/MOL
REMARK 924 INTRA-LIGAND FREE ENERGY PREDICTED BY IDOCK:   -0.23 KCAL/MOL
REMARK 927      BINDING AFFINITY PREDICTED BY RF-SCORE:    0.00 PKD
ROOT
HETATM    1  N   UNL     1     -10.807   4.763  74.291  1.00  0.00    -0.331 NA 
HETATM    2  H2  UNL     1     -10.399   3.836  74.167  1.00  0.00     0.000 HD 
HETATM    3  C   UNL     1     -10.516   5.527  73.156  1.00  0.00    -0.222 A  
HETATM    4  H1  UNL     1     -10.553   5.104  75.218  1.00  0.00     0.000 HD 
HETATM    5  C   UNL     1     -10.864   5.058  71.885  1.00  0.00    -0.118 A  
HETATM    6  C   UNL     1     -10.666   5.850  70.750  1.00  0.00    -0.344 A  
HETATM    7  C   UNL     1     -10.165   7.149  70.890  1.00  0.00    -0.197 A  
HETATM    8  C   UNL     1     -10.076   6.849  73.287  1.00  0.00    -0.260 A  
HETATM    9  C   UNL     1      -9.871   7.653  72.158  1.00  0.00    -0.226 A  
ENDROOT
BRANCH   7  10
HETATM   10  S   UNL     1      -9.761   8.098  69.435  1.00  0.00    -0.173 S  
HETATM   11  O   UNL     1      -8.779   9.096  69.811  1.00  0.00    -0.132 OA 
HETATM   12  O   UNL     1      -9.476   7.144  68.384  1.00  0.00    -0.138 OA 
BRANCH  10  13
HETATM   13  N   UNL     1     -11.193   8.864  68.997  1.00  0.00    -0.403 N  
HETATM   14  H   UNL     1     -12.104   8.498  69.272  1.00  0.00     0.000 HD 
BRANCH  13  15
HETATM   15  C   UNL     1     -11.066  10.035  68.230  1.00  0.00    -0.190 A  
HETATM   16  C   UNL     1     -10.467  10.044  66.982  1.00  0.00    -0.302 A  
HETATM   17  C   UNL     1     -10.433  11.250  66.289  1.00  0.00    -0.308 A  
HETATM   18  C   UNL     1     -10.967  12.389  66.883  1.00  0.00    -0.307 A  
HETATM   19  C   UNL     1     -11.524  12.272  68.148  1.00  0.00    -0.316 A  
HETATM   20  N   UNL     1     -11.594  11.110  68.835  1.00  0.00    -0.290 NA 
ENDBRANCH  13  15
ENDBRANCH  10  13
ENDBRANCH   7  10
TORSDOF 3
ENDMDL
MODEL      172
REMARK 921   NORMALIZED FREE ENERGY PREDICTED BY IDOCK:   -3.62 KCAL/MOL
REMARK 922        TOTAL FREE ENERGY PREDICTED BY IDOCK:   -4.47 KCAL/MOL
REMARK 923 INTER-LIGAND FREE ENERGY PREDICTED BY IDOCK:   -4.34 KCAL/MOL
REMARK 924 INTRA-LIGAND FREE ENERGY PREDICTED BY IDOCK:   -0.13 KCAL/MOL
REMARK 927      BINDING AFFINITY PREDICTED BY RF-SCORE:    0.00 PKD
ROOT
HETATM    1  N   UNL     1      -8.223  14.327  68.878  1.00  0.00    -0.293 NA 
HETATM    2  H2  UNL     1      -8.022  13.474  68.357  1.00  0.00     0.000 HD 
HETATM    3  C   UNL     1      -7.741  15.416  68.144  1.00  0.00    -0.124 A  
HETATM    4  H1  UNL     1      -7.929  14.190  69.845  1.00  0.00     0.000 HD 
HETATM    5  C   UNL     1      -8.144  15.604  66.818  1.00  0.00    -0.280 A  
HETATM    6  C   UNL     1      -7.745  16.736  66.101  1.00  0.00    -0.208 A  
HETATM    7  C   UNL     1      -6.980  17.722  66.733  1.00  0.00    -0.193 A  
HETATM    8  C   UNL     1      -7.029  16.439  68.781  1.00  0.00    -0.172 A  
HETATM    9  C   UNL     1      -6.622  17.578  68.074  1.00  0.00    -0.173 A  
ENDROOT
BRANCH   7  10
HETATM   10  S   UNL     1      -6.337  19.085  65.778  1.00  0.00    -0.255 S  
HETATM   11  O   UNL     1      -5.338  19.761  66.580  1.00  0.00    -0.164 OA 
HETATM   12  O   UNL     1      -5.998  18.553  64.475  1.00  0.00    -0.300 OA 
BRANCH  10  13
HETATM   13  N   UNL     1      -7.648  20.111  65.538  1.00  0.00    -0.458 N  
HETATM   14  H   UNL     1      -7.678  20.772  64.761  1.00  0.00     0.000 HD 
BRANCH  13  15
HETATM   15  C   UNL     1      -8.699  20.010  66.465  1.00  0.00    -0.317 A  
HETATM   16  C   UNL     1      -9.947  19.522  66.121  1.00  0.00    -0.526 A  
HETATM   17  C   UNL     1     -10.904  19.424  67.128  1.00  0.00    -0.561 A  
HETATM   18  C   UNL     1     -10.581  19.844  68.414  1.00  0.00    -0.236 A  
HETATM   19  C   UNL     1      -9.305  20.339  68.643  1.00  0.00     0.187 A  
HETATM   20  N   UNL     1      -8.348  20.423  67.693  1.00  0.00    -0.273 NA 
ENDBRANCH  13  15
ENDBRANCH  10  13
ENDBRANCH   7  10
TORSDOF 3
ENDMDL
MODEL      173
REMARK 921   NORMALIZED FREE ENERGY PREDICTED BY IDOCK:   -3.62 KCAL/MOL
REMARK 922        TOTAL FREE ENERGY PREDICTED BY IDOCK:   -4.47 KCAL/MOL
REMARK 923 INTER-LIGAND FREE ENERGY PREDICTED BY IDOCK:   -4.16 KCAL/MOL
REMARK 924 INTRA-LIGAND FREE ENERGY PREDICTED BY IDOCK:   -0.32 KCAL/MOL
REMARK 927      BINDING AFFINITY PREDICTED BY RF-SCORE:    0.00 PKD
ROOT
HETATM    1  N   UNL     1      -8.365  20.897  66.953  1.00  0.00    -0.562 NA 
HETATM    2  H2  UNL     1      -8.324  21.186  65.975  1.00  0.00     0.000 HD 
HETATM    3  C   UNL     1      -8.553  19.512  66.996  1.00  0.00    -0.301 A  
HETATM    4  H1  UNL     1      -9.007  21.518  67.444  1.00  0.00     0.000 HD 
HETATM    5  C   UNL     1      -7.672  18.660  66.322  1.00  0.00    -0.290 A  
HETATM    6  C   UNL     1      -7.791  17.272  66.432  1.00  0.00    -0.345 A  
HETATM    7  C   UNL     1      -8.768  16.725  67.271  1.00  0.00    -0.199 A  
HETATM    8  C   UNL     1      -9.484  18.952  67.879  1.00  0.00    -0.346 A  
HETATM    9  C   UNL     1      -9.615  17.563  67.998  1.00  0.00    -0.282 A  
ENDROOT
BRANCH   7  10
HETATM   10  S   UNL     1      -9.026  14.960  67.288  1.00  0.00    -0.210 S  
HETATM   11  O   UNL     1      -9.651  14.612  68.548  1.00  0.00    -0.209 OA 
HETATM   12  O   UNL     1      -9.663  14.623  66.032  1.00  0.00    -0.295 OA 
BRANCH  10  13
HETATM   13  N   UNL     1      -7.485  14.289  67.226  1.00  0.00    -0.312 N  
HETATM   14  H   UNL     1      -7.021  14.089  66.341  1.00  0.00     0.000 HD 
BRANCH  13  15
HETATM   15  C   UNL     1      -6.871  14.019  68.461  1.00  0.00    -0.104 A  
HETATM   16  C   UNL     1      -6.535  15.019  69.357  1.00  0.00    -0.135 A  
HETATM   17  C   UNL     1      -5.970  14.638  70.571  1.00  0.00    -0.172 A  
HETATM   18  C   UNL     1      -5.741  13.289  70.819  1.00  0.00    -0.176 A  
HETATM   19  C   UNL     1      -6.096  12.371  69.841  1.00  0.00    -0.135 A  
HETATM   20  N   UNL     1      -6.669  12.708  68.664  1.00  0.00    -0.082 NA 
ENDBRANCH  13  15
ENDBRANCH  10  13
ENDBRANCH   7  10
TORSDOF 3
ENDMDL
MODEL      174
REMARK 921   NORMALIZED FREE ENERGY PREDICTED BY IDOCK:   -3.60 KCAL/MOL
REMARK 922        TOTAL FREE ENERGY PREDICTED BY IDOCK:   -4.45 KCAL/MOL
REMARK 923 INTER-LIGAND FREE ENERGY PREDICTED BY IDOCK:   -4.25 KCAL/MOL
REMARK 924 INTRA-LIGAND FREE ENERGY PREDICTED BY IDOCK:   -0.20 KCAL/MOL
REMARK 927      BINDING AFFINITY PREDICTED BY RF-SCORE:    0.00 PKD
ROOT
HETATM    1  N   UNL     1      -7.372   2.158  73.879  1.00  0.00    -0.032 NA 
HETATM    2  H2  UNL     1      -6.759   2.602  74.564  1.00  0.00     0.000 HD 
HETATM    3  C   UNL     1      -8.323   3.096  73.465  1.00  0.00    -0.074 A  
HETATM    4  H1  UNL     1      -7.669   1.256  74.250  1.00  0.00     0.000 HD 
HETATM    5  C   UNL     1      -7.915   4.334  72.955  1.00  0.00    -0.090 A  
HETATM    6  C   UNL     1      -8.848   5.244  72.451  1.00  0.00    -0.130 A  
HETATM    7  C   UNL     1     -10.202   4.893  72.403  1.00  0.00    -0.199 A  
HETATM    8  C   UNL     1      -9.670   2.735  73.352  1.00  0.00    -0.144 A  
HETATM    9  C   UNL     1     -10.616   3.638  72.850  1.00  0.00    -0.225 A  
ENDROOT
BRANCH   7  10
HETATM   10  S   UNL     1     -11.410   6.110  71.911  1.00  0.00    -0.290 S  
HETATM   11  O   UNL     1     -11.438   6.153  70.463  1.00  0.00    -0.342 OA 
HETATM   12  O   UNL     1     -12.614   5.826  72.663  1.00  0.00     0.002 OA 
BRANCH  10  13
HETATM   13  N   UNL     1     -10.825   7.574  72.500  1.00  0.00    -0.273 N  
HETATM   14  H   UNL     1     -10.065   7.615  73.178  1.00  0.00     0.000 HD 
BRANCH  13  15
HETATM   15  C   UNL     1     -11.442   8.736  72.008  1.00  0.00    -0.371 A  
HETATM   16  C   UNL     1     -10.847   9.545  71.055  1.00  0.00    -0.423 A  
HETATM   17  C   UNL     1     -11.564  10.650  70.604  1.00  0.00    -0.432 A  
HETATM   18  C   UNL     1     -12.819  10.911  71.145  1.00  0.00    -0.508 A  
HETATM   19  C   UNL     1     -13.311  10.047  72.112  1.00  0.00    -0.368 A  
HETATM   20  N   UNL     1     -12.650   8.953  72.551  1.00  0.00    -0.350 NA 
ENDBRANCH  13  15
ENDBRANCH  10  13
ENDBRANCH   7  10
TORSDOF 3
ENDMDL
MODEL      175
REMARK 921   NORMALIZED FREE ENERGY PREDICTED BY IDOCK:   -3.58 KCAL/MOL
REMARK 922        TOTAL FREE ENERGY PREDICTED BY IDOCK:   -4.42 KCAL/MOL
REMARK 923 INTER-LIGAND FREE ENERGY PREDICTED BY IDOCK:   -4.29 KCAL/MOL
REMARK 924 INTRA-LIGAND FREE ENERGY PREDICTED BY IDOCK:   -0.13 KCAL/MOL
REMARK 927      BINDING AFFINITY PREDICTED BY RF-SCORE:    0.00 PKD
ROOT
HETATM    1  N   UNL     1      -9.971   3.649  67.083  1.00  0.00    -0.246 NA 
HETATM    2  H2  UNL     1      -9.634   4.034  66.200  1.00  0.00     0.000 HD 
HETATM    3  C   UNL     1      -9.755   4.596  68.088  1.00  0.00    -0.138 A  
HETATM    4  H1  UNL     1      -9.604   2.703  67.182  1.00  0.00     0.000 HD 
HETATM    5  C   UNL     1     -10.259   5.894  67.953  1.00  0.00    -0.225 A  
HETATM    6  C   UNL     1     -10.131   6.825  68.988  1.00  0.00    -0.172 A  
HETATM    7  C   UNL     1      -9.542   6.439  70.198  1.00  0.00    -0.160 A  
HETATM    8  C   UNL     1      -9.226   4.208  69.325  1.00  0.00    -0.213 A  
HETATM    9  C   UNL     1      -9.091   5.130  70.370  1.00  0.00    -0.173 A  
ENDROOT
BRANCH   7  10
HETATM   10  S   UNL     1      -9.235   7.665  71.457  1.00  0.00    -0.137 S  
HETATM   11  O   UNL     1      -7.933   7.395  72.034  1.00  0.00    -0.091 OA 
HETATM   12  O   UNL     1      -9.524   8.952  70.861  1.00  0.00    -0.194 OA 
BRANCH  10  13
HETATM   13  N   UNL     1     -10.423   7.409  72.620  1.00  0.00    -0.232 N  
HETATM   14  H   UNL     1     -10.200   7.043  73.545  1.00  0.00     0.000 HD 
BRANCH  13  15
HETATM   15  C   UNL     1     -11.740   7.728  72.247  1.00  0.00    -0.340 A  
HETATM   16  C   UNL     1     -12.680   6.758  71.942  1.00  0.00    -0.298 A  
HETATM   17  C   UNL     1     -13.968   7.181  71.627  1.00  0.00    -0.438 A  
HETATM   18  C   UNL     1     -14.247   8.543  71.603  1.00  0.00    -0.496 A  
HETATM   19  C   UNL     1     -13.224   9.430  71.903  1.00  0.00    -0.429 A  
HETATM   20  N   UNL     1     -11.971   9.049  72.237  1.00  0.00    -0.312 NA 
ENDBRANCH  13  15
ENDBRANCH  10  13
ENDBRANCH   7  10
TORSDOF 3
ENDMDL
MODEL      176
REMARK 921   NORMALIZED FREE ENERGY PREDICTED BY IDOCK:   -3.56 KCAL/MOL
REMARK 922        TOTAL FREE ENERGY PREDICTED BY IDOCK:   -4.40 KCAL/MOL
REMARK 923 INTER-LIGAND FREE ENERGY PREDICTED BY IDOCK:   -4.27 KCAL/MOL
REMARK 924 INTRA-LIGAND FREE ENERGY PREDICTED BY IDOCK:   -0.14 KCAL/MOL
REMARK 927      BINDING AFFINITY PREDICTED BY RF-SCORE:    0.00 PKD
ROOT
HETATM    1  N   UNL     1      -5.356  11.472  70.231  1.00  0.00    -0.094 NA 
HETATM    2  H2  UNL     1      -5.258  12.395  70.656  1.00  0.00     0.000 HD 
HETATM    3  C   UNL     1      -6.642  11.369  69.692  1.00  0.00    -0.128 A  
HETATM    4  H1  UNL     1      -5.021  10.776  70.897  1.00  0.00     0.000 HD 
HETATM    5  C   UNL     1      -7.100  12.325  68.779  1.00  0.00    -0.107 A  
HETATM    6  C   UNL     1      -8.346  12.185  68.160  1.00  0.00    -0.170 A  
HETATM    7  C   UNL     1      -9.122  11.049  68.413  1.00  0.00    -0.161 A  
HETATM    8  C   UNL     1      -7.400  10.209  69.886  1.00  0.00    -0.169 A  
HETATM    9  C   UNL     1      -8.650  10.057  69.274  1.00  0.00    -0.172 A  
ENDROOT
BRANCH   7  10
HETATM   10  S   UNL     1     -10.775  10.947  67.752  1.00  0.00    -0.256 S  
HETATM   11  O   UNL     1     -11.264   9.601  67.974  1.00  0.00    -0.129 OA 
HETATM   12  O   UNL     1     -11.500  12.088  68.271  1.00  0.00    -0.256 OA 
BRANCH  10  13
HETATM   13  N   UNL     1     -10.607  11.212  66.100  1.00  0.00    -0.260 N  
HETATM   14  H   UNL     1     -10.209  10.507  65.480  1.00  0.00     0.000 HD 
BRANCH  13  15
HETATM   15  C   UNL     1     -11.043  12.459  65.619  1.00  0.00    -0.306 A  
HETATM   16  C   UNL     1     -10.163  13.463  65.253  1.00  0.00    -0.312 A  
HETATM   17  C   UNL     1     -10.701  14.643  64.749  1.00  0.00    -0.399 A  
HETATM   18  C   UNL     1     -12.083  14.777  64.663  1.00  0.00    -0.437 A  
HETATM   19  C   UNL     1     -12.873  13.716  65.079  1.00  0.00    -0.272 A  
HETATM   20  N   UNL     1     -12.380  12.548  65.549  1.00  0.00    -0.642 NA 
ENDBRANCH  13  15
ENDBRANCH  10  13
ENDBRANCH   7  10
TORSDOF 3
ENDMDL
MODEL      177
REMARK 921   NORMALIZED FREE ENERGY PREDICTED BY IDOCK:   -3.55 KCAL/MOL
REMARK 922        TOTAL FREE ENERGY PREDICTED BY IDOCK:   -4.39 KCAL/MOL
REMARK 923 INTER-LIGAND FREE ENERGY PREDICTED BY IDOCK:   -4.09 KCAL/MOL
REMARK 924 INTRA-LIGAND FREE ENERGY PREDICTED BY IDOCK:   -0.30 KCAL/MOL
REMARK 927      BINDING AFFINITY PREDICTED BY RF-SCORE:    0.00 PKD
ROOT
HETATM    1  N   UNL     1      -8.614   7.449  65.033  1.00  0.00    -0.355 NA 
HETATM    2  H2  UNL     1      -8.996   8.075  64.324  1.00  0.00     0.000 HD 
HETATM    3  C   UNL     1      -8.965   7.944  66.293  1.00  0.00    -0.171 A  
HETATM    4  H1  UNL     1      -7.636   7.268  64.807  1.00  0.00     0.000 HD 
HETATM    5  C   UNL     1     -10.306   8.193  66.602  1.00  0.00    -0.284 A  
HETATM    6  C   UNL     1     -10.682   8.598  67.886  1.00  0.00    -0.158 A  
HETATM    7  C   UNL     1      -9.714   8.702  68.892  1.00  0.00    -0.170 A  
HETATM    8  C   UNL     1      -8.018   7.991  67.323  1.00  0.00    -0.121 A  
HETATM    9  C   UNL     1      -8.381   8.397  68.614  1.00  0.00    -0.120 A  
ENDROOT
BRANCH   7  10
HETATM   10  S   UNL     1     -10.166   9.372  70.482  1.00  0.00    -0.290 S  
HETATM   11  O   UNL     1      -9.012   9.271  71.353  1.00  0.00    -0.311 OA 
HETATM   12  O   UNL     1     -10.788  10.655  70.230  1.00  0.00    -0.248 OA 
BRANCH  10  13
HETATM   13  N   UNL     1     -11.385   8.365  71.054  1.00  0.00    -0.262 N  
HETATM   14  H   UNL     1     -12.359   8.666  71.089  1.00  0.00     0.000 HD 
BRANCH  13  15
HETATM   15  C   UNL     1     -10.990   7.086  71.482  1.00  0.00    -0.234 A  
HETATM   16  C   UNL     1     -10.567   6.106  70.600  1.00  0.00    -0.307 A  
HETATM   17  C   UNL     1     -10.156   4.888  71.134  1.00  0.00    -0.277 A  
HETATM   18  C   UNL     1     -10.216   4.696  72.510  1.00  0.00    -0.243 A  
HETATM   19  C   UNL     1     -10.678   5.738  73.301  1.00  0.00    -0.267 A  
HETATM   20  N   UNL     1     -11.059   6.940  72.814  1.00  0.00    -0.272 NA 
ENDBRANCH  13  15
ENDBRANCH  10  13
ENDBRANCH   7  10
TORSDOF 3
ENDMDL
MODEL      178
REMARK 921   NORMALIZED FREE ENERGY PREDICTED BY IDOCK:   -3.55 KCAL/MOL
REMARK 922        TOTAL FREE ENERGY PREDICTED BY IDOCK:   -4.39 KCAL/MOL
REMARK 923 INTER-LIGAND FREE ENERGY PREDICTED BY IDOCK:   -4.09 KCAL/MOL
REMARK 924 INTRA-LIGAND FREE ENERGY PREDICTED BY IDOCK:   -0.29 KCAL/MOL
REMARK 927      BINDING AFFINITY PREDICTED BY RF-SCORE:    0.00 PKD
ROOT
HETATM    1  N   UNL     1     -10.566   5.616  74.492  1.00  0.00    -0.376 NA 
HETATM    2  H2  UNL     1     -10.458   4.657  74.162  1.00  0.00     0.000 HD 
HETATM    3  C   UNL     1     -10.574   6.466  73.382  1.00  0.00    -0.276 A  
HETATM    4  H1  UNL     1      -9.903   5.771  75.252  1.00  0.00     0.000 HD 
HETATM    5  C   UNL     1     -11.483   6.253  72.340  1.00  0.00    -0.335 A  
HETATM    6  C   UNL     1     -11.567   7.147  71.268  1.00  0.00    -0.327 A  
HETATM    7  C   UNL     1     -10.773   8.299  71.263  1.00  0.00    -0.227 A  
HETATM    8  C   UNL     1      -9.832   7.653  73.393  1.00  0.00    -0.362 A  
HETATM    9  C   UNL     1      -9.905   8.556  72.325  1.00  0.00    -0.383 A  
ENDROOT
BRANCH   7  10
HETATM   10  S   UNL     1     -10.761   9.353  69.824  1.00  0.00    -0.238 S  
HETATM   11  O   UNL     1     -10.521   8.521  68.662  1.00  0.00    -0.208 OA 
HETATM   12  O   UNL     1     -11.948  10.179  69.906  1.00  0.00    -0.191 OA 
BRANCH  10  13
HETATM   13  N   UNL     1      -9.455  10.389  70.047  1.00  0.00    -0.364 N  
HETATM   14  H   UNL     1      -9.275  10.843  70.942  1.00  0.00     0.000 HD 
BRANCH  13  15
HETATM   15  C   UNL     1      -8.624  10.595  68.932  1.00  0.00    -0.158 A  
HETATM   16  C   UNL     1      -7.504   9.818  68.688  1.00  0.00    -0.075 A  
HETATM   17  C   UNL     1      -6.775  10.080  67.531  1.00  0.00    -0.072 A  
HETATM   18  C   UNL     1      -7.177  11.117  66.696  1.00  0.00    -0.144 A  
HETATM   19  C   UNL     1      -8.302  11.847  67.049  1.00  0.00    -0.178 A  
HETATM   20  N   UNL     1      -9.045  11.601  68.151  1.00  0.00    -0.177 NA 
ENDBRANCH  13  15
ENDBRANCH  10  13
ENDBRANCH   7  10
TORSDOF 3
ENDMDL
MODEL      179
REMARK 921   NORMALIZED FREE ENERGY PREDICTED BY IDOCK:   -3.55 KCAL/MOL
REMARK 922        TOTAL FREE ENERGY PREDICTED BY IDOCK:   -4.38 KCAL/MOL
REMARK 923 INTER-LIGAND FREE ENERGY PREDICTED BY IDOCK:   -4.32 KCAL/MOL
REMARK 924 INTRA-LIGAND FREE ENERGY PREDICTED BY IDOCK:   -0.06 KCAL/MOL
REMARK 927      BINDING AFFINITY PREDICTED BY RF-SCORE:    0.00 PKD
ROOT
HETATM    1  N   UNL     1      -9.939   4.186  66.625  1.00  0.00    -0.334 NA 
HETATM    2  H2  UNL     1     -10.829   3.878  66.234  1.00  0.00     0.000 HD 
HETATM    3  C   UNL     1      -9.955   5.582  66.711  1.00  0.00    -0.183 A  
HETATM    4  H1  UNL     1      -9.188   3.711  66.125  1.00  0.00     0.000 HD 
HETATM    5  C   UNL     1     -10.987   6.233  67.396  1.00  0.00    -0.447 A  
HETATM    6  C   UNL     1     -10.967   7.620  67.571  1.00  0.00    -0.086 A  
HETATM    7  C   UNL     1      -9.876   8.362  67.104  1.00  0.00    -0.215 A  
HETATM    8  C   UNL     1      -8.842   6.328  66.306  1.00  0.00    -0.153 A  
HETATM    9  C   UNL     1      -8.811   7.719  66.473  1.00  0.00    -0.175 A  
ENDROOT
BRANCH   7  10
HETATM   10  S   UNL     1      -9.926  10.143  67.182  1.00  0.00    -0.206 S  
HETATM   11  O   UNL     1      -9.104  10.661  66.107  1.00  0.00    -0.160 OA 
HETATM   12  O   UNL     1     -11.322  10.515  67.286  1.00  0.00    -0.359 OA 
BRANCH  10  13
HETATM   13  N   UNL     1      -9.225  10.539  68.659  1.00  0.00    -0.164 N  
HETATM   14  H   UNL     1      -8.489  11.240  68.734  1.00  0.00     0.000 HD 
BRANCH  13  15
HETATM   15  C   UNL     1      -9.709   9.850  69.785  1.00  0.00    -0.236 A  
HETATM   16  C   UNL     1      -8.915   8.996  70.531  1.00  0.00    -0.249 A  
HETATM   17  C   UNL     1      -9.482   8.399  71.652  1.00  0.00    -0.281 A  
HETATM   18  C   UNL     1     -10.815   8.655  71.956  1.00  0.00    -0.430 A  
HETATM   19  C   UNL     1     -11.526   9.510  71.128  1.00  0.00    -0.360 A  
HETATM   20  N   UNL     1     -10.996  10.125  70.047  1.00  0.00    -0.286 NA 
ENDBRANCH  13  15
ENDBRANCH  10  13
ENDBRANCH   7  10
TORSDOF 3
ENDMDL
MODEL      180
REMARK 921   NORMALIZED FREE ENERGY PREDICTED BY IDOCK:   -3.53 KCAL/MOL
REMARK 922        TOTAL FREE ENERGY PREDICTED BY IDOCK:   -4.37 KCAL/MOL
REMARK 923 INTER-LIGAND FREE ENERGY PREDICTED BY IDOCK:   -4.11 KCAL/MOL
REMARK 924 INTRA-LIGAND FREE ENERGY PREDICTED BY IDOCK:   -0.26 KCAL/MOL
REMARK 927      BINDING AFFINITY PREDICTED BY RF-SCORE:    0.00 PKD
ROOT
HETATM    1  N   UNL     1     -11.602  14.455  65.916  1.00  0.00    -0.356 NA 
HETATM    2  H2  UNL     1     -11.474  14.198  64.937  1.00  0.00     0.000 HD 
HETATM    3  C   UNL     1     -11.106  13.418  66.712  1.00  0.00    -0.292 A  
HETATM    4  H1  UNL     1     -12.559  14.785  66.039  1.00  0.00     0.000 HD 
HETATM    5  C   UNL     1      -9.793  12.966  66.542  1.00  0.00    -0.254 A  
HETATM    6  C   UNL     1      -9.254  11.995  67.392  1.00  0.00    -0.180 A  
HETATM    7  C   UNL     1     -10.016  11.509  68.460  1.00  0.00    -0.204 A  
HETATM    8  C   UNL     1     -11.833  12.969  67.821  1.00  0.00    -0.395 A  
HETATM    9  C   UNL     1     -11.305  11.996  68.679  1.00  0.00    -0.329 A  
ENDROOT
BRANCH   7  10
HETATM   10  S   UNL     1      -9.391  10.159  69.444  1.00  0.00    -0.206 S  
HETATM   11  O   UNL     1      -8.003  10.436  69.753  1.00  0.00    -0.150 OA 
HETATM   12  O   UNL     1     -10.352   9.940  70.505  1.00  0.00    -0.286 OA 
BRANCH  10  13
HETATM   13  N   UNL     1      -9.479   8.808  68.445  1.00  0.00    -0.140 N  
HETATM   14  H   UNL     1      -9.418   8.885  67.430  1.00  0.00     0.000 HD 
BRANCH  13  15
HETATM   15  C   UNL     1      -9.643   7.568  69.086  1.00  0.00    -0.157 A  
HETATM   16  C   UNL     1      -8.602   6.923  69.732  1.00  0.00    -0.141 A  
HETATM   17  C   UNL     1      -8.883   5.719  70.371  1.00  0.00    -0.146 A  
HETATM   18  C   UNL     1     -10.173   5.203  70.308  1.00  0.00    -0.342 A  
HETATM   19  C   UNL     1     -11.136   5.921  69.614  1.00  0.00    -0.343 A  
HETATM   20  N   UNL     1     -10.899   7.104  69.005  1.00  0.00    -0.185 NA 
ENDBRANCH  13  15
ENDBRANCH  10  13
ENDBRANCH   7  10
TORSDOF 3
ENDMDL
MODEL      181
REMARK 921   NORMALIZED FREE ENERGY PREDICTED BY IDOCK:   -3.51 KCAL/MOL
REMARK 922        TOTAL FREE ENERGY PREDICTED BY IDOCK:   -4.34 KCAL/MOL
REMARK 923 INTER-LIGAND FREE ENERGY PREDICTED BY IDOCK:   -4.03 KCAL/MOL
REMARK 924 INTRA-LIGAND FREE ENERGY PREDICTED BY IDOCK:   -0.31 KCAL/MOL
REMARK 927      BINDING AFFINITY PREDICTED BY RF-SCORE:    0.00 PKD
ROOT
HETATM    1  N   UNL     1     -14.411   8.147  72.404  1.00  0.00    -0.654 NA 
HETATM    2  H2  UNL     1     -15.044   8.826  71.982  1.00  0.00     0.000 HD 
HETATM    3  C   UNL     1     -13.199   8.183  71.707  1.00  0.00    -0.341 A  
HETATM    4  H1  UNL     1     -14.913   7.266  72.515  1.00  0.00     0.000 HD 
HETATM    5  C   UNL     1     -12.511   9.391  71.554  1.00  0.00    -0.450 A  
HETATM    6  C   UNL     1     -11.254   9.428  70.942  1.00  0.00    -0.393 A  
HETATM    7  C   UNL     1     -10.650   8.236  70.527  1.00  0.00    -0.219 A  
HETATM    8  C   UNL     1     -12.556   6.993  71.344  1.00  0.00    -0.428 A  
HETATM    9  C   UNL     1     -11.298   7.016  70.729  1.00  0.00    -0.339 A  
ENDROOT
BRANCH   7  10
HETATM   10  S   UNL     1      -9.125   8.297  69.604  1.00  0.00    -0.154 S  
HETATM   11  O   UNL     1      -8.110   8.882  70.457  1.00  0.00    -0.103 OA 
HETATM   12  O   UNL     1      -8.935   6.981  69.030  1.00  0.00    -0.134 OA 
BRANCH  10  13
HETATM   13  N   UNL     1      -9.432   9.331  68.313  1.00  0.00    -0.138 N  
HETATM   14  H   UNL     1     -10.301   9.283  67.781  1.00  0.00     0.000 HD 
BRANCH  13  15
HETATM   15  C   UNL     1      -8.427  10.264  68.008  1.00  0.00    -0.118 A  
HETATM   16  C   UNL     1      -8.410  11.539  68.545  1.00  0.00    -0.146 A  
HETATM   17  C   UNL     1      -7.344  12.369  68.210  1.00  0.00    -0.113 A  
HETATM   18  C   UNL     1      -6.369  11.901  67.335  1.00  0.00    -0.128 A  
HETATM   19  C   UNL     1      -6.496  10.613  66.837  1.00  0.00    -0.084 A  
HETATM   20  N   UNL     1      -7.505   9.775  67.164  1.00  0.00    -0.088 NA 
ENDBRANCH  13  15
ENDBRANCH  10  13
ENDBRANCH   7  10
TORSDOF 3
ENDMDL
MODEL      182
REMARK 921   NORMALIZED FREE ENERGY PREDICTED BY IDOCK:   -3.50 KCAL/MOL
REMARK 922        TOTAL FREE ENERGY PREDICTED BY IDOCK:   -4.33 KCAL/MOL
REMARK 923 INTER-LIGAND FREE ENERGY PREDICTED BY IDOCK:   -4.67 KCAL/MOL
REMARK 924 INTRA-LIGAND FREE ENERGY PREDICTED BY IDOCK:    0.34 KCAL/MOL
REMARK 927      BINDING AFFINITY PREDICTED BY RF-SCORE:    0.00 PKD
ROOT
HETATM    1  N   UNL     1      -7.338   9.831  67.804  1.00  0.00    -0.089 NA 
HETATM    2  H2  UNL     1      -7.605   9.221  67.031  1.00  0.00     0.000 HD 
HETATM    3  C   UNL     1      -8.330  10.804  67.960  1.00  0.00    -0.120 A  
HETATM    4  H1  UNL     1      -6.365  10.106  67.674  1.00  0.00     0.000 HD 
HETATM    5  C   UNL     1      -9.665  10.426  68.138  1.00  0.00    -0.165 A  
HETATM    6  C   UNL     1     -10.654  11.382  68.388  1.00  0.00    -0.230 A  
HETATM    7  C   UNL     1     -10.298  12.729  68.519  1.00  0.00    -0.221 A  
HETATM    8  C   UNL     1      -7.981  12.145  68.155  1.00  0.00    -0.151 A  
HETATM    9  C   UNL     1      -8.962  13.114  68.405  1.00  0.00    -0.128 A  
ENDROOT
BRANCH   7  10
HETATM   10  S   UNL     1     -11.574  13.965  68.677  1.00  0.00    -0.351 S  
HETATM   11  O   UNL     1     -11.679  14.664  67.412  1.00  0.00    -0.379 OA 
HETATM   12  O   UNL     1     -12.727  13.299  69.248  1.00  0.00     0.224 OA 
BRANCH  10  13
HETATM   13  N   UNL     1     -11.015  15.027  69.855  1.00  0.00    -0.282 N  
HETATM   14  H   UNL     1     -10.123  15.511  69.763  1.00  0.00     0.000 HD 
BRANCH  13  15
HETATM   15  C   UNL     1     -11.845  15.211  70.975  1.00  0.00    -0.333 A  
HETATM   16  C   UNL     1     -13.208  15.427  70.861  1.00  0.00    -0.512 A  
HETATM   17  C   UNL     1     -13.943  15.553  72.036  1.00  0.00    -0.599 A  
HETATM   18  C   UNL     1     -13.284  15.489  73.259  1.00  0.00    -0.635 A  
HETATM   19  C   UNL     1     -11.911  15.292  73.257  1.00  0.00    -0.422 A  
HETATM   20  N   UNL     1     -11.174  15.140  72.135  1.00  0.00    -0.280 NA 
ENDBRANCH  13  15
ENDBRANCH  10  13
ENDBRANCH   7  10
TORSDOF 3
ENDMDL
MODEL      183
REMARK 921   NORMALIZED FREE ENERGY PREDICTED BY IDOCK:   -3.50 KCAL/MOL
REMARK 922        TOTAL FREE ENERGY PREDICTED BY IDOCK:   -4.33 KCAL/MOL
REMARK 923 INTER-LIGAND FREE ENERGY PREDICTED BY IDOCK:   -4.03 KCAL/MOL
REMARK 924 INTRA-LIGAND FREE ENERGY PREDICTED BY IDOCK:   -0.30 KCAL/MOL
REMARK 927      BINDING AFFINITY PREDICTED BY RF-SCORE:    0.00 PKD
ROOT
HETATM    1  N   UNL     1      -5.922  12.523  70.903  1.00  0.00    -0.539 NA 
HETATM    2  H2  UNL     1      -5.129  11.913  71.101  1.00  0.00     0.000 HD 
HETATM    3  C   UNL     1      -6.597  12.019  69.786  1.00  0.00     0.001 A  
HETATM    4  H1  UNL     1      -5.595  13.488  70.913  1.00  0.00     0.000 HD 
HETATM    5  C   UNL     1      -7.045  10.694  69.773  1.00  0.00    -0.140 A  
HETATM    6  C   UNL     1      -7.802  10.204  68.705  1.00  0.00    -0.097 A  
HETATM    7  C   UNL     1      -8.165  11.063  67.661  1.00  0.00    -0.117 A  
HETATM    8  C   UNL     1      -7.020  12.881  68.768  1.00  0.00    -0.103 A  
HETATM    9  C   UNL     1      -7.777  12.403  67.690  1.00  0.00    -0.151 A  
ENDROOT
BRANCH   7  10
HETATM   10  S   UNL     1      -8.989  10.402  66.224  1.00  0.00    -0.159 S  
HETATM   11  O   UNL     1      -8.692  11.268  65.100  1.00  0.00    -0.067 OA 
HETATM   12  O   UNL     1      -8.665   8.992  66.172  1.00  0.00    -0.133 OA 
BRANCH  10  13
HETATM   13  N   UNL     1     -10.631  10.493  66.578  1.00  0.00    -0.209 N  
HETATM   14  H   UNL     1     -11.135   9.711  66.997  1.00  0.00     0.000 HD 
BRANCH  13  15
HETATM   15  C   UNL     1     -11.272  11.704  66.264  1.00  0.00    -0.271 A  
HETATM   16  C   UNL     1     -11.461  12.707  67.200  1.00  0.00    -0.406 A  
HETATM   17  C   UNL     1     -12.069  13.884  66.773  1.00  0.00    -0.476 A  
HETATM   18  C   UNL     1     -12.484  13.991  65.449  1.00  0.00    -0.520 A  
HETATM   19  C   UNL     1     -12.265  12.916  64.602  1.00  0.00    -0.435 A  
HETATM   20  N   UNL     1     -11.655  11.770  64.980  1.00  0.00    -0.208 NA 
ENDBRANCH  13  15
ENDBRANCH  10  13
ENDBRANCH   7  10
TORSDOF 3
ENDMDL
MODEL      184
REMARK 921   NORMALIZED FREE ENERGY PREDICTED BY IDOCK:   -3.50 KCAL/MOL
REMARK 922        TOTAL FREE ENERGY PREDICTED BY IDOCK:   -4.33 KCAL/MOL
REMARK 923 INTER-LIGAND FREE ENERGY PREDICTED BY IDOCK:   -4.03 KCAL/MOL
REMARK 924 INTRA-LIGAND FREE ENERGY PREDICTED BY IDOCK:   -0.29 KCAL/MOL
REMARK 927      BINDING AFFINITY PREDICTED BY RF-SCORE:    0.00 PKD
ROOT
HETATM    1  N   UNL     1      -5.710   9.266  68.816  1.00  0.00    -0.040 NA 
HETATM    2  H2  UNL     1      -6.027  10.115  68.348  1.00  0.00     0.000 HD 
HETATM    3  C   UNL     1      -6.832   8.499  69.144  1.00  0.00    -0.058 A  
HETATM    4  H1  UNL     1      -5.038   9.528  69.537  1.00  0.00     0.000 HD 
HETATM    5  C   UNL     1      -7.753   8.139  68.155  1.00  0.00    -0.110 A  
HETATM    6  C   UNL     1      -8.828   7.296  68.448  1.00  0.00    -0.128 A  
HETATM    7  C   UNL     1      -8.956   6.758  69.734  1.00  0.00    -0.144 A  
HETATM    8  C   UNL     1      -6.937   7.904  70.407  1.00  0.00    -0.045 A  
HETATM    9  C   UNL     1      -8.010   7.059  70.716  1.00  0.00    -0.101 A  
ENDROOT
BRANCH   7  10
HETATM   10  S   UNL     1     -10.411   5.815  70.153  1.00  0.00    -0.281 S  
HETATM   11  O   UNL     1     -11.440   6.125  69.181  1.00  0.00    -0.379 OA 
HETATM   12  O   UNL     1      -9.975   4.449  70.353  1.00  0.00    -0.218 OA 
BRANCH  10  13
HETATM   13  N   UNL     1     -10.884   6.382  71.664  1.00  0.00    -0.239 N  
HETATM   14  H   UNL     1     -10.508   5.990  72.527  1.00  0.00     0.000 HD 
BRANCH  13  15
HETATM   15  C   UNL     1     -11.825   7.426  71.674  1.00  0.00    -0.291 A  
HETATM   16  C   UNL     1     -13.189   7.195  71.714  1.00  0.00    -0.355 A  
HETATM   17  C   UNL     1     -14.032   8.301  71.763  1.00  0.00    -0.476 A  
HETATM   18  C   UNL     1     -13.479   9.577  71.739  1.00  0.00    -0.480 A  
HETATM   19  C   UNL     1     -12.098   9.695  71.675  1.00  0.00    -0.402 A  
HETATM   20  N   UNL     1     -11.253   8.640  71.652  1.00  0.00    -0.285 NA 
ENDBRANCH  13  15
ENDBRANCH  10  13
ENDBRANCH   7  10
TORSDOF 3
ENDMDL
MODEL      185
REMARK 921   NORMALIZED FREE ENERGY PREDICTED BY IDOCK:   -3.49 KCAL/MOL
REMARK 922        TOTAL FREE ENERGY PREDICTED BY IDOCK:   -4.31 KCAL/MOL
REMARK 923 INTER-LIGAND FREE ENERGY PREDICTED BY IDOCK:   -4.05 KCAL/MOL
REMARK 924 INTRA-LIGAND FREE ENERGY PREDICTED BY IDOCK:   -0.26 KCAL/MOL
REMARK 927      BINDING AFFINITY PREDICTED BY RF-SCORE:    0.00 PKD
ROOT
HETATM    1  N   UNL     1      -7.579   6.693  69.505  1.00  0.00    -0.093 NA 
HETATM    2  H2  UNL     1      -7.466   6.141  68.655  1.00  0.00     0.000 HD 
HETATM    3  C   UNL     1      -8.296   7.851  69.187  1.00  0.00    -0.133 A  
HETATM    4  H1  UNL     1      -6.673   6.761  69.967  1.00  0.00     0.000 HD 
HETATM    5  C   UNL     1      -9.539   7.758  68.554  1.00  0.00    -0.151 A  
HETATM    6  C   UNL     1     -10.309   8.900  68.314  1.00  0.00    -0.250 A  
HETATM    7  C   UNL     1      -9.858  10.146  68.762  1.00  0.00    -0.175 A  
HETATM    8  C   UNL     1      -7.887   9.094  69.685  1.00  0.00    -0.084 A  
HETATM    9  C   UNL     1      -8.648  10.247  69.450  1.00  0.00    -0.167 A  
ENDROOT
BRANCH   7  10
HETATM   10  S   UNL     1     -10.758  11.620  68.316  1.00  0.00    -0.226 S  
HETATM   11  O   UNL     1     -11.989  11.214  67.668  1.00  0.00    -0.613 OA 
HETATM   12  O   UNL     1     -10.790  12.459  69.496  1.00  0.00    -0.026 OA 
BRANCH  10  13
HETATM   13  N   UNL     1      -9.779  12.415  67.203  1.00  0.00    -0.204 N  
HETATM   14  H   UNL     1      -9.119  13.139  67.488  1.00  0.00     0.000 HD 
BRANCH  13  15
HETATM   15  C   UNL     1      -9.919  12.028  65.859  1.00  0.00    -0.236 A  
HETATM   16  C   UNL     1     -10.838  12.618  65.009  1.00  0.00    -0.321 A  
HETATM   17  C   UNL     1     -10.864  12.189  63.685  1.00  0.00    -0.523 A  
HETATM   18  C   UNL     1      -9.999  11.177  63.283  1.00  0.00    -0.419 A  
HETATM   19  C   UNL     1      -9.134  10.639  64.224  1.00  0.00    -0.220 A  
HETATM   20  N   UNL     1      -9.067  11.052  65.509  1.00  0.00    -0.207 NA 
ENDBRANCH  13  15
ENDBRANCH  10  13
ENDBRANCH   7  10
TORSDOF 3
ENDMDL
MODEL      186
REMARK 921   NORMALIZED FREE ENERGY PREDICTED BY IDOCK:   -3.48 KCAL/MOL
REMARK 922        TOTAL FREE ENERGY PREDICTED BY IDOCK:   -4.30 KCAL/MOL
REMARK 923 INTER-LIGAND FREE ENERGY PREDICTED BY IDOCK:   -4.03 KCAL/MOL
REMARK 924 INTRA-LIGAND FREE ENERGY PREDICTED BY IDOCK:   -0.27 KCAL/MOL
REMARK 927      BINDING AFFINITY PREDICTED BY RF-SCORE:    0.00 PKD
ROOT
HETATM    1  N   UNL     1     -13.222   6.518  72.315  1.00  0.00    -0.492 NA 
HETATM    2  H2  UNL     1     -14.103   7.012  72.459  1.00  0.00     0.000 HD 
HETATM    3  C   UNL     1     -12.443   7.257  71.420  1.00  0.00    -0.383 A  
HETATM    4  H1  UNL     1     -13.431   5.538  72.126  1.00  0.00     0.000 HD 
HETATM    5  C   UNL     1     -12.157   8.602  71.681  1.00  0.00    -0.385 A  
HETATM    6  C   UNL     1     -11.303   9.328  70.845  1.00  0.00    -0.373 A  
HETATM    7  C   UNL     1     -10.681   8.689  69.766  1.00  0.00    -0.215 A  
HETATM    8  C   UNL     1     -11.765   6.617  70.376  1.00  0.00    -0.446 A  
HETATM    9  C   UNL     1     -10.908   7.333  69.530  1.00  0.00    -0.224 A  
ENDROOT
BRANCH   7  10
HETATM   10  S   UNL     1      -9.722   9.650  68.609  1.00  0.00    -0.159 S  
HETATM   11  O   UNL     1      -8.693   8.790  68.060  1.00  0.00    -0.138 OA 
HETATM   12  O   UNL     1     -10.669  10.314  67.737  1.00  0.00    -0.233 OA 
BRANCH  10  13
HETATM   13  N   UNL     1      -9.004  10.860  69.530  1.00  0.00    -0.383 N  
HETATM   14  H   UNL     1      -9.422  11.195  70.398  1.00  0.00     0.000 HD 
BRANCH  13  15
HETATM   15  C   UNL     1      -7.798  11.387  69.038  1.00  0.00    -0.043 A  
HETATM   16  C   UNL     1      -6.573  11.101  69.617  1.00  0.00    -0.139 A  
HETATM   17  C   UNL     1      -5.435  11.640  69.023  1.00  0.00    -0.050 A  
HETATM   18  C   UNL     1      -5.575  12.459  67.907  1.00  0.00    -0.085 A  
HETATM   19  C   UNL     1      -6.852  12.698  67.423  1.00  0.00    -0.140 A  
HETATM   20  N   UNL     1      -7.973  12.169  67.961  1.00  0.00    -0.141 NA 
ENDBRANCH  13  15
ENDBRANCH  10  13
ENDBRANCH   7  10
TORSDOF 3
ENDMDL
MODEL      187
REMARK 921   NORMALIZED FREE ENERGY PREDICTED BY IDOCK:   -3.45 KCAL/MOL
REMARK 922        TOTAL FREE ENERGY PREDICTED BY IDOCK:   -4.27 KCAL/MOL
REMARK 923 INTER-LIGAND FREE ENERGY PREDICTED BY IDOCK:   -4.57 KCAL/MOL
REMARK 924 INTRA-LIGAND FREE ENERGY PREDICTED BY IDOCK:    0.29 KCAL/MOL
REMARK 927      BINDING AFFINITY PREDICTED BY RF-SCORE:    0.00 PKD
ROOT
HETATM    1  N   UNL     1     -12.862  13.940  70.601  1.00  0.00    -0.267 NA 
HETATM    2  H2  UNL     1     -12.658  14.480  71.442  1.00  0.00     0.000 HD 
HETATM    3  C   UNL     1     -12.586  12.594  70.864  1.00  0.00    -0.249 A  
HETATM    4  H1  UNL     1     -12.425  14.407  69.807  1.00  0.00     0.000 HD 
HETATM    5  C   UNL     1     -13.185  11.954  71.955  1.00  0.00    -0.467 A  
HETATM    6  C   UNL     1     -12.994  10.587  72.176  1.00  0.00    -0.366 A  
HETATM    7  C   UNL     1     -12.241   9.836  71.267  1.00  0.00    -0.374 A  
HETATM    8  C   UNL     1     -11.889  11.819  69.931  1.00  0.00    -0.423 A  
HETATM    9  C   UNL     1     -11.689  10.449  70.141  1.00  0.00    -0.394 A  
ENDROOT
BRANCH   7  10
HETATM   10  S   UNL     1     -11.863   8.132  71.633  1.00  0.00    -0.309 S  
HETATM   11  O   UNL     1     -11.411   8.060  73.008  1.00  0.00    -0.386 OA 
HETATM   12  O   UNL     1     -12.999   7.351  71.190  1.00  0.00    -0.319 OA 
BRANCH  10  13
HETATM   13  N   UNL     1     -10.591   7.732  70.608  1.00  0.00    -0.218 N  
HETATM   14  H   UNL     1     -10.746   7.254  69.720  1.00  0.00     0.000 HD 
BRANCH  13  15
HETATM   15  C   UNL     1      -9.303   8.093  71.039  1.00  0.00    -0.152 A  
HETATM   16  C   UNL     1      -8.748   7.603  72.209  1.00  0.00    -0.160 A  
HETATM   17  C   UNL     1      -7.448   7.991  72.521  1.00  0.00    -0.137 A  
HETATM   18  C   UNL     1      -6.780   8.869  71.673  1.00  0.00    -0.067 A  
HETATM   19  C   UNL     1      -7.440   9.317  70.538  1.00  0.00    -0.130 A  
HETATM   20  N   UNL     1      -8.691   8.938  70.195  1.00  0.00    -0.148 NA 
ENDBRANCH  13  15
ENDBRANCH  10  13
ENDBRANCH   7  10
TORSDOF 3
ENDMDL
MODEL      188
REMARK 921   NORMALIZED FREE ENERGY PREDICTED BY IDOCK:   -3.44 KCAL/MOL
REMARK 922        TOTAL FREE ENERGY PREDICTED BY IDOCK:   -4.25 KCAL/MOL
REMARK 923 INTER-LIGAND FREE ENERGY PREDICTED BY IDOCK:   -4.10 KCAL/MOL
REMARK 924 INTRA-LIGAND FREE ENERGY PREDICTED BY IDOCK:   -0.15 KCAL/MOL
REMARK 927      BINDING AFFINITY PREDICTED BY RF-SCORE:    0.00 PKD
ROOT
HETATM    1  N   UNL     1      -7.581   6.687  69.497  1.00  0.00    -0.093 NA 
HETATM    2  H2  UNL     1      -7.433   6.077  68.693  1.00  0.00     0.000 HD 
HETATM    3  C   UNL     1      -8.267   7.827  69.066  1.00  0.00    -0.126 A  
HETATM    4  H1  UNL     1      -6.697   6.778  69.997  1.00  0.00     0.000 HD 
HETATM    5  C   UNL     1      -9.479   7.701  68.380  1.00  0.00    -0.150 A  
HETATM    6  C   UNL     1     -10.223   8.830  68.025  1.00  0.00    -0.264 A  
HETATM    7  C   UNL     1      -9.778  10.101  68.408  1.00  0.00    -0.147 A  
HETATM    8  C   UNL     1      -7.868   9.098  69.496  1.00  0.00    -0.082 A  
HETATM    9  C   UNL     1      -8.602  10.238  69.146  1.00  0.00    -0.167 A  
ENDROOT
BRANCH   7  10
HETATM   10  S   UNL     1     -10.638  11.548  67.819  1.00  0.00    -0.202 S  
HETATM   11  O   UNL     1     -11.840  11.109  67.139  1.00  0.00    -0.466 OA 
HETATM   12  O   UNL     1     -10.718  12.466  68.936  1.00  0.00    -0.222 OA 
BRANCH  10  13
HETATM   13  N   UNL     1      -9.596  12.256  66.704  1.00  0.00    -0.218 N  
HETATM   14  H   UNL     1      -8.808  11.747  66.305  1.00  0.00     0.000 HD 
BRANCH  13  15
HETATM   15  C   UNL     1      -9.869  13.589  66.352  1.00  0.00    -0.295 A  
HETATM   16  C   UNL     1      -9.353  14.664  67.056  1.00  0.00    -0.244 A  
HETATM   17  C   UNL     1      -9.651  15.943  66.596  1.00  0.00    -0.265 A  
HETATM   18  C   UNL     1     -10.471  16.089  65.482  1.00  0.00    -0.426 A  
HETATM   19  C   UNL     1     -10.953  14.944  64.865  1.00  0.00    -0.408 A  
HETATM   20  N   UNL     1     -10.660  13.689  65.273  1.00  0.00    -0.328 NA 
ENDBRANCH  13  15
ENDBRANCH  10  13
ENDBRANCH   7  10
TORSDOF 3
ENDMDL
MODEL      189
REMARK 921   NORMALIZED FREE ENERGY PREDICTED BY IDOCK:   -3.43 KCAL/MOL
REMARK 922        TOTAL FREE ENERGY PREDICTED BY IDOCK:   -4.24 KCAL/MOL
REMARK 923 INTER-LIGAND FREE ENERGY PREDICTED BY IDOCK:   -4.03 KCAL/MOL
REMARK 924 INTRA-LIGAND FREE ENERGY PREDICTED BY IDOCK:   -0.22 KCAL/MOL
REMARK 927      BINDING AFFINITY PREDICTED BY RF-SCORE:    0.00 PKD
ROOT
HETATM    1  N   UNL     1      -6.789  10.194  65.969  1.00  0.00    -0.104 NA 
HETATM    2  H2  UNL     1      -6.211   9.819  66.721  1.00  0.00     0.000 HD 
HETATM    3  C   UNL     1      -7.641  11.164  66.508  1.00  0.00    -0.135 A  
HETATM    4  H1  UNL     1      -7.173   9.411  65.439  1.00  0.00     0.000 HD 
HETATM    5  C   UNL     1      -7.114  12.236  67.235  1.00  0.00    -0.138 A  
HETATM    6  C   UNL     1      -7.942  13.263  67.700  1.00  0.00    -0.176 A  
HETATM    7  C   UNL     1      -9.306  13.247  67.388  1.00  0.00    -0.217 A  
HETATM    8  C   UNL     1      -8.994  11.195  66.151  1.00  0.00    -0.205 A  
HETATM    9  C   UNL     1      -9.835  12.215  66.612  1.00  0.00    -0.224 A  
ENDROOT
BRANCH   7  10
HETATM   10  S   UNL     1     -10.388  14.465  68.114  1.00  0.00    -0.236 S  
HETATM   11  O   UNL     1     -11.703  13.871  68.249  1.00  0.00    -0.320 OA 
HETATM   12  O   UNL     1      -9.698  14.995  69.272  1.00  0.00    -0.218 OA 
BRANCH  10  13
HETATM   13  N   UNL     1     -10.455  15.718  66.994  1.00  0.00    -0.304 N  
HETATM   14  H   UNL     1     -11.191  15.772  66.291  1.00  0.00     0.000 HD 
BRANCH  13  15
HETATM   15  C   UNL     1      -9.441  16.688  67.080  1.00  0.00    -0.230 A  
HETATM   16  C   UNL     1      -8.315  16.658  66.275  1.00  0.00    -0.360 A  
HETATM   17  C   UNL     1      -7.393  17.691  66.413  1.00  0.00    -0.323 A  
HETATM   18  C   UNL     1      -7.622  18.682  67.362  1.00  0.00    -0.235 A  
HETATM   19  C   UNL     1      -8.772  18.603  68.132  1.00  0.00    -0.311 A  
HETATM   20  N   UNL     1      -9.698  17.626  68.005  1.00  0.00    -0.289 NA 
ENDBRANCH  13  15
ENDBRANCH  10  13
ENDBRANCH   7  10
TORSDOF 3
ENDMDL
MODEL      190
REMARK 921   NORMALIZED FREE ENERGY PREDICTED BY IDOCK:   -3.41 KCAL/MOL
REMARK 922        TOTAL FREE ENERGY PREDICTED BY IDOCK:   -4.23 KCAL/MOL
REMARK 923 INTER-LIGAND FREE ENERGY PREDICTED BY IDOCK:   -3.96 KCAL/MOL
REMARK 924 INTRA-LIGAND FREE ENERGY PREDICTED BY IDOCK:   -0.27 KCAL/MOL
REMARK 927      BINDING AFFINITY PREDICTED BY RF-SCORE:    0.00 PKD
ROOT
HETATM    1  N   UNL     1      -8.664   7.500  72.864  1.00  0.00    -0.127 NA 
HETATM    2  H2  UNL     1      -8.681   8.257  73.548  1.00  0.00     0.000 HD 
HETATM    3  C   UNL     1      -9.134   7.999  71.645  1.00  0.00    -0.150 A  
HETATM    4  H1  UNL     1      -9.099   6.679  73.284  1.00  0.00     0.000 HD 
HETATM    5  C   UNL     1      -8.538   9.127  71.069  1.00  0.00    -0.236 A  
HETATM    6  C   UNL     1      -8.933   9.581  69.808  1.00  0.00    -0.214 A  
HETATM    7  C   UNL     1      -9.897   8.869  69.085  1.00  0.00    -0.180 A  
HETATM    8  C   UNL     1     -10.049   7.263  70.884  1.00  0.00    -0.192 A  
HETATM    9  C   UNL     1     -10.455   7.707  69.620  1.00  0.00    -0.235 A  
ENDROOT
BRANCH   7  10
HETATM   10  S   UNL     1     -10.516   9.535  67.551  1.00  0.00    -0.276 S  
HETATM   11  O   UNL     1     -10.773   8.427  66.654  1.00  0.00    -0.195 OA 
HETATM   12  O   UNL     1     -11.574  10.461  67.899  1.00  0.00    -0.406 OA 
BRANCH  10  13
HETATM   13  N   UNL     1      -9.259  10.469  66.937  1.00  0.00    -0.154 N  
HETATM   14  H   UNL     1      -8.547  10.877  67.542  1.00  0.00     0.000 HD 
BRANCH  13  15
HETATM   15  C   UNL     1      -9.244  10.658  65.544  1.00  0.00    -0.196 A  
HETATM   16  C   UNL     1      -8.357   9.994  64.715  1.00  0.00    -0.166 A  
HETATM   17  C   UNL     1      -8.456  10.222  63.346  1.00  0.00    -0.185 A  
HETATM   18  C   UNL     1      -9.409  11.119  62.875  1.00  0.00    -0.385 A  
HETATM   19  C   UNL     1     -10.233  11.748  63.796  1.00  0.00    -0.399 A  
HETATM   20  N   UNL     1     -10.178  11.528  65.129  1.00  0.00    -0.260 NA 
ENDBRANCH  13  15
ENDBRANCH  10  13
ENDBRANCH   7  10
TORSDOF 3
ENDMDL
MODEL      191
REMARK 921   NORMALIZED FREE ENERGY PREDICTED BY IDOCK:   -3.41 KCAL/MOL
REMARK 922        TOTAL FREE ENERGY PREDICTED BY IDOCK:   -4.22 KCAL/MOL
REMARK 923 INTER-LIGAND FREE ENERGY PREDICTED BY IDOCK:   -4.04 KCAL/MOL
REMARK 924 INTRA-LIGAND FREE ENERGY PREDICTED BY IDOCK:   -0.19 KCAL/MOL
REMARK 927      BINDING AFFINITY PREDICTED BY RF-SCORE:    0.00 PKD
ROOT
HETATM    1  N   UNL     1      -9.395   4.009  67.949  1.00  0.00    -0.158 NA 
HETATM    2  H2  UNL     1      -9.774   4.124  67.009  1.00  0.00     0.000 HD 
HETATM    3  C   UNL     1      -9.479   5.237  68.611  1.00  0.00    -0.128 A  
HETATM    4  H1  UNL     1      -8.501   3.524  67.877  1.00  0.00     0.000 HD 
HETATM    5  C   UNL     1     -10.706   5.902  68.709  1.00  0.00    -0.354 A  
HETATM    6  C   UNL     1     -10.824   7.083  69.447  1.00  0.00    -0.253 A  
HETATM    7  C   UNL     1      -9.716   7.579  70.144  1.00  0.00    -0.172 A  
HETATM    8  C   UNL     1      -8.397   5.711  69.363  1.00  0.00    -0.107 A  
HETATM    9  C   UNL     1      -8.501   6.894  70.106  1.00  0.00    -0.140 A  
ENDROOT
BRANCH   7  10
HETATM   10  S   UNL     1      -9.823   9.166  70.951  1.00  0.00    -0.299 S  
HETATM   11  O   UNL     1     -11.220   9.547  71.005  1.00  0.00    -0.300 OA 
HETATM   12  O   UNL     1      -9.040   9.067  72.165  1.00  0.00    -0.372 OA 
BRANCH  10  13
HETATM   13  N   UNL     1      -8.994  10.229  69.945  1.00  0.00    -0.390 N  
HETATM   14  H   UNL     1      -8.045  10.537  70.153  1.00  0.00     0.000 HD 
BRANCH  13  15
HETATM   15  C   UNL     1      -9.681  10.670  68.801  1.00  0.00    -0.189 A  
HETATM   16  C   UNL     1     -10.355  11.879  68.760  1.00  0.00    -0.184 A  
HETATM   17  C   UNL     1     -10.966  12.239  67.562  1.00  0.00    -0.298 A  
HETATM   18  C   UNL     1     -10.902  11.368  66.479  1.00  0.00    -0.334 A  
HETATM   19  C   UNL     1     -10.220  10.171  66.637  1.00  0.00    -0.224 A  
HETATM   20  N   UNL     1      -9.595   9.805  67.778  1.00  0.00    -0.134 NA 
ENDBRANCH  13  15
ENDBRANCH  10  13
ENDBRANCH   7  10
TORSDOF 3
ENDMDL
MODEL      192
REMARK 921   NORMALIZED FREE ENERGY PREDICTED BY IDOCK:   -3.39 KCAL/MOL
REMARK 922        TOTAL FREE ENERGY PREDICTED BY IDOCK:   -4.20 KCAL/MOL
REMARK 923 INTER-LIGAND FREE ENERGY PREDICTED BY IDOCK:   -3.86 KCAL/MOL
REMARK 924 INTRA-LIGAND FREE ENERGY PREDICTED BY IDOCK:   -0.34 KCAL/MOL
REMARK 927      BINDING AFFINITY PREDICTED BY RF-SCORE:    0.00 PKD
ROOT
HETATM    1  N   UNL     1     -10.765  11.767  62.972  1.00  0.00    -0.680 NA 
HETATM    2  H2  UNL     1     -10.518  12.757  62.962  1.00  0.00     0.000 HD 
HETATM    3  C   UNL     1     -10.539  11.270  64.259  1.00  0.00    -0.358 A  
HETATM    4  H1  UNL     1     -10.330  11.320  62.165  1.00  0.00     0.000 HD 
HETATM    5  C   UNL     1     -11.135  11.884  65.366  1.00  0.00    -0.360 A  
HETATM    6  C   UNL     1     -10.995  11.343  66.648  1.00  0.00    -0.341 A  
HETATM    7  C   UNL     1     -10.296  10.143  66.821  1.00  0.00    -0.222 A  
HETATM    8  C   UNL     1      -9.898  10.038  64.439  1.00  0.00    -0.203 A  
HETATM    9  C   UNL     1      -9.749   9.486  65.718  1.00  0.00    -0.357 A  
ENDROOT
BRANCH   7  10
HETATM   10  S   UNL     1      -9.979   9.539  68.469  1.00  0.00    -0.173 S  
HETATM   11  O   UNL     1     -10.417  10.553  69.408  1.00  0.00    -0.218 OA 
HETATM   12  O   UNL     1     -10.520   8.197  68.530  1.00  0.00    -0.207 OA 
BRANCH  10  13
HETATM   13  N   UNL     1      -8.308   9.376  68.565  1.00  0.00    -0.117 N  
HETATM   14  H   UNL     1      -7.856   8.462  68.555  1.00  0.00     0.000 HD 
BRANCH  13  15
HETATM   15  C   UNL     1      -7.568  10.567  68.659  1.00  0.00    -0.099 A  
HETATM   16  C   UNL     1      -7.402  11.424  67.585  1.00  0.00    -0.102 A  
HETATM   17  C   UNL     1      -6.686  12.598  67.799  1.00  0.00    -0.127 A  
HETATM   18  C   UNL     1      -6.148  12.845  69.058  1.00  0.00    -0.089 A  
HETATM   19  C   UNL     1      -6.356  11.906  70.057  1.00  0.00    -0.072 A  
HETATM   20  N   UNL     1      -7.067  10.770  69.887  1.00  0.00    -0.134 NA 
ENDBRANCH  13  15
ENDBRANCH  10  13
ENDBRANCH   7  10
TORSDOF 3
ENDMDL
MODEL      193
REMARK 921   NORMALIZED FREE ENERGY PREDICTED BY IDOCK:   -3.38 KCAL/MOL
REMARK 922        TOTAL FREE ENERGY PREDICTED BY IDOCK:   -4.18 KCAL/MOL
REMARK 923 INTER-LIGAND FREE ENERGY PREDICTED BY IDOCK:   -4.01 KCAL/MOL
REMARK 924 INTRA-LIGAND FREE ENERGY PREDICTED BY IDOCK:   -0.18 KCAL/MOL
REMARK 927      BINDING AFFINITY PREDICTED BY RF-SCORE:    0.00 PKD
ROOT
HETATM    1  N   UNL     1     -14.069   8.023  72.247  1.00  0.00    -0.585 NA 
HETATM    2  H2  UNL     1     -14.134   7.393  73.047  1.00  0.00     0.000 HD 
HETATM    3  C   UNL     1     -12.763   7.967  71.748  1.00  0.00    -0.329 A  
HETATM    4  H1  UNL     1     -14.480   8.918  72.508  1.00  0.00     0.000 HD 
HETATM    5  C   UNL     1     -12.198   6.738  71.390  1.00  0.00    -0.413 A  
HETATM    6  C   UNL     1     -10.931   6.675  70.804  1.00  0.00    -0.318 A  
HETATM    7  C   UNL     1     -10.239   7.858  70.520  1.00  0.00    -0.198 A  
HETATM    8  C   UNL     1     -12.087   9.142  71.401  1.00  0.00    -0.409 A  
HETATM    9  C   UNL     1     -10.816   9.094  70.815  1.00  0.00    -0.331 A  
ENDROOT
BRANCH   7  10
HETATM   10  S   UNL     1      -8.561   7.774  69.922  1.00  0.00    -0.138 S  
HETATM   11  O   UNL     1      -7.806   8.835  70.559  1.00  0.00    -0.080 OA 
HETATM   12  O   UNL     1      -8.143   6.394  70.053  1.00  0.00    -0.116 OA 
BRANCH  10  13
HETATM   13  N   UNL     1      -8.665   8.078  68.271  1.00  0.00    -0.130 N  
HETATM   14  H   UNL     1      -8.502   9.007  67.884  1.00  0.00     0.000 HD 
BRANCH  13  15
HETATM   15  C   UNL     1      -8.989   6.982  67.454  1.00  0.00    -0.117 A  
HETATM   16  C   UNL     1      -8.024   6.163  66.892  1.00  0.00    -0.105 A  
HETATM   17  C   UNL     1      -8.456   5.079  66.134  1.00  0.00    -0.114 A  
HETATM   18  C   UNL     1      -9.820   4.883  65.947  1.00  0.00    -0.208 A  
HETATM   19  C   UNL     1     -10.701   5.777  66.536  1.00  0.00    -0.204 A  
HETATM   20  N   UNL     1     -10.313   6.824  67.299  1.00  0.00    -0.212 NA 
ENDBRANCH  13  15
ENDBRANCH  10  13
ENDBRANCH   7  10
TORSDOF 3
ENDMDL
MODEL      194
REMARK 921   NORMALIZED FREE ENERGY PREDICTED BY IDOCK:   -3.38 KCAL/MOL
REMARK 922        TOTAL FREE ENERGY PREDICTED BY IDOCK:   -4.18 KCAL/MOL
REMARK 923 INTER-LIGAND FREE ENERGY PREDICTED BY IDOCK:   -3.93 KCAL/MOL
REMARK 924 INTRA-LIGAND FREE ENERGY PREDICTED BY IDOCK:   -0.26 KCAL/MOL
REMARK 927      BINDING AFFINITY PREDICTED BY RF-SCORE:    0.00 PKD
ROOT
HETATM    1  N   UNL     1      -8.382  15.749  68.610  1.00  0.00    -0.172 NA 
HETATM    2  H2  UNL     1      -8.451  16.075  69.574  1.00  0.00     0.000 HD 
HETATM    3  C   UNL     1      -8.904  14.453  68.544  1.00  0.00    -0.182 A  
HETATM    4  H1  UNL     1      -7.439  15.940  68.274  1.00  0.00     0.000 HD 
HETATM    5  C   UNL     1     -10.198  14.192  69.006  1.00  0.00    -0.130 A  
HETATM    6  C   UNL     1     -10.769  12.924  68.862  1.00  0.00    -0.195 A  
HETATM    7  C   UNL     1     -10.059  11.916  68.198  1.00  0.00    -0.198 A  
HETATM    8  C   UNL     1      -8.233  13.456  67.828  1.00  0.00    -0.172 A  
HETATM    9  C   UNL     1      -8.792  12.180  67.677  1.00  0.00    -0.172 A  
ENDROOT
BRANCH   7  10
HETATM   10  S   UNL     1     -10.716  10.259  68.156  1.00  0.00    -0.264 S  
HETATM   11  O   UNL     1     -12.112  10.321  68.543  1.00  0.00    -0.091 OA 
HETATM   12  O   UNL     1     -10.331   9.693  66.880  1.00  0.00    -0.239 OA 
BRANCH  10  13
HETATM   13  N   UNL     1      -9.852   9.412  69.324  1.00  0.00    -0.168 N  
HETATM   14  H   UNL     1      -8.835   9.469  69.387  1.00  0.00     0.000 HD 
BRANCH  13  15
HETATM   15  C   UNL     1     -10.605   8.621  70.208  1.00  0.00    -0.223 A  
HETATM   16  C   UNL     1     -10.948   7.310  69.923  1.00  0.00    -0.262 A  
HETATM   17  C   UNL     1     -11.659   6.603  70.888  1.00  0.00    -0.416 A  
HETATM   18  C   UNL     1     -12.020   7.242  72.069  1.00  0.00    -0.333 A  
HETATM   19  C   UNL     1     -11.644   8.566  72.242  1.00  0.00    -0.374 A  
HETATM   20  N   UNL     1     -10.932   9.271  71.336  1.00  0.00    -0.335 NA 
ENDBRANCH  13  15
ENDBRANCH  10  13
ENDBRANCH   7  10
TORSDOF 3
ENDMDL
MODEL      195
REMARK 921   NORMALIZED FREE ENERGY PREDICTED BY IDOCK:   -3.37 KCAL/MOL
REMARK 922        TOTAL FREE ENERGY PREDICTED BY IDOCK:   -4.18 KCAL/MOL
REMARK 923 INTER-LIGAND FREE ENERGY PREDICTED BY IDOCK:   -3.96 KCAL/MOL
REMARK 924 INTRA-LIGAND FREE ENERGY PREDICTED BY IDOCK:   -0.22 KCAL/MOL
REMARK 927      BINDING AFFINITY PREDICTED BY RF-SCORE:    0.00 PKD
ROOT
HETATM    1  N   UNL     1      -5.627   6.252  62.998  1.00  0.00    -0.018 NA 
HETATM    2  H2  UNL     1      -6.228   5.531  62.597  1.00  0.00     0.000 HD 
HETATM    3  C   UNL     1      -6.440   7.253  63.539  1.00  0.00    -0.052 A  
HETATM    4  H1  UNL     1      -4.909   6.488  62.314  1.00  0.00     0.000 HD 
HETATM    5  C   UNL     1      -7.426   6.928  64.477  1.00  0.00    -0.099 A  
HETATM    6  C   UNL     1      -8.183   7.927  65.097  1.00  0.00    -0.143 A  
HETATM    7  C   UNL     1      -7.916   9.272  64.818  1.00  0.00    -0.123 A  
HETATM    8  C   UNL     1      -6.142   8.602  63.319  1.00  0.00    -0.085 A  
HETATM    9  C   UNL     1      -6.894   9.613  63.931  1.00  0.00    -0.113 A  
ENDROOT
BRANCH   7  10
HETATM   10  S   UNL     1      -8.984  10.537  65.482  1.00  0.00    -0.191 S  
HETATM   11  O   UNL     1     -10.265   9.929  65.779  1.00  0.00    -0.265 OA 
HETATM   12  O   UNL     1      -8.231  11.212  66.518  1.00  0.00    -0.158 OA 
BRANCH  10  13
HETATM   13  N   UNL     1      -9.172  11.652  64.237  1.00  0.00    -0.421 N  
HETATM   14  H   UNL     1      -8.550  11.666  63.429  1.00  0.00     0.000 HD 
BRANCH  13  15
HETATM   15  C   UNL     1     -10.232  12.565  64.371  1.00  0.00    -0.320 A  
HETATM   16  C   UNL     1     -10.258  13.531  65.362  1.00  0.00    -0.316 A  
HETATM   17  C   UNL     1     -11.335  14.413  65.378  1.00  0.00    -0.339 A  
HETATM   18  C   UNL     1     -12.343  14.270  64.429  1.00  0.00    -0.417 A  
HETATM   19  C   UNL     1     -12.227  13.252  63.495  1.00  0.00    -0.441 A  
HETATM   20  N   UNL     1     -11.182  12.397  63.438  1.00  0.00    -0.456 NA 
ENDBRANCH  13  15
ENDBRANCH  10  13
ENDBRANCH   7  10
TORSDOF 3
ENDMDL
MODEL      196
REMARK 921   NORMALIZED FREE ENERGY PREDICTED BY IDOCK:   -3.36 KCAL/MOL
REMARK 922        TOTAL FREE ENERGY PREDICTED BY IDOCK:   -4.17 KCAL/MOL
REMARK 923 INTER-LIGAND FREE ENERGY PREDICTED BY IDOCK:   -4.22 KCAL/MOL
REMARK 924 INTRA-LIGAND FREE ENERGY PREDICTED BY IDOCK:    0.06 KCAL/MOL
REMARK 927      BINDING AFFINITY PREDICTED BY RF-SCORE:    0.00 PKD
ROOT
HETATM    1  N   UNL     1      -5.381  14.944  67.313  1.00  0.00    -0.203 NA 
HETATM    2  H2  UNL     1      -5.319  13.930  67.409  1.00  0.00     0.000 HD 
HETATM    3  C   UNL     1      -6.701  15.331  67.565  1.00  0.00    -0.168 A  
HETATM    4  H1  UNL     1      -4.924  15.213  66.442  1.00  0.00     0.000 HD 
HETATM    5  C   UNL     1      -7.326  14.962  68.761  1.00  0.00    -0.127 A  
HETATM    6  C   UNL     1      -8.611  15.419  69.068  1.00  0.00    -0.227 A  
HETATM    7  C   UNL     1      -9.260  16.302  68.197  1.00  0.00    -0.199 A  
HETATM    8  C   UNL     1      -7.335  16.263  66.735  1.00  0.00    -0.244 A  
HETATM    9  C   UNL     1      -8.623  16.728  67.030  1.00  0.00    -0.233 A  
ENDROOT
BRANCH   7  10
HETATM   10  S   UNL     1     -10.956  16.757  68.507  1.00  0.00    -0.254 S  
HETATM   11  O   UNL     1     -11.118  18.151  68.147  1.00  0.00    -0.094 OA 
HETATM   12  O   UNL     1     -11.778  15.737  67.889  1.00  0.00    -0.231 OA 
BRANCH  10  13
HETATM   13  N   UNL     1     -11.163  16.583  70.167  1.00  0.00    -0.456 N  
HETATM   14  H   UNL     1     -10.734  17.225  70.833  1.00  0.00     0.000 HD 
BRANCH  13  15
HETATM   15  C   UNL     1     -11.959  15.504  70.588  1.00  0.00    -0.378 A  
HETATM   16  C   UNL     1     -13.231  15.677  71.105  1.00  0.00    -0.487 A  
HETATM   17  C   UNL     1     -13.950  14.537  71.451  1.00  0.00    -0.432 A  
HETATM   18  C   UNL     1     -13.358  13.288  71.295  1.00  0.00    -0.150 A  
HETATM   19  C   UNL     1     -12.068  13.230  70.788  1.00  0.00    -0.226 A  
HETATM   20  N   UNL     1     -11.354  14.317  70.420  1.00  0.00    -0.117 NA 
ENDBRANCH  13  15
ENDBRANCH  10  13
ENDBRANCH   7  10
TORSDOF 3
ENDMDL
MODEL      197
REMARK 921   NORMALIZED FREE ENERGY PREDICTED BY IDOCK:   -3.35 KCAL/MOL
REMARK 922        TOTAL FREE ENERGY PREDICTED BY IDOCK:   -4.15 KCAL/MOL
REMARK 923 INTER-LIGAND FREE ENERGY PREDICTED BY IDOCK:   -3.84 KCAL/MOL
REMARK 924 INTRA-LIGAND FREE ENERGY PREDICTED BY IDOCK:   -0.32 KCAL/MOL
REMARK 927      BINDING AFFINITY PREDICTED BY RF-SCORE:    0.00 PKD
ROOT
HETATM    1  N   UNL     1      -9.876   3.770  74.221  1.00  0.00    -0.113 NA 
HETATM    2  H2  UNL     1      -9.239   3.967  74.993  1.00  0.00     0.000 HD 
HETATM    3  C   UNL     1     -10.134   4.967  73.545  1.00  0.00    -0.164 A  
HETATM    4  H1  UNL     1     -10.647   3.205  74.577  1.00  0.00     0.000 HD 
HETATM    5  C   UNL     1      -9.076   5.742  73.057  1.00  0.00    -0.124 A  
HETATM    6  C   UNL     1      -9.320   6.891  72.300  1.00  0.00    -0.148 A  
HETATM    7  C   UNL     1     -10.635   7.243  71.977  1.00  0.00    -0.207 A  
HETATM    8  C   UNL     1     -11.439   5.295  73.162  1.00  0.00    -0.316 A  
HETATM    9  C   UNL     1     -11.698   6.445  72.405  1.00  0.00    -0.286 A  
ENDROOT
BRANCH   7  10
HETATM   10  S   UNL     1     -10.955   8.791  71.151  1.00  0.00    -0.292 S  
HETATM   11  O   UNL     1     -12.160   9.360  71.719  1.00  0.00    -0.354 OA 
HETATM   12  O   UNL     1      -9.712   9.533  71.167  1.00  0.00    -0.234 OA 
BRANCH  10  13
HETATM   13  N   UNL     1     -11.236   8.382  69.544  1.00  0.00    -0.439 N  
HETATM   14  H   UNL     1     -11.928   8.873  68.977  1.00  0.00     0.000 HD 
BRANCH  13  15
HETATM   15  C   UNL     1     -10.467   7.328  69.023  1.00  0.00    -0.211 A  
HETATM   16  C   UNL     1     -10.997   6.072  68.781  1.00  0.00    -0.384 A  
HETATM   17  C   UNL     1     -10.157   5.112  68.223  1.00  0.00    -0.199 A  
HETATM   18  C   UNL     1      -8.830   5.439  67.964  1.00  0.00    -0.105 A  
HETATM   19  C   UNL     1      -8.398   6.722  68.267  1.00  0.00    -0.118 A  
HETATM   20  N   UNL     1      -9.195   7.683  68.785  1.00  0.00    -0.143 NA 
ENDBRANCH  13  15
ENDBRANCH  10  13
ENDBRANCH   7  10
TORSDOF 3
ENDMDL
MODEL      198
REMARK 921   NORMALIZED FREE ENERGY PREDICTED BY IDOCK:   -3.35 KCAL/MOL
REMARK 922        TOTAL FREE ENERGY PREDICTED BY IDOCK:   -4.15 KCAL/MOL
REMARK 923 INTER-LIGAND FREE ENERGY PREDICTED BY IDOCK:   -3.98 KCAL/MOL
REMARK 924 INTRA-LIGAND FREE ENERGY PREDICTED BY IDOCK:   -0.17 KCAL/MOL
REMARK 927      BINDING AFFINITY PREDICTED BY RF-SCORE:    0.00 PKD
ROOT
HETATM    1  N   UNL     1      -7.919   4.745  67.871  1.00  0.00    -0.089 NA 
HETATM    2  H2  UNL     1      -8.568   4.030  67.540  1.00  0.00     0.000 HD 
HETATM    3  C   UNL     1      -8.181   5.932  67.180  1.00  0.00    -0.105 A  
HETATM    4  H1  UNL     1      -6.979   4.349  67.874  1.00  0.00     0.000 HD 
HETATM    5  C   UNL     1      -9.470   6.474  67.176  1.00  0.00    -0.150 A  
HETATM    6  C   UNL     1      -9.728   7.707  66.569  1.00  0.00    -0.251 A  
HETATM    7  C   UNL     1      -8.674   8.436  66.006  1.00  0.00    -0.157 A  
HETATM    8  C   UNL     1      -7.128   6.700  66.670  1.00  0.00    -0.068 A  
HETATM    9  C   UNL     1      -7.372   7.936  66.057  1.00  0.00    -0.074 A  
ENDROOT
BRANCH   7  10
HETATM   10  S   UNL     1      -9.024   9.927  65.092  1.00  0.00    -0.216 S  
HETATM   11  O   UNL     1      -8.014  10.908  65.434  1.00  0.00    -0.087 OA 
HETATM   12  O   UNL     1      -9.229   9.530  63.715  1.00  0.00    -0.209 OA 
BRANCH  10  13
HETATM   13  N   UNL     1     -10.520  10.448  65.657  1.00  0.00    -0.172 N  
HETATM   14  H   UNL     1     -11.048   9.918  66.350  1.00  0.00     0.000 HD 
BRANCH  13  15
HETATM   15  C   UNL     1     -11.004  11.655  65.123  1.00  0.00    -0.266 A  
HETATM   16  C   UNL     1     -11.612  11.725  63.881  1.00  0.00    -0.469 A  
HETATM   17  C   UNL     1     -12.094  12.963  63.466  1.00  0.00    -0.633 A  
HETATM   18  C   UNL     1     -11.920  14.070  64.290  1.00  0.00    -0.463 A  
HETATM   19  C   UNL     1     -11.276  13.891  65.505  1.00  0.00    -0.307 A  
HETATM   20  N   UNL     1     -10.820  12.698  65.947  1.00  0.00    -0.265 NA 
ENDBRANCH  13  15
ENDBRANCH  10  13
ENDBRANCH   7  10
TORSDOF 3
ENDMDL
MODEL      199
REMARK 921   NORMALIZED FREE ENERGY PREDICTED BY IDOCK:   -3.35 KCAL/MOL
REMARK 922        TOTAL FREE ENERGY PREDICTED BY IDOCK:   -4.15 KCAL/MOL
REMARK 923 INTER-LIGAND FREE ENERGY PREDICTED BY IDOCK:   -3.85 KCAL/MOL
REMARK 924 INTRA-LIGAND FREE ENERGY PREDICTED BY IDOCK:   -0.30 KCAL/MOL
REMARK 927      BINDING AFFINITY PREDICTED BY RF-SCORE:    0.00 PKD
ROOT
HETATM    1  N   UNL     1      -9.113  12.573  67.868  1.00  0.00    -0.191 NA 
HETATM    2  H2  UNL     1      -9.672  12.934  68.641  1.00  0.00     0.000 HD 
HETATM    3  C   UNL     1      -9.279  11.186  67.814  1.00  0.00    -0.153 A  
HETATM    4  H1  UNL     1      -8.178  12.976  67.934  1.00  0.00     0.000 HD 
HETATM    5  C   UNL     1     -10.561  10.634  67.724  1.00  0.00    -0.275 A  
HETATM    6  C   UNL     1     -10.740   9.255  67.575  1.00  0.00    -0.272 A  
HETATM    7  C   UNL     1      -9.623   8.421  67.457  1.00  0.00    -0.154 A  
HETATM    8  C   UNL     1      -8.173  10.347  67.631  1.00  0.00    -0.110 A  
HETATM    9  C   UNL     1      -8.337   8.964  67.482  1.00  0.00    -0.109 A  
ENDROOT
BRANCH   7  10
HETATM   10  S   UNL     1      -9.845   6.651  67.429  1.00  0.00    -0.142 S  
HETATM   11  O   UNL     1     -11.234   6.381  67.118  1.00  0.00    -0.370 OA 
HETATM   12  O   UNL     1      -8.787   6.114  66.599  1.00  0.00    -0.120 OA 
BRANCH  10  13
HETATM   13  N   UNL     1      -9.516   6.141  68.997  1.00  0.00    -0.127 N  
HETATM   14  H   UNL     1      -8.841   5.401  69.191  1.00  0.00     0.000 HD 
BRANCH  13  15
HETATM   15  C   UNL     1     -10.220   6.789  70.026  1.00  0.00    -0.191 A  
HETATM   16  C   UNL     1     -11.569   6.574  70.251  1.00  0.00    -0.473 A  
HETATM   17  C   UNL     1     -12.159   7.235  71.325  1.00  0.00    -0.373 A  
HETATM   18  C   UNL     1     -11.388   8.095  72.099  1.00  0.00    -0.399 A  
HETATM   19  C   UNL     1     -10.050   8.254  71.771  1.00  0.00    -0.224 A  
HETATM   20  N   UNL     1      -9.443   7.608  70.751  1.00  0.00    -0.162 NA 
ENDBRANCH  13  15
ENDBRANCH  10  13
ENDBRANCH   7  10
TORSDOF 3
ENDMDL
MODEL      200
REMARK 921   NORMALIZED FREE ENERGY PREDICTED BY IDOCK:   -3.34 KCAL/MOL
REMARK 922        TOTAL FREE ENERGY PREDICTED BY IDOCK:   -4.14 KCAL/MOL
REMARK 923 INTER-LIGAND FREE ENERGY PREDICTED BY IDOCK:   -3.80 KCAL/MOL
REMARK 924 INTRA-LIGAND FREE ENERGY PREDICTED BY IDOCK:   -0.34 KCAL/MOL
REMARK 927      BINDING AFFINITY PREDICTED BY RF-SCORE:    0.00 PKD
ROOT
HETATM    1  N   UNL     1      -6.122  11.748  70.539  1.00  0.00    -0.446 NA 
HETATM    2  H2  UNL     1      -6.344  12.728  70.714  1.00  0.00     0.000 HD 
HETATM    3  C   UNL     1      -7.016  11.257  69.583  1.00  0.00    -0.056 A  
HETATM    4  H1  UNL     1      -6.020  11.277  71.437  1.00  0.00     0.000 HD 
HETATM    5  C   UNL     1      -7.155  11.905  68.350  1.00  0.00    -0.086 A  
HETATM    6  C   UNL     1      -7.975  11.374  67.350  1.00  0.00    -0.139 A  
HETATM    7  C   UNL     1      -8.622  10.151  67.560  1.00  0.00    -0.118 A  
HETATM    8  C   UNL     1      -7.619  10.005  69.754  1.00  0.00    -0.167 A  
HETATM    9  C   UNL     1      -8.443   9.463  68.761  1.00  0.00    -0.122 A  
ENDROOT
BRANCH   7  10
HETATM   10  S   UNL     1      -9.791   9.555  66.352  1.00  0.00    -0.267 S  
HETATM   11  O   UNL     1      -9.610  10.324  65.138  1.00  0.00    -0.230 OA 
HETATM   12  O   UNL     1      -9.668   8.112  66.335  1.00  0.00    -0.227 OA 
BRANCH  10  13
HETATM   13  N   UNL     1     -11.305   9.888  67.003  1.00  0.00     0.087 N  
HETATM   14  H   UNL     1     -12.061   9.204  66.985  1.00  0.00     0.000 HD 
BRANCH  13  15
HETATM   15  C   UNL     1     -11.474  11.162  67.573  1.00  0.00    -0.216 A  
HETATM   16  C   UNL     1     -11.479  12.320  66.814  1.00  0.00    -0.421 A  
HETATM   17  C   UNL     1     -11.697  13.525  67.475  1.00  0.00    -0.403 A  
HETATM   18  C   UNL     1     -11.867  13.521  68.855  1.00  0.00    -0.384 A  
HETATM   19  C   UNL     1     -11.821  12.305  69.521  1.00  0.00    -0.315 A  
HETATM   20  N   UNL     1     -11.636  11.117  68.905  1.00  0.00    -0.290 NA 
ENDBRANCH  13  15
ENDBRANCH  10  13
ENDBRANCH   7  10
TORSDOF 3
ENDMDL
MODEL      201
REMARK 921   NORMALIZED FREE ENERGY PREDICTED BY IDOCK:   -3.33 KCAL/MOL
REMARK 922        TOTAL FREE ENERGY PREDICTED BY IDOCK:   -4.13 KCAL/MOL
REMARK 923 INTER-LIGAND FREE ENERGY PREDICTED BY IDOCK:   -3.83 KCAL/MOL
REMARK 924 INTRA-LIGAND FREE ENERGY PREDICTED BY IDOCK:   -0.29 KCAL/MOL
REMARK 927      BINDING AFFINITY PREDICTED BY RF-SCORE:    0.00 PKD
ROOT
HETATM    1  N   UNL     1      -9.799   3.636  66.533  1.00  0.00    -0.410 NA 
HETATM    2  H2  UNL     1     -10.135   3.660  65.570  1.00  0.00     0.000 HD 
HETATM    3  C   UNL     1      -9.744   4.949  67.013  1.00  0.00    -0.177 A  
HETATM    4  H1  UNL     1      -8.972   3.041  66.571  1.00  0.00     0.000 HD 
HETATM    5  C   UNL     1     -10.879   5.765  66.962  1.00  0.00    -0.328 A  
HETATM    6  C   UNL     1     -10.867   7.046  67.522  1.00  0.00    -0.338 A  
HETATM    7  C   UNL     1      -9.725   7.498  68.192  1.00  0.00    -0.154 A  
HETATM    8  C   UNL     1      -8.633   5.390  67.741  1.00  0.00    -0.104 A  
HETATM    9  C   UNL     1      -8.606   6.671  68.306  1.00  0.00    -0.119 A  
ENDROOT
BRANCH   7  10
HETATM   10  S   UNL     1      -9.651   9.186  68.765  1.00  0.00    -0.161 S  
HETATM   11  O   UNL     1      -8.373   9.739  68.363  1.00  0.00    -0.108 OA 
HETATM   12  O   UNL     1     -10.888   9.817  68.354  1.00  0.00    -0.233 OA 
BRANCH  10  13
HETATM   13  N   UNL     1      -9.711   9.085  70.443  1.00  0.00    -0.190 N  
HETATM   14  H   UNL     1      -9.145   9.689  71.038  1.00  0.00     0.000 HD 
BRANCH  13  15
HETATM   15  C   UNL     1     -10.584   8.123  70.980  1.00  0.00    -0.210 A  
HETATM   16  C   UNL     1     -11.961   8.240  70.893  1.00  0.00    -0.194 A  
HETATM   17  C   UNL     1     -12.732   7.209  71.420  1.00  0.00    -0.433 A  
HETATM   18  C   UNL     1     -12.098   6.132  72.033  1.00  0.00    -0.256 A  
HETATM   19  C   UNL     1     -10.712   6.128  72.085  1.00  0.00    -0.236 A  
HETATM   20  N   UNL     1      -9.936   7.102  71.560  1.00  0.00    -0.183 NA 
ENDBRANCH  13  15
ENDBRANCH  10  13
ENDBRANCH   7  10
TORSDOF 3
ENDMDL
MODEL      202
REMARK 921   NORMALIZED FREE ENERGY PREDICTED BY IDOCK:   -3.32 KCAL/MOL
REMARK 922        TOTAL FREE ENERGY PREDICTED BY IDOCK:   -4.12 KCAL/MOL
REMARK 923 INTER-LIGAND FREE ENERGY PREDICTED BY IDOCK:   -3.82 KCAL/MOL
REMARK 924 INTRA-LIGAND FREE ENERGY PREDICTED BY IDOCK:   -0.30 KCAL/MOL
REMARK 927      BINDING AFFINITY PREDICTED BY RF-SCORE:    0.00 PKD
ROOT
HETATM    1  N   UNL     1      -5.869   7.826  64.361  1.00  0.00    -0.041 NA 
HETATM    2  H2  UNL     1      -4.909   8.144  64.496  1.00  0.00     0.000 HD 
HETATM    3  C   UNL     1      -6.689   8.504  65.269  1.00  0.00    -0.063 A  
HETATM    4  H1  UNL     1      -5.869   6.807  64.332  1.00  0.00     0.000 HD 
HETATM    5  C   UNL     1      -6.688   9.903  65.310  1.00  0.00    -0.106 A  
HETATM    6  C   UNL     1      -7.569  10.596  66.145  1.00  0.00    -0.138 A  
HETATM    7  C   UNL     1      -8.502   9.887  66.909  1.00  0.00    -0.125 A  
HETATM    8  C   UNL     1      -7.669   7.812  65.991  1.00  0.00    -0.093 A  
HETATM    9  C   UNL     1      -8.556   8.494  66.833  1.00  0.00    -0.121 A  
ENDROOT
BRANCH   7  10
HETATM   10  S   UNL     1      -9.514  10.757  68.092  1.00  0.00    -0.163 S  
HETATM   11  O   UNL     1      -9.590   9.951  69.294  1.00  0.00    -0.181 OA 
HETATM   12  O   UNL     1      -9.014  12.114  68.147  1.00  0.00    -0.184 OA 
BRANCH  10  13
HETATM   13  N   UNL     1     -11.038  10.848  67.386  1.00  0.00    -0.310 N  
HETATM   14  H   UNL     1     -11.798  10.227  67.665  1.00  0.00     0.000 HD 
BRANCH  13  15
HETATM   15  C   UNL     1     -11.208  11.826  66.391  1.00  0.00    -0.323 A  
HETATM   16  C   UNL     1     -10.862  11.606  65.068  1.00  0.00    -0.346 A  
HETATM   17  C   UNL     1     -11.113  12.627  64.156  1.00  0.00    -0.428 A  
HETATM   18  C   UNL     1     -11.664  13.821  64.609  1.00  0.00    -0.417 A  
HETATM   19  C   UNL     1     -11.952  13.943  65.960  1.00  0.00    -0.412 A  
HETATM   20  N   UNL     1     -11.744  12.961  66.865  1.00  0.00    -0.366 NA 
ENDBRANCH  13  15
ENDBRANCH  10  13
ENDBRANCH   7  10
TORSDOF 3
ENDMDL
MODEL      203
REMARK 921   NORMALIZED FREE ENERGY PREDICTED BY IDOCK:   -3.29 KCAL/MOL
REMARK 922        TOTAL FREE ENERGY PREDICTED BY IDOCK:   -4.08 KCAL/MOL
REMARK 923 INTER-LIGAND FREE ENERGY PREDICTED BY IDOCK:   -3.79 KCAL/MOL
REMARK 924 INTRA-LIGAND FREE ENERGY PREDICTED BY IDOCK:   -0.29 KCAL/MOL
REMARK 927      BINDING AFFINITY PREDICTED BY RF-SCORE:    0.00 PKD
ROOT
HETATM    1  N   UNL     1     -10.726  12.294  68.018  1.00  0.00    -0.211 NA 
HETATM    2  H2  UNL     1     -10.474  13.065  68.637  1.00  0.00     0.000 HD 
HETATM    3  C   UNL     1     -10.911  11.147  68.796  1.00  0.00    -0.219 A  
HETATM    4  H1  UNL     1     -10.073  12.283  67.235  1.00  0.00     0.000 HD 
HETATM    5  C   UNL     1     -11.808  11.162  69.870  1.00  0.00    -0.439 A  
HETATM    6  C   UNL     1     -12.074   9.999  70.598  1.00  0.00    -0.381 A  
HETATM    7  C   UNL     1     -11.480   8.790  70.216  1.00  0.00    -0.089 A  
HETATM    8  C   UNL     1     -10.375   9.920  68.387  1.00  0.00    -0.226 A  
HETATM    9  C   UNL     1     -10.631   8.747  69.108  1.00  0.00    -0.200 A  
ENDROOT
BRANCH   7  10
HETATM   10  S   UNL     1     -11.690   7.344  71.238  1.00  0.00    -0.301 S  
HETATM   11  O   UNL     1     -10.724   7.413  72.315  1.00  0.00    -0.216 OA 
HETATM   12  O   UNL     1     -13.106   7.242  71.525  1.00  0.00    -0.369 OA 
BRANCH  10  13
HETATM   13  N   UNL     1     -11.320   6.042  70.240  1.00  0.00    -0.330 N  
HETATM   14  H   UNL     1     -11.884   5.814  69.421  1.00  0.00     0.000 HD 
BRANCH  13  15
HETATM   15  C   UNL     1     -10.191   5.284  70.595  1.00  0.00    -0.257 A  
HETATM   16  C   UNL     1     -10.261   4.213  71.470  1.00  0.00    -0.112 A  
HETATM   17  C   UNL     1      -9.090   3.503  71.719  1.00  0.00    -0.168 A  
HETATM   18  C   UNL     1      -7.907   3.912  71.113  1.00  0.00    -0.063 A  
HETATM   19  C   UNL     1      -7.945   5.014  70.271  1.00  0.00    -0.078 A  
HETATM   20  N   UNL     1      -9.071   5.707  69.989  1.00  0.00    -0.135 NA 
ENDBRANCH  13  15
ENDBRANCH  10  13
ENDBRANCH   7  10
TORSDOF 3
ENDMDL
MODEL      204
REMARK 921   NORMALIZED FREE ENERGY PREDICTED BY IDOCK:   -3.29 KCAL/MOL
REMARK 922        TOTAL FREE ENERGY PREDICTED BY IDOCK:   -4.08 KCAL/MOL
REMARK 923 INTER-LIGAND FREE ENERGY PREDICTED BY IDOCK:   -3.86 KCAL/MOL
REMARK 924 INTRA-LIGAND FREE ENERGY PREDICTED BY IDOCK:   -0.22 KCAL/MOL
REMARK 927      BINDING AFFINITY PREDICTED BY RF-SCORE:    0.00 PKD
ROOT
HETATM    1  N   UNL     1     -13.368   6.572  72.211  1.00  0.00    -0.462 NA 
HETATM    2  H2  UNL     1     -14.294   6.999  72.234  1.00  0.00     0.000 HD 
HETATM    3  C   UNL     1     -12.538   7.361  71.409  1.00  0.00    -0.370 A  
HETATM    4  H1  UNL     1     -13.477   5.578  72.014  1.00  0.00     0.000 HD 
HETATM    5  C   UNL     1     -12.388   8.726  71.679  1.00  0.00    -0.394 A  
HETATM    6  C   UNL     1     -11.491   9.508  70.945  1.00  0.00    -0.405 A  
HETATM    7  C   UNL     1     -10.692   8.909  69.965  1.00  0.00    -0.228 A  
HETATM    8  C   UNL     1     -11.688   6.766  70.470  1.00  0.00    -0.430 A  
HETATM    9  C   UNL     1     -10.786   7.537  69.726  1.00  0.00    -0.249 A  
ENDROOT
BRANCH   7  10
HETATM   10  S   UNL     1      -9.668   9.930  68.921  1.00  0.00    -0.185 S  
HETATM   11  O   UNL     1      -8.351   9.330  68.862  1.00  0.00    -0.116 OA 
HETATM   12  O   UNL     1     -10.422  10.171  67.708  1.00  0.00    -0.198 OA 
BRANCH  10  13
HETATM   13  N   UNL     1      -9.569  11.411  69.713  1.00  0.00     0.287 N  
HETATM   14  H   UNL     1      -9.290  11.480  70.691  1.00  0.00     0.000 HD 
BRANCH  13  15
HETATM   15  C   UNL     1      -9.893  12.549  68.954  1.00  0.00     0.138 A  
HETATM   16  C   UNL     1      -8.945  13.253  68.231  1.00  0.00    -0.176 A  
HETATM   17  C   UNL     1      -9.381  14.339  67.479  1.00  0.00    -0.199 A  
HETATM   18  C   UNL     1     -10.728  14.688  67.507  1.00  0.00    -0.268 A  
HETATM   19  C   UNL     1     -11.588  13.926  68.283  1.00  0.00    -0.337 A  
HETATM   20  N   UNL     1     -11.200  12.851  69.004  1.00  0.00    -0.267 NA 
ENDBRANCH  13  15
ENDBRANCH  10  13
ENDBRANCH   7  10
TORSDOF 3
ENDMDL
MODEL      205
REMARK 921   NORMALIZED FREE ENERGY PREDICTED BY IDOCK:   -3.28 KCAL/MOL
REMARK 922        TOTAL FREE ENERGY PREDICTED BY IDOCK:   -4.08 KCAL/MOL
REMARK 923 INTER-LIGAND FREE ENERGY PREDICTED BY IDOCK:   -3.92 KCAL/MOL
REMARK 924 INTRA-LIGAND FREE ENERGY PREDICTED BY IDOCK:   -0.15 KCAL/MOL
REMARK 927      BINDING AFFINITY PREDICTED BY RF-SCORE:    0.00 PKD
ROOT
HETATM    1  N   UNL     1      -7.339   3.080  73.365  1.00  0.00    -0.049 NA 
HETATM    2  H2  UNL     1      -7.066   3.492  74.257  1.00  0.00     0.000 HD 
HETATM    3  C   UNL     1      -8.194   3.973  72.711  1.00  0.00    -0.095 A  
HETATM    4  H1  UNL     1      -7.633   2.118  73.532  1.00  0.00     0.000 HD 
HETATM    5  C   UNL     1      -7.791   5.293  72.482  1.00  0.00    -0.102 A  
HETATM    6  C   UNL     1      -8.595   6.171  71.749  1.00  0.00    -0.133 A  
HETATM    7  C   UNL     1      -9.791   5.710  71.188  1.00  0.00    -0.177 A  
HETATM    8  C   UNL     1      -9.361   3.510  72.092  1.00  0.00    -0.178 A  
HETATM    9  C   UNL     1     -10.177   4.379  71.356  1.00  0.00    -0.153 A  
ENDROOT
BRANCH   7  10
HETATM   10  S   UNL     1     -10.892   6.866  70.392  1.00  0.00    -0.276 S  
HETATM   11  O   UNL     1     -11.138   6.394  69.044  1.00  0.00    -0.327 OA 
HETATM   12  O   UNL     1     -11.993   7.087  71.306  1.00  0.00    -0.307 OA 
BRANCH  10  13
HETATM   13  N   UNL     1     -10.038   8.314  70.327  1.00  0.00    -0.190 N  
HETATM   14  H   UNL     1      -9.099   8.402  70.714  1.00  0.00     0.000 HD 
BRANCH  13  15
HETATM   15  C   UNL     1     -10.690   9.396  69.711  1.00  0.00    -0.234 A  
HETATM   16  C   UNL     1     -11.367  10.364  70.434  1.00  0.00    -0.417 A  
HETATM   17  C   UNL     1     -11.940  11.417  69.728  1.00  0.00    -0.422 A  
HETATM   18  C   UNL     1     -11.839  11.438  68.341  1.00  0.00    -0.344 A  
HETATM   19  C   UNL     1     -11.157  10.405  67.715  1.00  0.00    -0.299 A  
HETATM   20  N   UNL     1     -10.568   9.383  68.375  1.00  0.00    -0.219 NA 
ENDBRANCH  13  15
ENDBRANCH  10  13
ENDBRANCH   7  10
TORSDOF 3
ENDMDL
MODEL      206
REMARK 921   NORMALIZED FREE ENERGY PREDICTED BY IDOCK:   -3.25 KCAL/MOL
REMARK 922        TOTAL FREE ENERGY PREDICTED BY IDOCK:   -4.04 KCAL/MOL
REMARK 923 INTER-LIGAND FREE ENERGY PREDICTED BY IDOCK:   -4.16 KCAL/MOL
REMARK 924 INTRA-LIGAND FREE ENERGY PREDICTED BY IDOCK:    0.12 KCAL/MOL
REMARK 927      BINDING AFFINITY PREDICTED BY RF-SCORE:    0.00 PKD
ROOT
HETATM    1  N   UNL     1      -8.426  10.815  62.815  1.00  0.00    -0.272 NA 
HETATM    2  H2  UNL     1      -8.876  11.727  62.728  1.00  0.00     0.000 HD 
HETATM    3  C   UNL     1      -8.551  10.387  64.140  1.00  0.00    -0.181 A  
HETATM    4  H1  UNL     1      -7.506  10.869  62.378  1.00  0.00     0.000 HD 
HETATM    5  C   UNL     1      -9.813  10.314  64.740  1.00  0.00    -0.403 A  
HETATM    6  C   UNL     1      -9.965   9.799  66.031  1.00  0.00    -0.342 A  
HETATM    7  C   UNL     1      -8.850   9.299  66.713  1.00  0.00    -0.127 A  
HETATM    8  C   UNL     1      -7.457   9.825  64.809  1.00  0.00    -0.130 A  
HETATM    9  C   UNL     1      -7.594   9.308  66.103  1.00  0.00    -0.096 A  
ENDROOT
BRANCH   7  10
HETATM   10  S   UNL     1      -9.014   8.793  68.415  1.00  0.00    -0.141 S  
HETATM   11  O   UNL     1      -8.175   7.629  68.618  1.00  0.00    -0.125 OA 
HETATM   12  O   UNL     1      -8.830   9.982  69.221  1.00  0.00    -0.153 OA 
BRANCH  10  13
HETATM   13  N   UNL     1     -10.628   8.353  68.591  1.00  0.00    -0.371 N  
HETATM   14  H   UNL     1     -11.281   8.380  67.808  1.00  0.00     0.000 HD 
BRANCH  13  15
HETATM   15  C   UNL     1     -11.029   7.948  69.875  1.00  0.00    -0.178 A  
HETATM   16  C   UNL     1     -11.520   6.680  70.134  1.00  0.00    -0.444 A  
HETATM   17  C   UNL     1     -11.847   6.369  71.450  1.00  0.00    -0.340 A  
HETATM   18  C   UNL     1     -11.700   7.341  72.434  1.00  0.00    -0.278 A  
HETATM   19  C   UNL     1     -11.220   8.587  72.061  1.00  0.00    -0.348 A  
HETATM   20  N   UNL     1     -10.870   8.911  70.796  1.00  0.00    -0.227 NA 
ENDBRANCH  13  15
ENDBRANCH  10  13
ENDBRANCH   7  10
TORSDOF 3
ENDMDL
MODEL      207
REMARK 921   NORMALIZED FREE ENERGY PREDICTED BY IDOCK:   -3.22 KCAL/MOL
REMARK 922        TOTAL FREE ENERGY PREDICTED BY IDOCK:   -4.00 KCAL/MOL
REMARK 923 INTER-LIGAND FREE ENERGY PREDICTED BY IDOCK:   -3.79 KCAL/MOL
REMARK 924 INTRA-LIGAND FREE ENERGY PREDICTED BY IDOCK:   -0.21 KCAL/MOL
REMARK 927      BINDING AFFINITY PREDICTED BY RF-SCORE:    0.00 PKD
ROOT
HETATM    1  N   UNL     1     -13.346   8.481  72.468  1.00  0.00    -0.612 NA 
HETATM    2  H2  UNL     1     -13.249   7.888  73.293  1.00  0.00     0.000 HD 
HETATM    3  C   UNL     1     -12.369   8.108  71.540  1.00  0.00    -0.306 A  
HETATM    4  H1  UNL     1     -13.417   9.451  72.776  1.00  0.00     0.000 HD 
HETATM    5  C   UNL     1     -12.271   6.778  71.117  1.00  0.00    -0.413 A  
HETATM    6  C   UNL     1     -11.363   6.406  70.121  1.00  0.00    -0.485 A  
HETATM    7  C   UNL     1     -10.580   7.384  69.498  1.00  0.00    -0.237 A  
HETATM    8  C   UNL     1     -11.626   9.083  70.864  1.00  0.00    -0.344 A  
HETATM    9  C   UNL     1     -10.711   8.725  69.866  1.00  0.00    -0.228 A  
ENDROOT
BRANCH   7  10
HETATM   10  S   UNL     1      -9.311   6.893  68.346  1.00  0.00    -0.128 S  
HETATM   11  O   UNL     1      -8.779   5.618  68.784  1.00  0.00    -0.107 OA 
HETATM   12  O   UNL     1      -9.876   7.039  67.020  1.00  0.00    -0.159 OA 
BRANCH  10  13
HETATM   13  N   UNL     1      -8.116   8.070  68.477  1.00  0.00    -0.124 N  
HETATM   14  H   UNL     1      -7.656   8.272  69.365  1.00  0.00     0.000 HD 
BRANCH  13  15
HETATM   15  C   UNL     1      -7.787   8.760  67.299  1.00  0.00    -0.097 A  
HETATM   16  C   UNL     1      -6.736   8.377  66.483  1.00  0.00    -0.060 A  
HETATM   17  C   UNL     1      -6.523   9.104  65.316  1.00  0.00    -0.068 A  
HETATM   18  C   UNL     1      -7.344  10.192  65.036  1.00  0.00    -0.139 A  
HETATM   19  C   UNL     1      -8.354  10.502  65.934  1.00  0.00    -0.161 A  
HETATM   20  N   UNL     1      -8.601   9.800  67.062  1.00  0.00    -0.124 NA 
ENDBRANCH  13  15
ENDBRANCH  10  13
ENDBRANCH   7  10
TORSDOF 3
ENDMDL
MODEL      208
REMARK 921   NORMALIZED FREE ENERGY PREDICTED BY IDOCK:   -3.20 KCAL/MOL
REMARK 922        TOTAL FREE ENERGY PREDICTED BY IDOCK:   -3.98 KCAL/MOL
REMARK 923 INTER-LIGAND FREE ENERGY PREDICTED BY IDOCK:   -4.03 KCAL/MOL
REMARK 924 INTRA-LIGAND FREE ENERGY PREDICTED BY IDOCK:    0.05 KCAL/MOL
REMARK 927      BINDING AFFINITY PREDICTED BY RF-SCORE:    0.00 PKD
ROOT
HETATM    1  N   UNL     1     -10.018  12.765  64.105  1.00  0.00    -0.620 NA 
HETATM    2  H2  UNL     1     -10.481  12.626  63.207  1.00  0.00     0.000 HD 
HETATM    3  C   UNL     1      -9.993  11.542  64.783  1.00  0.00    -0.260 A  
HETATM    4  H1  UNL     1     -10.421  13.590  64.549  1.00  0.00     0.000 HD 
HETATM    5  C   UNL     1      -9.440  10.411  64.173  1.00  0.00    -0.353 A  
HETATM    6  C   UNL     1      -9.323   9.205  64.871  1.00  0.00    -0.050 A  
HETATM    7  C   UNL     1      -9.712   9.141  66.214  1.00  0.00    -0.274 A  
HETATM    8  C   UNL     1     -10.319  11.480  66.143  1.00  0.00    -0.287 A  
HETATM    9  C   UNL     1     -10.208  10.278  66.854  1.00  0.00    -0.286 A  
ENDROOT
BRANCH   7  10
HETATM   10  S   UNL     1      -9.714   7.569  67.056  1.00  0.00    -0.216 S  
HETATM   11  O   UNL     1     -11.086   7.112  67.145  1.00  0.00    -0.326 OA 
HETATM   12  O   UNL     1      -8.707   6.753  66.411  1.00  0.00    -0.127 OA 
BRANCH  10  13
HETATM   13  N   UNL     1      -9.134   7.895  68.600  1.00  0.00    -0.137 N  
HETATM   14  H   UNL     1      -8.786   8.818  68.861  1.00  0.00     0.000 HD 
BRANCH  13  15
HETATM   15  C   UNL     1      -9.153   6.827  69.513  1.00  0.00    -0.141 A  
HETATM   16  C   UNL     1     -10.318   6.161  69.853  1.00  0.00    -0.272 A  
HETATM   17  C   UNL     1     -10.218   5.089  70.734  1.00  0.00    -0.299 A  
HETATM   18  C   UNL     1      -8.973   4.754  71.256  1.00  0.00    -0.162 A  
HETATM   19  C   UNL     1      -7.873   5.503  70.866  1.00  0.00    -0.104 A  
HETATM   20  N   UNL     1      -7.934   6.533  69.993  1.00  0.00    -0.114 NA 
ENDBRANCH  13  15
ENDBRANCH  10  13
ENDBRANCH   7  10
TORSDOF 3
ENDMDL
MODEL      209
REMARK 921   NORMALIZED FREE ENERGY PREDICTED BY IDOCK:   -3.20 KCAL/MOL
REMARK 922        TOTAL FREE ENERGY PREDICTED BY IDOCK:   -3.98 KCAL/MOL
REMARK 923 INTER-LIGAND FREE ENERGY PREDICTED BY IDOCK:   -3.60 KCAL/MOL
REMARK 924 INTRA-LIGAND FREE ENERGY PREDICTED BY IDOCK:   -0.38 KCAL/MOL
REMARK 927      BINDING AFFINITY PREDICTED BY RF-SCORE:    0.00 PKD
ROOT
HETATM    1  N   UNL     1      -6.114  10.677  64.823  1.00  0.00    -0.351 NA 
HETATM    2  H2  UNL     1      -5.281  10.747  65.408  1.00  0.00     0.000 HD 
HETATM    3  C   UNL     1      -7.237  10.669  65.656  1.00  0.00    -0.084 A  
HETATM    4  H1  UNL     1      -5.970   9.927  64.148  1.00  0.00     0.000 HD 
HETATM    5  C   UNL     1      -7.434  11.699  66.582  1.00  0.00    -0.037 A  
HETATM    6  C   UNL     1      -8.597  11.755  67.356  1.00  0.00    -0.160 A  
HETATM    7  C   UNL     1      -9.604  10.802  67.163  1.00  0.00    -0.161 A  
HETATM    8  C   UNL     1      -8.279   9.762  65.430  1.00  0.00    -0.131 A  
HETATM    9  C   UNL     1      -9.449   9.806  66.199  1.00  0.00    -0.261 A  
ENDROOT
BRANCH   7  10
HETATM   10  S   UNL     1     -11.012  10.777  68.257  1.00  0.00    -0.278 S  
HETATM   11  O   UNL     1     -11.883  11.877  67.890  1.00  0.00    -0.492 OA 
HETATM   12  O   UNL     1     -11.508   9.417  68.263  1.00  0.00     0.216 OA 
BRANCH  10  13
HETATM   13  N   UNL     1     -10.383  11.054  69.792  1.00  0.00    -0.433 N  
HETATM   14  H   UNL     1     -10.281  11.995  70.170  1.00  0.00     0.000 HD 
BRANCH  13  15
HETATM   15  C   UNL     1     -10.005   9.916  70.526  1.00  0.00    -0.098 A  
HETATM   16  C   UNL     1      -8.745   9.351  70.421  1.00  0.00    -0.278 A  
HETATM   17  C   UNL     1      -8.461   8.251  71.226  1.00  0.00    -0.164 A  
HETATM   18  C   UNL     1      -9.450   7.753  72.068  1.00  0.00    -0.212 A  
HETATM   19  C   UNL     1     -10.685   8.383  72.078  1.00  0.00    -0.317 A  
HETATM   20  N   UNL     1     -10.983   9.467  71.327  1.00  0.00    -0.363 NA 
ENDBRANCH  13  15
ENDBRANCH  10  13
ENDBRANCH   7  10
TORSDOF 3
ENDMDL
MODEL      210
REMARK 921   NORMALIZED FREE ENERGY PREDICTED BY IDOCK:   -3.19 KCAL/MOL
REMARK 922        TOTAL FREE ENERGY PREDICTED BY IDOCK:   -3.97 KCAL/MOL
REMARK 923 INTER-LIGAND FREE ENERGY PREDICTED BY IDOCK:   -3.66 KCAL/MOL
REMARK 924 INTRA-LIGAND FREE ENERGY PREDICTED BY IDOCK:   -0.30 KCAL/MOL
REMARK 927      BINDING AFFINITY PREDICTED BY RF-SCORE:    0.00 PKD
ROOT
HETATM    1  N   UNL     1      -6.493   6.900  64.102  1.00  0.00    -0.038 NA 
HETATM    2  H2  UNL     1      -6.386   5.887  64.145  1.00  0.00     0.000 HD 
HETATM    3  C   UNL     1      -7.392   7.291  65.100  1.00  0.00    -0.081 A  
HETATM    4  H1  UNL     1      -6.657   7.165  63.132  1.00  0.00     0.000 HD 
HETATM    5  C   UNL     1      -7.166   6.927  66.432  1.00  0.00    -0.075 A  
HETATM    6  C   UNL     1      -8.003   7.388  67.453  1.00  0.00    -0.112 A  
HETATM    7  C   UNL     1      -9.047   8.270  67.148  1.00  0.00    -0.139 A  
HETATM    8  C   UNL     1      -8.399   8.222  64.820  1.00  0.00    -0.129 A  
HETATM    9  C   UNL     1      -9.246   8.691  65.833  1.00  0.00    -0.264 A  
ENDROOT
BRANCH   7  10
HETATM   10  S   UNL     1     -10.209   8.729  68.420  1.00  0.00    -0.196 S  
HETATM   11  O   UNL     1      -9.469   8.943  69.647  1.00  0.00    -0.162 OA 
HETATM   12  O   UNL     1     -11.035   9.782  67.865  1.00  0.00    -0.262 OA 
BRANCH  10  13
HETATM   13  N   UNL     1     -11.214   7.393  68.602  1.00  0.00    -0.399 N  
HETATM   14  H   UNL     1     -11.812   7.062  67.845  1.00  0.00     0.000 HD 
BRANCH  13  15
HETATM   15  C   UNL     1     -11.186   6.756  69.854  1.00  0.00    -0.326 A  
HETATM   16  C   UNL     1     -12.068   7.080  70.872  1.00  0.00    -0.403 A  
HETATM   17  C   UNL     1     -11.981   6.357  72.058  1.00  0.00    -0.375 A  
HETATM   18  C   UNL     1     -11.005   5.373  72.183  1.00  0.00    -0.265 A  
HETATM   19  C   UNL     1     -10.159   5.146  71.109  1.00  0.00    -0.222 A  
HETATM   20  N   UNL     1     -10.234   5.813  69.936  1.00  0.00    -0.213 NA 
ENDBRANCH  13  15
ENDBRANCH  10  13
ENDBRANCH   7  10
TORSDOF 3
ENDMDL
MODEL      211
REMARK 921   NORMALIZED FREE ENERGY PREDICTED BY IDOCK:   -3.17 KCAL/MOL
REMARK 922        TOTAL FREE ENERGY PREDICTED BY IDOCK:   -3.94 KCAL/MOL
REMARK 923 INTER-LIGAND FREE ENERGY PREDICTED BY IDOCK:   -3.66 KCAL/MOL
REMARK 924 INTRA-LIGAND FREE ENERGY PREDICTED BY IDOCK:   -0.29 KCAL/MOL
REMARK 927      BINDING AFFINITY PREDICTED BY RF-SCORE:    0.00 PKD
ROOT
HETATM    1  N   UNL     1     -11.722  11.808  70.600  1.00  0.00    -0.432 NA 
HETATM    2  H2  UNL     1     -11.449  12.184  71.508  1.00  0.00     0.000 HD 
HETATM    3  C   UNL     1     -11.233  10.502  70.497  1.00  0.00    -0.265 A  
HETATM    4  H1  UNL     1     -11.495  12.499  69.885  1.00  0.00     0.000 HD 
HETATM    5  C   UNL     1     -11.545   9.555  71.477  1.00  0.00    -0.465 A  
HETATM    6  C   UNL     1     -11.142   8.223  71.341  1.00  0.00    -0.302 A  
HETATM    7  C   UNL     1     -10.465   7.818  70.185  1.00  0.00    -0.231 A  
HETATM    8  C   UNL     1     -10.612  10.070  69.319  1.00  0.00    -0.249 A  
HETATM    9  C   UNL     1     -10.201   8.739  69.170  1.00  0.00    -0.215 A  
ENDROOT
BRANCH   7  10
HETATM   10  S   UNL     1      -9.811   6.162  70.083  1.00  0.00    -0.176 S  
HETATM   11  O   UNL     1      -8.365   6.255  70.045  1.00  0.00    -0.125 OA 
HETATM   12  O   UNL     1     -10.473   5.391  71.114  1.00  0.00    -0.227 OA 
BRANCH  10  13
HETATM   13  N   UNL     1     -10.368   5.558  68.615  1.00  0.00    -0.192 N  
HETATM   14  H   UNL     1     -11.286   5.805  68.246  1.00  0.00     0.000 HD 
BRANCH  13  15
HETATM   15  C   UNL     1      -9.501   4.694  67.925  1.00  0.00    -0.152 A  
HETATM   16  C   UNL     1      -9.183   3.431  68.394  1.00  0.00    -0.230 A  
HETATM   17  C   UNL     1      -8.348   2.641  67.610  1.00  0.00    -0.094 A  
HETATM   18  C   UNL     1      -7.848   3.156  66.419  1.00  0.00    -0.077 A  
HETATM   19  C   UNL     1      -8.212   4.443  66.055  1.00  0.00    -0.109 A  
HETATM   20  N   UNL     1      -9.041   5.226  66.782  1.00  0.00    -0.117 NA 
ENDBRANCH  13  15
ENDBRANCH  10  13
ENDBRANCH   7  10
TORSDOF 3
ENDMDL
MODEL      212
REMARK 921   NORMALIZED FREE ENERGY PREDICTED BY IDOCK:   -3.16 KCAL/MOL
REMARK 922        TOTAL FREE ENERGY PREDICTED BY IDOCK:   -3.93 KCAL/MOL
REMARK 923 INTER-LIGAND FREE ENERGY PREDICTED BY IDOCK:   -3.68 KCAL/MOL
REMARK 924 INTRA-LIGAND FREE ENERGY PREDICTED BY IDOCK:   -0.24 KCAL/MOL
REMARK 927      BINDING AFFINITY PREDICTED BY RF-SCORE:    0.00 PKD
ROOT
HETATM    1  N   UNL     1      -7.921   4.170  67.324  1.00  0.00    -0.095 NA 
HETATM    2  H2  UNL     1      -7.594   4.380  66.381  1.00  0.00     0.000 HD 
HETATM    3  C   UNL     1      -8.298   5.370  67.936  1.00  0.00    -0.099 A  
HETATM    4  H1  UNL     1      -7.239   3.558  67.772  1.00  0.00     0.000 HD 
HETATM    5  C   UNL     1      -9.232   6.210  67.322  1.00  0.00    -0.117 A  
HETATM    6  C   UNL     1      -9.689   7.365  67.963  1.00  0.00    -0.161 A  
HETATM    7  C   UNL     1      -9.249   7.658  69.259  1.00  0.00    -0.145 A  
HETATM    8  C   UNL     1      -7.916   5.642  69.255  1.00  0.00    -0.096 A  
HETATM    9  C   UNL     1      -8.364   6.796  69.909  1.00  0.00    -0.135 A  
ENDROOT
BRANCH   7  10
HETATM   10  S   UNL     1      -9.704   9.208  70.014  1.00  0.00    -0.210 S  
HETATM   11  O   UNL     1      -9.600   9.054  71.451  1.00  0.00    -0.273 OA 
HETATM   12  O   UNL     1      -8.952  10.239  69.328  1.00  0.00    -0.168 OA 
BRANCH  10  13
HETATM   13  N   UNL     1     -11.315   9.447  69.595  1.00  0.00    -0.435 N  
HETATM   14  H   UNL     1     -11.752   8.937  68.828  1.00  0.00     0.000 HD 
BRANCH  13  15
HETATM   15  C   UNL     1     -12.027  10.388  70.358  1.00  0.00    -0.320 A  
HETATM   16  C   UNL     1     -11.908  11.752  70.154  1.00  0.00    -0.408 A  
HETATM   17  C   UNL     1     -12.692  12.594  70.937  1.00  0.00    -0.274 A  
HETATM   18  C   UNL     1     -13.527  12.041  71.902  1.00  0.00    -0.305 A  
HETATM   19  C   UNL     1     -13.551  10.661  72.039  1.00  0.00    -0.085 A  
HETATM   20  N   UNL     1     -12.822   9.816  71.276  1.00  0.00    -0.357 NA 
ENDBRANCH  13  15
ENDBRANCH  10  13
ENDBRANCH   7  10
TORSDOF 3
ENDMDL
MODEL      213
REMARK 921   NORMALIZED FREE ENERGY PREDICTED BY IDOCK:   -3.15 KCAL/MOL
REMARK 922        TOTAL FREE ENERGY PREDICTED BY IDOCK:   -3.92 KCAL/MOL
REMARK 923 INTER-LIGAND FREE ENERGY PREDICTED BY IDOCK:   -3.60 KCAL/MOL
REMARK 924 INTRA-LIGAND FREE ENERGY PREDICTED BY IDOCK:   -0.32 KCAL/MOL
REMARK 927      BINDING AFFINITY PREDICTED BY RF-SCORE:    0.00 PKD
ROOT
HETATM    1  N   UNL     1      -7.411   8.688  74.161  1.00  0.00    -0.408 NA 
HETATM    2  H2  UNL     1      -6.617   9.197  73.773  1.00  0.00     0.000 HD 
HETATM    3  C   UNL     1      -8.083   8.053  73.112  1.00  0.00    -0.176 A  
HETATM    4  H1  UNL     1      -7.916   9.311  74.791  1.00  0.00     0.000 HD 
HETATM    5  C   UNL     1      -7.391   7.198  72.248  1.00  0.00    -0.080 A  
HETATM    6  C   UNL     1      -8.065   6.484  71.253  1.00  0.00    -0.113 A  
HETATM    7  C   UNL     1      -9.458   6.581  71.153  1.00  0.00    -0.167 A  
HETATM    8  C   UNL     1      -9.481   8.091  73.040  1.00  0.00    -0.345 A  
HETATM    9  C   UNL     1     -10.169   7.382  72.048  1.00  0.00    -0.221 A  
ENDROOT
BRANCH   7  10
HETATM   10  S   UNL     1     -10.299   5.800  69.788  1.00  0.00    -0.291 S  
HETATM   11  O   UNL     1     -10.011   4.381  69.838  1.00  0.00    -0.222 OA 
HETATM   12  O   UNL     1     -11.666   6.276  69.818  1.00  0.00    -0.403 OA 
BRANCH  10  13
HETATM   13  N   UNL     1      -9.603   6.461  68.406  1.00  0.00    -0.125 N  
HETATM   14  H   UNL     1      -9.300   7.434  68.370  1.00  0.00     0.000 HD 
BRANCH  13  15
HETATM   15  C   UNL     1      -9.464   5.600  67.304  1.00  0.00    -0.115 A  
HETATM   16  C   UNL     1     -10.529   5.264  66.486  1.00  0.00    -0.354 A  
HETATM   17  C   UNL     1     -10.272   4.438  65.396  1.00  0.00    -0.247 A  
HETATM   18  C   UNL     1      -8.980   3.964  65.193  1.00  0.00    -0.132 A  
HETATM   19  C   UNL     1      -7.992   4.345  66.088  1.00  0.00    -0.099 A  
HETATM   20  N   UNL     1      -8.205   5.166  67.141  1.00  0.00    -0.107 NA 
ENDBRANCH  13  15
ENDBRANCH  10  13
ENDBRANCH   7  10
TORSDOF 3
ENDMDL
MODEL      214
REMARK 921   NORMALIZED FREE ENERGY PREDICTED BY IDOCK:   -3.14 KCAL/MOL
REMARK 922        TOTAL FREE ENERGY PREDICTED BY IDOCK:   -3.91 KCAL/MOL
REMARK 923 INTER-LIGAND FREE ENERGY PREDICTED BY IDOCK:   -3.75 KCAL/MOL
REMARK 924 INTRA-LIGAND FREE ENERGY PREDICTED BY IDOCK:   -0.16 KCAL/MOL
REMARK 927      BINDING AFFINITY PREDICTED BY RF-SCORE:    0.00 PKD
ROOT
HETATM    1  N   UNL     1      -5.851   5.551  63.801  1.00  0.00    -0.020 NA 
HETATM    2  H2  UNL     1      -6.223   5.031  63.006  1.00  0.00     0.000 HD 
HETATM    3  C   UNL     1      -6.923   5.976  64.591  1.00  0.00    -0.052 A  
HETATM    4  H1  UNL     1      -5.171   6.226  63.453  1.00  0.00     0.000 HD 
HETATM    5  C   UNL     1      -7.857   5.050  65.069  1.00  0.00    -0.090 A  
HETATM    6  C   UNL     1      -8.880   5.444  65.935  1.00  0.00    -0.148 A  
HETATM    7  C   UNL     1      -8.941   6.771  66.376  1.00  0.00    -0.149 A  
HETATM    8  C   UNL     1      -6.960   7.283  65.090  1.00  0.00    -0.055 A  
HETATM    9  C   UNL     1      -7.981   7.693  65.957  1.00  0.00    -0.112 A  
ENDROOT
BRANCH   7  10
HETATM   10  S   UNL     1     -10.335   7.312  67.349  1.00  0.00    -0.292 S  
HETATM   11  O   UNL     1     -10.538   8.723  67.094  1.00  0.00    -0.291 OA 
HETATM   12  O   UNL     1     -11.400   6.360  67.112  1.00  0.00    -0.308 OA 
BRANCH  10  13
HETATM   13  N   UNL     1      -9.864   7.098  68.950  1.00  0.00    -0.153 N  
HETATM   14  H   UNL     1      -9.023   6.576  69.198  1.00  0.00     0.000 HD 
BRANCH  13  15
HETATM   15  C   UNL     1     -10.691   7.678  69.927  1.00  0.00    -0.249 A  
HETATM   16  C   UNL     1     -10.538   8.989  70.346  1.00  0.00    -0.258 A  
HETATM   17  C   UNL     1     -11.439   9.476  71.288  1.00  0.00    -0.447 A  
HETATM   18  C   UNL     1     -12.423   8.629  71.788  1.00  0.00    -0.397 A  
HETATM   19  C   UNL     1     -12.471   7.326  71.316  1.00  0.00    -0.366 A  
HETATM   20  N   UNL     1     -11.627   6.831  70.383  1.00  0.00    -0.361 NA 
ENDBRANCH  13  15
ENDBRANCH  10  13
ENDBRANCH   7  10
TORSDOF 3
ENDMDL
MODEL      215
REMARK 921   NORMALIZED FREE ENERGY PREDICTED BY IDOCK:   -3.08 KCAL/MOL
REMARK 922        TOTAL FREE ENERGY PREDICTED BY IDOCK:   -3.84 KCAL/MOL
REMARK 923 INTER-LIGAND FREE ENERGY PREDICTED BY IDOCK:   -4.22 KCAL/MOL
REMARK 924 INTRA-LIGAND FREE ENERGY PREDICTED BY IDOCK:    0.39 KCAL/MOL
REMARK 927      BINDING AFFINITY PREDICTED BY RF-SCORE:    0.00 PKD
ROOT
HETATM    1  N   UNL     1      -8.000  18.792  66.749  1.00  0.00    -0.247 NA 
HETATM    2  H2  UNL     1      -8.293  19.241  67.617  1.00  0.00     0.000 HD 
HETATM    3  C   UNL     1      -8.863  17.721  66.494  1.00  0.00    -0.262 A  
HETATM    4  H1  UNL     1      -6.993  18.640  66.789  1.00  0.00     0.000 HD 
HETATM    5  C   UNL     1     -10.245  17.928  66.439  1.00  0.00    -0.372 A  
HETATM    6  C   UNL     1     -11.113  16.888  66.094  1.00  0.00     0.335 A  
HETATM    7  C   UNL     1     -10.592  15.637  65.745  1.00  0.00    -0.361 A  
HETATM    8  C   UNL     1      -8.353  16.484  66.082  1.00  0.00    -0.305 A  
HETATM    9  C   UNL     1      -9.211  15.433  65.735  1.00  0.00    -0.172 A  
ENDROOT
BRANCH   7  10
HETATM   10  S   UNL     1     -11.701  14.270  65.462  1.00  0.00    -0.363 S  
HETATM   11  O   UNL     1     -12.709  14.700  64.515  1.00  0.00    -0.619 OA 
HETATM   12  O   UNL     1     -10.872  13.116  65.181  1.00  0.00    -0.288 OA 
BRANCH  10  13
HETATM   13  N   UNL     1     -12.425  13.974  66.951  1.00  0.00    -0.529 N  
HETATM   14  H   UNL     1     -13.295  13.448  67.031  1.00  0.00     0.000 HD 
BRANCH  13  15
HETATM   15  C   UNL     1     -11.767  14.492  68.080  1.00  0.00    -0.342 A  
HETATM   16  C   UNL     1     -12.373  15.384  68.948  1.00  0.00     0.006 A  
HETATM   17  C   UNL     1     -11.646  15.801  70.059  1.00  0.00    -0.361 A  
HETATM   18  C   UNL     1     -10.347  15.336  70.233  1.00  0.00    -0.162 A  
HETATM   19  C   UNL     1      -9.829  14.462  69.289  1.00  0.00     0.055 A  
HETATM   20  N   UNL     1     -10.518  14.019  68.214  1.00  0.00    -0.238 NA 
ENDBRANCH  13  15
ENDBRANCH  10  13
ENDBRANCH   7  10
TORSDOF 3
ENDMDL
MODEL      216
REMARK 921   NORMALIZED FREE ENERGY PREDICTED BY IDOCK:   -3.07 KCAL/MOL
REMARK 922        TOTAL FREE ENERGY PREDICTED BY IDOCK:   -3.83 KCAL/MOL
REMARK 923 INTER-LIGAND FREE ENERGY PREDICTED BY IDOCK:   -3.42 KCAL/MOL
REMARK 924 INTRA-LIGAND FREE ENERGY PREDICTED BY IDOCK:   -0.41 KCAL/MOL
REMARK 927      BINDING AFFINITY PREDICTED BY RF-SCORE:    0.00 PKD
ROOT
HETATM    1  N   UNL     1      -9.182  10.255  67.962  1.00  0.00    -0.134 NA 
HETATM    2  H2  UNL     1      -8.171  10.242  67.832  1.00  0.00     0.000 HD 
HETATM    3  C   UNL     1      -9.504   9.391  69.013  1.00  0.00    -0.160 A  
HETATM    4  H1  UNL     1      -9.624  10.140  67.050  1.00  0.00     0.000 HD 
HETATM    5  C   UNL     1      -8.897   9.549  70.264  1.00  0.00    -0.281 A  
HETATM    6  C   UNL     1      -9.276   8.754  71.350  1.00  0.00    -0.325 A  
HETATM    7  C   UNL     1     -10.313   7.826  71.201  1.00  0.00    -0.200 A  
HETATM    8  C   UNL     1     -10.580   8.504  68.897  1.00  0.00    -0.166 A  
HETATM    9  C   UNL     1     -10.969   7.700  69.976  1.00  0.00    -0.237 A  
ENDROOT
BRANCH   7  10
HETATM   10  S   UNL     1     -10.686   6.702  72.535  1.00  0.00    -0.240 S  
HETATM   11  O   UNL     1     -10.822   7.480  73.750  1.00  0.00    -0.316 OA 
HETATM   12  O   UNL     1     -11.771   5.860  72.075  1.00  0.00    -0.279 OA 
BRANCH  10  13
HETATM   13  N   UNL     1      -9.339   5.704  72.661  1.00  0.00    -0.141 N  
HETATM   14  H   UNL     1      -8.574   5.911  73.303  1.00  0.00     0.000 HD 
BRANCH  13  15
HETATM   15  C   UNL     1      -9.322   4.569  71.832  1.00  0.00    -0.140 A  
HETATM   16  C   UNL     1      -8.955   4.628  70.499  1.00  0.00    -0.155 A  
HETATM   17  C   UNL     1      -8.932   3.437  69.780  1.00  0.00    -0.176 A  
HETATM   18  C   UNL     1      -9.304   2.255  70.413  1.00  0.00    -0.190 A  
HETATM   19  C   UNL     1      -9.677   2.313  71.748  1.00  0.00    -0.146 A  
HETATM   20  N   UNL     1      -9.685   3.450  72.479  1.00  0.00    -0.135 NA 
ENDBRANCH  13  15
ENDBRANCH  10  13
ENDBRANCH   7  10
TORSDOF 3
ENDMDL
MODEL      217
REMARK 921   NORMALIZED FREE ENERGY PREDICTED BY IDOCK:   -3.07 KCAL/MOL
REMARK 922        TOTAL FREE ENERGY PREDICTED BY IDOCK:   -3.82 KCAL/MOL
REMARK 923 INTER-LIGAND FREE ENERGY PREDICTED BY IDOCK:   -4.82 KCAL/MOL
REMARK 924 INTRA-LIGAND FREE ENERGY PREDICTED BY IDOCK:    1.00 KCAL/MOL
REMARK 927      BINDING AFFINITY PREDICTED BY RF-SCORE:    0.00 PKD
ROOT
HETATM    1  N   UNL     1     -13.168  14.879  71.401  1.00  0.00    -0.360 NA 
HETATM    2  H2  UNL     1     -12.706  14.511  72.234  1.00  0.00     0.000 HD 
HETATM    3  C   UNL     1     -12.389  14.553  70.286  1.00  0.00    -0.349 A  
HETATM    4  H1  UNL     1     -13.427  15.848  71.581  1.00  0.00     0.000 HD 
HETATM    5  C   UNL     1     -12.033  13.223  70.040  1.00  0.00    -0.399 A  
HETATM    6  C   UNL     1     -11.335  12.870  68.881  1.00  0.00    -0.335 A  
HETATM    7  C   UNL     1     -11.037  13.849  67.927  1.00  0.00    -0.258 A  
HETATM    8  C   UNL     1     -12.140  15.509  69.294  1.00  0.00    -0.284 A  
HETATM    9  C   UNL     1     -11.441  15.170  68.129  1.00  0.00    -0.356 A  
ENDROOT
BRANCH   7  10
HETATM   10  S   UNL     1     -10.010  13.432  66.529  1.00  0.00    -0.291 S  
HETATM   11  O   UNL     1      -8.789  12.836  67.034  1.00  0.00    -0.206 OA 
HETATM   12  O   UNL     1     -10.852  12.709  65.598  1.00  0.00    -0.266 OA 
BRANCH  10  13
HETATM   13  N   UNL     1      -9.651  14.900  65.792  1.00  0.00    -0.454 N  
HETATM   14  H   UNL     1     -10.182  15.245  64.993  1.00  0.00     0.000 HD 
BRANCH  13  15
HETATM   15  C   UNL     1      -8.578  15.627  66.337  1.00  0.00    -0.284 A  
HETATM   16  C   UNL     1      -8.352  16.958  66.031  1.00  0.00    -0.180 A  
HETATM   17  C   UNL     1      -7.286  17.594  66.660  1.00  0.00    -0.264 A  
HETATM   18  C   UNL     1      -6.483  16.869  67.535  1.00  0.00    -0.170 A  
HETATM   19  C   UNL     1      -6.786  15.533  67.752  1.00  0.00    -0.161 A  
HETATM   20  N   UNL     1      -7.829  14.894  67.176  1.00  0.00    -0.203 NA 
ENDBRANCH  13  15
ENDBRANCH  10  13
ENDBRANCH   7  10
TORSDOF 3
ENDMDL
MODEL      218
REMARK 921   NORMALIZED FREE ENERGY PREDICTED BY IDOCK:   -3.06 KCAL/MOL
REMARK 922        TOTAL FREE ENERGY PREDICTED BY IDOCK:   -3.81 KCAL/MOL
REMARK 923 INTER-LIGAND FREE ENERGY PREDICTED BY IDOCK:   -4.01 KCAL/MOL
REMARK 924 INTRA-LIGAND FREE ENERGY PREDICTED BY IDOCK:    0.19 KCAL/MOL
REMARK 927      BINDING AFFINITY PREDICTED BY RF-SCORE:    0.00 PKD
ROOT
HETATM    1  N   UNL     1      -8.391   8.703  72.540  1.00  0.00    -0.400 NA 
HETATM    2  H2  UNL     1      -7.590   9.291  72.772  1.00  0.00     0.000 HD 
HETATM    3  C   UNL     1      -8.950   9.171  71.346  1.00  0.00    -0.074 A  
HETATM    4  H1  UNL     1      -8.969   8.604  73.373  1.00  0.00     0.000 HD 
HETATM    5  C   UNL     1      -8.156   9.306  70.202  1.00  0.00    -0.152 A  
HETATM    6  C   UNL     1      -8.718   9.683  68.979  1.00  0.00    -0.142 A  
HETATM    7  C   UNL     1     -10.101   9.873  68.882  1.00  0.00    -0.184 A  
HETATM    8  C   UNL     1     -10.337   9.303  71.219  1.00  0.00    -0.397 A  
HETATM    9  C   UNL     1     -10.914   9.682  70.000  1.00  0.00    -0.297 A  
ENDROOT
BRANCH   7  10
HETATM   10  S   UNL     1     -10.798  10.509  67.368  1.00  0.00    -0.276 S  
HETATM   11  O   UNL     1     -10.781   9.443  66.387  1.00  0.00    -0.064 OA 
HETATM   12  O   UNL     1     -12.041  11.161  67.726  1.00  0.00    -0.606 OA 
BRANCH  10  13
HETATM   13  N   UNL     1      -9.751  11.731  66.880  1.00  0.00    -0.195 N  
HETATM   14  H   UNL     1      -9.133  11.621  66.077  1.00  0.00     0.000 HD 
BRANCH  13  15
HETATM   15  C   UNL     1      -9.773  12.913  67.640  1.00  0.00    -0.212 A  
HETATM   16  C   UNL     1     -10.932  13.642  67.845  1.00  0.00    -0.277 A  
HETATM   17  C   UNL     1     -10.851  14.774  68.650  1.00  0.00    -0.257 A  
HETATM   18  C   UNL     1      -9.619  15.140  69.184  1.00  0.00    -0.232 A  
HETATM   19  C   UNL     1      -8.516  14.350  68.896  1.00  0.00    -0.069 A  
HETATM   20  N   UNL     1      -8.569  13.232  68.139  1.00  0.00    -0.173 NA 
ENDBRANCH  13  15
ENDBRANCH  10  13
ENDBRANCH   7  10
TORSDOF 3
ENDMDL
MODEL      219
REMARK 921   NORMALIZED FREE ENERGY PREDICTED BY IDOCK:   -3.03 KCAL/MOL
REMARK 922        TOTAL FREE ENERGY PREDICTED BY IDOCK:   -3.77 KCAL/MOL
REMARK 923 INTER-LIGAND FREE ENERGY PREDICTED BY IDOCK:   -3.67 KCAL/MOL
REMARK 924 INTRA-LIGAND FREE ENERGY PREDICTED BY IDOCK:   -0.10 KCAL/MOL
REMARK 927      BINDING AFFINITY PREDICTED BY RF-SCORE:    0.00 PKD
ROOT
HETATM    1  N   UNL     1     -11.039   5.226  66.200  1.00  0.00    -0.761 NA 
HETATM    2  H2  UNL     1     -10.248   4.820  65.700  1.00  0.00     0.000 HD 
HETATM    3  C   UNL     1     -10.555   6.223  67.054  1.00  0.00    -0.318 A  
HETATM    4  H1  UNL     1     -11.609   4.466  66.570  1.00  0.00     0.000 HD 
HETATM    5  C   UNL     1      -9.772   7.265  66.546  1.00  0.00    -0.207 A  
HETATM    6  C   UNL     1      -9.360   8.318  67.369  1.00  0.00    -0.171 A  
HETATM    7  C   UNL     1      -9.780   8.361  68.703  1.00  0.00    -0.164 A  
HETATM    8  C   UNL     1     -11.020   6.312  68.371  1.00  0.00    -0.409 A  
HETATM    9  C   UNL     1     -10.613   7.360  69.207  1.00  0.00    -0.220 A  
ENDROOT
BRANCH   7  10
HETATM   10  S   UNL     1      -9.126   9.612  69.792  1.00  0.00    -0.228 S  
HETATM   11  O   UNL     1      -9.979  10.779  69.696  1.00  0.00    -0.130 OA 
HETATM   12  O   UNL     1      -8.897   8.971  71.070  1.00  0.00    -0.203 OA 
BRANCH  10  13
HETATM   13  N   UNL     1      -7.605   9.982  69.174  1.00  0.00    -0.087 N  
HETATM   14  H   UNL     1      -6.978   9.260  68.822  1.00  0.00     0.000 HD 
BRANCH  13  15
HETATM   15  C   UNL     1      -7.246  11.341  69.171  1.00  0.00    -0.115 A  
HETATM   16  C   UNL     1      -7.745  12.237  68.241  1.00  0.00    -0.143 A  
HETATM   17  C   UNL     1      -7.357  13.569  68.354  1.00  0.00    -0.115 A  
HETATM   18  C   UNL     1      -6.473  13.935  69.364  1.00  0.00    -0.119 A  
HETATM   19  C   UNL     1      -6.017  12.951  70.228  1.00  0.00    -0.126 A  
HETATM   20  N   UNL     1      -6.394  11.655  70.159  1.00  0.00    -0.157 NA 
ENDBRANCH  13  15
ENDBRANCH  10  13
ENDBRANCH   7  10
TORSDOF 3
ENDMDL
MODEL      220
REMARK 921   NORMALIZED FREE ENERGY PREDICTED BY IDOCK:   -3.01 KCAL/MOL
REMARK 922        TOTAL FREE ENERGY PREDICTED BY IDOCK:   -3.76 KCAL/MOL
REMARK 923 INTER-LIGAND FREE ENERGY PREDICTED BY IDOCK:   -3.66 KCAL/MOL
REMARK 924 INTRA-LIGAND FREE ENERGY PREDICTED BY IDOCK:   -0.10 KCAL/MOL
REMARK 927      BINDING AFFINITY PREDICTED BY RF-SCORE:    0.00 PKD
ROOT
HETATM    1  N   UNL     1      -8.553   5.551  74.069  1.00  0.00    -0.115 NA 
HETATM    2  H2  UNL     1      -8.403   4.628  73.662  1.00  0.00     0.000 HD 
HETATM    3  C   UNL     1      -9.055   6.396  73.074  1.00  0.00    -0.129 A  
HETATM    4  H1  UNL     1      -7.716   5.812  74.590  1.00  0.00     0.000 HD 
HETATM    5  C   UNL     1     -10.203   6.039  72.360  1.00  0.00    -0.216 A  
HETATM    6  C   UNL     1     -10.770   6.914  71.429  1.00  0.00    -0.247 A  
HETATM    7  C   UNL     1     -10.216   8.186  71.248  1.00  0.00    -0.195 A  
HETATM    8  C   UNL     1      -8.550   7.694  72.928  1.00  0.00    -0.190 A  
HETATM    9  C   UNL     1      -9.107   8.580  71.998  1.00  0.00    -0.317 A  
ENDROOT
BRANCH   7  10
HETATM   10  S   UNL     1     -10.838   9.239  69.949  1.00  0.00    -0.220 S  
HETATM   11  O   UNL     1     -10.877   8.465  68.725  1.00  0.00    -0.102 OA 
HETATM   12  O   UNL     1     -12.039   9.865  70.463  1.00  0.00    -0.261 OA 
BRANCH  10  13
HETATM   13  N   UNL     1      -9.700  10.468  69.795  1.00  0.00    -0.427 N  
HETATM   14  H   UNL     1      -8.948  10.592  70.473  1.00  0.00     0.000 HD 
BRANCH  13  15
HETATM   15  C   UNL     1      -9.840  11.314  68.682  1.00  0.00    -0.202 A  
HETATM   16  C   UNL     1     -10.419  12.568  68.772  1.00  0.00    -0.169 A  
HETATM   17  C   UNL     1     -10.469  13.342  67.617  1.00  0.00    -0.242 A  
HETATM   18  C   UNL     1      -9.972  12.819  66.427  1.00  0.00    -0.268 A  
HETATM   19  C   UNL     1      -9.433  11.541  66.445  1.00  0.00    -0.213 A  
HETATM   20  N   UNL     1      -9.347  10.776  67.556  1.00  0.00    -0.147 NA 
ENDBRANCH  13  15
ENDBRANCH  10  13
ENDBRANCH   7  10
TORSDOF 3
ENDMDL
MODEL      221
REMARK 921   NORMALIZED FREE ENERGY PREDICTED BY IDOCK:   -2.99 KCAL/MOL
REMARK 922        TOTAL FREE ENERGY PREDICTED BY IDOCK:   -3.73 KCAL/MOL
REMARK 923 INTER-LIGAND FREE ENERGY PREDICTED BY IDOCK:   -3.55 KCAL/MOL
REMARK 924 INTRA-LIGAND FREE ENERGY PREDICTED BY IDOCK:   -0.18 KCAL/MOL
REMARK 927      BINDING AFFINITY PREDICTED BY RF-SCORE:    0.00 PKD
ROOT
HETATM    1  N   UNL     1      -5.876   7.892  63.957  1.00  0.00    -0.052 NA 
HETATM    2  H2  UNL     1      -5.218   8.559  63.554  1.00  0.00     0.000 HD 
HETATM    3  C   UNL     1      -6.834   8.603  64.688  1.00  0.00    -0.073 A  
HETATM    4  H1  UNL     1      -5.344   7.144  64.401  1.00  0.00     0.000 HD 
HETATM    5  C   UNL     1      -7.564   9.629  64.079  1.00  0.00    -0.128 A  
HETATM    6  C   UNL     1      -8.588  10.286  64.768  1.00  0.00    -0.193 A  
HETATM    7  C   UNL     1      -8.926   9.876  66.062  1.00  0.00    -0.149 A  
HETATM    8  C   UNL     1      -7.225   8.163  65.958  1.00  0.00    -0.069 A  
HETATM    9  C   UNL     1      -8.248   8.813  66.660  1.00  0.00    -0.107 A  
ENDROOT
BRANCH   7  10
HETATM   10  S   UNL     1     -10.119  10.815  66.999  1.00  0.00    -0.217 S  
HETATM   11  O   UNL     1      -9.413  11.500  68.063  1.00  0.00    -0.169 OA 
HETATM   12  O   UNL     1     -10.906  11.560  66.038  1.00  0.00    -0.280 OA 
BRANCH  10  13
HETATM   13  N   UNL     1     -11.155   9.670  67.666  1.00  0.00    -0.459 N  
HETATM   14  H   UNL     1     -11.547   8.910  67.109  1.00  0.00     0.000 HD 
BRANCH  13  15
HETATM   15  C   UNL     1     -11.453   9.816  69.031  1.00  0.00     0.133 A  
HETATM   16  C   UNL     1     -12.141  10.910  69.528  1.00  0.00    -0.380 A  
HETATM   17  C   UNL     1     -12.421  10.934  70.891  1.00  0.00    -0.507 A  
HETATM   18  C   UNL     1     -11.976   9.889  71.694  1.00  0.00    -0.427 A  
HETATM   19  C   UNL     1     -11.275   8.853  71.096  1.00  0.00    -0.284 A  
HETATM   20  N   UNL     1     -11.010   8.788  69.772  1.00  0.00    -0.190 NA 
ENDBRANCH  13  15
ENDBRANCH  10  13
ENDBRANCH   7  10
TORSDOF 3
ENDMDL
MODEL      222
REMARK 921   NORMALIZED FREE ENERGY PREDICTED BY IDOCK:   -2.97 KCAL/MOL
REMARK 922        TOTAL FREE ENERGY PREDICTED BY IDOCK:   -3.71 KCAL/MOL
REMARK 923 INTER-LIGAND FREE ENERGY PREDICTED BY IDOCK:   -3.59 KCAL/MOL
REMARK 924 INTRA-LIGAND FREE ENERGY PREDICTED BY IDOCK:   -0.12 KCAL/MOL
REMARK 927      BINDING AFFINITY PREDICTED BY RF-SCORE:    0.00 PKD
ROOT
HETATM    1  N   UNL     1      -8.783  10.235  68.790  1.00  0.00    -0.135 NA 
HETATM    2  H2  UNL     1      -8.921   9.461  68.139  1.00  0.00     0.000 HD 
HETATM    3  C   UNL     1      -9.041  11.431  68.113  1.00  0.00    -0.174 A  
HETATM    4  H1  UNL     1      -7.893  10.097  69.268  1.00  0.00     0.000 HD 
HETATM    5  C   UNL     1     -10.262  11.619  67.456  1.00  0.00    -0.216 A  
HETATM    6  C   UNL     1     -10.571  12.843  66.855  1.00  0.00    -0.262 A  
HETATM    7  C   UNL     1      -9.674  13.912  66.958  1.00  0.00    -0.250 A  
HETATM    8  C   UNL     1      -8.182  12.527  68.261  1.00  0.00    -0.168 A  
HETATM    9  C   UNL     1      -8.479  13.758  67.662  1.00  0.00    -0.183 A  
ENDROOT
BRANCH   7  10
HETATM   10  S   UNL     1      -9.993  15.418  66.057  1.00  0.00    -0.353 S  
HETATM   11  O   UNL     1      -8.738  15.880  65.498  1.00  0.00     0.028 OA 
HETATM   12  O   UNL     1     -11.129  15.154  65.198  1.00  0.00    -0.362 OA 
BRANCH  10  13
HETATM   13  N   UNL     1     -10.526  16.518  67.213  1.00  0.00    -0.308 N  
HETATM   14  H   UNL     1     -10.474  17.525  67.061  1.00  0.00     0.000 HD 
BRANCH  13  15
HETATM   15  C   UNL     1     -11.046  15.974  68.400  1.00  0.00    -0.351 A  
HETATM   16  C   UNL     1     -12.251  15.294  68.439  1.00  0.00     0.087 A  
HETATM   17  C   UNL     1     -12.653  14.758  69.659  1.00  0.00    -0.097 A  
HETATM   18  C   UNL     1     -11.854  14.951  70.781  1.00  0.00    -0.368 A  
HETATM   19  C   UNL     1     -10.676  15.669  70.634  1.00  0.00    -0.213 A  
HETATM   20  N   UNL     1     -10.247  16.179  69.458  1.00  0.00    -0.262 NA 
ENDBRANCH  13  15
ENDBRANCH  10  13
ENDBRANCH   7  10
TORSDOF 3
ENDMDL
MODEL      223
REMARK 921   NORMALIZED FREE ENERGY PREDICTED BY IDOCK:   -2.95 KCAL/MOL
REMARK 922        TOTAL FREE ENERGY PREDICTED BY IDOCK:   -3.69 KCAL/MOL
REMARK 923 INTER-LIGAND FREE ENERGY PREDICTED BY IDOCK:   -4.14 KCAL/MOL
REMARK 924 INTRA-LIGAND FREE ENERGY PREDICTED BY IDOCK:    0.45 KCAL/MOL
REMARK 927      BINDING AFFINITY PREDICTED BY RF-SCORE:    0.00 PKD
ROOT
HETATM    1  N   UNL     1      -7.629  16.322  69.024  1.00  0.00    -0.210 NA 
HETATM    2  H2  UNL     1      -8.460  16.912  69.071  1.00  0.00     0.000 HD 
HETATM    3  C   UNL     1      -8.002  15.075  68.511  1.00  0.00    -0.144 A  
HETATM    4  H1  UNL     1      -7.140  16.384  69.917  1.00  0.00     0.000 HD 
HETATM    5  C   UNL     1      -8.673  14.990  67.287  1.00  0.00    -0.221 A  
HETATM    6  C   UNL     1      -8.969  13.749  66.716  1.00  0.00    -0.202 A  
HETATM    7  C   UNL     1      -8.542  12.576  67.349  1.00  0.00    -0.187 A  
HETATM    8  C   UNL     1      -7.526  13.898  69.099  1.00  0.00     0.027 A  
HETATM    9  C   UNL     1      -7.817  12.647  68.539  1.00  0.00    -0.104 A  
ENDROOT
BRANCH   7  10
HETATM   10  S   UNL     1      -9.057  10.993  66.708  1.00  0.00    -0.166 S  
HETATM   11  O   UNL     1      -8.627  10.908  65.327  1.00  0.00    -0.172 OA 
HETATM   12  O   UNL     1      -8.636   9.999  67.673  1.00  0.00    -0.118 OA 
BRANCH  10  13
HETATM   13  N   UNL     1     -10.738  11.020  66.768  1.00  0.00    -0.267 N  
HETATM   14  H   UNL     1     -11.263  10.424  67.407  1.00  0.00     0.000 HD 
BRANCH  13  15
HETATM   15  C   UNL     1     -11.380  11.908  65.888  1.00  0.00    -0.308 A  
HETATM   16  C   UNL     1     -12.044  13.040  66.330  1.00  0.00    -0.453 A  
HETATM   17  C   UNL     1     -12.609  13.875  65.370  1.00  0.00    -0.538 A  
HETATM   18  C   UNL     1     -12.512  13.527  64.027  1.00  0.00    -0.294 A  
HETATM   19  C   UNL     1     -11.843  12.358  63.696  1.00  0.00    -0.526 A  
HETATM   20  N   UNL     1     -11.263  11.540  64.603  1.00  0.00    -0.253 NA 
ENDBRANCH  13  15
ENDBRANCH  10  13
ENDBRANCH   7  10
TORSDOF 3
ENDMDL
MODEL      224
REMARK 921   NORMALIZED FREE ENERGY PREDICTED BY IDOCK:   -2.95 KCAL/MOL
REMARK 922        TOTAL FREE ENERGY PREDICTED BY IDOCK:   -3.69 KCAL/MOL
REMARK 923 INTER-LIGAND FREE ENERGY PREDICTED BY IDOCK:   -3.69 KCAL/MOL
REMARK 924 INTRA-LIGAND FREE ENERGY PREDICTED BY IDOCK:    0.01 KCAL/MOL
REMARK 927      BINDING AFFINITY PREDICTED BY RF-SCORE:    0.00 PKD
ROOT
HETATM    1  N   UNL     1      -5.791   9.737  69.587  1.00  0.00    -0.036 NA 
HETATM    2  H2  UNL     1      -5.836  10.726  69.344  1.00  0.00     0.000 HD 
HETATM    3  C   UNL     1      -6.975   9.392  70.248  1.00  0.00    -0.087 A  
HETATM    4  H1  UNL     1      -4.888   9.553  70.023  1.00  0.00     0.000 HD 
HETATM    5  C   UNL     1      -8.214   9.644  69.649  1.00  0.00    -0.148 A  
HETATM    6  C   UNL     1      -9.401   9.221  70.254  1.00  0.00    -0.277 A  
HETATM    7  C   UNL     1      -9.350   8.488  71.445  1.00  0.00    -0.211 A  
HETATM    8  C   UNL     1      -6.936   8.604  71.404  1.00  0.00    -0.086 A  
HETATM    9  C   UNL     1      -8.117   8.175  72.021  1.00  0.00    -0.178 A  
ENDROOT
BRANCH   7  10
HETATM   10  S   UNL     1     -10.863   8.088  72.299  1.00  0.00    -0.332 S  
HETATM   11  O   UNL     1     -10.537   7.821  73.686  1.00  0.00    -0.234 OA 
HETATM   12  O   UNL     1     -11.819   9.120  71.953  1.00  0.00    -0.354 OA 
BRANCH  10  13
HETATM   13  N   UNL     1     -11.418   6.675  71.576  1.00  0.00    -0.282 N  
HETATM   14  H   UNL     1     -12.080   6.692  70.800  1.00  0.00     0.000 HD 
BRANCH  13  15
HETATM   15  C   UNL     1     -10.921   5.469  72.098  1.00  0.00    -0.231 A  
HETATM   16  C   UNL     1     -11.238   5.025  73.370  1.00  0.00    -0.391 A  
HETATM   17  C   UNL     1     -10.726   3.794  73.772  1.00  0.00    -0.308 A  
HETATM   18  C   UNL     1      -9.902   3.086  72.904  1.00  0.00    -0.187 A  
HETATM   19  C   UNL     1      -9.631   3.635  71.660  1.00  0.00    -0.156 A  
HETATM   20  N   UNL     1     -10.133   4.814  71.231  1.00  0.00    -0.197 NA 
ENDBRANCH  13  15
ENDBRANCH  10  13
ENDBRANCH   7  10
TORSDOF 3
ENDMDL
MODEL      225
REMARK 921   NORMALIZED FREE ENERGY PREDICTED BY IDOCK:   -2.94 KCAL/MOL
REMARK 922        TOTAL FREE ENERGY PREDICTED BY IDOCK:   -3.68 KCAL/MOL
REMARK 923 INTER-LIGAND FREE ENERGY PREDICTED BY IDOCK:   -4.82 KCAL/MOL
REMARK 924 INTRA-LIGAND FREE ENERGY PREDICTED BY IDOCK:    1.15 KCAL/MOL
REMARK 927      BINDING AFFINITY PREDICTED BY RF-SCORE:    0.00 PKD
ROOT
HETATM    1  N   UNL     1     -13.910  12.738  72.882  1.00  0.00    -0.554 NA 
HETATM    2  H2  UNL     1     -13.666  12.478  73.838  1.00  0.00     0.000 HD 
HETATM    3  C   UNL     1     -13.072  12.037  72.008  1.00  0.00    -0.351 A  
HETATM    4  H1  UNL     1     -13.971  13.754  72.830  1.00  0.00     0.000 HD 
HETATM    5  C   UNL     1     -12.989  10.643  72.079  1.00  0.00    -0.466 A  
HETATM    6  C   UNL     1     -12.230   9.922  71.153  1.00  0.00    -0.468 A  
HETATM    7  C   UNL     1     -11.588  10.596  70.108  1.00  0.00    -0.330 A  
HETATM    8  C   UNL     1     -12.478  12.691  70.922  1.00  0.00    -0.368 A  
HETATM    9  C   UNL     1     -11.713  11.981  69.988  1.00  0.00    -0.346 A  
ENDROOT
BRANCH   7  10
HETATM   10  S   UNL     1     -10.491   9.700  69.024  1.00  0.00    -0.218 S  
HETATM   11  O   UNL     1      -9.600   8.907  69.847  1.00  0.00    -0.168 OA 
HETATM   12  O   UNL     1     -11.324   9.068  68.022  1.00  0.00     0.271 OA 
BRANCH  10  13
HETATM   13  N   UNL     1      -9.604  10.881  68.220  1.00  0.00    -0.161 N  
HETATM   14  H   UNL     1      -8.606  11.011  68.387  1.00  0.00     0.000 HD 
BRANCH  13  15
HETATM   15  C   UNL     1     -10.312  11.680  67.306  1.00  0.00    -0.204 A  
HETATM   16  C   UNL     1     -10.666  12.989  67.583  1.00  0.00    -0.239 A  
HETATM   17  C   UNL     1     -11.328  13.705  66.590  1.00  0.00    -0.343 A  
HETATM   18  C   UNL     1     -11.631  13.075  65.387  1.00  0.00    -0.374 A  
HETATM   19  C   UNL     1     -11.249  11.752  65.223  1.00  0.00    -0.254 A  
HETATM   20  N   UNL     1     -10.583  11.039  66.159  1.00  0.00    -0.250 NA 
ENDBRANCH  13  15
ENDBRANCH  10  13
ENDBRANCH   7  10
TORSDOF 3
ENDMDL
MODEL      226
REMARK 921   NORMALIZED FREE ENERGY PREDICTED BY IDOCK:   -2.93 KCAL/MOL
REMARK 922        TOTAL FREE ENERGY PREDICTED BY IDOCK:   -3.66 KCAL/MOL
REMARK 923 INTER-LIGAND FREE ENERGY PREDICTED BY IDOCK:   -3.75 KCAL/MOL
REMARK 924 INTRA-LIGAND FREE ENERGY PREDICTED BY IDOCK:    0.09 KCAL/MOL
REMARK 927      BINDING AFFINITY PREDICTED BY RF-SCORE:    0.00 PKD
ROOT
HETATM    1  N   UNL     1      -9.501   7.728  65.662  1.00  0.00    -0.369 NA 
HETATM    2  H2  UNL     1      -8.542   7.385  65.603  1.00  0.00     0.000 HD 
HETATM    3  C   UNL     1      -9.472   9.031  66.168  1.00  0.00    -0.253 A  
HETATM    4  H1  UNL     1     -10.070   7.014  66.116  1.00  0.00     0.000 HD 
HETATM    5  C   UNL     1      -8.691  10.011  65.545  1.00  0.00    -0.171 A  
HETATM    6  C   UNL     1      -8.724  11.339  65.981  1.00  0.00    -0.165 A  
HETATM    7  C   UNL     1      -9.589  11.706  67.018  1.00  0.00    -0.184 A  
HETATM    8  C   UNL     1     -10.378   9.426  67.160  1.00  0.00    -0.326 A  
HETATM    9  C   UNL     1     -10.420  10.752  67.608  1.00  0.00    -0.252 A  
ENDROOT
BRANCH   7  10
HETATM   10  S   UNL     1      -9.515  13.360  67.682  1.00  0.00    -0.226 S  
HETATM   11  O   UNL     1     -10.855  13.744  68.077  1.00  0.00    -0.241 OA 
HETATM   12  O   UNL     1      -8.432  13.372  68.643  1.00  0.00    -0.113 OA 
BRANCH  10  13
HETATM   13  N   UNL     1      -9.014  14.327  66.400  1.00  0.00    -0.479 N  
HETATM   14  H   UNL     1      -9.313  14.146  65.441  1.00  0.00     0.000 HD 
BRANCH  13  15
HETATM   15  C   UNL     1      -8.163  15.398  66.720  1.00  0.00    -0.217 A  
HETATM   16  C   UNL     1      -6.840  15.210  67.085  1.00  0.00     0.083 A  
HETATM   17  C   UNL     1      -6.073  16.343  67.340  1.00  0.00    -0.199 A  
HETATM   18  C   UNL     1      -6.665  17.598  67.250  1.00  0.00    -0.184 A  
HETATM   19  C   UNL     1      -8.004  17.670  66.899  1.00  0.00    -0.226 A  
HETATM   20  N   UNL     1      -8.769  16.591  66.621  1.00  0.00    -0.225 NA 
ENDBRANCH  13  15
ENDBRANCH  10  13
ENDBRANCH   7  10
TORSDOF 3
ENDMDL
MODEL      227
REMARK 921   NORMALIZED FREE ENERGY PREDICTED BY IDOCK:   -2.92 KCAL/MOL
REMARK 922        TOTAL FREE ENERGY PREDICTED BY IDOCK:   -3.65 KCAL/MOL
REMARK 923 INTER-LIGAND FREE ENERGY PREDICTED BY IDOCK:   -3.65 KCAL/MOL
REMARK 924 INTRA-LIGAND FREE ENERGY PREDICTED BY IDOCK:   -0.01 KCAL/MOL
REMARK 927      BINDING AFFINITY PREDICTED BY RF-SCORE:    0.00 PKD
ROOT
HETATM    1  N   UNL     1     -13.006  13.158  65.181  1.00  0.00    -0.729 NA 
HETATM    2  H2  UNL     1     -13.080  12.812  64.224  1.00  0.00     0.000 HD 
HETATM    3  C   UNL     1     -11.892  12.562  65.781  1.00  0.00    -0.437 A  
HETATM    4  H1  UNL     1     -13.924  13.089  65.619  1.00  0.00     0.000 HD 
HETATM    5  C   UNL     1     -10.633  12.657  65.179  1.00  0.00    -0.324 A  
HETATM    6  C   UNL     1      -9.496  12.147  65.812  1.00  0.00    -0.156 A  
HETATM    7  C   UNL     1      -9.607  11.583  67.088  1.00  0.00    -0.177 A  
HETATM    8  C   UNL     1     -11.978  12.053  67.082  1.00  0.00    -0.105 A  
HETATM    9  C   UNL     1     -10.847  11.537  67.727  1.00  0.00    -0.270 A  
ENDROOT
BRANCH   7  10
HETATM   10  S   UNL     1      -8.190  10.790  67.826  1.00  0.00    -0.113 S  
HETATM   11  O   UNL     1      -7.012  11.553  67.466  1.00  0.00    -0.087 OA 
HETATM   12  O   UNL     1      -8.522  10.560  69.217  1.00  0.00    -0.157 OA 
BRANCH  10  13
HETATM   13  N   UNL     1      -8.112   9.271  67.106  1.00  0.00    -0.109 N  
HETATM   14  H   UNL     1      -7.377   9.028  66.442  1.00  0.00     0.000 HD 
BRANCH  13  15
HETATM   15  C   UNL     1      -9.113   8.355  67.470  1.00  0.00    -0.134 A  
HETATM   16  C   UNL     1      -9.215   7.835  68.749  1.00  0.00    -0.139 A  
HETATM   17  C   UNL     1     -10.272   6.969  69.013  1.00  0.00    -0.191 A  
HETATM   18  C   UNL     1     -11.152   6.639  67.987  1.00  0.00    -0.296 A  
HETATM   19  C   UNL     1     -10.943   7.200  66.736  1.00  0.00     0.019 A  
HETATM   20  N   UNL     1      -9.943   8.064  66.455  1.00  0.00    -0.242 NA 
ENDBRANCH  13  15
ENDBRANCH  10  13
ENDBRANCH   7  10
TORSDOF 3
ENDMDL
MODEL      228
REMARK 921   NORMALIZED FREE ENERGY PREDICTED BY IDOCK:   -2.91 KCAL/MOL
REMARK 922        TOTAL FREE ENERGY PREDICTED BY IDOCK:   -3.64 KCAL/MOL
REMARK 923 INTER-LIGAND FREE ENERGY PREDICTED BY IDOCK:   -3.36 KCAL/MOL
REMARK 924 INTRA-LIGAND FREE ENERGY PREDICTED BY IDOCK:   -0.28 KCAL/MOL
REMARK 927      BINDING AFFINITY PREDICTED BY RF-SCORE:    0.00 PKD
ROOT
HETATM    1  N   UNL     1      -5.878   7.992  64.342  1.00  0.00    -0.051 NA 
HETATM    2  H2  UNL     1      -4.995   8.501  64.384  1.00  0.00     0.000 HD 
HETATM    3  C   UNL     1      -6.780   8.599  65.221  1.00  0.00    -0.067 A  
HETATM    4  H1  UNL     1      -5.677   6.995  64.421  1.00  0.00     0.000 HD 
HETATM    5  C   UNL     1      -7.055   9.967  65.114  1.00  0.00    -0.129 A  
HETATM    6  C   UNL     1      -8.022  10.570  65.923  1.00  0.00    -0.154 A  
HETATM    7  C   UNL     1      -8.766   9.787  66.813  1.00  0.00    -0.131 A  
HETATM    8  C   UNL     1      -7.575   7.820  66.070  1.00  0.00    -0.087 A  
HETATM    9  C   UNL     1      -8.547   8.411  66.887  1.00  0.00    -0.129 A  
ENDROOT
BRANCH   7  10
HETATM   10  S   UNL     1      -9.884  10.577  67.957  1.00  0.00    -0.150 S  
HETATM   11  O   UNL     1     -10.751   9.557  68.512  1.00  0.00    -0.218 OA 
HETATM   12  O   UNL     1      -9.072  11.405  68.824  1.00  0.00    -0.167 OA 
BRANCH  10  13
HETATM   13  N   UNL     1     -10.798  11.634  67.020  1.00  0.00    -0.252 N  
HETATM   14  H   UNL     1     -11.177  11.360  66.115  1.00  0.00     0.000 HD 
BRANCH  13  15
HETATM   15  C   UNL     1     -11.009  12.918  67.553  1.00  0.00    -0.255 A  
HETATM   16  C   UNL     1     -10.400  14.047  67.034  1.00  0.00    -0.267 A  
HETATM   17  C   UNL     1     -10.713  15.274  67.610  1.00  0.00    -0.282 A  
HETATM   18  C   UNL     1     -11.589  15.313  68.690  1.00  0.00    -0.370 A  
HETATM   19  C   UNL     1     -12.125  14.118  69.145  1.00  0.00    -0.325 A  
HETATM   20  N   UNL     1     -11.860  12.914  68.591  1.00  0.00    -0.319 NA 
ENDBRANCH  13  15
ENDBRANCH  10  13
ENDBRANCH   7  10
TORSDOF 3
ENDMDL
MODEL      229
REMARK 921   NORMALIZED FREE ENERGY PREDICTED BY IDOCK:   -2.89 KCAL/MOL
REMARK 922        TOTAL FREE ENERGY PREDICTED BY IDOCK:   -3.62 KCAL/MOL
REMARK 923 INTER-LIGAND FREE ENERGY PREDICTED BY IDOCK:   -3.42 KCAL/MOL
REMARK 924 INTRA-LIGAND FREE ENERGY PREDICTED BY IDOCK:   -0.19 KCAL/MOL
REMARK 927      BINDING AFFINITY PREDICTED BY RF-SCORE:    0.00 PKD
ROOT
HETATM    1  N   UNL     1     -11.275   5.976  66.706  1.00  0.00    -0.696 NA 
HETATM    2  H2  UNL     1     -10.561   5.464  66.189  1.00  0.00     0.000 HD 
HETATM    3  C   UNL     1     -10.679   6.545  67.835  1.00  0.00    -0.287 A  
HETATM    4  H1  UNL     1     -12.092   5.374  66.806  1.00  0.00     0.000 HD 
HETATM    5  C   UNL     1      -9.557   7.371  67.698  1.00  0.00    -0.164 A  
HETATM    6  C   UNL     1      -9.007   8.022  68.806  1.00  0.00    -0.141 A  
HETATM    7  C   UNL     1      -9.615   7.893  70.059  1.00  0.00    -0.168 A  
HETATM    8  C   UNL     1     -11.313   6.476  69.081  1.00  0.00    -0.330 A  
HETATM    9  C   UNL     1     -10.771   7.122  70.200  1.00  0.00    -0.260 A  
ENDROOT
BRANCH   7  10
HETATM   10  S   UNL     1      -8.824   8.589  71.498  1.00  0.00    -0.217 S  
HETATM   11  O   UNL     1      -8.192   9.832  71.103  1.00  0.00    -0.126 OA 
HETATM   12  O   UNL     1      -9.806   8.568  72.562  1.00  0.00    -0.290 OA 
BRANCH  10  13
HETATM   13  N   UNL     1      -7.640   7.476  71.932  1.00  0.00    -0.082 N  
HETATM   14  H   UNL     1      -6.653   7.730  71.974  1.00  0.00     0.000 HD 
BRANCH  13  15
HETATM   15  C   UNL     1      -8.084   6.177  72.232  1.00  0.00    -0.109 A  
HETATM   16  C   UNL     1      -8.042   5.146  71.309  1.00  0.00    -0.113 A  
HETATM   17  C   UNL     1      -8.466   3.887  71.724  1.00  0.00    -0.102 A  
HETATM   18  C   UNL     1      -8.938   3.725  73.023  1.00  0.00    -0.106 A  
HETATM   19  C   UNL     1      -8.958   4.831  73.859  1.00  0.00    -0.113 A  
HETATM   20  N   UNL     1      -8.530   6.059  73.493  1.00  0.00    -0.119 NA 
ENDBRANCH  13  15
ENDBRANCH  10  13
ENDBRANCH   7  10
TORSDOF 3
ENDMDL
MODEL      230
REMARK 921   NORMALIZED FREE ENERGY PREDICTED BY IDOCK:   -2.89 KCAL/MOL
REMARK 922        TOTAL FREE ENERGY PREDICTED BY IDOCK:   -3.61 KCAL/MOL
REMARK 923 INTER-LIGAND FREE ENERGY PREDICTED BY IDOCK:   -3.50 KCAL/MOL
REMARK 924 INTRA-LIGAND FREE ENERGY PREDICTED BY IDOCK:   -0.11 KCAL/MOL
REMARK 927      BINDING AFFINITY PREDICTED BY RF-SCORE:    0.00 PKD
ROOT
HETATM    1  N   UNL     1      -7.995   8.431  74.277  1.00  0.00    -0.342 NA 
HETATM    2  H2  UNL     1      -7.049   8.773  74.106  1.00  0.00     0.000 HD 
HETATM    3  C   UNL     1      -8.494   7.899  73.084  1.00  0.00    -0.186 A  
HETATM    4  H1  UNL     1      -8.513   9.157  74.772  1.00  0.00     0.000 HD 
HETATM    5  C   UNL     1      -7.782   6.904  72.405  1.00  0.00    -0.095 A  
HETATM    6  C   UNL     1      -8.312   6.296  71.263  1.00  0.00    -0.123 A  
HETATM    7  C   UNL     1      -9.593   6.646  70.823  1.00  0.00    -0.175 A  
HETATM    8  C   UNL     1      -9.798   8.192  72.670  1.00  0.00    -0.364 A  
HETATM    9  C   UNL     1     -10.341   7.592  71.526  1.00  0.00    -0.216 A  
ENDROOT
BRANCH   7  10
HETATM   10  S   UNL     1     -10.203   5.992  69.280  1.00  0.00    -0.232 S  
HETATM   11  O   UNL     1      -9.772   4.612  69.178  1.00  0.00    -0.165 OA 
HETATM   12  O   UNL     1     -11.610   6.330  69.214  1.00  0.00    -0.363 OA 
BRANCH  10  13
HETATM   13  N   UNL     1      -9.445   6.902  68.086  1.00  0.00    -0.123 N  
HETATM   14  H   UNL     1      -8.836   6.474  67.389  1.00  0.00     0.000 HD 
BRANCH  13  15
HETATM   15  C   UNL     1      -9.696   8.284  68.100  1.00  0.00    -0.158 A  
HETATM   16  C   UNL     1     -10.802   8.844  67.483  1.00  0.00    -0.108 A  
HETATM   17  C   UNL     1     -10.978  10.220  67.595  1.00  0.00    -0.356 A  
HETATM   18  C   UNL     1     -10.033  10.971  68.287  1.00  0.00    -0.190 A  
HETATM   19  C   UNL     1      -8.950  10.311  68.847  1.00  0.00    -0.164 A  
HETATM   20  N   UNL     1      -8.765   8.973  68.777  1.00  0.00    -0.135 NA 
ENDBRANCH  13  15
ENDBRANCH  10  13
ENDBRANCH   7  10
TORSDOF 3
ENDMDL
MODEL      231
REMARK 921   NORMALIZED FREE ENERGY PREDICTED BY IDOCK:   -2.84 KCAL/MOL
REMARK 922        TOTAL FREE ENERGY PREDICTED BY IDOCK:   -3.56 KCAL/MOL
REMARK 923 INTER-LIGAND FREE ENERGY PREDICTED BY IDOCK:   -3.35 KCAL/MOL
REMARK 924 INTRA-LIGAND FREE ENERGY PREDICTED BY IDOCK:   -0.21 KCAL/MOL
REMARK 927      BINDING AFFINITY PREDICTED BY RF-SCORE:    0.00 PKD
ROOT
HETATM    1  N   UNL     1      -7.742   6.948  63.357  1.00  0.00    -0.103 NA 
HETATM    2  H2  UNL     1      -8.124   6.039  63.619  1.00  0.00     0.000 HD 
HETATM    3  C   UNL     1      -8.028   7.858  64.380  1.00  0.00    -0.132 A  
HETATM    4  H1  UNL     1      -8.023   7.149  62.398  1.00  0.00     0.000 HD 
HETATM    5  C   UNL     1      -7.643   7.581  65.696  1.00  0.00    -0.091 A  
HETATM    6  C   UNL     1      -7.837   8.520  66.713  1.00  0.00    -0.091 A  
HETATM    7  C   UNL     1      -8.373   9.775  66.403  1.00  0.00    -0.120 A  
HETATM    8  C   UNL     1      -8.503   9.139  64.076  1.00  0.00    -0.195 A  
HETATM    9  C   UNL     1      -8.704  10.089  65.084  1.00  0.00    -0.183 A  
ENDROOT
BRANCH   7  10
HETATM   10  S   UNL     1      -8.770  10.912  67.720  1.00  0.00    -0.130 S  
HETATM   11  O   UNL     1      -8.618  10.209  68.978  1.00  0.00    -0.135 OA 
HETATM   12  O   UNL     1      -8.024  12.125  67.459  1.00  0.00    -0.142 OA 
BRANCH  10  13
HETATM   13  N   UNL     1     -10.391  11.301  67.491  1.00  0.00    -0.188 N  
HETATM   14  H   UNL     1     -10.835  11.238  66.576  1.00  0.00     0.000 HD 
BRANCH  13  15
HETATM   15  C   UNL     1     -11.100  11.716  68.631  1.00  0.00    -0.234 A  
HETATM   16  C   UNL     1     -11.146  13.040  69.035  1.00  0.00    -0.281 A  
HETATM   17  C   UNL     1     -11.913  13.349  70.154  1.00  0.00    -0.396 A  
HETATM   18  C   UNL     1     -12.569  12.326  70.831  1.00  0.00    -0.334 A  
HETATM   19  C   UNL     1     -12.436  11.031  70.353  1.00  0.00    -0.313 A  
HETATM   20  N   UNL     1     -11.719  10.703  69.255  1.00  0.00    -0.280 NA 
ENDBRANCH  13  15
ENDBRANCH  10  13
ENDBRANCH   7  10
TORSDOF 3
ENDMDL
MODEL      232
REMARK 921   NORMALIZED FREE ENERGY PREDICTED BY IDOCK:   -2.78 KCAL/MOL
REMARK 922        TOTAL FREE ENERGY PREDICTED BY IDOCK:   -3.49 KCAL/MOL
REMARK 923 INTER-LIGAND FREE ENERGY PREDICTED BY IDOCK:   -3.33 KCAL/MOL
REMARK 924 INTRA-LIGAND FREE ENERGY PREDICTED BY IDOCK:   -0.15 KCAL/MOL
REMARK 927      BINDING AFFINITY PREDICTED BY RF-SCORE:    0.00 PKD
ROOT
HETATM    1  N   UNL     1      -8.351   9.166  68.412  1.00  0.00    -0.119 NA 
HETATM    2  H2  UNL     1      -8.976   8.768  67.711  1.00  0.00     0.000 HD 
HETATM    3  C   UNL     1      -8.161  10.519  68.115  1.00  0.00    -0.114 A  
HETATM    4  H1  UNL     1      -7.549   8.546  68.516  1.00  0.00     0.000 HD 
HETATM    5  C   UNL     1      -9.262  11.370  67.972  1.00  0.00    -0.171 A  
HETATM    6  C   UNL     1      -9.087  12.742  67.768  1.00  0.00    -0.197 A  
HETATM    7  C   UNL     1      -7.796  13.282  67.762  1.00  0.00    -0.157 A  
HETATM    8  C   UNL     1      -6.881  11.082  68.169  1.00  0.00    -0.067 A  
HETATM    9  C   UNL     1      -6.690  12.455  67.965  1.00  0.00    -0.081 A  
ENDROOT
BRANCH   7  10
HETATM   10  S   UNL     1      -7.563  14.999  67.342  1.00  0.00    -0.199 S  
HETATM   11  O   UNL     1      -6.191  15.171  66.908  1.00  0.00    -0.070 OA 
HETATM   12  O   UNL     1      -8.661  15.366  66.473  1.00  0.00    -0.279 OA 
BRANCH  10  13
HETATM   13  N   UNL     1      -7.802  15.840  68.779  1.00  0.00    -0.166 N  
HETATM   14  H   UNL     1      -7.860  15.363  69.679  1.00  0.00     0.000 HD 
BRANCH  13  15
HETATM   15  C   UNL     1      -7.917  17.237  68.674  1.00  0.00    -0.267 A  
HETATM   16  C   UNL     1      -9.134  17.869  68.488  1.00  0.00    -0.289 A  
HETATM   17  C   UNL     1      -9.140  19.260  68.441  1.00  0.00    -0.408 A  
HETATM   18  C   UNL     1      -7.936  19.948  68.549  1.00  0.00    -0.220 A  
HETATM   19  C   UNL     1      -6.771  19.214  68.711  1.00  0.00    -0.296 A  
HETATM   20  N   UNL     1      -6.736  17.864  68.786  1.00  0.00    -0.231 NA 
ENDBRANCH  13  15
ENDBRANCH  10  13
ENDBRANCH   7  10
TORSDOF 3
ENDMDL
MODEL      233
REMARK 921   NORMALIZED FREE ENERGY PREDICTED BY IDOCK:   -2.77 KCAL/MOL
REMARK 922        TOTAL FREE ENERGY PREDICTED BY IDOCK:   -3.47 KCAL/MOL
REMARK 923 INTER-LIGAND FREE ENERGY PREDICTED BY IDOCK:   -3.26 KCAL/MOL
REMARK 924 INTRA-LIGAND FREE ENERGY PREDICTED BY IDOCK:   -0.20 KCAL/MOL
REMARK 927      BINDING AFFINITY PREDICTED BY RF-SCORE:    0.00 PKD
ROOT
HETATM    1  N   UNL     1      -7.122   7.264  62.523  1.00  0.00    -0.072 NA 
HETATM    2  H2  UNL     1      -7.122   6.281  62.794  1.00  0.00     0.000 HD 
HETATM    3  C   UNL     1      -7.540   8.023  63.621  1.00  0.00    -0.129 A  
HETATM    4  H1  UNL     1      -7.601   7.351  61.627  1.00  0.00     0.000 HD 
HETATM    5  C   UNL     1      -6.883   7.905  64.850  1.00  0.00    -0.054 A  
HETATM    6  C   UNL     1      -7.228   8.723  65.930  1.00  0.00    -0.084 A  
HETATM    7  C   UNL     1      -8.204   9.712  65.765  1.00  0.00    -0.120 A  
HETATM    8  C   UNL     1      -8.469   9.058  63.453  1.00  0.00    -0.176 A  
HETATM    9  C   UNL     1      -8.825   9.884  64.527  1.00  0.00    -0.238 A  
ENDROOT
BRANCH   7  10
HETATM   10  S   UNL     1      -8.758  10.646  67.180  1.00  0.00    -0.130 S  
HETATM   11  O   UNL     1      -7.935  10.272  68.313  1.00  0.00    -0.102 OA 
HETATM   12  O   UNL     1      -8.842  12.028  66.757  1.00  0.00    -0.191 OA 
BRANCH  10  13
HETATM   13  N   UNL     1     -10.340  10.142  67.450  1.00  0.00    -0.222 N  
HETATM   14  H   UNL     1     -11.134  10.768  67.318  1.00  0.00     0.000 HD 
BRANCH  13  15
HETATM   15  C   UNL     1     -10.508   8.810  67.867  1.00  0.00    -0.216 A  
HETATM   16  C   UNL     1     -10.476   8.441  69.201  1.00  0.00    -0.218 A  
HETATM   17  C   UNL     1     -10.697   7.102  69.507  1.00  0.00    -0.255 A  
HETATM   18  C   UNL     1     -10.908   6.195  68.473  1.00  0.00    -0.389 A  
HETATM   19  C   UNL     1     -10.898   6.669  67.170  1.00  0.00    -0.401 A  
HETATM   20  N   UNL     1     -10.711   7.967  66.843  1.00  0.00    -0.264 NA 
ENDBRANCH  13  15
ENDBRANCH  10  13
ENDBRANCH   7  10
TORSDOF 3
ENDMDL
MODEL      234
REMARK 921   NORMALIZED FREE ENERGY PREDICTED BY IDOCK:   -2.76 KCAL/MOL
REMARK 922        TOTAL FREE ENERGY PREDICTED BY IDOCK:   -3.47 KCAL/MOL
REMARK 923 INTER-LIGAND FREE ENERGY PREDICTED BY IDOCK:   -3.22 KCAL/MOL
REMARK 924 INTRA-LIGAND FREE ENERGY PREDICTED BY IDOCK:   -0.25 KCAL/MOL
REMARK 927      BINDING AFFINITY PREDICTED BY RF-SCORE:    0.00 PKD
ROOT
HETATM    1  N   UNL     1     -11.626   9.896  69.209  1.00  0.00    -0.460 NA 
HETATM    2  H2  UNL     1     -12.580  10.124  69.489  1.00  0.00     0.000 HD 
HETATM    3  C   UNL     1     -11.018   9.190  70.253  1.00  0.00    -0.245 A  
HETATM    4  H1  UNL     1     -11.190  10.739  68.838  1.00  0.00     0.000 HD 
HETATM    5  C   UNL     1     -11.617   8.033  70.762  1.00  0.00    -0.251 A  
HETATM    6  C   UNL     1     -10.977   7.266  71.740  1.00  0.00    -0.256 A  
HETATM    7  C   UNL     1      -9.697   7.626  72.175  1.00  0.00    -0.173 A  
HETATM    8  C   UNL     1      -9.713   9.502  70.652  1.00  0.00    -0.311 A  
HETATM    9  C   UNL     1      -9.061   8.743  71.631  1.00  0.00    -0.314 A  
ENDROOT
BRANCH   7  10
HETATM   10  S   UNL     1      -8.949   6.744  73.533  1.00  0.00    -0.140 S  
HETATM   11  O   UNL     1      -8.393   7.721  74.449  1.00  0.00    -0.218 OA 
HETATM   12  O   UNL     1      -9.928   5.780  73.991  1.00  0.00    -0.179 OA 
BRANCH  10  13
HETATM   13  N   UNL     1      -7.700   5.852  72.845  1.00  0.00    -0.099 N  
HETATM   14  H   UNL     1      -6.789   5.765  73.296  1.00  0.00     0.000 HD 
BRANCH  13  15
HETATM   15  C   UNL     1      -7.978   5.234  71.614  1.00  0.00    -0.115 A  
HETATM   16  C   UNL     1      -7.612   5.794  70.402  1.00  0.00    -0.090 A  
HETATM   17  C   UNL     1      -7.898   5.077  69.245  1.00  0.00    -0.076 A  
HETATM   18  C   UNL     1      -8.560   3.858  69.348  1.00  0.00    -0.111 A  
HETATM   19  C   UNL     1      -8.901   3.400  70.612  1.00  0.00    -0.082 A  
HETATM   20  N   UNL     1      -8.615   4.061  71.755  1.00  0.00    -0.098 NA 
ENDBRANCH  13  15
ENDBRANCH  10  13
ENDBRANCH   7  10
TORSDOF 3
ENDMDL
MODEL      235
REMARK 921   NORMALIZED FREE ENERGY PREDICTED BY IDOCK:   -2.76 KCAL/MOL
REMARK 922        TOTAL FREE ENERGY PREDICTED BY IDOCK:   -3.46 KCAL/MOL
REMARK 923 INTER-LIGAND FREE ENERGY PREDICTED BY IDOCK:   -3.23 KCAL/MOL
REMARK 924 INTRA-LIGAND FREE ENERGY PREDICTED BY IDOCK:   -0.23 KCAL/MOL
REMARK 927      BINDING AFFINITY PREDICTED BY RF-SCORE:    0.00 PKD
ROOT
HETATM    1  N   UNL     1      -7.174   8.470  73.677  1.00  0.00    -0.326 NA 
HETATM    2  H2  UNL     1      -6.358   9.082  73.656  1.00  0.00     0.000 HD 
HETATM    3  C   UNL     1      -7.697   8.389  72.382  1.00  0.00    -0.094 A  
HETATM    4  H1  UNL     1      -7.770   8.755  74.454  1.00  0.00     0.000 HD 
HETATM    5  C   UNL     1      -6.880   7.999  71.316  1.00  0.00    -0.048 A  
HETATM    6  C   UNL     1      -7.410   7.823  70.034  1.00  0.00    -0.075 A  
HETATM    7  C   UNL     1      -8.784   7.985  69.824  1.00  0.00    -0.136 A  
HETATM    8  C   UNL     1      -9.077   8.486  72.170  1.00  0.00    -0.319 A  
HETATM    9  C   UNL     1      -9.621   8.314  70.891  1.00  0.00    -0.196 A  
ENDROOT
BRANCH   7  10
HETATM   10  S   UNL     1      -9.433   7.919  68.164  1.00  0.00    -0.148 S  
HETATM   11  O   UNL     1      -9.234   6.576  67.659  1.00  0.00    -0.116 OA 
HETATM   12  O   UNL     1     -10.760   8.497  68.215  1.00  0.00    -0.154 OA 
BRANCH  10  13
HETATM   13  N   UNL     1      -8.489   8.993  67.279  1.00  0.00    -0.114 N  
HETATM   14  H   UNL     1      -7.475   8.895  67.220  1.00  0.00     0.000 HD 
BRANCH  13  15
HETATM   15  C   UNL     1      -9.171  10.032  66.624  1.00  0.00    -0.149 A  
HETATM   16  C   UNL     1      -9.410  11.257  67.223  1.00  0.00    -0.173 A  
HETATM   17  C   UNL     1     -10.057  12.231  66.470  1.00  0.00    -0.232 A  
HETATM   18  C   UNL     1     -10.460  11.930  65.173  1.00  0.00    -0.330 A  
HETATM   19  C   UNL     1     -10.190  10.662  64.678  1.00  0.00    -0.334 A  
HETATM   20  N   UNL     1      -9.542   9.704  65.376  1.00  0.00    -0.285 NA 
ENDBRANCH  13  15
ENDBRANCH  10  13
ENDBRANCH   7  10
TORSDOF 3
ENDMDL
MODEL      236
REMARK 921   NORMALIZED FREE ENERGY PREDICTED BY IDOCK:   -2.74 KCAL/MOL
REMARK 922        TOTAL FREE ENERGY PREDICTED BY IDOCK:   -3.44 KCAL/MOL
REMARK 923 INTER-LIGAND FREE ENERGY PREDICTED BY IDOCK:   -3.26 KCAL/MOL
REMARK 924 INTRA-LIGAND FREE ENERGY PREDICTED BY IDOCK:   -0.18 KCAL/MOL
REMARK 927      BINDING AFFINITY PREDICTED BY RF-SCORE:    0.00 PKD
ROOT
HETATM    1  N   UNL     1      -6.663   3.620  71.669  1.00  0.00    -0.025 NA 
HETATM    2  H2  UNL     1      -6.674   2.729  71.173  1.00  0.00     0.000 HD 
HETATM    3  C   UNL     1      -7.713   4.407  71.185  1.00  0.00    -0.068 A  
HETATM    4  H1  UNL     1      -5.709   3.978  71.665  1.00  0.00     0.000 HD 
HETATM    5  C   UNL     1      -9.022   3.915  71.190  1.00  0.00    -0.160 A  
HETATM    6  C   UNL     1     -10.093   4.722  70.797  1.00  0.00    -0.286 A  
HETATM    7  C   UNL     1      -9.862   6.057  70.446  1.00  0.00    -0.179 A  
HETATM    8  C   UNL     1      -7.505   5.760  70.892  1.00  0.00    -0.090 A  
HETATM    9  C   UNL     1      -8.569   6.580  70.495  1.00  0.00    -0.143 A  
ENDROOT
BRANCH   7  10
HETATM   10  S   UNL     1     -11.200   7.039  69.792  1.00  0.00    -0.179 S  
HETATM   11  O   UNL     1     -12.357   6.840  70.640  1.00  0.00    -0.359 OA 
HETATM   12  O   UNL     1     -10.668   8.368  69.571  1.00  0.00    -0.227 OA 
BRANCH  10  13
HETATM   13  N   UNL     1     -11.511   6.400  68.267  1.00  0.00    -0.527 N  
HETATM   14  H   UNL     1     -12.450   6.126  67.980  1.00  0.00     0.000 HD 
BRANCH  13  15
HETATM   15  C   UNL     1     -10.406   6.262  67.410  1.00  0.00    -0.211 A  
HETATM   16  C   UNL     1      -9.626   7.340  67.025  1.00  0.00    -0.213 A  
HETATM   17  C   UNL     1      -8.529   7.086  66.208  1.00  0.00    -0.134 A  
HETATM   18  C   UNL     1      -8.281   5.783  65.790  1.00  0.00    -0.125 A  
HETATM   19  C   UNL     1      -9.140   4.781  66.217  1.00  0.00    -0.122 A  
HETATM   20  N   UNL     1     -10.198   4.992  67.031  1.00  0.00    -0.213 NA 
ENDBRANCH  13  15
ENDBRANCH  10  13
ENDBRANCH   7  10
TORSDOF 3
ENDMDL
MODEL      237
REMARK 921   NORMALIZED FREE ENERGY PREDICTED BY IDOCK:   -2.71 KCAL/MOL
REMARK 922        TOTAL FREE ENERGY PREDICTED BY IDOCK:   -3.41 KCAL/MOL
REMARK 923 INTER-LIGAND FREE ENERGY PREDICTED BY IDOCK:   -3.27 KCAL/MOL
REMARK 924 INTRA-LIGAND FREE ENERGY PREDICTED BY IDOCK:   -0.14 KCAL/MOL
REMARK 927      BINDING AFFINITY PREDICTED BY RF-SCORE:    0.00 PKD
ROOT
HETATM    1  N   UNL     1      -6.059  11.585  70.530  1.00  0.00    -0.397 NA 
HETATM    2  H2  UNL     1      -5.853  12.584  70.501  1.00  0.00     0.000 HD 
HETATM    3  C   UNL     1      -6.999  11.300  69.535  1.00  0.00    -0.089 A  
HETATM    4  H1  UNL     1      -6.241  11.323  71.498  1.00  0.00     0.000 HD 
HETATM    5  C   UNL     1      -6.749  11.661  68.206  1.00  0.00    -0.064 A  
HETATM    6  C   UNL     1      -7.635  11.300  67.187  1.00  0.00    -0.137 A  
HETATM    7  C   UNL     1      -8.758  10.521  67.488  1.00  0.00    -0.125 A  
HETATM    8  C   UNL     1      -8.091  10.469  69.811  1.00  0.00     0.017 A  
HETATM    9  C   UNL     1      -8.988  10.102  68.799  1.00  0.00    -0.147 A  
ENDROOT
BRANCH   7  10
HETATM   10  S   UNL     1      -9.971  10.198  66.221  1.00  0.00    -0.246 S  
HETATM   11  O   UNL     1     -11.274  10.146  66.852  1.00  0.00    -0.075 OA 
HETATM   12  O   UNL     1      -9.709  11.135  65.148  1.00  0.00    -0.226 OA 
BRANCH  10  13
HETATM   13  N   UNL     1      -9.583   8.676  65.618  1.00  0.00    -0.453 N  
HETATM   14  H   UNL     1      -9.351   8.530  64.636  1.00  0.00     0.000 HD 
BRANCH  13  15
HETATM   15  C   UNL     1      -9.595   7.617  66.541  1.00  0.00    -0.186 A  
HETATM   16  C   UNL     1     -10.763   7.153  67.123  1.00  0.00    -0.422 A  
HETATM   17  C   UNL     1     -10.667   6.070  67.991  1.00  0.00    -0.359 A  
HETATM   18  C   UNL     1      -9.416   5.524  68.260  1.00  0.00    -0.137 A  
HETATM   19  C   UNL     1      -8.308   6.081  67.640  1.00  0.00    -0.108 A  
HETATM   20  N   UNL     1      -8.372   7.116  66.773  1.00  0.00    -0.113 NA 
ENDBRANCH  13  15
ENDBRANCH  10  13
ENDBRANCH   7  10
TORSDOF 3
ENDMDL
MODEL      238
REMARK 921   NORMALIZED FREE ENERGY PREDICTED BY IDOCK:   -2.71 KCAL/MOL
REMARK 922        TOTAL FREE ENERGY PREDICTED BY IDOCK:   -3.41 KCAL/MOL
REMARK 923 INTER-LIGAND FREE ENERGY PREDICTED BY IDOCK:   -3.25 KCAL/MOL
REMARK 924 INTRA-LIGAND FREE ENERGY PREDICTED BY IDOCK:   -0.16 KCAL/MOL
REMARK 927      BINDING AFFINITY PREDICTED BY RF-SCORE:    0.00 PKD
ROOT
HETATM    1  N   UNL     1      -7.540   4.030  72.741  1.00  0.00    -0.072 NA 
HETATM    2  H2  UNL     1      -7.273   4.587  73.553  1.00  0.00     0.000 HD 
HETATM    3  C   UNL     1      -8.226   4.858  71.846  1.00  0.00    -0.115 A  
HETATM    4  H1  UNL     1      -7.968   3.166  73.071  1.00  0.00     0.000 HD 
HETATM    5  C   UNL     1      -7.638   6.044  71.393  1.00  0.00    -0.099 A  
HETATM    6  C   UNL     1      -8.270   6.834  70.428  1.00  0.00    -0.125 A  
HETATM    7  C   UNL     1      -9.478   6.407  69.865  1.00  0.00    -0.154 A  
HETATM    8  C   UNL     1      -9.401   4.413  71.229  1.00  0.00    -0.210 A  
HETATM    9  C   UNL     1     -10.046   5.195  70.262  1.00  0.00    -0.338 A  
ENDROOT
BRANCH   7  10
HETATM   10  S   UNL     1     -10.363   7.487  68.756  1.00  0.00    -0.191 S  
HETATM   11  O   UNL     1     -10.978   6.669  67.730  1.00  0.00    -0.278 OA 
HETATM   12  O   UNL     1     -11.170   8.360  69.584  1.00  0.00    -0.080 OA 
BRANCH  10  13
HETATM   13  N   UNL     1      -9.184   8.463  68.058  1.00  0.00    -0.137 N  
HETATM   14  H   UNL     1      -8.190   8.289  68.198  1.00  0.00     0.000 HD 
BRANCH  13  15
HETATM   15  C   UNL     1      -9.644   9.533  67.271  1.00  0.00    -0.150 A  
HETATM   16  C   UNL     1      -9.970  10.765  67.810  1.00  0.00    -0.195 A  
HETATM   17  C   UNL     1     -10.374  11.769  66.935  1.00  0.00    -0.247 A  
HETATM   18  C   UNL     1     -10.464  11.487  65.575  1.00  0.00    -0.327 A  
HETATM   19  C   UNL     1     -10.135  10.211  65.145  1.00  0.00    -0.259 A  
HETATM   20  N   UNL     1      -9.715   9.224  65.967  1.00  0.00    -0.275 NA 
ENDBRANCH  13  15
ENDBRANCH  10  13
ENDBRANCH   7  10
TORSDOF 3
ENDMDL
MODEL      239
REMARK 921   NORMALIZED FREE ENERGY PREDICTED BY IDOCK:   -2.65 KCAL/MOL
REMARK 922        TOTAL FREE ENERGY PREDICTED BY IDOCK:   -3.34 KCAL/MOL
REMARK 923 INTER-LIGAND FREE ENERGY PREDICTED BY IDOCK:   -3.10 KCAL/MOL
REMARK 924 INTRA-LIGAND FREE ENERGY PREDICTED BY IDOCK:   -0.23 KCAL/MOL
REMARK 927      BINDING AFFINITY PREDICTED BY RF-SCORE:    0.00 PKD
ROOT
HETATM    1  N   UNL     1     -10.451  10.192  70.364  1.00  0.00    -0.412 NA 
HETATM    2  H2  UNL     1     -11.232  10.282  71.013  1.00  0.00     0.000 HD 
HETATM    3  C   UNL     1     -10.137   8.835  70.238  1.00  0.00    -0.191 A  
HETATM    4  H1  UNL     1      -9.731  10.862  70.632  1.00  0.00     0.000 HD 
HETATM    5  C   UNL     1     -11.124   7.915  69.870  1.00  0.00    -0.123 A  
HETATM    6  C   UNL     1     -10.806   6.571  69.650  1.00  0.00    -0.359 A  
HETATM    7  C   UNL     1      -9.475   6.150  69.744  1.00  0.00    -0.150 A  
HETATM    8  C   UNL     1      -8.802   8.412  70.266  1.00  0.00    -0.142 A  
HETATM    9  C   UNL     1      -8.470   7.068  70.049  1.00  0.00    -0.140 A  
ENDROOT
BRANCH   7  10
HETATM   10  S   UNL     1      -9.092   4.412  69.622  1.00  0.00    -0.128 S  
HETATM   11  O   UNL     1      -9.771   3.885  68.456  1.00  0.00    -0.137 OA 
HETATM   12  O   UNL     1      -7.654   4.295  69.752  1.00  0.00    -0.053 OA 
BRANCH  10  13
HETATM   13  N   UNL     1      -9.745   3.719  71.008  1.00  0.00    -0.185 N  
HETATM   14  H   UNL     1     -10.195   2.804  70.991  1.00  0.00     0.000 HD 
BRANCH  13  15
HETATM   15  C   UNL     1      -9.638   4.469  72.192  1.00  0.00    -0.153 A  
HETATM   16  C   UNL     1     -10.733   5.067  72.793  1.00  0.00    -0.292 A  
HETATM   17  C   UNL     1     -10.522   5.750  73.987  1.00  0.00    -0.286 A  
HETATM   18  C   UNL     1      -9.233   5.831  74.504  1.00  0.00    -0.138 A  
HETATM   19  C   UNL     1      -8.205   5.214  73.808  1.00  0.00    -0.109 A  
HETATM   20  N   UNL     1      -8.382   4.521  72.661  1.00  0.00    -0.108 NA 
ENDBRANCH  13  15
ENDBRANCH  10  13
ENDBRANCH   7  10
TORSDOF 3
ENDMDL
MODEL      240
REMARK 921   NORMALIZED FREE ENERGY PREDICTED BY IDOCK:   -2.65 KCAL/MOL
REMARK 922        TOTAL FREE ENERGY PREDICTED BY IDOCK:   -3.33 KCAL/MOL
REMARK 923 INTER-LIGAND FREE ENERGY PREDICTED BY IDOCK:   -3.46 KCAL/MOL
REMARK 924 INTRA-LIGAND FREE ENERGY PREDICTED BY IDOCK:    0.12 KCAL/MOL
REMARK 927      BINDING AFFINITY PREDICTED BY RF-SCORE:    0.00 PKD
ROOT
HETATM    1  N   UNL     1      -6.683   3.575  71.781  1.00  0.00    -0.025 NA 
HETATM    2  H2  UNL     1      -6.790   2.847  71.074  1.00  0.00     0.000 HD 
HETATM    3  C   UNL     1      -7.785   4.432  71.702  1.00  0.00    -0.078 A  
HETATM    4  H1  UNL     1      -5.736   3.948  71.716  1.00  0.00     0.000 HD 
HETATM    5  C   UNL     1      -9.083   3.920  71.791  1.00  0.00    -0.169 A  
HETATM    6  C   UNL     1     -10.191   4.772  71.807  1.00  0.00    -0.258 A  
HETATM    7  C   UNL     1      -9.999   6.159  71.791  1.00  0.00    -0.172 A  
HETATM    8  C   UNL     1      -7.606   5.820  71.750  1.00  0.00    -0.096 A  
HETATM    9  C   UNL     1      -8.707   6.686  71.765  1.00  0.00    -0.129 A  
ENDROOT
BRANCH   7  10
HETATM   10  S   UNL     1     -11.410   7.241  71.649  1.00  0.00    -0.264 S  
HETATM   11  O   UNL     1     -12.583   6.504  72.074  1.00  0.00    -0.319 OA 
HETATM   12  O   UNL     1     -11.045   8.483  72.297  1.00  0.00    -0.342 OA 
BRANCH  10  13
HETATM   13  N   UNL     1     -11.535   7.588  70.008  1.00  0.00    -0.478 N  
HETATM   14  H   UNL     1     -12.309   7.240  69.442  1.00  0.00     0.000 HD 
BRANCH  13  15
HETATM   15  C   UNL     1     -10.516   8.384  69.458  1.00  0.00    -0.224 A  
HETATM   16  C   UNL     1     -10.295   9.690  69.860  1.00  0.00    -0.282 A  
HETATM   17  C   UNL     1      -9.231  10.375  69.281  1.00  0.00    -0.198 A  
HETATM   18  C   UNL     1      -8.461   9.739  68.312  1.00  0.00    -0.114 A  
HETATM   19  C   UNL     1      -8.784   8.435  67.968  1.00  0.00    -0.139 A  
HETATM   20  N   UNL     1      -9.795   7.735  68.530  1.00  0.00    -0.167 NA 
ENDBRANCH  13  15
ENDBRANCH  10  13
ENDBRANCH   7  10
TORSDOF 3
ENDMDL
MODEL      241
REMARK 921   NORMALIZED FREE ENERGY PREDICTED BY IDOCK:   -2.61 KCAL/MOL
REMARK 922        TOTAL FREE ENERGY PREDICTED BY IDOCK:   -3.29 KCAL/MOL
REMARK 923 INTER-LIGAND FREE ENERGY PREDICTED BY IDOCK:   -3.07 KCAL/MOL
REMARK 924 INTRA-LIGAND FREE ENERGY PREDICTED BY IDOCK:   -0.22 KCAL/MOL
REMARK 927      BINDING AFFINITY PREDICTED BY RF-SCORE:    0.00 PKD
ROOT
HETATM    1  N   UNL     1      -5.943  12.444  69.915  1.00  0.00    -0.136 NA 
HETATM    2  H2  UNL     1      -6.416  13.291  69.600  1.00  0.00     0.000 HD 
HETATM    3  C   UNL     1      -6.711  11.341  69.529  1.00  0.00    -0.128 A  
HETATM    4  H1  UNL     1      -5.679  12.569  70.892  1.00  0.00     0.000 HD 
HETATM    5  C   UNL     1      -7.074  11.171  68.188  1.00  0.00    -0.071 A  
HETATM    6  C   UNL     1      -7.760  10.027  67.771  1.00  0.00    -0.090 A  
HETATM    7  C   UNL     1      -8.041   9.012  68.693  1.00  0.00    -0.107 A  
HETATM    8  C   UNL     1      -6.943  10.291  70.425  1.00  0.00    -0.081 A  
HETATM    9  C   UNL     1      -7.631   9.140  70.021  1.00  0.00    -0.080 A  
ENDROOT
BRANCH   7  10
HETATM   10  S   UNL     1      -9.055   7.630  68.199  1.00  0.00    -0.131 S  
HETATM   11  O   UNL     1      -8.637   7.221  66.873  1.00  0.00    -0.119 OA 
HETATM   12  O   UNL     1      -9.037   6.689  69.300  1.00  0.00    -0.138 OA 
BRANCH  10  13
HETATM   13  N   UNL     1     -10.622   8.237  68.128  1.00  0.00    -0.393 N  
HETATM   14  H   UNL     1     -11.192   8.156  67.286  1.00  0.00     0.000 HD 
BRANCH  13  15
HETATM   15  C   UNL     1     -11.104   8.863  69.290  1.00  0.00     0.092 A  
HETATM   16  C   UNL     1     -11.297  10.231  69.371  1.00  0.00    -0.279 A  
HETATM   17  C   UNL     1     -11.819  10.742  70.555  1.00  0.00    -0.453 A  
HETATM   18  C   UNL     1     -12.093   9.874  71.607  1.00  0.00    -0.457 A  
HETATM   19  C   UNL     1     -11.840   8.522  71.426  1.00  0.00    -0.296 A  
HETATM   20  N   UNL     1     -11.358   7.993  70.280  1.00  0.00    -0.201 NA 
ENDBRANCH  13  15
ENDBRANCH  10  13
ENDBRANCH   7  10
TORSDOF 3
ENDMDL
MODEL      242
REMARK 921   NORMALIZED FREE ENERGY PREDICTED BY IDOCK:   -2.61 KCAL/MOL
REMARK 922        TOTAL FREE ENERGY PREDICTED BY IDOCK:   -3.28 KCAL/MOL
REMARK 923 INTER-LIGAND FREE ENERGY PREDICTED BY IDOCK:   -2.93 KCAL/MOL
REMARK 924 INTRA-LIGAND FREE ENERGY PREDICTED BY IDOCK:   -0.35 KCAL/MOL
REMARK 927      BINDING AFFINITY PREDICTED BY RF-SCORE:    0.00 PKD
ROOT
HETATM    1  N   UNL     1     -10.913   9.221  67.379  1.00  0.00    -0.404 NA 
HETATM    2  H2  UNL     1     -10.480   9.689  66.583  1.00  0.00     0.000 HD 
HETATM    3  C   UNL     1     -10.320   7.963  67.527  1.00  0.00    -0.259 A  
HETATM    4  H1  UNL     1     -11.925   9.304  67.289  1.00  0.00     0.000 HD 
HETATM    5  C   UNL     1      -8.931   7.850  67.651  1.00  0.00    -0.133 A  
HETATM    6  C   UNL     1      -8.331   6.611  67.892  1.00  0.00    -0.119 A  
HETATM    7  C   UNL     1      -9.131   5.476  68.068  1.00  0.00    -0.108 A  
HETATM    8  C   UNL     1     -11.109   6.833  67.768  1.00  0.00    -0.285 A  
HETATM    9  C   UNL     1     -10.522   5.584  68.009  1.00  0.00    -0.240 A  
ENDROOT
BRANCH   7  10
HETATM   10  S   UNL     1      -8.365   3.873  68.215  1.00  0.00    -0.092 S  
HETATM   11  O   UNL     1      -9.405   2.869  68.119  1.00  0.00    -0.191 OA 
HETATM   12  O   UNL     1      -7.245   3.863  67.297  1.00  0.00    -0.065 OA 
BRANCH  10  13
HETATM   13  N   UNL     1      -7.702   3.841  69.761  1.00  0.00    -0.051 N  
HETATM   14  H   UNL     1      -6.781   3.443  69.943  1.00  0.00     0.000 HD 
BRANCH  13  15
HETATM   15  C   UNL     1      -8.486   4.394  70.788  1.00  0.00    -0.079 A  
HETATM   16  C   UNL     1      -9.642   3.787  71.247  1.00  0.00    -0.243 A  
HETATM   17  C   UNL     1     -10.320   4.397  72.299  1.00  0.00    -0.230 A  
HETATM   18  C   UNL     1      -9.832   5.592  72.818  1.00  0.00    -0.185 A  
HETATM   19  C   UNL     1      -8.676   6.125  72.267  1.00  0.00    -0.137 A  
HETATM   20  N   UNL     1      -7.983   5.543  71.264  1.00  0.00    -0.109 NA 
ENDBRANCH  13  15
ENDBRANCH  10  13
ENDBRANCH   7  10
TORSDOF 3
ENDMDL
MODEL      243
REMARK 921   NORMALIZED FREE ENERGY PREDICTED BY IDOCK:   -2.54 KCAL/MOL
REMARK 922        TOTAL FREE ENERGY PREDICTED BY IDOCK:   -3.20 KCAL/MOL
REMARK 923 INTER-LIGAND FREE ENERGY PREDICTED BY IDOCK:   -2.83 KCAL/MOL
REMARK 924 INTRA-LIGAND FREE ENERGY PREDICTED BY IDOCK:   -0.38 KCAL/MOL
REMARK 927      BINDING AFFINITY PREDICTED BY RF-SCORE:    0.00 PKD
ROOT
HETATM    1  N   UNL     1      -6.543  13.490  69.039  1.00  0.00    -0.106 NA 
HETATM    2  H2  UNL     1      -7.304  14.127  69.275  1.00  0.00     0.000 HD 
HETATM    3  C   UNL     1      -7.068  12.198  68.929  1.00  0.00    -0.098 A  
HETATM    4  H1  UNL     1      -5.762  13.675  69.668  1.00  0.00     0.000 HD 
HETATM    5  C   UNL     1      -8.139  11.944  68.066  1.00  0.00    -0.151 A  
HETATM    6  C   UNL     1      -8.613  10.643  67.875  1.00  0.00    -0.124 A  
HETATM    7  C   UNL     1      -7.974   9.572  68.511  1.00  0.00    -0.093 A  
HETATM    8  C   UNL     1      -6.400  11.112  69.507  1.00  0.00    -0.101 A  
HETATM    9  C   UNL     1      -6.865   9.803  69.326  1.00  0.00    -0.055 A  
ENDROOT
BRANCH   7  10
HETATM   10  S   UNL     1      -8.675   7.936  68.396  1.00  0.00    -0.130 S  
HETATM   11  O   UNL     1     -10.117   8.070  68.347  1.00  0.00    -0.184 OA 
HETATM   12  O   UNL     1      -7.962   7.254  67.337  1.00  0.00    -0.109 OA 
BRANCH  10  13
HETATM   13  N   UNL     1      -8.236   7.168  69.827  1.00  0.00    -0.129 N  
HETATM   14  H   UNL     1      -7.358   6.656  69.914  1.00  0.00     0.000 HD 
BRANCH  13  15
HETATM   15  C   UNL     1      -9.144   7.269  70.894  1.00  0.00    -0.151 A  
HETATM   16  C   UNL     1      -9.372   8.458  71.564  1.00  0.00    -0.263 A  
HETATM   17  C   UNL     1     -10.325   8.457  72.579  1.00  0.00    -0.371 A  
HETATM   18  C   UNL     1     -10.977   7.270  72.896  1.00  0.00    -0.381 A  
HETATM   19  C   UNL     1     -10.655   6.130  72.175  1.00  0.00    -0.209 A  
HETATM   20  N   UNL     1      -9.753   6.105  71.168  1.00  0.00    -0.175 NA 
ENDBRANCH  13  15
ENDBRANCH  10  13
ENDBRANCH   7  10
TORSDOF 3
ENDMDL
MODEL      244
REMARK 921   NORMALIZED FREE ENERGY PREDICTED BY IDOCK:   -2.48 KCAL/MOL
REMARK 922        TOTAL FREE ENERGY PREDICTED BY IDOCK:   -3.13 KCAL/MOL
REMARK 923 INTER-LIGAND FREE ENERGY PREDICTED BY IDOCK:   -3.00 KCAL/MOL
REMARK 924 INTRA-LIGAND FREE ENERGY PREDICTED BY IDOCK:   -0.13 KCAL/MOL
REMARK 927      BINDING AFFINITY PREDICTED BY RF-SCORE:    0.00 PKD
ROOT
HETATM    1  N   UNL     1      -5.740   6.878  64.373  1.00  0.00    -0.031 NA 
HETATM    2  H2  UNL     1      -4.823   7.243  64.634  1.00  0.00     0.000 HD 
HETATM    3  C   UNL     1      -6.684   7.896  64.542  1.00  0.00    -0.056 A  
HETATM    4  H1  UNL     1      -5.869   5.977  64.832  1.00  0.00     0.000 HD 
HETATM    5  C   UNL     1      -6.506   9.133  63.913  1.00  0.00    -0.089 A  
HETATM    6  C   UNL     1      -7.485  10.127  63.996  1.00  0.00    -0.117 A  
HETATM    7  C   UNL     1      -8.683   9.865  64.670  1.00  0.00    -0.194 A  
HETATM    8  C   UNL     1      -7.912   7.627  65.158  1.00  0.00    -0.130 A  
HETATM    9  C   UNL     1      -8.901   8.614  65.250  1.00  0.00    -0.178 A  
ENDROOT
BRANCH   7  10
HETATM   10  S   UNL     1      -9.862  11.181  64.914  1.00  0.00    -0.285 S  
HETATM   11  O   UNL     1      -9.125  12.422  65.044  1.00  0.00     0.381 OA 
HETATM   12  O   UNL     1     -10.872  11.029  63.887  1.00  0.00    -0.356 OA 
BRANCH  10  13
HETATM   13  N   UNL     1     -10.620  10.828  66.373  1.00  0.00    -0.232 N  
HETATM   14  H   UNL     1     -10.707   9.872  66.717  1.00  0.00     0.000 HD 
BRANCH  13  15
HETATM   15  C   UNL     1     -11.129  11.922  67.093  1.00  0.00    -0.293 A  
HETATM   16  C   UNL     1     -10.775  12.175  68.408  1.00  0.00    -0.252 A  
HETATM   17  C   UNL     1     -11.304  13.311  69.014  1.00  0.00    -0.334 A  
HETATM   18  C   UNL     1     -12.179  14.118  68.294  1.00  0.00    -0.196 A  
HETATM   19  C   UNL     1     -12.484  13.759  66.990  1.00  0.00    -0.103 A  
HETATM   20  N   UNL     1     -11.967  12.677  66.366  1.00  0.00    -0.540 NA 
ENDBRANCH  13  15
ENDBRANCH  10  13
ENDBRANCH   7  10
TORSDOF 3
ENDMDL
MODEL      245
REMARK 921   NORMALIZED FREE ENERGY PREDICTED BY IDOCK:   -2.46 KCAL/MOL
REMARK 922        TOTAL FREE ENERGY PREDICTED BY IDOCK:   -3.11 KCAL/MOL
REMARK 923 INTER-LIGAND FREE ENERGY PREDICTED BY IDOCK:   -3.04 KCAL/MOL
REMARK 924 INTRA-LIGAND FREE ENERGY PREDICTED BY IDOCK:   -0.07 KCAL/MOL
REMARK 927      BINDING AFFINITY PREDICTED BY RF-SCORE:    0.00 PKD
ROOT
HETATM    1  N   UNL     1      -6.010  12.036  70.973  1.00  0.00    -0.512 NA 
HETATM    2  H2  UNL     1      -6.222  12.940  70.549  1.00  0.00     0.000 HD 
HETATM    3  C   UNL     1      -6.527  11.031  70.149  1.00  0.00    -0.128 A  
HETATM    4  H1  UNL     1      -6.268  12.075  71.958  1.00  0.00     0.000 HD 
HETATM    5  C   UNL     1      -6.174  10.979  68.796  1.00  0.00    -0.044 A  
HETATM    6  C   UNL     1      -6.608   9.928  67.983  1.00  0.00    -0.060 A  
HETATM    7  C   UNL     1      -7.358   8.885  68.538  1.00  0.00    -0.081 A  
HETATM    8  C   UNL     1      -7.224   9.951  70.703  1.00  0.00    -0.035 A  
HETATM    9  C   UNL     1      -7.666   8.893  69.900  1.00  0.00    -0.076 A  
ENDROOT
BRANCH   7  10
HETATM   10  S   UNL     1      -8.046   7.632  67.473  1.00  0.00    -0.121 S  
HETATM   11  O   UNL     1      -7.715   7.976  66.105  1.00  0.00    -0.084 OA 
HETATM   12  O   UNL     1      -7.650   6.354  68.027  1.00  0.00    -0.098 OA 
BRANCH  10  13
HETATM   13  N   UNL     1      -9.711   7.738  67.686  1.00  0.00    -0.148 N  
HETATM   14  H   UNL     1     -10.298   6.907  67.764  1.00  0.00     0.000 HD 
BRANCH  13  15
HETATM   15  C   UNL     1     -10.252   9.034  67.749  1.00  0.00    -0.230 A  
HETATM   16  C   UNL     1     -10.344   9.854  66.638  1.00  0.00    -0.275 A  
HETATM   17  C   UNL     1     -10.936  11.103  66.803  1.00  0.00    -0.309 A  
HETATM   18  C   UNL     1     -11.376  11.483  68.067  1.00  0.00    -0.368 A  
HETATM   19  C   UNL     1     -11.214  10.591  69.116  1.00  0.00    -0.256 A  
HETATM   20  N   UNL     1     -10.667   9.363  68.982  1.00  0.00    -0.214 NA 
ENDBRANCH  13  15
ENDBRANCH  10  13
ENDBRANCH   7  10
TORSDOF 3
ENDMDL
MODEL      246
REMARK 921   NORMALIZED FREE ENERGY PREDICTED BY IDOCK:   -2.43 KCAL/MOL
REMARK 922        TOTAL FREE ENERGY PREDICTED BY IDOCK:   -3.08 KCAL/MOL
REMARK 923 INTER-LIGAND FREE ENERGY PREDICTED BY IDOCK:   -2.88 KCAL/MOL
REMARK 924 INTRA-LIGAND FREE ENERGY PREDICTED BY IDOCK:   -0.20 KCAL/MOL
REMARK 927      BINDING AFFINITY PREDICTED BY RF-SCORE:    0.00 PKD
ROOT
HETATM    1  N   UNL     1     -11.186   9.274  69.530  1.00  0.00    -0.434 NA 
HETATM    2  H2  UNL     1     -11.985   9.520  70.114  1.00  0.00     0.000 HD 
HETATM    3  C   UNL     1     -10.587   8.128  70.063  1.00  0.00    -0.239 A  
HETATM    4  H1  UNL     1     -10.632  10.116  69.372  1.00  0.00     0.000 HD 
HETATM    5  C   UNL     1     -11.346   6.974  70.281  1.00  0.00    -0.339 A  
HETATM    6  C   UNL     1     -10.744   5.792  70.724  1.00  0.00    -0.342 A  
HETATM    7  C   UNL     1      -9.356   5.746  70.901  1.00  0.00    -0.160 A  
HETATM    8  C   UNL     1      -9.194   8.048  70.183  1.00  0.00    -0.152 A  
HETATM    9  C   UNL     1      -8.578   6.872  70.628  1.00  0.00    -0.141 A  
ENDROOT
BRANCH   7  10
HETATM   10  S   UNL     1      -8.609   4.295  71.618  1.00  0.00    -0.110 S  
HETATM   11  O   UNL     1      -7.685   4.730  72.646  1.00  0.00    -0.088 OA 
HETATM   12  O   UNL     1      -9.691   3.386  71.938  1.00  0.00    -0.146 OA 
BRANCH  10  13
HETATM   13  N   UNL     1      -7.749   3.576  70.364  1.00  0.00    -0.044 N  
HETATM   14  H   UNL     1      -6.930   2.993  70.539  1.00  0.00     0.000 HD 
BRANCH  13  15
HETATM   15  C   UNL     1      -8.219   3.821  69.063  1.00  0.00    -0.064 A  
HETATM   16  C   UNL     1      -9.388   3.260  68.578  1.00  0.00    -0.237 A  
HETATM   17  C   UNL     1      -9.785   3.605  67.290  1.00  0.00    -0.104 A  
HETATM   18  C   UNL     1      -8.987   4.462  66.540  1.00  0.00    -0.117 A  
HETATM   19  C   UNL     1      -7.823   4.949  67.116  1.00  0.00    -0.095 A  
HETATM   20  N   UNL     1      -7.424   4.653  68.373  1.00  0.00    -0.065 NA 
ENDBRANCH  13  15
ENDBRANCH  10  13
ENDBRANCH   7  10
TORSDOF 3
ENDMDL
MODEL      247
REMARK 921   NORMALIZED FREE ENERGY PREDICTED BY IDOCK:   -2.38 KCAL/MOL
REMARK 922        TOTAL FREE ENERGY PREDICTED BY IDOCK:   -3.01 KCAL/MOL
REMARK 923 INTER-LIGAND FREE ENERGY PREDICTED BY IDOCK:   -2.76 KCAL/MOL
REMARK 924 INTRA-LIGAND FREE ENERGY PREDICTED BY IDOCK:   -0.25 KCAL/MOL
REMARK 927      BINDING AFFINITY PREDICTED BY RF-SCORE:    0.00 PKD
ROOT
HETATM    1  N   UNL     1      -6.261  11.510  70.415  1.00  0.00    -0.413 NA 
HETATM    2  H2  UNL     1      -6.065  12.408  70.857  1.00  0.00     0.000 HD 
HETATM    3  C   UNL     1      -7.378  11.660  69.587  1.00  0.00     0.312 A  
HETATM    4  H1  UNL     1      -6.251  10.789  71.136  1.00  0.00     0.000 HD 
HETATM    5  C   UNL     1      -7.392  12.650  68.598  1.00  0.00    -0.101 A  
HETATM    6  C   UNL     1      -8.460  12.752  67.702  1.00  0.00    -0.178 A  
HETATM    7  C   UNL     1      -9.503  11.820  67.757  1.00  0.00    -0.181 A  
HETATM    8  C   UNL     1      -8.395  10.699  69.589  1.00  0.00     0.075 A  
HETATM    9  C   UNL     1      -9.472  10.790  68.698  1.00  0.00    -0.188 A  
ENDROOT
BRANCH   7  10
HETATM   10  S   UNL     1     -10.939  12.045  66.724  1.00  0.00    -0.300 S  
HETATM   11  O   UNL     1     -12.116  11.905  67.558  1.00  0.00    -0.573 OA 
HETATM   12  O   UNL     1     -10.717  13.256  65.962  1.00  0.00    -0.273 OA 
BRANCH  10  13
HETATM   13  N   UNL     1     -10.888  10.780  65.616  1.00  0.00    -0.070 N  
HETATM   14  H   UNL     1     -11.581  10.031  65.623  1.00  0.00     0.000 HD 
BRANCH  13  15
HETATM   15  C   UNL     1      -9.839  10.809  64.682  1.00  0.00    -0.307 A  
HETATM   16  C   UNL     1      -8.648  10.133  64.882  1.00  0.00    -0.188 A  
HETATM   17  C   UNL     1      -7.691  10.194  63.873  1.00  0.00    -0.140 A  
HETATM   18  C   UNL     1      -7.955  10.947  62.733  1.00  0.00    -0.027 A  
HETATM   19  C   UNL     1      -9.173  11.604  62.646  1.00  0.00     0.135 A  
HETATM   20  N   UNL     1     -10.131  11.544  63.597  1.00  0.00    -0.347 NA 
ENDBRANCH  13  15
ENDBRANCH  10  13
ENDBRANCH   7  10
TORSDOF 3
ENDMDL
MODEL      248
REMARK 921   NORMALIZED FREE ENERGY PREDICTED BY IDOCK:   -2.31 KCAL/MOL
REMARK 922        TOTAL FREE ENERGY PREDICTED BY IDOCK:   -2.93 KCAL/MOL
REMARK 923 INTER-LIGAND FREE ENERGY PREDICTED BY IDOCK:   -2.74 KCAL/MOL
REMARK 924 INTRA-LIGAND FREE ENERGY PREDICTED BY IDOCK:   -0.20 KCAL/MOL
REMARK 927      BINDING AFFINITY PREDICTED BY RF-SCORE:    0.00 PKD
ROOT
HETATM    1  N   UNL     1      -8.663  17.778  67.508  1.00  0.00    -0.237 NA 
HETATM    2  H2  UNL     1      -9.154  18.118  68.335  1.00  0.00     0.000 HD 
HETATM    3  C   UNL     1      -8.768  16.383  67.476  1.00  0.00    -0.178 A  
HETATM    4  H1  UNL     1      -7.747  18.224  67.471  1.00  0.00     0.000 HD 
HETATM    5  C   UNL     1     -10.025  15.771  67.526  1.00  0.00    -0.236 A  
HETATM    6  C   UNL     1     -10.152  14.384  67.401  1.00  0.00    -0.243 A  
HETATM    7  C   UNL     1      -9.015  13.602  67.167  1.00  0.00    -0.231 A  
HETATM    8  C   UNL     1      -7.649  15.596  67.179  1.00  0.00    -0.258 A  
HETATM    9  C   UNL     1      -7.762  14.206  67.053  1.00  0.00     0.128 A  
ENDROOT
BRANCH   7  10
HETATM   10  S   UNL     1      -9.155  11.824  67.169  1.00  0.00    -0.180 S  
HETATM   11  O   UNL     1      -9.212  11.382  68.548  1.00  0.00    -0.178 OA 
HETATM   12  O   UNL     1     -10.218  11.491  66.245  1.00  0.00    -0.217 OA 
BRANCH  10  13
HETATM   13  N   UNL     1      -7.731  11.270  66.465  1.00  0.00    -0.226 N  
HETATM   14  H   UNL     1      -6.919  11.875  66.346  1.00  0.00     0.000 HD 
BRANCH  13  15
HETATM   15  C   UNL     1      -7.722   9.928  66.048  1.00  0.00    -0.108 A  
HETATM   16  C   UNL     1      -7.479   8.881  66.921  1.00  0.00    -0.083 A  
HETATM   17  C   UNL     1      -7.536   7.587  66.412  1.00  0.00    -0.084 A  
HETATM   18  C   UNL     1      -7.800   7.401  65.059  1.00  0.00    -0.124 A  
HETATM   19  C   UNL     1      -8.007   8.522  64.269  1.00  0.00    -0.149 A  
HETATM   20  N   UNL     1      -7.983   9.789  64.739  1.00  0.00    -0.131 NA 
ENDBRANCH  13  15
ENDBRANCH  10  13
ENDBRANCH   7  10
TORSDOF 3
ENDMDL
MODEL      249
REMARK 921   NORMALIZED FREE ENERGY PREDICTED BY IDOCK:   -2.23 KCAL/MOL
REMARK 922        TOTAL FREE ENERGY PREDICTED BY IDOCK:   -2.84 KCAL/MOL
REMARK 923 INTER-LIGAND FREE ENERGY PREDICTED BY IDOCK:   -2.64 KCAL/MOL
REMARK 924 INTRA-LIGAND FREE ENERGY PREDICTED BY IDOCK:   -0.20 KCAL/MOL
REMARK 927      BINDING AFFINITY PREDICTED BY RF-SCORE:    0.00 PKD
ROOT
HETATM    1  N   UNL     1      -7.009   3.443  71.520  1.00  0.00    -0.031 NA 
HETATM    2  H2  UNL     1      -6.192   4.028  71.691  1.00  0.00     0.000 HD 
HETATM    3  C   UNL     1      -7.724   3.986  70.447  1.00  0.00    -0.045 A  
HETATM    4  H1  UNL     1      -7.474   3.272  72.411  1.00  0.00     0.000 HD 
HETATM    5  C   UNL     1      -7.086   4.220  69.224  1.00  0.00    -0.050 A  
HETATM    6  C   UNL     1      -7.807   4.674  68.115  1.00  0.00    -0.081 A  
HETATM    7  C   UNL     1      -9.193   4.843  68.211  1.00  0.00    -0.123 A  
HETATM    8  C   UNL     1      -9.117   4.099  70.510  1.00  0.00    -0.176 A  
HETATM    9  C   UNL     1      -9.852   4.554  69.407  1.00  0.00    -0.260 A  
ENDROOT
BRANCH   7  10
HETATM   10  S   UNL     1     -10.087   5.573  66.852  1.00  0.00    -0.228 S  
HETATM   11  O   UNL     1     -11.173   6.360  67.402  1.00  0.00    -0.352 OA 
HETATM   12  O   UNL     1      -9.099   6.185  65.987  1.00  0.00    -0.156 OA 
BRANCH  10  13
HETATM   13  N   UNL     1     -10.720   4.273  65.993  1.00  0.00    -0.401 N  
HETATM   14  H   UNL     1     -11.555   3.778  66.305  1.00  0.00     0.000 HD 
BRANCH  13  15
HETATM   15  C   UNL     1     -10.037   3.907  64.821  1.00  0.00    -0.198 A  
HETATM   16  C   UNL     1      -8.764   3.363  64.843  1.00  0.00    -0.112 A  
HETATM   17  C   UNL     1      -8.196   2.995  63.627  1.00  0.00    -0.086 A  
HETATM   18  C   UNL     1      -8.908   3.213  62.452  1.00  0.00    -0.081 A  
HETATM   19  C   UNL     1     -10.168   3.786  62.543  1.00  0.00    -0.173 A  
HETATM   20  N   UNL     1     -10.756   4.130  63.710  1.00  0.00    -0.090 NA 
ENDBRANCH  13  15
ENDBRANCH  10  13
ENDBRANCH   7  10
TORSDOF 3
ENDMDL
MODEL      250
REMARK 921   NORMALIZED FREE ENERGY PREDICTED BY IDOCK:   -2.20 KCAL/MOL
REMARK 922        TOTAL FREE ENERGY PREDICTED BY IDOCK:   -2.81 KCAL/MOL
REMARK 923 INTER-LIGAND FREE ENERGY PREDICTED BY IDOCK:   -3.12 KCAL/MOL
REMARK 924 INTRA-LIGAND FREE ENERGY PREDICTED BY IDOCK:    0.31 KCAL/MOL
REMARK 927      BINDING AFFINITY PREDICTED BY RF-SCORE:    0.00 PKD
ROOT
HETATM    1  N   UNL     1      -7.445  15.978  68.693  1.00  0.00    -0.156 NA 
HETATM    2  H2  UNL     1      -8.160  16.671  68.916  1.00  0.00     0.000 HD 
HETATM    3  C   UNL     1      -8.075  14.853  68.151  1.00  0.00    -0.137 A  
HETATM    4  H1  UNL     1      -6.829  15.883  69.500  1.00  0.00     0.000 HD 
HETATM    5  C   UNL     1      -8.920  14.985  67.045  1.00  0.00    -0.255 A  
HETATM    6  C   UNL     1      -9.483  13.859  66.434  1.00  0.00    -0.268 A  
HETATM    7  C   UNL     1      -9.153  12.581  66.900  1.00  0.00    -0.213 A  
HETATM    8  C   UNL     1      -7.705  13.568  68.565  1.00  0.00    -0.125 A  
HETATM    9  C   UNL     1      -8.262  12.432  67.963  1.00  0.00    -0.168 A  
ENDROOT
BRANCH   7  10
HETATM   10  S   UNL     1      -9.992  11.157  66.229  1.00  0.00    -0.228 S  
HETATM   11  O   UNL     1      -9.874  11.208  64.785  1.00  0.00    -0.242 OA 
HETATM   12  O   UNL     1      -9.511  10.008  66.967  1.00  0.00    -0.157 OA 
BRANCH  10  13
HETATM   13  N   UNL     1     -11.605  11.351  66.663  1.00  0.00    -0.053 N  
HETATM   14  H   UNL     1     -12.354  11.329  65.971  1.00  0.00     0.000 HD 
BRANCH  13  15
HETATM   15  C   UNL     1     -11.865  11.546  68.030  1.00  0.00    -0.217 A  
HETATM   16  C   UNL     1     -12.322  10.528  68.851  1.00  0.00     0.467 A  
HETATM   17  C   UNL     1     -12.506  10.818  70.199  1.00  0.00    -0.357 A  
HETATM   18  C   UNL     1     -12.257  12.108  70.656  1.00  0.00    -0.392 A  
HETATM   19  C   UNL     1     -11.824  13.057  69.743  1.00  0.00    -0.311 A  
HETATM   20  N   UNL     1     -11.612  12.800  68.433  1.00  0.00    -0.303 NA 
ENDBRANCH  13  15
ENDBRANCH  10  13
ENDBRANCH   7  10
TORSDOF 3
ENDMDL
MODEL      251
REMARK 921   NORMALIZED FREE ENERGY PREDICTED BY IDOCK:   -2.20 KCAL/MOL
REMARK 922        TOTAL FREE ENERGY PREDICTED BY IDOCK:   -2.80 KCAL/MOL
REMARK 923 INTER-LIGAND FREE ENERGY PREDICTED BY IDOCK:   -2.49 KCAL/MOL
REMARK 924 INTRA-LIGAND FREE ENERGY PREDICTED BY IDOCK:   -0.31 KCAL/MOL
REMARK 927      BINDING AFFINITY PREDICTED BY RF-SCORE:    0.00 PKD
ROOT
HETATM    1  N   UNL     1      -9.657   9.721  70.274  1.00  0.00    -0.330 NA 
HETATM    2  H2  UNL     1     -10.251   9.263  70.966  1.00  0.00     0.000 HD 
HETATM    3  C   UNL     1      -9.250   8.763  69.340  1.00  0.00    -0.146 A  
HETATM    4  H1  UNL     1      -8.965  10.284  70.767  1.00  0.00     0.000 HD 
HETATM    5  C   UNL     1     -10.200   7.990  68.664  1.00  0.00    -0.225 A  
HETATM    6  C   UNL     1      -9.814   7.095  67.662  1.00  0.00    -0.183 A  
HETATM    7  C   UNL     1      -8.468   7.009  67.290  1.00  0.00    -0.121 A  
HETATM    8  C   UNL     1      -7.917   8.712  68.914  1.00  0.00    -0.113 A  
HETATM    9  C   UNL     1      -7.517   7.819  67.912  1.00  0.00    -0.104 A  
ENDROOT
BRANCH   7  10
HETATM   10  S   UNL     1      -7.954   5.757  66.128  1.00  0.00    -0.105 S  
HETATM   11  O   UNL     1      -8.125   6.290  64.792  1.00  0.00    -0.130 OA 
HETATM   12  O   UNL     1      -6.659   5.286  66.573  1.00  0.00    -0.049 OA 
BRANCH  10  13
HETATM   13  N   UNL     1      -9.021   4.478  66.359  1.00  0.00    -0.112 N  
HETATM   14  H   UNL     1      -9.429   4.275  67.271  1.00  0.00     0.000 HD 
BRANCH  13  15
HETATM   15  C   UNL     1      -9.321   3.703  65.226  1.00  0.00    -0.158 A  
HETATM   16  C   UNL     1      -8.453   2.744  64.731  1.00  0.00    -0.089 A  
HETATM   17  C   UNL     1      -8.868   2.002  63.629  1.00  0.00    -0.089 A  
HETATM   18  C   UNL     1     -10.107   2.272  63.057  1.00  0.00    -0.113 A  
HETATM   19  C   UNL     1     -10.888   3.270  63.620  1.00  0.00    -0.191 A  
HETATM   20  N   UNL     1     -10.524   3.990  64.704  1.00  0.00    -0.233 NA 
ENDBRANCH  13  15
ENDBRANCH  10  13
ENDBRANCH   7  10
TORSDOF 3
ENDMDL
MODEL      252
REMARK 921   NORMALIZED FREE ENERGY PREDICTED BY IDOCK:   -1.34 KCAL/MOL
REMARK 922        TOTAL FREE ENERGY PREDICTED BY IDOCK:   -1.79 KCAL/MOL
REMARK 923 INTER-LIGAND FREE ENERGY PREDICTED BY IDOCK:   -1.49 KCAL/MOL
REMARK 924 INTRA-LIGAND FREE ENERGY PREDICTED BY IDOCK:   -0.30 KCAL/MOL
REMARK 927      BINDING AFFINITY PREDICTED BY RF-SCORE:    0.00 PKD
ROOT
HETATM    1  N   UNL     1      -6.036  13.688  71.450  1.00  0.00    -0.567 NA 
HETATM    2  H2  UNL     1      -6.122  13.089  72.271  1.00  0.00     0.000 HD 
HETATM    3  C   UNL     1      -6.043  12.877  70.310  1.00  0.00    -0.068 A  
HETATM    4  H1  UNL     1      -5.271  14.343  71.609  1.00  0.00     0.000 HD 
HETATM    5  C   UNL     1      -7.092  11.978  70.093  1.00  0.00     1.073 A  
HETATM    6  C   UNL     1      -7.161  11.228  68.914  1.00  0.00    -0.112 A  
HETATM    7  C   UNL     1      -6.201  11.419  67.914  1.00  0.00    -0.051 A  
HETATM    8  C   UNL     1      -5.127  13.103  69.276  1.00  0.00    -0.074 A  
HETATM    9  C   UNL     1      -5.183  12.358  68.091  1.00  0.00    -0.065 A  
ENDROOT
BRANCH   7  10
HETATM   10  S   UNL     1      -6.195  10.353  66.485  1.00  0.00    -0.086 S  
HETATM   11  O   UNL     1      -5.870  11.160  65.326  1.00  0.00    -0.033 OA 
HETATM   12  O   UNL     1      -5.387   9.202  66.830  1.00  0.00    -0.038 OA 
BRANCH  10  13
HETATM   13  N   UNL     1      -7.775   9.792  66.348  1.00  0.00    -0.101 N  
HETATM   14  H   UNL     1      -8.239   9.299  67.111  1.00  0.00     0.000 HD 
BRANCH  13  15
HETATM   15  C   UNL     1      -8.421  10.037  65.124  1.00  0.00    -0.153 A  
HETATM   16  C   UNL     1      -9.241  11.135  64.925  1.00  0.00    -0.175 A  
HETATM   17  C   UNL     1      -9.797  11.307  63.661  1.00  0.00    -0.377 A  
HETATM   18  C   UNL     1      -9.536  10.365  62.671  1.00  0.00    -0.324 A  
HETATM   19  C   UNL     1      -8.718   9.290  62.985  1.00  0.00    -0.196 A  
HETATM   20  N   UNL     1      -8.143   9.110  64.195  1.00  0.00    -0.141 NA 
ENDBRANCH  13  15
ENDBRANCH  10  13
ENDBRANCH   7  10
TORSDOF 3
ENDMDL
MODEL      253
REMARK 921   NORMALIZED FREE ENERGY PREDICTED BY IDOCK:    1.02 KCAL/MOL
REMARK 922        TOTAL FREE ENERGY PREDICTED BY IDOCK:    0.98 KCAL/MOL
REMARK 923 INTER-LIGAND FREE ENERGY PREDICTED BY IDOCK:    0.62 KCAL/MOL
REMARK 924 INTRA-LIGAND FREE ENERGY PREDICTED BY IDOCK:    0.36 KCAL/MOL
REMARK 927      BINDING AFFINITY PREDICTED BY RF-SCORE:    0.00 PKD
ROOT
HETATM    1  N   UNL     1      -6.236  13.881  71.845  1.00  0.00    -0.411 NA 
HETATM    2  H2  UNL     1      -6.357  13.318  72.687  1.00  0.00     0.000 HD 
HETATM    3  C   UNL     1      -6.148  13.020  70.747  1.00  0.00     0.178 A  
HETATM    4  H1  UNL     1      -5.500  14.565  72.020  1.00  0.00     0.000 HD 
HETATM    5  C   UNL     1      -7.157  12.081  70.506  1.00  0.00     2.139 A  
HETATM    6  C   UNL     1      -7.131  11.278  69.363  1.00  0.00    -0.090 A  
HETATM    7  C   UNL     1      -6.115  11.451  68.417  1.00  0.00    -0.045 A  
HETATM    8  C   UNL     1      -5.174  13.225  69.762  1.00  0.00    -0.085 A  
HETATM    9  C   UNL     1      -5.136  12.426  68.612  1.00  0.00    -0.051 A  
ENDROOT
BRANCH   7  10
HETATM   10  S   UNL     1      -5.990  10.322  67.042  1.00  0.00    -0.052 S  
HETATM   11  O   UNL     1      -5.360  11.024  65.942  1.00  0.00    -0.128 OA 
HETATM   12  O   UNL     1      -5.413   9.099  67.561  1.00  0.00    -0.037 OA 
BRANCH  10  13
HETATM   13  N   UNL     1      -7.578   9.953  66.629  1.00  0.00    -0.102 N  
HETATM   14  H   UNL     1      -8.154  10.592  66.082  1.00  0.00     0.000 HD 
BRANCH  13  15
HETATM   15  C   UNL     1      -8.069   8.715  67.080  1.00  0.00    -0.100 A  
HETATM   16  C   UNL     1      -9.210   8.608  67.856  1.00  0.00    -0.148 A  
HETATM   17  C   UNL     1      -9.633   7.330  68.212  1.00  0.00    -0.150 A  
HETATM   18  C   UNL     1      -8.885   6.230  67.805  1.00  0.00    -0.111 A  
HETATM   19  C   UNL     1      -7.745   6.454  67.048  1.00  0.00    -0.100 A  
HETATM   20  N   UNL     1      -7.323   7.679  66.666  1.00  0.00    -0.086 NA 
ENDBRANCH  13  15
ENDBRANCH  10  13
ENDBRANCH   7  10
TORSDOF 3
ENDMDL
MODEL      254
REMARK 921   NORMALIZED FREE ENERGY PREDICTED BY IDOCK:    1.09 KCAL/MOL
REMARK 922        TOTAL FREE ENERGY PREDICTED BY IDOCK:    1.06 KCAL/MOL
REMARK 923 INTER-LIGAND FREE ENERGY PREDICTED BY IDOCK:   -1.31 KCAL/MOL
REMARK 924 INTRA-LIGAND FREE ENERGY PREDICTED BY IDOCK:    2.37 KCAL/MOL
REMARK 927      BINDING AFFINITY PREDICTED BY RF-SCORE:    0.00 PKD
ROOT
HETATM    1  N   UNL     1      -6.036  13.688  71.450  1.00  0.00    -0.567 NA 
HETATM    2  H2  UNL     1      -6.122  13.089  72.271  1.00  0.00     0.000 HD 
HETATM    3  C   UNL     1      -6.043  12.877  70.310  1.00  0.00    -0.068 A  
HETATM    4  H1  UNL     1      -5.271  14.343  71.609  1.00  0.00     0.000 HD 
HETATM    5  C   UNL     1      -7.092  11.978  70.093  1.00  0.00     1.073 A  
HETATM    6  C   UNL     1      -7.161  11.228  68.914  1.00  0.00    -0.112 A  
HETATM    7  C   UNL     1      -6.201  11.419  67.914  1.00  0.00    -0.051 A  
HETATM    8  C   UNL     1      -5.127  13.103  69.276  1.00  0.00    -0.074 A  
HETATM    9  C   UNL     1      -5.183  12.358  68.091  1.00  0.00    -0.065 A  
ENDROOT
BRANCH   7  10
HETATM   10  S   UNL     1      -6.195  10.353  66.485  1.00  0.00    -0.086 S  
HETATM   11  O   UNL     1      -5.870  11.160  65.326  1.00  0.00    -0.033 OA 
HETATM   12  O   UNL     1      -5.387   9.202  66.830  1.00  0.00    -0.038 OA 
BRANCH  10  13
HETATM   13  N   UNL     1      -7.775   9.792  66.348  1.00  0.00    -0.101 N  
HETATM   14  H   UNL     1      -7.984   8.848  66.022  1.00  0.00     0.000 HD 
BRANCH  13  15
HETATM   15  C   UNL     1      -8.792  10.693  66.705  1.00  0.00    -0.141 A  
HETATM   16  C   UNL     1      -9.356  10.713  67.969  1.00  0.00    -0.151 A  
HETATM   17  C   UNL     1     -10.326  11.676  68.230  1.00  0.00    -0.212 A  
HETATM   18  C   UNL     1     -10.707  12.548  67.215  1.00  0.00    -0.259 A  
HETATM   19  C   UNL     1     -10.092  12.426  65.978  1.00  0.00    -0.251 A  
HETATM   20  N   UNL     1      -9.130  11.518  65.702  1.00  0.00    -0.173 NA 
ENDBRANCH  13  15
ENDBRANCH  10  13
ENDBRANCH   7  10
TORSDOF 3
ENDMDL
