MODEL        1
REMARK 921   NORMALIZED FREE ENERGY PREDICTED BY IDOCK:   -7.09 KCAL/MOL
REMARK 922        TOTAL FREE ENERGY PREDICTED BY IDOCK:   -9.56 KCAL/MOL
REMARK 923 INTER-LIGAND FREE ENERGY PREDICTED BY IDOCK:   -8.74 KCAL/MOL
REMARK 924 INTRA-LIGAND FREE ENERGY PREDICTED BY IDOCK:   -0.82 KCAL/MOL
REMARK 927      BINDING AFFINITY PREDICTED BY RF-SCORE:    0.00 PKD
ROOT
HETATM    1  C   UNL     1     -12.996  16.037  73.743  1.00  0.00    -0.621 C  
HETATM    2  C   UNL     1     -13.778  15.556  72.530  1.00  0.00    -0.574 C  
ENDROOT
BRANCH   2   3
HETATM    3  N   UNL     1     -12.920  14.841  71.590  1.00  0.00    -0.314 N  
HETATM    4  C   UNL     1     -12.087  15.544  70.747  1.00  0.00    -0.390 C  
HETATM    5  C   UNL     1     -11.265  14.911  69.909  1.00  0.00    -0.307 C  
HETATM    6  C   UNL     1     -11.316  13.449  70.012  1.00  0.00     0.061 C  
HETATM    7  N   UNL     1     -12.063  12.774  70.801  1.00  0.00    -0.491 N  
HETATM    8  O   UNL     1     -13.649  12.822  72.407  1.00  0.00    -0.565 OA 
HETATM    9  C   UNL     1     -12.915  13.440  71.638  1.00  0.00    -0.355 C  
HETATM   10  H   UNL     1     -12.024  11.755  70.806  1.00  0.00     0.000 HD 
BRANCH   6  11
HETATM   11  N   UNL     1     -10.446  12.796  69.133  1.00  0.00    -0.433 N  
HETATM   12  H   UNL     1      -9.455  12.782  69.372  1.00  0.00     0.000 HD 
BRANCH  11  13
HETATM   13  S   UNL     1     -10.914  12.036  67.717  1.00  0.00    -0.248 S  
HETATM   14  O   UNL     1      -9.754  11.270  67.309  1.00  0.00    -0.172 OA 
HETATM   15  O   UNL     1     -12.182  11.377  67.947  1.00  0.00    -0.592 OA 
BRANCH  13  16
HETATM   16  C   UNL     1     -11.130  13.354  66.554  1.00  0.00    -0.297 A  
HETATM   17  C   UNL     1     -10.106  14.281  66.353  1.00  0.00    -0.295 A  
HETATM   18  C   UNL     1     -10.284  15.308  65.421  1.00  0.00    -0.414 A  
HETATM   19  C   UNL     1     -11.489  15.440  64.720  1.00  0.00    -0.336 A  
HETATM   20  N   UNL     1     -11.620  16.409  63.718  1.00  0.00    -1.515 NA 
HETATM   21  C   UNL     1     -12.465  14.453  64.869  1.00  0.00    -0.368 A  
HETATM   22  C   UNL     1     -12.293  13.413  65.784  1.00  0.00    -0.513 A  
HETATM   23  H2  UNL     1     -10.868  16.274  63.041  1.00  0.00     0.000 HD 
HETATM   24  H1  UNL     1     -12.498  16.505  63.207  1.00  0.00     0.000 HD 
ENDBRANCH  13  16
ENDBRANCH  11  13
ENDBRANCH   6  11
ENDBRANCH   2   3
TORSDOF 4
ENDMDL
MODEL        2
REMARK 921   NORMALIZED FREE ENERGY PREDICTED BY IDOCK:   -6.52 KCAL/MOL
REMARK 922        TOTAL FREE ENERGY PREDICTED BY IDOCK:   -8.87 KCAL/MOL
REMARK 923 INTER-LIGAND FREE ENERGY PREDICTED BY IDOCK:   -8.21 KCAL/MOL
REMARK 924 INTRA-LIGAND FREE ENERGY PREDICTED BY IDOCK:   -0.65 KCAL/MOL
REMARK 927      BINDING AFFINITY PREDICTED BY RF-SCORE:    0.00 PKD
ROOT
HETATM    1  C   UNL     1     -12.386  15.425  74.348  1.00  0.00    -0.766 C  
HETATM    2  C   UNL     1     -12.701  15.941  72.952  1.00  0.00    -0.484 C  
ENDROOT
BRANCH   2   3
HETATM    3  N   UNL     1     -12.451  14.922  71.937  1.00  0.00    -0.318 N  
HETATM    4  C   UNL     1     -13.066  13.692  72.029  1.00  0.00    -0.393 C  
HETATM    5  C   UNL     1     -12.884  12.761  71.092  1.00  0.00    -0.315 C  
HETATM    6  C   UNL     1     -12.028  13.190  69.981  1.00  0.00    -0.321 C  
HETATM    7  N   UNL     1     -11.466  14.333  69.861  1.00  0.00    -0.346 N  
HETATM    8  O   UNL     1     -11.117  16.374  70.759  1.00  0.00    -0.296 OA 
HETATM    9  C   UNL     1     -11.647  15.267  70.842  1.00  0.00    -0.343 C  
HETATM   10  H   UNL     1     -10.892  14.544  69.044  1.00  0.00     0.000 HD 
BRANCH   6  11
HETATM   11  N   UNL     1     -11.850  12.209  69.002  1.00  0.00    -0.314 N  
HETATM   12  H   UNL     1     -12.576  11.498  68.906  1.00  0.00     0.000 HD 
BRANCH  11  13
HETATM   13  S   UNL     1     -10.532  12.116  67.974  1.00  0.00    -0.219 S  
HETATM   14  O   UNL     1      -9.405  12.539  68.782  1.00  0.00    -0.040 OA 
HETATM   15  O   UNL     1     -10.532  10.814  67.343  1.00  0.00    -0.199 OA 
BRANCH  13  16
HETATM   16  C   UNL     1     -10.826  13.368  66.757  1.00  0.00    -0.282 A  
HETATM   17  C   UNL     1     -12.050  13.416  66.087  1.00  0.00    -0.481 A  
HETATM   18  C   UNL     1     -12.273  14.419  65.139  1.00  0.00    -0.393 A  
HETATM   19  C   UNL     1     -11.273  15.347  64.826  1.00  0.00    -0.395 A  
HETATM   20  N   UNL     1     -11.542  16.406  63.951  1.00  0.00    -1.602 NA 
HETATM   21  C   UNL     1     -10.091  15.337  65.570  1.00  0.00    -0.408 A  
HETATM   22  C   UNL     1      -9.862  14.352  66.531  1.00  0.00    -0.298 A  
HETATM   23  H2  UNL     1     -12.353  16.915  64.303  1.00  0.00     0.000 HD 
HETATM   24  H1  UNL     1     -10.813  17.083  63.723  1.00  0.00     0.000 HD 
ENDBRANCH  13  16
ENDBRANCH  11  13
ENDBRANCH   6  11
ENDBRANCH   2   3
TORSDOF 4
ENDMDL
MODEL        3
REMARK 921   NORMALIZED FREE ENERGY PREDICTED BY IDOCK:   -6.34 KCAL/MOL
REMARK 922        TOTAL FREE ENERGY PREDICTED BY IDOCK:   -8.64 KCAL/MOL
REMARK 923 INTER-LIGAND FREE ENERGY PREDICTED BY IDOCK:   -7.87 KCAL/MOL
REMARK 924 INTRA-LIGAND FREE ENERGY PREDICTED BY IDOCK:   -0.78 KCAL/MOL
REMARK 927      BINDING AFFINITY PREDICTED BY RF-SCORE:    0.00 PKD
ROOT
HETATM    1  C   UNL     1     -10.601  18.756  67.554  1.00  0.00    -0.497 C  
HETATM    2  C   UNL     1     -10.520  18.327  66.097  1.00  0.00    -0.383 C  
ENDROOT
BRANCH   2   3
HETATM    3  N   UNL     1     -10.278  16.893  65.974  1.00  0.00    -0.345 N  
HETATM    4  C   UNL     1      -9.563  16.229  66.948  1.00  0.00    -0.232 C  
HETATM    5  C   UNL     1      -9.364  14.913  66.878  1.00  0.00    -0.258 C  
HETATM    6  C   UNL     1     -10.000  14.273  65.721  1.00  0.00    -0.323 C  
HETATM    7  N   UNL     1     -10.687  14.862  64.817  1.00  0.00    -0.573 N  
HETATM    8  O   UNL     1     -11.515  16.813  64.041  1.00  0.00    -1.198 OA 
HETATM    9  C   UNL     1     -10.862  16.216  64.895  1.00  0.00    -0.334 C  
HETATM   10  H   UNL     1     -11.099  14.330  64.051  1.00  0.00     0.000 HD 
BRANCH   6  11
HETATM   11  N   UNL     1      -9.790  12.892  65.661  1.00  0.00    -0.409 N  
HETATM   12  H   UNL     1      -8.827  12.562  65.606  1.00  0.00     0.000 HD 
BRANCH  11  13
HETATM   13  S   UNL     1     -11.006  11.743  65.675  1.00  0.00    -0.274 S  
HETATM   14  O   UNL     1     -12.225  12.492  65.439  1.00  0.00    -0.497 OA 
HETATM   15  O   UNL     1     -10.629  10.663  64.788  1.00  0.00    -0.291 OA 
BRANCH  13  16
HETATM   16  C   UNL     1     -11.047  11.156  67.345  1.00  0.00    -0.307 A  
HETATM   17  C   UNL     1     -11.456  12.006  68.373  1.00  0.00    -0.356 A  
HETATM   18  C   UNL     1     -11.496  11.525  69.685  1.00  0.00    -0.373 A  
HETATM   19  C   UNL     1     -11.094  10.218  69.983  1.00  0.00    -0.311 A  
HETATM   20  N   UNL     1     -11.234   9.715  71.282  1.00  0.00    -0.370 NA 
HETATM   21  C   UNL     1     -10.774   9.357  68.932  1.00  0.00    -0.203 A  
HETATM   22  C   UNL     1     -10.746   9.820  67.615  1.00  0.00    -0.334 A  
HETATM   23  H2  UNL     1     -12.209   9.822  71.565  1.00  0.00     0.000 HD 
HETATM   24  H1  UNL     1     -10.941   8.762  71.500  1.00  0.00     0.000 HD 
ENDBRANCH  13  16
ENDBRANCH  11  13
ENDBRANCH   6  11
ENDBRANCH   2   3
TORSDOF 4
ENDMDL
MODEL        4
REMARK 921   NORMALIZED FREE ENERGY PREDICTED BY IDOCK:   -6.31 KCAL/MOL
REMARK 922        TOTAL FREE ENERGY PREDICTED BY IDOCK:   -8.61 KCAL/MOL
REMARK 923 INTER-LIGAND FREE ENERGY PREDICTED BY IDOCK:   -7.96 KCAL/MOL
REMARK 924 INTRA-LIGAND FREE ENERGY PREDICTED BY IDOCK:   -0.65 KCAL/MOL
REMARK 927      BINDING AFFINITY PREDICTED BY RF-SCORE:    0.00 PKD
ROOT
HETATM    1  C   UNL     1     -10.676  19.707  67.006  1.00  0.00    -0.575 C  
HETATM    2  C   UNL     1      -9.812  18.521  66.600  1.00  0.00    -0.354 C  
ENDROOT
BRANCH   2   3
HETATM    3  N   UNL     1     -10.313  17.275  67.171  1.00  0.00    -0.322 N  
HETATM    4  C   UNL     1     -10.555  17.185  68.525  1.00  0.00    -0.361 C  
HETATM    5  C   UNL     1     -11.051  16.070  69.062  1.00  0.00    -0.320 C  
HETATM    6  C   UNL     1     -11.337  15.013  68.087  1.00  0.00    -0.330 C  
HETATM    7  N   UNL     1     -11.144  15.080  66.824  1.00  0.00    -0.328 N  
HETATM    8  O   UNL     1     -10.413  16.319  65.085  1.00  0.00    -0.591 OA 
HETATM    9  C   UNL     1     -10.615  16.223  66.294  1.00  0.00    -0.255 C  
HETATM   10  H   UNL     1     -11.382  14.291  66.222  1.00  0.00     0.000 HD 
BRANCH   6  11
HETATM   11  N   UNL     1     -11.862  13.852  68.661  1.00  0.00    -0.356 N  
HETATM   12  H   UNL     1     -12.652  13.954  69.298  1.00  0.00     0.000 HD 
BRANCH  11  13
HETATM   13  S   UNL     1     -11.289  12.305  68.378  1.00  0.00    -0.319 S  
HETATM   14  O   UNL     1     -12.000  11.860  67.195  1.00  0.00    -0.611 OA 
HETATM   15  O   UNL     1      -9.842  12.341  68.391  1.00  0.00    -0.213 OA 
BRANCH  13  16
HETATM   16  C   UNL     1     -11.874  11.354  69.751  1.00  0.00    -0.364 A  
HETATM   17  C   UNL     1     -11.515  10.010  69.873  1.00  0.00    -0.274 A  
HETATM   18  C   UNL     1     -11.973   9.275  70.970  1.00  0.00    -0.369 A  
HETATM   19  C   UNL     1     -12.816   9.857  71.923  1.00  0.00    -0.429 A  
HETATM   20  N   UNL     1     -13.186   9.144  73.070  1.00  0.00    -0.768 NA 
HETATM   21  C   UNL     1     -13.091  11.224  71.833  1.00  0.00    -0.510 A  
HETATM   22  C   UNL     1     -12.626  11.973  70.751  1.00  0.00    -0.312 A  
HETATM   23  H2  UNL     1     -12.337   8.832  73.541  1.00  0.00     0.000 HD 
HETATM   24  H1  UNL     1     -13.801   9.568  73.764  1.00  0.00     0.000 HD 
ENDBRANCH  13  16
ENDBRANCH  11  13
ENDBRANCH   6  11
ENDBRANCH   2   3
TORSDOF 4
ENDMDL
MODEL        5
REMARK 921   NORMALIZED FREE ENERGY PREDICTED BY IDOCK:   -6.24 KCAL/MOL
REMARK 922        TOTAL FREE ENERGY PREDICTED BY IDOCK:   -8.52 KCAL/MOL
REMARK 923 INTER-LIGAND FREE ENERGY PREDICTED BY IDOCK:   -7.92 KCAL/MOL
REMARK 924 INTRA-LIGAND FREE ENERGY PREDICTED BY IDOCK:   -0.60 KCAL/MOL
REMARK 927      BINDING AFFINITY PREDICTED BY RF-SCORE:    0.00 PKD
ROOT
HETATM    1  C   UNL     1     -10.690  19.654  67.220  1.00  0.00    -0.583 C  
HETATM    2  C   UNL     1     -10.511  18.804  65.970  1.00  0.00    -0.432 C  
ENDROOT
BRANCH   2   3
HETATM    3  N   UNL     1     -10.314  17.396  66.305  1.00  0.00    -0.347 N  
HETATM    4  C   UNL     1      -9.799  17.047  67.535  1.00  0.00    -0.258 C  
HETATM    5  C   UNL     1      -9.648  15.767  67.878  1.00  0.00    -0.214 C  
HETATM    6  C   UNL     1     -10.111  14.817  66.860  1.00  0.00    -0.246 C  
HETATM    7  N   UNL     1     -10.613  15.116  65.722  1.00  0.00    -0.330 N  
HETATM    8  O   UNL     1     -11.215  16.756  64.292  1.00  0.00    -1.163 OA 
HETATM    9  C   UNL     1     -10.740  16.434  65.380  1.00  0.00    -0.296 C  
HETATM   10  H   UNL     1     -10.914  14.383  65.080  1.00  0.00     0.000 HD 
BRANCH   6  11
HETATM   11  N   UNL     1      -9.954  13.479  67.233  1.00  0.00    -0.233 N  
HETATM   12  H   UNL     1      -9.017  13.165  67.486  1.00  0.00     0.000 HD 
BRANCH  11  13
HETATM   13  S   UNL     1     -11.193  12.355  67.294  1.00  0.00    -0.323 S  
HETATM   14  O   UNL     1     -12.166  12.827  66.329  1.00  0.00    -0.515 OA 
HETATM   15  O   UNL     1     -10.620  11.032  67.168  1.00  0.00    -0.223 OA 
BRANCH  13  16
HETATM   16  C   UNL     1     -11.893  12.551  68.909  1.00  0.00    -0.301 A  
HETATM   17  C   UNL     1     -12.063  11.439  69.735  1.00  0.00    -0.388 A  
HETATM   18  C   UNL     1     -12.604  11.610  71.012  1.00  0.00    -0.431 A  
HETATM   19  C   UNL     1     -13.013  12.874  71.455  1.00  0.00    -0.294 A  
HETATM   20  N   UNL     1     -13.458  13.051  72.771  1.00  0.00    -0.649 NA 
HETATM   21  C   UNL     1     -12.752  13.985  70.651  1.00  0.00    -0.373 A  
HETATM   22  C   UNL     1     -12.197  13.829  69.380  1.00  0.00    -0.325 A  
HETATM   23  H2  UNL     1     -12.735  12.707  73.403  1.00  0.00     0.000 HD 
HETATM   24  H1  UNL     1     -13.756  13.971  73.094  1.00  0.00     0.000 HD 
ENDBRANCH  13  16
ENDBRANCH  11  13
ENDBRANCH   6  11
ENDBRANCH   2   3
TORSDOF 4
ENDMDL
MODEL        6
REMARK 921   NORMALIZED FREE ENERGY PREDICTED BY IDOCK:   -6.20 KCAL/MOL
REMARK 922        TOTAL FREE ENERGY PREDICTED BY IDOCK:   -8.48 KCAL/MOL
REMARK 923 INTER-LIGAND FREE ENERGY PREDICTED BY IDOCK:   -7.93 KCAL/MOL
REMARK 924 INTRA-LIGAND FREE ENERGY PREDICTED BY IDOCK:   -0.55 KCAL/MOL
REMARK 927      BINDING AFFINITY PREDICTED BY RF-SCORE:    0.00 PKD
ROOT
HETATM    1  C   UNL     1     -13.882   8.905  71.922  1.00  0.00    -0.492 C  
HETATM    2  C   UNL     1     -12.595   9.668  72.199  1.00  0.00    -0.308 C  
ENDROOT
BRANCH   2   3
HETATM    3  N   UNL     1     -12.577  10.954  71.509  1.00  0.00    -0.388 N  
HETATM    4  C   UNL     1     -13.279  12.023  72.025  1.00  0.00    -0.375 C  
HETATM    5  C   UNL     1     -13.244  13.218  71.434  1.00  0.00    -0.304 C  
HETATM    6  C   UNL     1     -12.380  13.274  70.250  1.00  0.00    -0.264 C  
HETATM    7  N   UNL     1     -11.702  12.304  69.765  1.00  0.00    -0.416 N  
HETATM    8  O   UNL     1     -11.130  10.127  69.930  1.00  0.00    -0.254 OA 
HETATM    9  C   UNL     1     -11.767  11.081  70.372  1.00  0.00    -0.343 C  
HETATM   10  H   UNL     1     -11.120  12.441  68.938  1.00  0.00     0.000 HD 
BRANCH   6  11
HETATM   11  N   UNL     1     -12.347  14.533  69.643  1.00  0.00    -0.498 N  
HETATM   12  H   UNL     1     -13.174  15.123  69.730  1.00  0.00     0.000 HD 
BRANCH  11  13
HETATM   13  S   UNL     1     -11.046  15.141  68.784  1.00  0.00    -0.284 S  
HETATM   14  O   UNL     1     -11.139  16.579  68.944  1.00  0.00    -0.329 OA 
HETATM   15  O   UNL     1      -9.852  14.436  69.196  1.00  0.00    -0.155 OA 
BRANCH  13  16
HETATM   16  C   UNL     1     -11.410  14.760  67.093  1.00  0.00    -0.356 A  
HETATM   17  C   UNL     1     -12.299  13.729  66.787  1.00  0.00    -0.365 A  
HETATM   18  C   UNL     1     -12.588  13.448  65.448  1.00  0.00    -0.528 A  
HETATM   19  C   UNL     1     -11.968  14.160  64.415  1.00  0.00    -0.457 A  
HETATM   20  N   UNL     1     -12.339  13.940  63.083  1.00  0.00    -1.106 NA 
HETATM   21  C   UNL     1     -11.151  15.245  64.742  1.00  0.00    -0.407 A  
HETATM   22  C   UNL     1     -10.867  15.546  66.075  1.00  0.00    -0.301 A  
HETATM   23  H2  UNL     1     -13.348  14.075  63.005  1.00  0.00     0.000 HD 
HETATM   24  H1  UNL     1     -11.887  14.459  62.330  1.00  0.00     0.000 HD 
ENDBRANCH  13  16
ENDBRANCH  11  13
ENDBRANCH   6  11
ENDBRANCH   2   3
TORSDOF 4
ENDMDL
MODEL        7
REMARK 921   NORMALIZED FREE ENERGY PREDICTED BY IDOCK:   -6.16 KCAL/MOL
REMARK 922        TOTAL FREE ENERGY PREDICTED BY IDOCK:   -8.42 KCAL/MOL
REMARK 923 INTER-LIGAND FREE ENERGY PREDICTED BY IDOCK:   -7.72 KCAL/MOL
REMARK 924 INTRA-LIGAND FREE ENERGY PREDICTED BY IDOCK:   -0.71 KCAL/MOL
REMARK 927      BINDING AFFINITY PREDICTED BY RF-SCORE:    0.00 PKD
ROOT
HETATM    1  C   UNL     1      -7.284  17.611  66.159  1.00  0.00    -0.352 C  
HETATM    2  C   UNL     1      -8.485  18.455  66.558  1.00  0.00    -0.270 C  
ENDROOT
BRANCH   2   3
HETATM    3  N   UNL     1      -9.534  17.639  67.163  1.00  0.00    -0.261 N  
HETATM    4  C   UNL     1      -9.887  16.436  66.590  1.00  0.00    -0.261 C  
HETATM    5  C   UNL     1     -10.813  15.655  67.147  1.00  0.00    -0.297 C  
HETATM    6  C   UNL     1     -11.358  16.178  68.404  1.00  0.00    -0.345 C  
HETATM    7  N   UNL     1     -11.031  17.279  68.968  1.00  0.00    -0.262 N  
HETATM    8  O   UNL     1      -9.760  19.142  68.884  1.00  0.00    -0.403 OA 
HETATM    9  C   UNL     1     -10.095  18.076  68.371  1.00  0.00    -0.387 C  
HETATM   10  H   UNL     1     -11.461  17.557  69.850  1.00  0.00     0.000 HD 
BRANCH   6  11
HETATM   11  N   UNL     1     -12.323  15.348  68.982  1.00  0.00    -0.612 N  
HETATM   12  H   UNL     1     -12.992  14.895  68.360  1.00  0.00     0.000 HD 
BRANCH  11  13
HETATM   13  S   UNL     1     -12.459  15.044  70.623  1.00  0.00    -0.393 S  
HETATM   14  O   UNL     1     -11.180  15.440  71.178  1.00  0.00    -0.343 OA 
HETATM   15  O   UNL     1     -13.684  15.648  71.103  1.00  0.00    -0.591 OA 
BRANCH  13  16
HETATM   16  C   UNL     1     -12.578  13.281  70.741  1.00  0.00    -0.280 A  
HETATM   17  C   UNL     1     -11.994  12.475  69.763  1.00  0.00    -0.359 A  
HETATM   18  C   UNL     1     -12.083  11.085  69.877  1.00  0.00    -0.435 A  
HETATM   19  C   UNL     1     -12.784  10.495  70.935  1.00  0.00    -0.402 A  
HETATM   20  N   UNL     1     -12.782   9.104  71.095  1.00  0.00    -0.470 NA 
HETATM   21  C   UNL     1     -13.285  11.314  71.949  1.00  0.00    -0.491 A  
HETATM   22  C   UNL     1     -13.188  12.703  71.856  1.00  0.00    -0.504 A  
HETATM   23  H2  UNL     1     -11.813   8.787  71.137  1.00  0.00     0.000 HD 
HETATM   24  H1  UNL     1     -13.293   8.674  71.866  1.00  0.00     0.000 HD 
ENDBRANCH  13  16
ENDBRANCH  11  13
ENDBRANCH   6  11
ENDBRANCH   2   3
TORSDOF 4
ENDMDL
MODEL        8
REMARK 921   NORMALIZED FREE ENERGY PREDICTED BY IDOCK:   -6.15 KCAL/MOL
REMARK 922        TOTAL FREE ENERGY PREDICTED BY IDOCK:   -8.41 KCAL/MOL
REMARK 923 INTER-LIGAND FREE ENERGY PREDICTED BY IDOCK:   -7.71 KCAL/MOL
REMARK 924 INTRA-LIGAND FREE ENERGY PREDICTED BY IDOCK:   -0.70 KCAL/MOL
REMARK 927      BINDING AFFINITY PREDICTED BY RF-SCORE:    0.00 PKD
ROOT
HETATM    1  C   UNL     1     -10.267  19.741  68.410  1.00  0.00    -0.568 C  
HETATM    2  C   UNL     1     -10.142  18.267  68.763  1.00  0.00    -0.370 C  
ENDROOT
BRANCH   2   3
HETATM    3  N   UNL     1     -10.415  17.415  67.609  1.00  0.00    -0.361 N  
HETATM    4  C   UNL     1     -10.444  17.960  66.343  1.00  0.00    -0.317 C  
HETATM    5  C   UNL     1     -10.651  17.194  65.271  1.00  0.00    -0.057 C  
HETATM    6  C   UNL     1     -10.795  15.767  65.575  1.00  0.00    -0.332 C  
HETATM    7  N   UNL     1     -10.748  15.235  66.737  1.00  0.00    -0.309 N  
HETATM    8  O   UNL     1     -10.510  15.559  68.958  1.00  0.00    -0.212 OA 
HETATM    9  C   UNL     1     -10.557  16.038  67.826  1.00  0.00    -0.309 C  
HETATM   10  H   UNL     1     -10.851  14.226  66.849  1.00  0.00     0.000 HD 
BRANCH   6  11
HETATM   11  N   UNL     1     -11.004  14.974  64.442  1.00  0.00    -0.635 N  
HETATM   12  H   UNL     1     -10.426  15.157  63.623  1.00  0.00     0.000 HD 
BRANCH  11  13
HETATM   13  S   UNL     1     -12.136  13.745  64.336  1.00  0.00    -0.426 S  
HETATM   14  O   UNL     1     -13.046  13.986  65.438  1.00  0.00    -0.763 OA 
HETATM   15  O   UNL     1     -12.632  13.693  62.977  1.00  0.00    -0.729 OA 
BRANCH  13  16
HETATM   16  C   UNL     1     -11.227  12.269  64.696  1.00  0.00    -0.315 A  
HETATM   17  C   UNL     1     -10.514  11.624  63.685  1.00  0.00    -0.483 A  
HETATM   18  C   UNL     1      -9.790  10.467  63.986  1.00  0.00    -0.387 A  
HETATM   19  C   UNL     1      -9.805   9.928  65.278  1.00  0.00    -0.303 A  
HETATM   20  N   UNL     1      -8.996   8.829  65.593  1.00  0.00    -0.212 NA 
HETATM   21  C   UNL     1     -10.450  10.635  66.295  1.00  0.00    -0.268 A  
HETATM   22  C   UNL     1     -11.163  11.801  66.010  1.00  0.00    -0.352 A  
HETATM   23  H2  UNL     1      -8.032   9.061  65.354  1.00  0.00     0.000 HD 
HETATM   24  H1  UNL     1      -9.007   8.436  66.535  1.00  0.00     0.000 HD 
ENDBRANCH  13  16
ENDBRANCH  11  13
ENDBRANCH   6  11
ENDBRANCH   2   3
TORSDOF 4
ENDMDL
MODEL        9
REMARK 921   NORMALIZED FREE ENERGY PREDICTED BY IDOCK:   -6.11 KCAL/MOL
REMARK 922        TOTAL FREE ENERGY PREDICTED BY IDOCK:   -8.36 KCAL/MOL
REMARK 923 INTER-LIGAND FREE ENERGY PREDICTED BY IDOCK:   -7.71 KCAL/MOL
REMARK 924 INTRA-LIGAND FREE ENERGY PREDICTED BY IDOCK:   -0.65 KCAL/MOL
REMARK 927      BINDING AFFINITY PREDICTED BY RF-SCORE:    0.00 PKD
ROOT
HETATM    1  C   UNL     1     -11.078   6.658  72.326  1.00  0.00    -0.292 C  
HETATM    2  C   UNL     1     -10.694   8.073  72.732  1.00  0.00    -0.362 C  
ENDROOT
BRANCH   2   3
HETATM    3  N   UNL     1     -11.138   9.052  71.744  1.00  0.00    -0.357 N  
HETATM    4  C   UNL     1     -12.447   9.483  71.742  1.00  0.00    -0.401 C  
HETATM    5  C   UNL     1     -12.865  10.407  70.875  1.00  0.00    -0.482 C  
HETATM    6  C   UNL     1     -11.810  10.918  69.993  1.00  0.00    -0.347 C  
HETATM    7  N   UNL     1     -10.585  10.552  69.991  1.00  0.00    -0.439 N  
HETATM    8  O   UNL     1      -9.011   9.210  70.895  1.00  0.00    -0.219 OA 
HETATM    9  C   UNL     1     -10.180   9.588  70.873  1.00  0.00    -0.286 C  
HETATM   10  H   UNL     1      -9.920  10.972  69.342  1.00  0.00     0.000 HD 
BRANCH   6  11
HETATM   11  N   UNL     1     -12.258  11.890  69.093  1.00  0.00    -0.176 N  
HETATM   12  H   UNL     1     -13.033  11.644  68.478  1.00  0.00     0.000 HD 
BRANCH  11  13
HETATM   13  S   UNL     1     -11.615  13.429  68.955  1.00  0.00    -0.331 S  
HETATM   14  O   UNL     1     -10.180  13.237  69.034  1.00  0.00    -0.079 OA 
HETATM   15  O   UNL     1     -12.204  14.072  67.801  1.00  0.00    -0.334 OA 
BRANCH  13  16
HETATM   16  C   UNL     1     -12.131  14.263  70.430  1.00  0.00    -0.339 A  
HETATM   17  C   UNL     1     -13.284  13.849  71.098  1.00  0.00    -0.308 A  
HETATM   18  C   UNL     1     -13.672  14.507  72.268  1.00  0.00    -0.559 A  
HETATM   19  C   UNL     1     -12.942  15.598  72.754  1.00  0.00    -0.480 A  
HETATM   20  N   UNL     1     -13.280  16.184  73.980  1.00  0.00    -0.941 NA 
HETATM   21  C   UNL     1     -11.744  15.939  72.123  1.00  0.00    -0.586 A  
HETATM   22  C   UNL     1     -11.337  15.279  70.963  1.00  0.00    -0.393 A  
HETATM   23  H2  UNL     1     -13.282  15.456  74.694  1.00  0.00     0.000 HD 
HETATM   24  H1  UNL     1     -12.747  16.979  74.334  1.00  0.00     0.000 HD 
ENDBRANCH  13  16
ENDBRANCH  11  13
ENDBRANCH   6  11
ENDBRANCH   2   3
TORSDOF 4
ENDMDL
MODEL       10
REMARK 921   NORMALIZED FREE ENERGY PREDICTED BY IDOCK:   -6.10 KCAL/MOL
REMARK 922        TOTAL FREE ENERGY PREDICTED BY IDOCK:   -8.35 KCAL/MOL
REMARK 923 INTER-LIGAND FREE ENERGY PREDICTED BY IDOCK:   -7.62 KCAL/MOL
REMARK 924 INTRA-LIGAND FREE ENERGY PREDICTED BY IDOCK:   -0.74 KCAL/MOL
REMARK 927      BINDING AFFINITY PREDICTED BY RF-SCORE:    0.00 PKD
ROOT
HETATM    1  C   UNL     1     -11.459  15.956  64.384  1.00  0.00    -0.268 C  
HETATM    2  C   UNL     1     -12.089  14.579  64.529  1.00  0.00    -0.484 C  
ENDROOT
BRANCH   2   3
HETATM    3  N   UNL     1     -11.584  13.882  65.709  1.00  0.00    -0.328 N  
HETATM    4  C   UNL     1     -12.149  14.121  66.944  1.00  0.00    -0.432 C  
HETATM    5  C   UNL     1     -11.732  13.466  68.028  1.00  0.00    -0.391 C  
HETATM    6  C   UNL     1     -10.681  12.478  67.762  1.00  0.00    -0.219 C  
HETATM    7  N   UNL     1     -10.158  12.222  66.624  1.00  0.00    -0.212 N  
HETATM    8  O   UNL     1     -10.098  12.700  64.419  1.00  0.00    -0.314 OA 
HETATM    9  C   UNL     1     -10.583  12.919  65.527  1.00  0.00    -0.279 C  
HETATM   10  H   UNL     1      -9.434  11.509  66.536  1.00  0.00     0.000 HD 
BRANCH   6  11
HETATM   11  N   UNL     1     -10.257  11.794  68.905  1.00  0.00    -0.378 N  
HETATM   12  H   UNL     1      -9.964  12.350  69.708  1.00  0.00     0.000 HD 
BRANCH  11  13
HETATM   13  S   UNL     1     -10.196  10.128  69.050  1.00  0.00    -0.221 S  
HETATM   14  O   UNL     1     -10.697   9.629  67.784  1.00  0.00    -0.258 OA 
HETATM   15  O   UNL     1      -8.877   9.754  69.513  1.00  0.00    -0.163 OA 
BRANCH  13  16
HETATM   16  C   UNL     1     -11.395   9.744  70.295  1.00  0.00    -0.272 A  
HETATM   17  C   UNL     1     -11.524   8.435  70.760  1.00  0.00    -0.277 A  
HETATM   18  C   UNL     1     -12.466   8.149  71.753  1.00  0.00    -0.363 A  
HETATM   19  C   UNL     1     -13.305   9.150  72.256  1.00  0.00    -0.477 A  
HETATM   20  N   UNL     1     -14.172   8.876  73.320  1.00  0.00    -1.237 NA 
HETATM   21  C   UNL     1     -13.100  10.469  71.844  1.00  0.00    -0.567 A  
HETATM   22  C   UNL     1     -12.152  10.770  70.865  1.00  0.00    -0.475 A  
HETATM   23  H2  UNL     1     -13.623   8.500  74.094  1.00  0.00     0.000 HD 
HETATM   24  H1  UNL     1     -14.784   9.606  73.687  1.00  0.00     0.000 HD 
ENDBRANCH  13  16
ENDBRANCH  11  13
ENDBRANCH   6  11
ENDBRANCH   2   3
TORSDOF 4
ENDMDL
MODEL       11
REMARK 921   NORMALIZED FREE ENERGY PREDICTED BY IDOCK:   -6.08 KCAL/MOL
REMARK 922        TOTAL FREE ENERGY PREDICTED BY IDOCK:   -8.32 KCAL/MOL
REMARK 923 INTER-LIGAND FREE ENERGY PREDICTED BY IDOCK:   -7.61 KCAL/MOL
REMARK 924 INTRA-LIGAND FREE ENERGY PREDICTED BY IDOCK:   -0.71 KCAL/MOL
REMARK 927      BINDING AFFINITY PREDICTED BY RF-SCORE:    0.00 PKD
ROOT
HETATM    1  C   UNL     1      -7.310  19.110  68.485  1.00  0.00    -0.348 C  
HETATM    2  C   UNL     1      -8.767  18.703  68.647  1.00  0.00    -0.302 C  
ENDROOT
BRANCH   2   3
HETATM    3  N   UNL     1      -9.208  17.847  67.549  1.00  0.00    -0.248 N  
HETATM    4  C   UNL     1      -8.573  16.647  67.314  1.00  0.00    -0.191 C  
HETATM    5  C   UNL     1      -8.984  15.830  66.343  1.00  0.00    -0.366 C  
HETATM    6  C   UNL     1     -10.162  16.314  65.614  1.00  0.00    -0.343 C  
HETATM    7  N   UNL     1     -10.782  17.411  65.829  1.00  0.00    -0.226 N  
HETATM    8  O   UNL     1     -10.905  19.310  67.044  1.00  0.00    -0.464 OA 
HETATM    9  C   UNL     1     -10.333  18.245  66.814  1.00  0.00    -0.384 C  
HETATM   10  H   UNL     1     -11.601  17.661  65.273  1.00  0.00     0.000 HD 
BRANCH   6  11
HETATM   11  N   UNL     1     -10.588  15.447  64.604  1.00  0.00    -0.554 N  
HETATM   12  H   UNL     1     -10.109  15.497  63.704  1.00  0.00     0.000 HD 
BRANCH  11  13
HETATM   13  S   UNL     1     -11.826  14.332  64.764  1.00  0.00    -0.452 S  
HETATM   14  O   UNL     1     -12.370  14.573  66.086  1.00  0.00    -0.338 OA 
HETATM   15  O   UNL     1     -12.676  14.419  63.596  1.00  0.00    -0.773 OA 
BRANCH  13  16
HETATM   16  C   UNL     1     -11.010  12.761  64.792  1.00  0.00    -0.305 A  
HETATM   17  C   UNL     1     -10.772  12.120  66.008  1.00  0.00    -0.308 A  
HETATM   18  C   UNL     1     -10.140  10.874  66.015  1.00  0.00    -0.303 A  
HETATM   19  C   UNL     1      -9.708  10.282  64.822  1.00  0.00    -0.332 A  
HETATM   20  N   UNL     1      -9.168   8.990  64.830  1.00  0.00    -0.443 NA 
HETATM   21  C   UNL     1     -10.034  10.895  63.611  1.00  0.00    -0.415 A  
HETATM   22  C   UNL     1     -10.680  12.132  63.590  1.00  0.00    -0.518 A  
HETATM   23  H2  UNL     1      -9.840   8.364  65.274  1.00  0.00     0.000 HD 
HETATM   24  H1  UNL     1      -8.853   8.558  63.961  1.00  0.00     0.000 HD 
ENDBRANCH  13  16
ENDBRANCH  11  13
ENDBRANCH   6  11
ENDBRANCH   2   3
TORSDOF 4
ENDMDL
MODEL       12
REMARK 921   NORMALIZED FREE ENERGY PREDICTED BY IDOCK:   -6.08 KCAL/MOL
REMARK 922        TOTAL FREE ENERGY PREDICTED BY IDOCK:   -8.32 KCAL/MOL
REMARK 923 INTER-LIGAND FREE ENERGY PREDICTED BY IDOCK:   -7.67 KCAL/MOL
REMARK 924 INTRA-LIGAND FREE ENERGY PREDICTED BY IDOCK:   -0.65 KCAL/MOL
REMARK 927      BINDING AFFINITY PREDICTED BY RF-SCORE:    0.00 PKD
ROOT
HETATM    1  C   UNL     1     -14.313   8.051  71.773  1.00  0.00    -0.583 C  
HETATM    2  C   UNL     1     -13.054   8.666  72.366  1.00  0.00    -0.349 C  
ENDROOT
BRANCH   2   3
HETATM    3  N   UNL     1     -12.371   9.522  71.401  1.00  0.00    -0.341 N  
HETATM    4  C   UNL     1     -12.778  10.827  71.228  1.00  0.00    -0.441 C  
HETATM    5  C   UNL     1     -12.143  11.639  70.382  1.00  0.00    -0.462 C  
HETATM    6  C   UNL     1     -10.989  11.025  69.717  1.00  0.00    -0.193 C  
HETATM    7  N   UNL     1     -10.577   9.824  69.878  1.00  0.00    -0.245 N  
HETATM    8  O   UNL     1     -10.887   7.840  70.908  1.00  0.00    -0.230 OA 
HETATM    9  C   UNL     1     -11.254   9.000  70.733  1.00  0.00    -0.275 C  
HETATM   10  H   UNL     1      -9.756   9.487  69.375  1.00  0.00     0.000 HD 
BRANCH   6  11
HETATM   11  N   UNL     1     -10.327  11.887  68.838  1.00  0.00    -0.373 N  
HETATM   12  H   UNL     1     -10.081  12.815  69.181  1.00  0.00     0.000 HD 
BRANCH  11  13
HETATM   13  S   UNL     1      -9.909  11.504  67.263  1.00  0.00    -0.191 S  
HETATM   14  O   UNL     1      -8.461  11.554  67.244  1.00  0.00    -0.141 OA 
HETATM   15  O   UNL     1     -10.605  10.293  66.884  1.00  0.00    -0.245 OA 
BRANCH  13  16
HETATM   16  C   UNL     1     -10.510  12.863  66.300  1.00  0.00    -0.270 A  
HETATM   17  C   UNL     1      -9.768  14.042  66.217  1.00  0.00    -0.311 A  
HETATM   18  C   UNL     1     -10.248  15.102  65.442  1.00  0.00    -0.402 A  
HETATM   19  C   UNL     1     -11.479  15.009  64.782  1.00  0.00    -0.403 A  
HETATM   20  N   UNL     1     -11.902  16.034  63.928  1.00  0.00    -1.338 NA 
HETATM   21  C   UNL     1     -12.163  13.791  64.804  1.00  0.00    -0.438 A  
HETATM   22  C   UNL     1     -11.686  12.720  65.561  1.00  0.00    -0.436 A  
HETATM   23  H2  UNL     1     -11.175  16.190  63.229  1.00  0.00     0.000 HD 
HETATM   24  H1  UNL     1     -12.800  15.966  63.447  1.00  0.00     0.000 HD 
ENDBRANCH  13  16
ENDBRANCH  11  13
ENDBRANCH   6  11
ENDBRANCH   2   3
TORSDOF 4
ENDMDL
MODEL       13
REMARK 921   NORMALIZED FREE ENERGY PREDICTED BY IDOCK:   -6.06 KCAL/MOL
REMARK 922        TOTAL FREE ENERGY PREDICTED BY IDOCK:   -8.29 KCAL/MOL
REMARK 923 INTER-LIGAND FREE ENERGY PREDICTED BY IDOCK:   -7.58 KCAL/MOL
REMARK 924 INTRA-LIGAND FREE ENERGY PREDICTED BY IDOCK:   -0.72 KCAL/MOL
REMARK 927      BINDING AFFINITY PREDICTED BY RF-SCORE:    0.00 PKD
ROOT
HETATM    1  C   UNL     1     -12.307  12.029  63.363  1.00  0.00    -0.635 C  
HETATM    2  C   UNL     1     -11.167  11.882  64.360  1.00  0.00    -0.336 C  
ENDROOT
BRANCH   2   3
HETATM    3  N   UNL     1     -11.189  12.946  65.359  1.00  0.00    -0.279 N  
HETATM    4  C   UNL     1     -10.928  14.247  64.986  1.00  0.00    -0.387 C  
HETATM    5  C   UNL     1     -10.983  15.240  65.874  1.00  0.00    -0.325 C  
HETATM    6  C   UNL     1     -11.377  14.816  67.221  1.00  0.00    -0.357 C  
HETATM    7  N   UNL     1     -11.647  13.621  67.587  1.00  0.00    -0.325 N  
HETATM    8  O   UNL     1     -11.814  11.451  66.987  1.00  0.00    -0.530 OA 
HETATM    9  C   UNL     1     -11.564  12.612  66.668  1.00  0.00    -0.381 C  
HETATM   10  H   UNL     1     -11.920  13.423  68.550  1.00  0.00     0.000 HD 
BRANCH   6  11
HETATM   11  N   UNL     1     -11.437  15.867  68.141  1.00  0.00    -0.326 N  
HETATM   12  H   UNL     1     -12.283  16.437  68.154  1.00  0.00     0.000 HD 
BRANCH  11  13
HETATM   13  S   UNL     1     -10.222  16.257  69.224  1.00  0.00    -0.275 S  
HETATM   14  O   UNL     1     -10.917  16.614  70.445  1.00  0.00    -0.267 OA 
HETATM   15  O   UNL     1      -9.246  15.188  69.225  1.00  0.00    -0.220 OA 
BRANCH  13  16
HETATM   16  C   UNL     1      -9.492  17.729  68.565  1.00  0.00    -0.304 A  
HETATM   17  C   UNL     1     -10.303  18.727  68.022  1.00  0.00    -0.442 A  
HETATM   18  C   UNL     1      -9.714  19.890  67.517  1.00  0.00    -0.521 A  
HETATM   19  C   UNL     1      -8.324  20.048  67.515  1.00  0.00    -0.334 A  
HETATM   20  N   UNL     1      -7.751  21.257  67.102  1.00  0.00    -0.738 NA 
HETATM   21  C   UNL     1      -7.536  19.081  68.143  1.00  0.00    -0.311 A  
HETATM   22  C   UNL     1      -8.113  17.922  68.665  1.00  0.00    -0.283 A  
HETATM   23  H2  UNL     1      -8.158  22.011  67.656  1.00  0.00     0.000 HD 
HETATM   24  H1  UNL     1      -6.737  21.372  67.100  1.00  0.00     0.000 HD 
ENDBRANCH  13  16
ENDBRANCH  11  13
ENDBRANCH   6  11
ENDBRANCH   2   3
TORSDOF 4
ENDMDL
MODEL       14
REMARK 921   NORMALIZED FREE ENERGY PREDICTED BY IDOCK:   -6.03 KCAL/MOL
REMARK 922        TOTAL FREE ENERGY PREDICTED BY IDOCK:   -8.26 KCAL/MOL
REMARK 923 INTER-LIGAND FREE ENERGY PREDICTED BY IDOCK:   -7.99 KCAL/MOL
REMARK 924 INTRA-LIGAND FREE ENERGY PREDICTED BY IDOCK:   -0.26 KCAL/MOL
REMARK 927      BINDING AFFINITY PREDICTED BY RF-SCORE:    0.00 PKD
ROOT
HETATM    1  C   UNL     1      -9.845  10.570  63.284  1.00  0.00    -0.309 C  
HETATM    2  C   UNL     1     -10.728  11.793  63.082  1.00  0.00    -0.251 C  
ENDROOT
BRANCH   2   3
HETATM    3  N   UNL     1     -11.118  12.387  64.358  1.00  0.00    -0.313 N  
HETATM    4  C   UNL     1     -10.541  11.943  65.529  1.00  0.00    -0.269 C  
HETATM    5  C   UNL     1     -10.852  12.499  66.701  1.00  0.00    -0.277 C  
HETATM    6  C   UNL     1     -11.801  13.612  66.601  1.00  0.00    -0.409 C  
HETATM    7  N   UNL     1     -12.331  14.057  65.526  1.00  0.00    -0.456 N  
HETATM    8  O   UNL     1     -12.512  13.862  63.284  1.00  0.00    -0.817 OA 
HETATM    9  C   UNL     1     -12.017  13.461  64.336  1.00  0.00    -0.411 C  
HETATM   10  H   UNL     1     -12.978  14.845  65.555  1.00  0.00     0.000 HD 
BRANCH   6  11
HETATM   11  N   UNL     1     -12.114  14.191  67.835  1.00  0.00    -0.545 N  
HETATM   12  H   UNL     1     -12.989  13.914  68.279  1.00  0.00     0.000 HD 
BRANCH  11  13
HETATM   13  S   UNL     1     -11.155  15.304  68.636  1.00  0.00    -0.297 S  
HETATM   14  O   UNL     1      -9.886  14.628  68.826  1.00  0.00    -0.221 OA 
HETATM   15  O   UNL     1     -11.213  16.560  67.920  1.00  0.00    -0.280 OA 
BRANCH  13  16
HETATM   16  C   UNL     1     -11.915  15.487  70.224  1.00  0.00    -0.374 A  
HETATM   17  C   UNL     1     -13.133  14.862  70.491  1.00  0.00    -0.299 A  
HETATM   18  C   UNL     1     -13.716  15.004  71.754  1.00  0.00    -0.551 A  
HETATM   19  C   UNL     1     -13.112  15.796  72.737  1.00  0.00    -0.503 A  
HETATM   20  N   UNL     1     -13.649  15.849  74.029  1.00  0.00    -0.581 NA 
HETATM   21  C   UNL     1     -11.851  16.340  72.482  1.00  0.00    -0.608 A  
HETATM   22  C   UNL     1     -11.252  16.192  71.230  1.00  0.00    -0.223 A  
HETATM   23  H2  UNL     1     -13.723  14.896  74.386  1.00  0.00     0.000 HD 
HETATM   24  H1  UNL     1     -13.210  16.427  74.746  1.00  0.00     0.000 HD 
ENDBRANCH  13  16
ENDBRANCH  11  13
ENDBRANCH   6  11
ENDBRANCH   2   3
TORSDOF 4
ENDMDL
MODEL       15
REMARK 921   NORMALIZED FREE ENERGY PREDICTED BY IDOCK:   -6.02 KCAL/MOL
REMARK 922        TOTAL FREE ENERGY PREDICTED BY IDOCK:   -8.24 KCAL/MOL
REMARK 923 INTER-LIGAND FREE ENERGY PREDICTED BY IDOCK:   -8.17 KCAL/MOL
REMARK 924 INTRA-LIGAND FREE ENERGY PREDICTED BY IDOCK:   -0.07 KCAL/MOL
REMARK 927      BINDING AFFINITY PREDICTED BY RF-SCORE:    0.00 PKD
ROOT
HETATM    1  C   UNL     1     -14.285   8.405  71.777  1.00  0.00    -0.536 C  
HETATM    2  C   UNL     1     -13.482   9.511  72.445  1.00  0.00    -0.393 C  
ENDROOT
BRANCH   2   3
HETATM    3  N   UNL     1     -12.625  10.203  71.486  1.00  0.00    -0.400 N  
HETATM    4  C   UNL     1     -11.775   9.480  70.676  1.00  0.00    -0.262 C  
HETATM    5  C   UNL     1     -11.013  10.087  69.765  1.00  0.00    -0.317 C  
HETATM    6  C   UNL     1     -11.204  11.540  69.698  1.00  0.00    -0.204 C  
HETATM    7  N   UNL     1     -12.002  12.229  70.422  1.00  0.00    -0.502 N  
HETATM    8  O   UNL     1     -13.534  12.226  72.080  1.00  0.00    -0.467 OA 
HETATM    9  C   UNL     1     -12.759  11.593  71.365  1.00  0.00    -0.339 C  
HETATM   10  H   UNL     1     -12.072  13.240  70.297  1.00  0.00     0.000 HD 
BRANCH   6  11
HETATM   11  N   UNL     1     -10.405  12.164  68.736  1.00  0.00    -0.363 N  
HETATM   12  H   UNL     1      -9.877  12.988  69.021  1.00  0.00     0.000 HD 
BRANCH  11  13
HETATM   13  S   UNL     1     -10.252  11.655  67.148  1.00  0.00    -0.217 S  
HETATM   14  O   UNL     1      -8.837  11.389  66.982  1.00  0.00    -0.158 OA 
HETATM   15  O   UNL     1     -11.226  10.612  66.904  1.00  0.00    -0.224 OA 
BRANCH  13  16
HETATM   16  C   UNL     1     -10.653  13.083  66.181  1.00  0.00    -0.277 A  
HETATM   17  C   UNL     1     -11.768  13.068  65.343  1.00  0.00    -0.401 A  
HETATM   18  C   UNL     1     -12.080  14.207  64.596  1.00  0.00    -0.469 A  
HETATM   19  C   UNL     1     -11.267  15.345  64.648  1.00  0.00    -0.364 A  
HETATM   20  N   UNL     1     -11.643  16.513  63.976  1.00  0.00    -1.544 NA 
HETATM   21  C   UNL     1     -10.208  15.372  65.558  1.00  0.00    -0.411 A  
HETATM   22  C   UNL     1      -9.895  14.247  66.322  1.00  0.00    -0.323 A  
HETATM   23  H2  UNL     1     -12.579  16.775  64.286  1.00  0.00     0.000 HD 
HETATM   24  H1  UNL     1     -11.050  17.343  64.013  1.00  0.00     0.000 HD 
ENDBRANCH  13  16
ENDBRANCH  11  13
ENDBRANCH   6  11
ENDBRANCH   2   3
TORSDOF 4
ENDMDL
MODEL       16
REMARK 921   NORMALIZED FREE ENERGY PREDICTED BY IDOCK:   -6.01 KCAL/MOL
REMARK 922        TOTAL FREE ENERGY PREDICTED BY IDOCK:   -8.24 KCAL/MOL
REMARK 923 INTER-LIGAND FREE ENERGY PREDICTED BY IDOCK:   -7.55 KCAL/MOL
REMARK 924 INTRA-LIGAND FREE ENERGY PREDICTED BY IDOCK:   -0.68 KCAL/MOL
REMARK 927      BINDING AFFINITY PREDICTED BY RF-SCORE:    0.00 PKD
ROOT
HETATM    1  C   UNL     1     -12.446  15.278  73.931  1.00  0.00    -0.752 C  
HETATM    2  C   UNL     1     -12.977  14.297  72.896  1.00  0.00    -0.452 C  
ENDROOT
BRANCH   2   3
HETATM    3  N   UNL     1     -12.331  14.486  71.600  1.00  0.00    -0.345 N  
HETATM    4  C   UNL     1     -11.834  15.723  71.252  1.00  0.00    -0.437 C  
HETATM    5  C   UNL     1     -11.204  15.909  70.091  1.00  0.00    -0.368 C  
HETATM    6  C   UNL     1     -11.070  14.692  69.283  1.00  0.00    -0.269 C  
HETATM    7  N   UNL     1     -11.501  13.529  69.594  1.00  0.00    -0.419 N  
HETATM    8  O   UNL     1     -12.594  12.259  71.106  1.00  0.00    -0.364 OA 
HETATM    9  C   UNL     1     -12.163  13.363  70.778  1.00  0.00    -0.328 C  
HETATM   10  H   UNL     1     -11.353  12.738  68.967  1.00  0.00     0.000 HD 
BRANCH   6  11
HETATM   11  N   UNL     1     -10.403  14.898  68.071  1.00  0.00    -0.241 N  
HETATM   12  H   UNL     1     -10.545  15.790  67.598  1.00  0.00     0.000 HD 
BRANCH  11  13
HETATM   13  S   UNL     1      -9.386  13.785  67.343  1.00  0.00    -0.236 S  
HETATM   14  O   UNL     1      -8.337  14.584  66.741  1.00  0.00    -0.163 OA 
HETATM   15  O   UNL     1      -9.061  12.758  68.309  1.00  0.00    -0.199 OA 
BRANCH  13  16
HETATM   16  C   UNL     1     -10.354  13.088  66.034  1.00  0.00    -0.285 A  
HETATM   17  C   UNL     1      -9.758  12.234  65.105  1.00  0.00    -0.106 A  
HETATM   18  C   UNL     1     -10.537  11.680  64.085  1.00  0.00    -0.411 A  
HETATM   19  C   UNL     1     -11.893  12.001  63.962  1.00  0.00    -0.408 A  
HETATM   20  N   UNL     1     -12.686  11.363  63.001  1.00  0.00    -0.798 NA 
HETATM   21  C   UNL     1     -12.491  12.784  64.952  1.00  0.00    -0.563 A  
HETATM   22  C   UNL     1     -11.727  13.331  65.985  1.00  0.00    -0.408 A  
HETATM   23  H2  UNL     1     -12.607  10.355  63.137  1.00  0.00     0.000 HD 
HETATM   24  H1  UNL     1     -13.675  11.597  62.912  1.00  0.00     0.000 HD 
ENDBRANCH  13  16
ENDBRANCH  11  13
ENDBRANCH   6  11
ENDBRANCH   2   3
TORSDOF 4
ENDMDL
MODEL       17
REMARK 921   NORMALIZED FREE ENERGY PREDICTED BY IDOCK:   -6.00 KCAL/MOL
REMARK 922        TOTAL FREE ENERGY PREDICTED BY IDOCK:   -8.22 KCAL/MOL
REMARK 923 INTER-LIGAND FREE ENERGY PREDICTED BY IDOCK:   -7.59 KCAL/MOL
REMARK 924 INTRA-LIGAND FREE ENERGY PREDICTED BY IDOCK:   -0.63 KCAL/MOL
REMARK 927      BINDING AFFINITY PREDICTED BY RF-SCORE:    0.00 PKD
ROOT
HETATM    1  C   UNL     1      -9.194  20.261  67.564  1.00  0.00    -0.491 C  
HETATM    2  C   UNL     1      -8.530  18.993  68.081  1.00  0.00    -0.316 C  
ENDROOT
BRANCH   2   3
HETATM    3  N   UNL     1      -9.335  17.811  67.788  1.00  0.00    -0.254 N  
HETATM    4  C   UNL     1     -10.350  17.439  68.644  1.00  0.00    -0.364 C  
HETATM    5  C   UNL     1     -11.124  16.387  68.376  1.00  0.00    -0.351 C  
HETATM    6  C   UNL     1     -10.814  15.725  67.104  1.00  0.00    -0.289 C  
HETATM    7  N   UNL     1      -9.894  16.064  66.283  1.00  0.00    -0.286 N  
HETATM    8  O   UNL     1      -8.200  17.483  65.819  1.00  0.00    -0.545 OA 
HETATM    9  C   UNL     1      -9.096  17.133  66.585  1.00  0.00    -0.258 C  
HETATM   10  H   UNL     1      -9.757  15.545  65.415  1.00  0.00     0.000 HD 
BRANCH   6  11
HETATM   11  N   UNL     1     -11.636  14.628  66.831  1.00  0.00    -0.369 N  
HETATM   12  H   UNL     1     -11.975  14.082  67.623  1.00  0.00     0.000 HD 
BRANCH  11  13
HETATM   13  S   UNL     1     -12.105  14.147  65.298  1.00  0.00    -0.422 S  
HETATM   14  O   UNL     1     -13.496  13.765  65.441  1.00  0.00    -0.620 OA 
HETATM   15  O   UNL     1     -11.723  15.177  64.356  1.00  0.00    -0.382 OA 
BRANCH  13  16
HETATM   16  C   UNL     1     -11.168  12.677  64.986  1.00  0.00    -0.296 A  
HETATM   17  C   UNL     1     -10.978  11.742  66.004  1.00  0.00    -0.355 A  
HETATM   18  C   UNL     1     -10.248  10.579  65.740  1.00  0.00    -0.310 A  
HETATM   19  C   UNL     1      -9.675  10.362  64.482  1.00  0.00    -0.330 A  
HETATM   20  N   UNL     1      -9.034   9.151  64.197  1.00  0.00    -0.426 NA 
HETATM   21  C   UNL     1      -9.951  11.265  63.452  1.00  0.00    -0.433 A  
HETATM   22  C   UNL     1     -10.692  12.422  63.699  1.00  0.00    -0.497 A  
HETATM   23  H2  UNL     1      -9.687   8.390  64.387  1.00  0.00     0.000 HD 
HETATM   24  H1  UNL     1      -8.616   8.992  63.280  1.00  0.00     0.000 HD 
ENDBRANCH  13  16
ENDBRANCH  11  13
ENDBRANCH   6  11
ENDBRANCH   2   3
TORSDOF 4
ENDMDL
MODEL       18
REMARK 921   NORMALIZED FREE ENERGY PREDICTED BY IDOCK:   -5.94 KCAL/MOL
REMARK 922        TOTAL FREE ENERGY PREDICTED BY IDOCK:   -8.15 KCAL/MOL
REMARK 923 INTER-LIGAND FREE ENERGY PREDICTED BY IDOCK:   -7.48 KCAL/MOL
REMARK 924 INTRA-LIGAND FREE ENERGY PREDICTED BY IDOCK:   -0.67 KCAL/MOL
REMARK 927      BINDING AFFINITY PREDICTED BY RF-SCORE:    0.00 PKD
ROOT
HETATM    1  C   UNL     1     -10.080  19.707  66.926  1.00  0.00    -0.533 C  
HETATM    2  C   UNL     1     -10.719  18.862  65.834  1.00  0.00    -0.297 C  
ENDROOT
BRANCH   2   3
HETATM    3  N   UNL     1     -10.618  17.437  66.132  1.00  0.00    -0.267 N  
HETATM    4  C   UNL     1     -10.191  17.022  67.375  1.00  0.00    -0.314 C  
HETATM    5  C   UNL     1     -10.130  15.726  67.684  1.00  0.00    -0.247 C  
HETATM    6  C   UNL     1     -10.588  14.835  66.612  1.00  0.00    -0.299 C  
HETATM    7  N   UNL     1     -11.010  15.196  65.460  1.00  0.00    -0.349 N  
HETATM    8  O   UNL     1     -11.443  16.908  64.055  1.00  0.00    -1.130 OA 
HETATM    9  C   UNL     1     -11.046  16.528  65.155  1.00  0.00    -0.129 C  
HETATM   10  H   UNL     1     -11.317  14.500  64.780  1.00  0.00     0.000 HD 
BRANCH   6  11
HETATM   11  N   UNL     1     -10.526  13.479  66.949  1.00  0.00    -0.269 N  
HETATM   12  H   UNL     1      -9.798  13.187  67.602  1.00  0.00     0.000 HD 
BRANCH  11  13
HETATM   13  S   UNL     1     -11.560  12.302  66.360  1.00  0.00    -0.358 S  
HETATM   14  O   UNL     1     -11.800  11.425  67.488  1.00  0.00    -0.614 OA 
HETATM   15  O   UNL     1     -12.666  12.955  65.692  1.00  0.00    -0.537 OA 
BRANCH  13  16
HETATM   16  C   UNL     1     -10.591  11.410  65.176  1.00  0.00    -0.293 A  
HETATM   17  C   UNL     1     -10.339  11.965  63.921  1.00  0.00    -0.426 A  
HETATM   18  C   UNL     1      -9.561  11.255  63.001  1.00  0.00    -0.397 A  
HETATM   19  C   UNL     1      -9.068   9.982  63.310  1.00  0.00    -0.275 A  
HETATM   20  N   UNL     1      -8.207   9.324  62.423  1.00  0.00    -0.142 NA 
HETATM   21  C   UNL     1      -9.256   9.483  64.601  1.00  0.00    -0.247 A  
HETATM   22  C   UNL     1     -10.017  10.189  65.534  1.00  0.00    -0.363 A  
HETATM   23  H2  UNL     1      -7.415   9.936  62.231  1.00  0.00     0.000 HD 
HETATM   24  H1  UNL     1      -7.848   8.396  62.648  1.00  0.00     0.000 HD 
ENDBRANCH  13  16
ENDBRANCH  11  13
ENDBRANCH   6  11
ENDBRANCH   2   3
TORSDOF 4
ENDMDL
MODEL       19
REMARK 921   NORMALIZED FREE ENERGY PREDICTED BY IDOCK:   -5.93 KCAL/MOL
REMARK 922        TOTAL FREE ENERGY PREDICTED BY IDOCK:   -8.13 KCAL/MOL
REMARK 923 INTER-LIGAND FREE ENERGY PREDICTED BY IDOCK:   -7.56 KCAL/MOL
REMARK 924 INTRA-LIGAND FREE ENERGY PREDICTED BY IDOCK:   -0.57 KCAL/MOL
REMARK 927      BINDING AFFINITY PREDICTED BY RF-SCORE:    0.00 PKD
ROOT
HETATM    1  C   UNL     1      -7.684  19.735  65.972  1.00  0.00    -0.340 C  
HETATM    2  C   UNL     1      -9.137  19.496  66.356  1.00  0.00    -0.370 C  
ENDROOT
BRANCH   2   3
HETATM    3  N   UNL     1      -9.317  18.189  66.980  1.00  0.00    -0.263 N  
HETATM    4  C   UNL     1      -8.705  17.910  68.183  1.00  0.00    -0.268 C  
HETATM    5  C   UNL     1      -8.888  16.737  68.792  1.00  0.00    -0.258 C  
HETATM    6  C   UNL     1      -9.807  15.836  68.088  1.00  0.00    -0.209 C  
HETATM    7  N   UNL     1     -10.405  16.081  66.984  1.00  0.00    -0.288 N  
HETATM    8  O   UNL     1     -10.745  17.545  65.301  1.00  0.00    -0.656 OA 
HETATM    9  C   UNL     1     -10.188  17.280  66.364  1.00  0.00    -0.331 C  
HETATM   10  H   UNL     1     -11.035  15.392  66.573  1.00  0.00     0.000 HD 
BRANCH   6  11
HETATM   11  N   UNL     1      -9.997  14.613  68.738  1.00  0.00    -0.232 N  
HETATM   12  H   UNL     1      -9.166  14.083  69.002  1.00  0.00     0.000 HD 
BRANCH  11  13
HETATM   13  S   UNL     1     -11.489  13.956  69.116  1.00  0.00    -0.318 S  
HETATM   14  O   UNL     1     -12.411  14.575  68.183  1.00  0.00    -0.159 OA 
HETATM   15  O   UNL     1     -11.358  12.516  69.168  1.00  0.00    -0.257 OA 
BRANCH  13  16
HETATM   16  C   UNL     1     -11.854  14.581  70.732  1.00  0.00    -0.304 A  
HETATM   17  C   UNL     1     -11.492  15.884  71.076  1.00  0.00    -0.461 A  
HETATM   18  C   UNL     1     -11.799  16.368  72.351  1.00  0.00    -0.548 A  
HETATM   19  C   UNL     1     -12.427  15.550  73.297  1.00  0.00    -0.482 A  
HETATM   20  N   UNL     1     -12.821  16.075  74.533  1.00  0.00    -0.963 NA 
HETATM   21  C   UNL     1     -12.862  14.282  72.906  1.00  0.00    -0.482 A  
HETATM   22  C   UNL     1     -12.576  13.792  71.631  1.00  0.00    -0.370 A  
HETATM   23  H2  UNL     1     -13.417  16.885  74.363  1.00  0.00     0.000 HD 
HETATM   24  H1  UNL     1     -13.280  15.480  75.223  1.00  0.00     0.000 HD 
ENDBRANCH  13  16
ENDBRANCH  11  13
ENDBRANCH   6  11
ENDBRANCH   2   3
TORSDOF 4
ENDMDL
MODEL       20
REMARK 921   NORMALIZED FREE ENERGY PREDICTED BY IDOCK:   -5.90 KCAL/MOL
REMARK 922        TOTAL FREE ENERGY PREDICTED BY IDOCK:   -8.10 KCAL/MOL
REMARK 923 INTER-LIGAND FREE ENERGY PREDICTED BY IDOCK:   -7.50 KCAL/MOL
REMARK 924 INTRA-LIGAND FREE ENERGY PREDICTED BY IDOCK:   -0.60 KCAL/MOL
REMARK 927      BINDING AFFINITY PREDICTED BY RF-SCORE:    0.00 PKD
ROOT
HETATM    1  C   UNL     1     -13.340  15.905  73.185  1.00  0.00    -0.681 C  
HETATM    2  C   UNL     1     -13.220  14.445  72.774  1.00  0.00    -0.520 C  
ENDROOT
BRANCH   2   3
HETATM    3  N   UNL     1     -12.545  14.305  71.487  1.00  0.00    -0.338 N  
HETATM    4  C   UNL     1     -11.965  15.404  70.891  1.00  0.00    -0.359 C  
HETATM    5  C   UNL     1     -11.308  15.293  69.736  1.00  0.00    -0.306 C  
HETATM    6  C   UNL     1     -11.241  13.923  69.217  1.00  0.00    -0.251 C  
HETATM    7  N   UNL     1     -11.750  12.884  69.763  1.00  0.00    -0.440 N  
HETATM    8  O   UNL     1     -12.943  12.044  71.484  1.00  0.00    -0.397 OA 
HETATM    9  C   UNL     1     -12.438  13.021  70.936  1.00  0.00    -0.310 C  
HETATM   10  H   UNL     1     -11.644  11.967  69.328  1.00  0.00     0.000 HD 
BRANCH   6  11
HETATM   11  N   UNL     1     -10.544  13.817  68.009  1.00  0.00    -0.247 N  
HETATM   12  H   UNL     1      -9.562  13.548  68.051  1.00  0.00     0.000 HD 
BRANCH  11  13
HETATM   13  S   UNL     1     -11.208  14.100  66.499  1.00  0.00    -0.340 S  
HETATM   14  O   UNL     1     -12.636  13.942  66.689  1.00  0.00    -0.351 OA 
HETATM   15  O   UNL     1     -10.672  15.343  65.987  1.00  0.00    -0.307 OA 
BRANCH  13  16
HETATM   16  C   UNL     1     -10.641  12.751  65.503  1.00  0.00    -0.281 A  
HETATM   17  C   UNL     1     -10.455  11.492  66.074  1.00  0.00    -0.298 A  
HETATM   18  C   UNL     1     -10.020  10.432  65.273  1.00  0.00    -0.376 A  
HETATM   19  C   UNL     1      -9.732  10.629  63.917  1.00  0.00    -0.321 A  
HETATM   20  N   UNL     1      -9.396   9.542  63.102  1.00  0.00    -0.512 NA 
HETATM   21  C   UNL     1     -10.010  11.872  63.345  1.00  0.00    -0.435 A  
HETATM   22  C   UNL     1     -10.460  12.934  64.131  1.00  0.00    -0.429 A  
HETATM   23  H2  UNL     1     -10.137   8.845  63.174  1.00  0.00     0.000 HD 
HETATM   24  H1  UNL     1      -9.186   9.685  62.114  1.00  0.00     0.000 HD 
ENDBRANCH  13  16
ENDBRANCH  11  13
ENDBRANCH   6  11
ENDBRANCH   2   3
TORSDOF 4
ENDMDL
MODEL       21
REMARK 921   NORMALIZED FREE ENERGY PREDICTED BY IDOCK:   -5.90 KCAL/MOL
REMARK 922        TOTAL FREE ENERGY PREDICTED BY IDOCK:   -8.10 KCAL/MOL
REMARK 923 INTER-LIGAND FREE ENERGY PREDICTED BY IDOCK:   -7.85 KCAL/MOL
REMARK 924 INTRA-LIGAND FREE ENERGY PREDICTED BY IDOCK:   -0.24 KCAL/MOL
REMARK 927      BINDING AFFINITY PREDICTED BY RF-SCORE:    0.00 PKD
ROOT
HETATM    1  C   UNL     1     -14.126   8.195  71.737  1.00  0.00    -0.516 C  
HETATM    2  C   UNL     1     -13.644   9.475  72.402  1.00  0.00    -0.382 C  
ENDROOT
BRANCH   2   3
HETATM    3  N   UNL     1     -12.733  10.218  71.537  1.00  0.00    -0.414 N  
HETATM    4  C   UNL     1     -11.849   9.540  70.725  1.00  0.00    -0.277 C  
HETATM    5  C   UNL     1     -11.035  10.196  69.896  1.00  0.00    -0.344 C  
HETATM    6  C   UNL     1     -11.211  11.652  69.915  1.00  0.00    -0.060 C  
HETATM    7  N   UNL     1     -12.039  12.302  70.641  1.00  0.00    -0.484 N  
HETATM    8  O   UNL     1     -13.655  12.208  72.215  1.00  0.00    -0.432 OA 
HETATM    9  C   UNL     1     -12.850  11.614  71.500  1.00  0.00    -0.364 C  
HETATM   10  H   UNL     1     -12.094  13.319  70.580  1.00  0.00     0.000 HD 
BRANCH   6  11
HETATM   11  N   UNL     1     -10.358  12.328  69.038  1.00  0.00    -0.423 N  
HETATM   12  H   UNL     1      -9.597  11.797  68.614  1.00  0.00     0.000 HD 
BRANCH  11  13
HETATM   13  S   UNL     1     -10.495  13.946  68.633  1.00  0.00    -0.231 S  
HETATM   14  O   UNL     1     -11.573  14.444  69.466  1.00  0.00    -0.270 OA 
HETATM   15  O   UNL     1      -9.182  14.550  68.699  1.00  0.00    -0.194 OA 
BRANCH  13  16
HETATM   16  C   UNL     1     -11.065  13.940  66.957  1.00  0.00    -0.301 A  
HETATM   17  C   UNL     1     -11.798  12.855  66.473  1.00  0.00    -0.473 A  
HETATM   18  C   UNL     1     -12.253  12.870  65.152  1.00  0.00    -0.519 A  
HETATM   19  C   UNL     1     -11.949  13.937  64.299  1.00  0.00    -0.444 A  
HETATM   20  N   UNL     1     -12.494  13.990  63.011  1.00  0.00    -0.988 NA 
HETATM   21  C   UNL     1     -11.292  15.051  64.826  1.00  0.00    -0.409 A  
HETATM   22  C   UNL     1     -10.846  15.057  66.148  1.00  0.00    -0.329 A  
HETATM   23  H2  UNL     1     -13.509  13.921  63.089  1.00  0.00     0.000 HD 
HETATM   24  H1  UNL     1     -12.272  14.768  62.389  1.00  0.00     0.000 HD 
ENDBRANCH  13  16
ENDBRANCH  11  13
ENDBRANCH   6  11
ENDBRANCH   2   3
TORSDOF 4
ENDMDL
MODEL       22
REMARK 921   NORMALIZED FREE ENERGY PREDICTED BY IDOCK:   -5.88 KCAL/MOL
REMARK 922        TOTAL FREE ENERGY PREDICTED BY IDOCK:   -8.08 KCAL/MOL
REMARK 923 INTER-LIGAND FREE ENERGY PREDICTED BY IDOCK:   -7.23 KCAL/MOL
REMARK 924 INTRA-LIGAND FREE ENERGY PREDICTED BY IDOCK:   -0.85 KCAL/MOL
REMARK 927      BINDING AFFINITY PREDICTED BY RF-SCORE:    0.00 PKD
ROOT
HETATM    1  C   UNL     1      -9.903  20.061  67.511  1.00  0.00    -0.551 C  
HETATM    2  C   UNL     1      -8.800  19.258  68.184  1.00  0.00    -0.330 C  
ENDROOT
BRANCH   2   3
HETATM    3  N   UNL     1      -9.255  17.917  68.540  1.00  0.00    -0.284 N  
HETATM    4  C   UNL     1     -10.592  17.596  68.444  1.00  0.00    -0.316 C  
HETATM    5  C   UNL     1     -11.025  16.366  68.724  1.00  0.00    -0.344 C  
HETATM    6  C   UNL     1      -9.959  15.426  69.088  1.00  0.00    -0.241 C  
HETATM    7  N   UNL     1      -8.710  15.693  69.161  1.00  0.00    -0.236 N  
HETATM    8  O   UNL     1      -7.095  17.256  68.956  1.00  0.00    -0.234 OA 
HETATM    9  C   UNL     1      -8.288  16.965  68.891  1.00  0.00    -0.208 C  
HETATM   10  H   UNL     1      -8.040  14.968  69.417  1.00  0.00     0.000 HD 
BRANCH   6  11
HETATM   11  N   UNL     1     -10.424  14.139  69.373  1.00  0.00    -0.435 N  
HETATM   12  H   UNL     1     -11.001  14.017  70.205  1.00  0.00     0.000 HD 
BRANCH  11  13
HETATM   13  S   UNL     1     -10.102  12.783  68.446  1.00  0.00    -0.197 S  
HETATM   14  O   UNL     1      -8.660  12.771  68.298  1.00  0.00    -0.177 OA 
HETATM   15  O   UNL     1     -10.786  11.651  69.034  1.00  0.00    -0.209 OA 
BRANCH  13  16
HETATM   16  C   UNL     1     -10.807  13.147  66.863  1.00  0.00    -0.265 A  
HETATM   17  C   UNL     1     -10.060  12.941  65.702  1.00  0.00    -0.282 A  
HETATM   18  C   UNL     1     -10.633  13.221  64.459  1.00  0.00    -0.437 A  
HETATM   19  C   UNL     1     -11.929  13.741  64.366  1.00  0.00    -0.445 A  
HETATM   20  N   UNL     1     -12.531  13.921  63.115  1.00  0.00    -1.079 NA 
HETATM   21  C   UNL     1     -12.692  13.855  65.531  1.00  0.00    -0.536 A  
HETATM   22  C   UNL     1     -12.136  13.564  66.778  1.00  0.00    -0.425 A  
HETATM   23  H2  UNL     1     -12.506  13.031  62.616  1.00  0.00     0.000 HD 
HETATM   24  H1  UNL     1     -13.476  14.300  63.048  1.00  0.00     0.000 HD 
ENDBRANCH  13  16
ENDBRANCH  11  13
ENDBRANCH   6  11
ENDBRANCH   2   3
TORSDOF 4
ENDMDL
MODEL       23
REMARK 921   NORMALIZED FREE ENERGY PREDICTED BY IDOCK:   -5.87 KCAL/MOL
REMARK 922        TOTAL FREE ENERGY PREDICTED BY IDOCK:   -8.06 KCAL/MOL
REMARK 923 INTER-LIGAND FREE ENERGY PREDICTED BY IDOCK:   -7.53 KCAL/MOL
REMARK 924 INTRA-LIGAND FREE ENERGY PREDICTED BY IDOCK:   -0.53 KCAL/MOL
REMARK 927      BINDING AFFINITY PREDICTED BY RF-SCORE:    0.00 PKD
ROOT
HETATM    1  C   UNL     1     -13.234  15.753  73.168  1.00  0.00    -0.694 C  
HETATM    2  C   UNL     1     -11.932  15.999  72.419  1.00  0.00    -0.544 C  
ENDROOT
BRANCH   2   3
HETATM    3  N   UNL     1     -11.864  15.211  71.192  1.00  0.00    -0.314 N  
HETATM    4  C   UNL     1     -12.414  13.948  71.153  1.00  0.00    -0.372 C  
HETATM    5  C   UNL     1     -12.400  13.226  70.032  1.00  0.00    -0.269 C  
HETATM    6  C   UNL     1     -11.798  13.915  68.886  1.00  0.00    -0.358 C  
HETATM    7  N   UNL     1     -11.303  15.095  68.890  1.00  0.00    -0.283 N  
HETATM    8  O   UNL     1     -10.836  16.946  70.094  1.00  0.00    -0.180 OA 
HETATM    9  C   UNL     1     -11.307  15.811  70.054  1.00  0.00    -0.351 C  
HETATM   10  H   UNL     1     -10.911  15.495  68.037  1.00  0.00     0.000 HD 
BRANCH   6  11
HETATM   11  N   UNL     1     -11.795  13.152  67.715  1.00  0.00    -0.355 N  
HETATM   12  H   UNL     1     -11.823  12.137  67.811  1.00  0.00     0.000 HD 
BRANCH  11  13
HETATM   13  S   UNL     1     -11.748  13.784  66.165  1.00  0.00    -0.390 S  
HETATM   14  O   UNL     1     -13.137  13.860  65.757  1.00  0.00    -0.526 OA 
HETATM   15  O   UNL     1     -10.924  14.973  66.178  1.00  0.00    -0.327 OA 
BRANCH  13  16
HETATM   16  C   UNL     1     -10.967  12.527  65.194  1.00  0.00    -0.297 A  
HETATM   17  C   UNL     1     -10.389  11.421  65.818  1.00  0.00    -0.304 A  
HETATM   18  C   UNL     1      -9.787  10.429  65.038  1.00  0.00    -0.384 A  
HETATM   19  C   UNL     1      -9.722  10.553  63.645  1.00  0.00    -0.318 A  
HETATM   20  N   UNL     1      -9.209   9.509  62.867  1.00  0.00    -0.497 NA 
HETATM   21  C   UNL     1     -10.382  11.621  63.034  1.00  0.00    -0.284 A  
HETATM   22  C   UNL     1     -11.001  12.609  63.801  1.00  0.00    -0.481 A  
HETATM   23  H2  UNL     1      -9.727   8.658  63.089  1.00  0.00     0.000 HD 
HETATM   24  H1  UNL     1      -9.161   9.599  61.852  1.00  0.00     0.000 HD 
ENDBRANCH  13  16
ENDBRANCH  11  13
ENDBRANCH   6  11
ENDBRANCH   2   3
TORSDOF 4
ENDMDL
MODEL       24
REMARK 921   NORMALIZED FREE ENERGY PREDICTED BY IDOCK:   -5.84 KCAL/MOL
REMARK 922        TOTAL FREE ENERGY PREDICTED BY IDOCK:   -8.03 KCAL/MOL
REMARK 923 INTER-LIGAND FREE ENERGY PREDICTED BY IDOCK:   -7.52 KCAL/MOL
REMARK 924 INTRA-LIGAND FREE ENERGY PREDICTED BY IDOCK:   -0.51 KCAL/MOL
REMARK 927      BINDING AFFINITY PREDICTED BY RF-SCORE:    0.00 PKD
ROOT
HETATM    1  C   UNL     1     -13.221  12.300  72.059  1.00  0.00    -0.508 C  
HETATM    2  C   UNL     1     -13.155  13.819  72.119  1.00  0.00    -0.406 C  
ENDROOT
BRANCH   2   3
HETATM    3  N   UNL     1     -12.495  14.372  70.940  1.00  0.00    -0.330 N  
HETATM    4  C   UNL     1     -12.532  13.686  69.745  1.00  0.00    -0.137 C  
HETATM    5  C   UNL     1     -11.972  14.191  68.645  1.00  0.00    -0.373 C  
HETATM    6  C   UNL     1     -11.377  15.519  68.834  1.00  0.00    -0.324 C  
HETATM    7  N   UNL     1     -11.352  16.186  69.925  1.00  0.00    -0.330 N  
HETATM    8  O   UNL     1     -11.901  16.255  72.113  1.00  0.00    -0.507 OA 
HETATM    9  C   UNL     1     -11.912  15.642  71.047  1.00  0.00    -0.400 C  
HETATM   10  H   UNL     1     -10.920  17.110  69.957  1.00  0.00     0.000 HD 
BRANCH   6  11
HETATM   11  N   UNL     1     -10.799  16.041  67.673  1.00  0.00    -0.323 N  
HETATM   12  H   UNL     1     -11.178  16.915  67.307  1.00  0.00     0.000 HD 
BRANCH  11  13
HETATM   13  S   UNL     1      -9.530  15.336  66.840  1.00  0.00    -0.247 S  
HETATM   14  O   UNL     1      -8.969  16.411  66.045  1.00  0.00    -0.365 OA 
HETATM   15  O   UNL     1      -8.704  14.616  67.785  1.00  0.00    -0.159 OA 
BRANCH  13  16
HETATM   16  C   UNL     1     -10.305  14.192  65.733  1.00  0.00    -0.325 A  
HETATM   17  C   UNL     1      -9.914  12.852  65.728  1.00  0.00    -0.261 A  
HETATM   18  C   UNL     1     -10.543  11.957  64.858  1.00  0.00    -0.333 A  
HETATM   19  C   UNL     1     -11.530  12.395  63.967  1.00  0.00    -0.408 A  
HETATM   20  N   UNL     1     -12.225  11.474  63.174  1.00  0.00    -0.932 NA 
HETATM   21  C   UNL     1     -11.970  13.718  64.050  1.00  0.00    -0.451 A  
HETATM   22  C   UNL     1     -11.361  14.618  64.925  1.00  0.00    -0.403 A  
HETATM   23  H2  UNL     1     -12.636  10.769  63.786  1.00  0.00     0.000 HD 
HETATM   24  H1  UNL     1     -12.944  11.794  62.525  1.00  0.00     0.000 HD 
ENDBRANCH  13  16
ENDBRANCH  11  13
ENDBRANCH   6  11
ENDBRANCH   2   3
TORSDOF 4
ENDMDL
MODEL       25
REMARK 921   NORMALIZED FREE ENERGY PREDICTED BY IDOCK:   -5.84 KCAL/MOL
REMARK 922        TOTAL FREE ENERGY PREDICTED BY IDOCK:   -8.02 KCAL/MOL
REMARK 923 INTER-LIGAND FREE ENERGY PREDICTED BY IDOCK:   -7.34 KCAL/MOL
REMARK 924 INTRA-LIGAND FREE ENERGY PREDICTED BY IDOCK:   -0.68 KCAL/MOL
REMARK 927      BINDING AFFINITY PREDICTED BY RF-SCORE:    0.00 PKD
ROOT
HETATM    1  C   UNL     1     -12.574  15.863  74.062  1.00  0.00    -0.755 C  
HETATM    2  C   UNL     1     -13.316  15.223  72.898  1.00  0.00    -0.514 C  
ENDROOT
BRANCH   2   3
HETATM    3  N   UNL     1     -12.446  15.055  71.738  1.00  0.00    -0.319 N  
HETATM    4  C   UNL     1     -11.654  16.100  71.314  1.00  0.00    -0.413 C  
HETATM    5  C   UNL     1     -10.822  15.957  70.281  1.00  0.00    -0.349 C  
HETATM    6  C   UNL     1     -10.816  14.610  69.701  1.00  0.00    -0.186 C  
HETATM    7  N   UNL     1     -11.523  13.618  70.091  1.00  0.00    -0.505 N  
HETATM    8  O   UNL     1     -13.083  12.858  71.534  1.00  0.00    -0.374 OA 
HETATM    9  C   UNL     1     -12.386  13.790  71.137  1.00  0.00    -0.345 C  
HETATM   10  H   UNL     1     -11.445  12.712  69.628  1.00  0.00     0.000 HD 
BRANCH   6  11
HETATM   11  N   UNL     1      -9.935  14.470  68.624  1.00  0.00    -0.233 N  
HETATM   12  H   UNL     1      -8.995  14.128  68.823  1.00  0.00     0.000 HD 
BRANCH  11  13
HETATM   13  S   UNL     1     -10.314  14.822  67.033  1.00  0.00    -0.258 S  
HETATM   14  O   UNL     1      -9.497  13.916  66.250  1.00  0.00    -0.273 OA 
HETATM   15  O   UNL     1     -11.754  14.816  66.890  1.00  0.00    -0.364 OA 
BRANCH  13  16
HETATM   16  C   UNL     1      -9.697  16.463  66.780  1.00  0.00    -0.251 A  
HETATM   17  C   UNL     1     -10.522  17.563  67.016  1.00  0.00    -0.293 A  
HETATM   18  C   UNL     1     -10.017  18.852  66.826  1.00  0.00    -0.403 A  
HETATM   19  C   UNL     1      -8.711  19.051  66.364  1.00  0.00    -0.317 A  
HETATM   20  N   UNL     1      -8.183  20.344  66.274  1.00  0.00    -0.542 NA 
HETATM   21  C   UNL     1      -7.874  17.943  66.220  1.00  0.00    -0.296 A  
HETATM   22  C   UNL     1      -8.361  16.651  66.422  1.00  0.00    -0.353 A  
HETATM   23  H2  UNL     1      -8.272  20.791  67.187  1.00  0.00     0.000 HD 
HETATM   24  H1  UNL     1      -7.230  20.489  65.938  1.00  0.00     0.000 HD 
ENDBRANCH  13  16
ENDBRANCH  11  13
ENDBRANCH   6  11
ENDBRANCH   2   3
TORSDOF 4
ENDMDL
MODEL       26
REMARK 921   NORMALIZED FREE ENERGY PREDICTED BY IDOCK:   -5.82 KCAL/MOL
REMARK 922        TOTAL FREE ENERGY PREDICTED BY IDOCK:   -8.00 KCAL/MOL
REMARK 923 INTER-LIGAND FREE ENERGY PREDICTED BY IDOCK:   -7.17 KCAL/MOL
REMARK 924 INTRA-LIGAND FREE ENERGY PREDICTED BY IDOCK:   -0.83 KCAL/MOL
REMARK 927      BINDING AFFINITY PREDICTED BY RF-SCORE:    0.00 PKD
ROOT
HETATM    1  C   UNL     1     -12.645  10.909  70.852  1.00  0.00    -0.494 C  
HETATM    2  C   UNL     1     -11.461  11.057  69.907  1.00  0.00    -0.320 C  
ENDROOT
BRANCH   2   3
HETATM    3  N   UNL     1     -11.699  12.097  68.910  1.00  0.00    -0.311 N  
HETATM    4  C   UNL     1     -11.887  13.403  69.309  1.00  0.00    -0.334 C  
HETATM    5  C   UNL     1     -12.065  14.375  68.414  1.00  0.00    -0.278 C  
HETATM    6  C   UNL     1     -11.999  13.924  67.020  1.00  0.00    -0.424 C  
HETATM    7  N   UNL     1     -11.803  12.723  66.625  1.00  0.00    -0.401 N  
HETATM    8  O   UNL     1     -11.457  10.571  67.211  1.00  0.00    -0.366 OA 
HETATM    9  C   UNL     1     -11.644  11.736  67.557  1.00  0.00    -0.291 C  
HETATM   10  H   UNL     1     -11.766  12.506  65.629  1.00  0.00     0.000 HD 
BRANCH   6  11
HETATM   11  N   UNL     1     -12.181  14.953  66.091  1.00  0.00    -0.005 N  
HETATM   12  H   UNL     1     -13.117  15.347  65.998  1.00  0.00     0.000 HD 
BRANCH  11  13
HETATM   13  S   UNL     1     -10.973  15.585  65.121  1.00  0.00    -0.397 S  
HETATM   14  O   UNL     1     -10.128  14.451  64.800  1.00  0.00    -0.354 OA 
HETATM   15  O   UNL     1     -11.588  16.360  64.065  1.00  0.00    -1.071 OA 
BRANCH  13  16
HETATM   16  C   UNL     1     -10.056  16.657  66.191  1.00  0.00    -0.345 A  
HETATM   17  C   UNL     1     -10.370  18.016  66.252  1.00  0.00    -0.384 A  
HETATM   18  C   UNL     1      -9.647  18.848  67.112  1.00  0.00    -0.344 A  
HETATM   19  C   UNL     1      -8.590  18.344  67.879  1.00  0.00    -0.272 A  
HETATM   20  N   UNL     1      -7.941  19.163  68.810  1.00  0.00    -0.354 NA 
HETATM   21  C   UNL     1      -8.350  16.969  67.870  1.00  0.00    -0.201 A  
HETATM   22  C   UNL     1      -9.075  16.124  67.029  1.00  0.00    -0.228 A  
HETATM   23  H2  UNL     1      -8.642  19.547  69.444  1.00  0.00     0.000 HD 
HETATM   24  H1  UNL     1      -7.170  18.796  69.369  1.00  0.00     0.000 HD 
ENDBRANCH  13  16
ENDBRANCH  11  13
ENDBRANCH   6  11
ENDBRANCH   2   3
TORSDOF 4
ENDMDL
MODEL       27
REMARK 921   NORMALIZED FREE ENERGY PREDICTED BY IDOCK:   -5.82 KCAL/MOL
REMARK 922        TOTAL FREE ENERGY PREDICTED BY IDOCK:   -8.00 KCAL/MOL
REMARK 923 INTER-LIGAND FREE ENERGY PREDICTED BY IDOCK:   -7.39 KCAL/MOL
REMARK 924 INTRA-LIGAND FREE ENERGY PREDICTED BY IDOCK:   -0.61 KCAL/MOL
REMARK 927      BINDING AFFINITY PREDICTED BY RF-SCORE:    0.00 PKD
ROOT
HETATM    1  C   UNL     1     -11.931  12.335  63.864  1.00  0.00    -0.582 C  
HETATM    2  C   UNL     1     -12.181  13.833  63.960  1.00  0.00    -0.380 C  
ENDROOT
BRANCH   2   3
HETATM    3  N   UNL     1     -11.259  14.470  64.896  1.00  0.00    -0.373 N  
HETATM    4  C   UNL     1     -10.564  13.704  65.807  1.00  0.00    -0.285 C  
HETATM    5  C   UNL     1      -9.687  14.259  66.645  1.00  0.00    -0.297 C  
HETATM    6  C   UNL     1      -9.523  15.705  66.465  1.00  0.00    -0.274 C  
HETATM    7  N   UNL     1     -10.137  16.434  65.612  1.00  0.00    -0.320 N  
HETATM    8  O   UNL     1     -11.660  16.523  63.948  1.00  0.00    -1.175 OA 
HETATM    9  C   UNL     1     -11.049  15.851  64.777  1.00  0.00    -0.384 C  
HETATM   10  H   UNL     1      -9.950  17.435  65.557  1.00  0.00     0.000 HD 
BRANCH   6  11
HETATM   11  N   UNL     1      -8.596  16.275  67.344  1.00  0.00    -0.175 N  
HETATM   12  H   UNL     1      -8.810  16.248  68.341  1.00  0.00     0.000 HD 
BRANCH  11  13
HETATM   13  S   UNL     1      -7.161  16.998  66.877  1.00  0.00    -0.241 S  
HETATM   14  O   UNL     1      -6.198  15.914  66.841  1.00  0.00    -0.302 OA 
HETATM   15  O   UNL     1      -7.410  17.795  65.695  1.00  0.00    -0.518 OA 
BRANCH  13  16
HETATM   16  C   UNL     1      -6.734  18.056  68.231  1.00  0.00    -0.207 A  
HETATM   17  C   UNL     1      -7.244  19.354  68.290  1.00  0.00    -0.331 A  
HETATM   18  C   UNL     1      -6.909  20.174  69.372  1.00  0.00    -0.203 A  
HETATM   19  C   UNL     1      -6.040  19.723  70.372  1.00  0.00    -0.277 A  
HETATM   20  N   UNL     1      -5.792  20.513  71.501  1.00  0.00    -0.634 NA 
HETATM   21  C   UNL     1      -5.612  18.394  70.342  1.00  0.00    -0.212 A  
HETATM   22  C   UNL     1      -5.952  17.560  69.276  1.00  0.00    -0.224 A  
HETATM   23  H2  UNL     1      -6.687  20.744  71.933  1.00  0.00     0.000 HD 
HETATM   24  H1  UNL     1      -5.158  20.185  72.230  1.00  0.00     0.000 HD 
ENDBRANCH  13  16
ENDBRANCH  11  13
ENDBRANCH   6  11
ENDBRANCH   2   3
TORSDOF 4
ENDMDL
MODEL       28
REMARK 921   NORMALIZED FREE ENERGY PREDICTED BY IDOCK:   -5.81 KCAL/MOL
REMARK 922        TOTAL FREE ENERGY PREDICTED BY IDOCK:   -7.99 KCAL/MOL
REMARK 923 INTER-LIGAND FREE ENERGY PREDICTED BY IDOCK:   -7.30 KCAL/MOL
REMARK 924 INTRA-LIGAND FREE ENERGY PREDICTED BY IDOCK:   -0.69 KCAL/MOL
REMARK 927      BINDING AFFINITY PREDICTED BY RF-SCORE:    0.00 PKD
ROOT
HETATM    1  C   UNL     1     -13.070  10.561  71.944  1.00  0.00    -0.567 C  
HETATM    2  C   UNL     1     -12.062  10.451  70.810  1.00  0.00    -0.364 C  
ENDROOT
BRANCH   2   3
HETATM    3  N   UNL     1     -12.068  11.645  69.970  1.00  0.00    -0.324 N  
HETATM    4  C   UNL     1     -12.177  12.892  70.548  1.00  0.00    -0.314 C  
HETATM    5  C   UNL     1     -12.144  13.999  69.804  1.00  0.00    -0.405 C  
HETATM    6  C   UNL     1     -11.946  13.751  68.373  1.00  0.00    -0.360 C  
HETATM    7  N   UNL     1     -11.818  12.606  67.816  1.00  0.00    -0.348 N  
HETATM    8  O   UNL     1     -11.761  10.367  68.088  1.00  0.00    -0.363 OA 
HETATM    9  C   UNL     1     -11.876  11.482  68.592  1.00  0.00    -0.318 C  
HETATM   10  H   UNL     1     -11.676  12.534  66.808  1.00  0.00     0.000 HD 
BRANCH   6  11
HETATM   11  N   UNL     1     -11.906  14.918  67.605  1.00  0.00    -0.456 N  
HETATM   12  H   UNL     1     -12.681  15.574  67.700  1.00  0.00     0.000 HD 
BRANCH  11  13
HETATM   13  S   UNL     1     -10.678  15.318  66.540  1.00  0.00    -0.311 S  
HETATM   14  O   UNL     1      -9.524  14.580  67.016  1.00  0.00    -0.222 OA 
HETATM   15  O   UNL     1     -11.160  15.128  65.189  1.00  0.00    -0.362 OA 
BRANCH  13  16
HETATM   16  C   UNL     1     -10.378  17.039  66.830  1.00  0.00    -0.303 A  
HETATM   17  C   UNL     1     -10.540  17.959  65.794  1.00  0.00    -0.175 A  
HETATM   18  C   UNL     1     -10.314  19.317  66.041  1.00  0.00    -0.556 A  
HETATM   19  C   UNL     1      -9.889  19.756  67.300  1.00  0.00    -0.384 A  
HETATM   20  N   UNL     1      -9.763  21.125  67.565  1.00  0.00    -0.397 NA 
HETATM   21  C   UNL     1      -9.818  18.833  68.346  1.00  0.00    -0.429 A  
HETATM   22  C   UNL     1     -10.058  17.477  68.116  1.00  0.00    -0.341 A  
HETATM   23  H2  UNL     1     -10.653  21.576  67.352  1.00  0.00     0.000 HD 
HETATM   24  H1  UNL     1      -9.453  21.445  68.483  1.00  0.00     0.000 HD 
ENDBRANCH  13  16
ENDBRANCH  11  13
ENDBRANCH   6  11
ENDBRANCH   2   3
TORSDOF 4
ENDMDL
MODEL       29
REMARK 921   NORMALIZED FREE ENERGY PREDICTED BY IDOCK:   -5.81 KCAL/MOL
REMARK 922        TOTAL FREE ENERGY PREDICTED BY IDOCK:   -7.99 KCAL/MOL
REMARK 923 INTER-LIGAND FREE ENERGY PREDICTED BY IDOCK:   -8.01 KCAL/MOL
REMARK 924 INTRA-LIGAND FREE ENERGY PREDICTED BY IDOCK:    0.03 KCAL/MOL
REMARK 927      BINDING AFFINITY PREDICTED BY RF-SCORE:    0.00 PKD
ROOT
HETATM    1  C   UNL     1     -10.098  11.271  63.549  1.00  0.00    -0.443 C  
HETATM    2  C   UNL     1     -11.560  11.664  63.699  1.00  0.00    -0.334 C  
ENDROOT
BRANCH   2   3
HETATM    3  N   UNL     1     -11.771  12.492  64.883  1.00  0.00    -0.343 N  
HETATM    4  C   UNL     1     -11.414  12.019  66.128  1.00  0.00    -0.339 C  
HETATM    5  C   UNL     1     -11.560  12.772  67.218  1.00  0.00    -0.420 C  
HETATM    6  C   UNL     1     -12.081  14.117  66.949  1.00  0.00    -0.432 C  
HETATM    7  N   UNL     1     -12.398  14.587  65.802  1.00  0.00    -0.294 N  
HETATM    8  O   UNL     1     -12.560  14.212  63.583  1.00  0.00    -0.831 OA 
HETATM    9  C   UNL     1     -12.261  13.792  64.699  1.00  0.00    -0.406 C  
HETATM   10  H   UNL     1     -12.747  15.542  65.713  1.00  0.00     0.000 HD 
BRANCH   6  11
HETATM   11  N   UNL     1     -12.224  14.900  68.098  1.00  0.00    -0.566 N  
HETATM   12  H   UNL     1     -13.171  15.114  68.410  1.00  0.00     0.000 HD 
BRANCH  11  13
HETATM   13  S   UNL     1     -10.953  15.511  68.999  1.00  0.00    -0.277 S  
HETATM   14  O   UNL     1     -11.541  15.859  70.277  1.00  0.00    -0.320 OA 
HETATM   15  O   UNL     1      -9.851  14.575  68.932  1.00  0.00    -0.224 OA 
BRANCH  13  16
HETATM   16  C   UNL     1     -10.507  17.015  68.179  1.00  0.00    -0.357 A  
HETATM   17  C   UNL     1     -10.506  17.076  66.785  1.00  0.00    -0.257 A  
HETATM   18  C   UNL     1     -10.165  18.275  66.151  1.00  0.00    -0.393 A  
HETATM   19  C   UNL     1      -9.789  19.399  66.895  1.00  0.00    -0.352 A  
HETATM   20  N   UNL     1      -9.549  20.621  66.257  1.00  0.00    -0.619 NA 
HETATM   21  C   UNL     1      -9.883  19.345  68.288  1.00  0.00    -0.500 A  
HETATM   22  C   UNL     1     -10.237  18.159  68.933  1.00  0.00    -0.304 A  
HETATM   23  H2  UNL     1     -10.373  20.863  65.706  1.00  0.00     0.000 HD 
HETATM   24  H1  UNL     1      -9.274  21.440  66.799  1.00  0.00     0.000 HD 
ENDBRANCH  13  16
ENDBRANCH  11  13
ENDBRANCH   6  11
ENDBRANCH   2   3
TORSDOF 4
ENDMDL
MODEL       30
REMARK 921   NORMALIZED FREE ENERGY PREDICTED BY IDOCK:   -5.81 KCAL/MOL
REMARK 922        TOTAL FREE ENERGY PREDICTED BY IDOCK:   -7.98 KCAL/MOL
REMARK 923 INTER-LIGAND FREE ENERGY PREDICTED BY IDOCK:   -7.46 KCAL/MOL
REMARK 924 INTRA-LIGAND FREE ENERGY PREDICTED BY IDOCK:   -0.53 KCAL/MOL
REMARK 927      BINDING AFFINITY PREDICTED BY RF-SCORE:    0.00 PKD
ROOT
HETATM    1  C   UNL     1     -10.510  11.527  63.224  1.00  0.00    -0.421 C  
HETATM    2  C   UNL     1     -11.649  12.386  63.753  1.00  0.00    -0.473 C  
ENDROOT
BRANCH   2   3
HETATM    3  N   UNL     1     -11.353  12.904  65.086  1.00  0.00    -0.291 N  
HETATM    4  C   UNL     1     -10.143  12.620  65.682  1.00  0.00    -0.272 C  
HETATM    5  C   UNL     1      -9.835  13.116  66.882  1.00  0.00    -0.249 C  
HETATM    6  C   UNL     1     -10.867  13.990  67.449  1.00  0.00    -0.282 C  
HETATM    7  N   UNL     1     -11.986  14.287  66.906  1.00  0.00    -0.433 N  
HETATM    8  O   UNL     1     -13.362  14.015  65.139  1.00  0.00    -0.703 OA 
HETATM    9  C   UNL     1     -12.293  13.753  65.686  1.00  0.00    -0.482 C  
HETATM   10  H   UNL     1     -12.639  14.914  67.377  1.00  0.00     0.000 HD 
BRANCH   6  11
HETATM   11  N   UNL     1     -10.530  14.509  68.703  1.00  0.00    -0.241 N  
HETATM   12  H   UNL     1      -9.539  14.597  68.929  1.00  0.00     0.000 HD 
BRANCH  11  13
HETATM   13  S   UNL     1     -11.636  14.996  69.861  1.00  0.00    -0.315 S  
HETATM   14  O   UNL     1     -10.844  15.687  70.859  1.00  0.00    -0.315 OA 
HETATM   15  O   UNL     1     -12.729  15.673  69.197  1.00  0.00     0.143 OA 
BRANCH  13  16
HETATM   16  C   UNL     1     -12.220  13.488  70.582  1.00  0.00    -0.358 A  
HETATM   17  C   UNL     1     -11.796  12.260  70.072  1.00  0.00    -0.372 A  
HETATM   18  C   UNL     1     -12.255  11.078  70.660  1.00  0.00    -0.481 A  
HETATM   19  C   UNL     1     -13.162  11.111  71.725  1.00  0.00    -0.381 A  
HETATM   20  N   UNL     1     -13.535   9.927  72.372  1.00  0.00    -0.625 NA 
HETATM   21  C   UNL     1     -13.504  12.346  72.279  1.00  0.00    -0.428 A  
HETATM   22  C   UNL     1     -13.040  13.534  71.711  1.00  0.00    -0.475 A  
HETATM   23  H2  UNL     1     -12.689   9.452  72.686  1.00  0.00     0.000 HD 
HETATM   24  H1  UNL     1     -14.197   9.950  73.148  1.00  0.00     0.000 HD 
ENDBRANCH  13  16
ENDBRANCH  11  13
ENDBRANCH   6  11
ENDBRANCH   2   3
TORSDOF 4
ENDMDL
MODEL       31
REMARK 921   NORMALIZED FREE ENERGY PREDICTED BY IDOCK:   -5.80 KCAL/MOL
REMARK 922        TOTAL FREE ENERGY PREDICTED BY IDOCK:   -7.98 KCAL/MOL
REMARK 923 INTER-LIGAND FREE ENERGY PREDICTED BY IDOCK:   -7.15 KCAL/MOL
REMARK 924 INTRA-LIGAND FREE ENERGY PREDICTED BY IDOCK:   -0.83 KCAL/MOL
REMARK 927      BINDING AFFINITY PREDICTED BY RF-SCORE:    0.00 PKD
ROOT
HETATM    1  C   UNL     1      -7.705  19.156  66.746  1.00  0.00    -0.259 C  
HETATM    2  C   UNL     1      -9.087  18.648  67.128  1.00  0.00    -0.288 C  
ENDROOT
BRANCH   2   3
HETATM    3  N   UNL     1      -9.415  17.410  66.428  1.00  0.00    -0.268 N  
HETATM    4  C   UNL     1      -8.771  16.238  66.764  1.00  0.00    -0.231 C  
HETATM    5  C   UNL     1      -9.083  15.087  66.166  1.00  0.00    -0.237 C  
HETATM    6  C   UNL     1     -10.168  15.198  65.186  1.00  0.00    -0.351 C  
HETATM    7  N   UNL     1     -10.796  16.268  64.874  1.00  0.00    -0.384 N  
HETATM    8  O   UNL     1     -11.029  18.489  65.202  1.00  0.00    -0.571 OA 
HETATM    9  C   UNL     1     -10.448  17.442  65.482  1.00  0.00    -0.101 C  
HETATM   10  H   UNL     1     -11.546  16.245  64.182  1.00  0.00     0.000 HD 
BRANCH   6  11
HETATM   11  N   UNL     1     -10.491  13.985  64.571  1.00  0.00    -0.584 N  
HETATM   12  H   UNL     1      -9.821  13.599  63.905  1.00  0.00     0.000 HD 
BRANCH  11  13
HETATM   13  S   UNL     1     -11.896  13.119  64.849  1.00  0.00    -0.383 S  
HETATM   14  O   UNL     1     -12.949  14.115  64.841  1.00  0.00    -0.705 OA 
HETATM   15  O   UNL     1     -11.938  12.003  63.930  1.00  0.00    -0.418 OA 
BRANCH  13  16
HETATM   16  C   UNL     1     -11.730  12.520  66.507  1.00  0.00    -0.391 A  
HETATM   17  C   UNL     1     -11.213  11.245  66.740  1.00  0.00    -0.265 A  
HETATM   18  C   UNL     1     -11.075  10.790  68.054  1.00  0.00    -0.359 A  
HETATM   19  C   UNL     1     -11.484  11.581  69.134  1.00  0.00    -0.297 A  
HETATM   20  N   UNL     1     -11.248  11.159  70.448  1.00  0.00    -0.445 NA 
HETATM   21  C   UNL     1     -11.915  12.886  68.886  1.00  0.00    -0.291 A  
HETATM   22  C   UNL     1     -12.042  13.358  67.579  1.00  0.00    -0.323 A  
HETATM   23  H2  UNL     1     -10.251  10.969  70.550  1.00  0.00     0.000 HD 
HETATM   24  H1  UNL     1     -11.547  11.735  71.235  1.00  0.00     0.000 HD 
ENDBRANCH  13  16
ENDBRANCH  11  13
ENDBRANCH   6  11
ENDBRANCH   2   3
TORSDOF 4
ENDMDL
MODEL       32
REMARK 921   NORMALIZED FREE ENERGY PREDICTED BY IDOCK:   -5.76 KCAL/MOL
REMARK 922        TOTAL FREE ENERGY PREDICTED BY IDOCK:   -7.93 KCAL/MOL
REMARK 923 INTER-LIGAND FREE ENERGY PREDICTED BY IDOCK:   -7.28 KCAL/MOL
REMARK 924 INTRA-LIGAND FREE ENERGY PREDICTED BY IDOCK:   -0.65 KCAL/MOL
REMARK 927      BINDING AFFINITY PREDICTED BY RF-SCORE:    0.00 PKD
ROOT
HETATM    1  C   UNL     1      -6.512  20.524  66.034  1.00  0.00    -0.268 C  
HETATM    2  C   UNL     1      -7.354  20.876  67.251  1.00  0.00    -0.321 C  
ENDROOT
BRANCH   2   3
HETATM    3  N   UNL     1      -8.371  19.860  67.509  1.00  0.00    -0.315 N  
HETATM    4  C   UNL     1      -9.507  19.810  66.730  1.00  0.00    -0.382 C  
HETATM    5  C   UNL     1     -10.430  18.866  66.921  1.00  0.00    -0.496 C  
HETATM    6  C   UNL     1     -10.093  17.907  67.978  1.00  0.00    -0.358 C  
HETATM    7  N   UNL     1      -9.036  17.918  68.698  1.00  0.00    -0.282 N  
HETATM    8  O   UNL     1      -7.086  18.948  69.180  1.00  0.00    -0.308 OA 
HETATM    9  C   UNL     1      -8.112  18.906  68.502  1.00  0.00    -0.348 C  
HETATM   10  H   UNL     1      -8.885  17.201  69.408  1.00  0.00     0.000 HD 
BRANCH   6  11
HETATM   11  N   UNL     1     -11.064  16.918  68.165  1.00  0.00    -0.293 N  
HETATM   12  H   UNL     1     -12.032  17.221  68.276  1.00  0.00     0.000 HD 
BRANCH  11  13
HETATM   13  S   UNL     1     -10.753  15.275  68.217  1.00  0.00    -0.262 S  
HETATM   14  O   UNL     1     -11.325  14.752  66.992  1.00  0.00    -0.338 OA 
HETATM   15  O   UNL     1      -9.349  15.082  68.510  1.00  0.00    -0.183 OA 
BRANCH  13  16
HETATM   16  C   UNL     1     -11.731  14.679  69.568  1.00  0.00    -0.324 A  
HETATM   17  C   UNL     1     -12.436  15.578  70.369  1.00  0.00    -0.443 A  
HETATM   18  C   UNL     1     -13.215  15.092  71.424  1.00  0.00    -0.528 A  
HETATM   19  C   UNL     1     -13.264  13.723  71.708  1.00  0.00    -0.386 A  
HETATM   20  N   UNL     1     -14.125  13.238  72.700  1.00  0.00    -0.707 NA 
HETATM   21  C   UNL     1     -12.625  12.833  70.842  1.00  0.00    -0.342 A  
HETATM   22  C   UNL     1     -11.857  13.304  69.776  1.00  0.00    -0.394 A  
HETATM   23  H2  UNL     1     -15.071  13.555  72.487  1.00  0.00     0.000 HD 
HETATM   24  H1  UNL     1     -14.161  12.240  72.907  1.00  0.00     0.000 HD 
ENDBRANCH  13  16
ENDBRANCH  11  13
ENDBRANCH   6  11
ENDBRANCH   2   3
TORSDOF 4
ENDMDL
MODEL       33
REMARK 921   NORMALIZED FREE ENERGY PREDICTED BY IDOCK:   -5.76 KCAL/MOL
REMARK 922        TOTAL FREE ENERGY PREDICTED BY IDOCK:   -7.93 KCAL/MOL
REMARK 923 INTER-LIGAND FREE ENERGY PREDICTED BY IDOCK:   -7.30 KCAL/MOL
REMARK 924 INTRA-LIGAND FREE ENERGY PREDICTED BY IDOCK:   -0.63 KCAL/MOL
REMARK 927      BINDING AFFINITY PREDICTED BY RF-SCORE:    0.00 PKD
ROOT
HETATM    1  C   UNL     1     -10.008   7.278  73.659  1.00  0.00    -0.377 C  
HETATM    2  C   UNL     1     -11.269   7.134  72.821  1.00  0.00    -0.275 C  
ENDROOT
BRANCH   2   3
HETATM    3  N   UNL     1     -11.256   8.039  71.675  1.00  0.00    -0.247 N  
HETATM    4  C   UNL     1     -10.308   7.884  70.687  1.00  0.00    -0.202 C  
HETATM    5  C   UNL     1     -10.302   8.672  69.611  1.00  0.00    -0.213 C  
HETATM    6  C   UNL     1     -11.394   9.650  69.581  1.00  0.00    -0.073 C  
HETATM    7  N   UNL     1     -12.298   9.798  70.473  1.00  0.00    -0.481 N  
HETATM    8  O   UNL     1     -13.129   9.113  72.457  1.00  0.00    -0.429 OA 
HETATM    9  C   UNL     1     -12.276   8.995  71.579  1.00  0.00    -0.335 C  
HETATM   10  H   UNL     1     -13.026  10.505  70.360  1.00  0.00     0.000 HD 
BRANCH   6  11
HETATM   11  N   UNL     1     -11.381  10.466  68.446  1.00  0.00    -0.462 N  
HETATM   12  H   UNL     1     -11.608  10.035  67.550  1.00  0.00     0.000 HD 
BRANCH  11  13
HETATM   13  S   UNL     1     -11.020  12.101  68.452  1.00  0.00    -0.252 S  
HETATM   14  O   UNL     1     -11.981  12.687  69.365  1.00  0.00    -0.301 OA 
HETATM   15  O   UNL     1      -9.600  12.258  68.685  1.00  0.00    -0.156 OA 
BRANCH  13  16
HETATM   16  C   UNL     1     -11.420  12.652  66.817  1.00  0.00    -0.351 A  
HETATM   17  C   UNL     1     -11.101  11.857  65.715  1.00  0.00    -0.367 A  
HETATM   18  C   UNL     1     -11.435  12.299  64.431  1.00  0.00    -0.417 A  
HETATM   19  C   UNL     1     -12.047  13.542  64.237  1.00  0.00    -0.431 A  
HETATM   20  N   UNL     1     -12.469  13.929  62.959  1.00  0.00    -1.009 NA 
HETATM   21  C   UNL     1     -12.439  14.281  65.355  1.00  0.00    -0.434 A  
HETATM   22  C   UNL     1     -12.126  13.843  66.643  1.00  0.00    -0.485 A  
HETATM   23  H2  UNL     1     -13.088  13.205  62.593  1.00  0.00     0.000 HD 
HETATM   24  H1  UNL     1     -12.916  14.835  62.817  1.00  0.00     0.000 HD 
ENDBRANCH  13  16
ENDBRANCH  11  13
ENDBRANCH   6  11
ENDBRANCH   2   3
TORSDOF 4
ENDMDL
MODEL       34
REMARK 921   NORMALIZED FREE ENERGY PREDICTED BY IDOCK:   -5.75 KCAL/MOL
REMARK 922        TOTAL FREE ENERGY PREDICTED BY IDOCK:   -7.92 KCAL/MOL
REMARK 923 INTER-LIGAND FREE ENERGY PREDICTED BY IDOCK:   -7.31 KCAL/MOL
REMARK 924 INTRA-LIGAND FREE ENERGY PREDICTED BY IDOCK:   -0.61 KCAL/MOL
REMARK 927      BINDING AFFINITY PREDICTED BY RF-SCORE:    0.00 PKD
ROOT
HETATM    1  C   UNL     1     -10.504   6.976  73.683  1.00  0.00    -0.414 C  
HETATM    2  C   UNL     1     -11.580   6.714  72.640  1.00  0.00    -0.134 C  
ENDROOT
BRANCH   2   3
HETATM    3  N   UNL     1     -11.503   7.670  71.540  1.00  0.00    -0.258 N  
HETATM    4  C   UNL     1     -11.616   9.021  71.793  1.00  0.00    -0.374 C  
HETATM    5  C   UNL     1     -11.508   9.915  70.809  1.00  0.00    -0.433 C  
HETATM    6  C   UNL     1     -11.226   9.327  69.495  1.00  0.00     0.004 C  
HETATM    7  N   UNL     1     -11.093   8.081  69.240  1.00  0.00    -0.435 N  
HETATM    8  O   UNL     1     -11.111   5.973  70.044  1.00  0.00    -0.351 OA 
HETATM    9  C   UNL     1     -11.229   7.178  70.257  1.00  0.00    -0.276 C  
HETATM   10  H   UNL     1     -10.890   7.766  68.291  1.00  0.00     0.000 HD 
BRANCH   6  11
HETATM   11  N   UNL     1     -11.109  10.275  68.474  1.00  0.00    -0.347 N  
HETATM   12  H   UNL     1     -11.598  11.162  68.593  1.00  0.00     0.000 HD 
BRANCH  11  13
HETATM   13  S   UNL     1     -10.222  10.058  67.071  1.00  0.00    -0.246 S  
HETATM   14  O   UNL     1      -8.882  10.493  67.411  1.00  0.00    -0.132 OA 
HETATM   15  O   UNL     1     -10.453   8.715  66.584  1.00  0.00    -0.277 OA 
BRANCH  13  16
HETATM   16  C   UNL     1     -10.899  11.231  65.930  1.00  0.00    -0.202 A  
HETATM   17  C   UNL     1     -11.710  12.267  66.394  1.00  0.00    -0.431 A  
HETATM   18  C   UNL     1     -12.227  13.194  65.484  1.00  0.00    -0.513 A  
HETATM   19  C   UNL     1     -11.974  13.071  64.113  1.00  0.00    -0.427 A  
HETATM   20  N   UNL     1     -12.410  14.060  63.223  1.00  0.00    -1.145 NA 
HETATM   21  C   UNL     1     -11.089  12.082  63.679  1.00  0.00    -0.525 A  
HETATM   22  C   UNL     1     -10.554  11.160  64.579  1.00  0.00    -0.397 A  
HETATM   23  H2  UNL     1     -12.044  14.958  63.537  1.00  0.00     0.000 HD 
HETATM   24  H1  UNL     1     -12.226  13.970  62.223  1.00  0.00     0.000 HD 
ENDBRANCH  13  16
ENDBRANCH  11  13
ENDBRANCH   6  11
ENDBRANCH   2   3
TORSDOF 4
ENDMDL
MODEL       35
REMARK 921   NORMALIZED FREE ENERGY PREDICTED BY IDOCK:   -5.74 KCAL/MOL
REMARK 922        TOTAL FREE ENERGY PREDICTED BY IDOCK:   -7.90 KCAL/MOL
REMARK 923 INTER-LIGAND FREE ENERGY PREDICTED BY IDOCK:   -7.21 KCAL/MOL
REMARK 924 INTRA-LIGAND FREE ENERGY PREDICTED BY IDOCK:   -0.69 KCAL/MOL
REMARK 927      BINDING AFFINITY PREDICTED BY RF-SCORE:    0.00 PKD
ROOT
HETATM    1  C   UNL     1     -12.098  12.861  63.237  1.00  0.00    -0.520 C  
HETATM    2  C   UNL     1     -11.379  13.254  64.519  1.00  0.00    -0.363 C  
ENDROOT
BRANCH   2   3
HETATM    3  N   UNL     1     -11.110  12.091  65.360  1.00  0.00    -0.312 N  
HETATM    4  C   UNL     1     -10.371  11.039  64.863  1.00  0.00    -0.313 C  
HETATM    5  C   UNL     1     -10.078   9.985  65.625  1.00  0.00    -0.321 C  
HETATM    6  C   UNL     1     -10.573  10.087  67.002  1.00  0.00    -0.212 C  
HETATM    7  N   UNL     1     -11.239  11.062  67.493  1.00  0.00    -0.309 N  
HETATM    8  O   UNL     1     -12.191  13.076  67.130  1.00  0.00    -0.323 OA 
HETATM    9  C   UNL     1     -11.548  12.125  66.690  1.00  0.00    -0.350 C  
HETATM   10  H   UNL     1     -11.535  11.048  68.470  1.00  0.00     0.000 HD 
BRANCH   6  11
HETATM   11  N   UNL     1     -10.254   8.980  67.794  1.00  0.00    -0.216 N  
HETATM   12  H   UNL     1     -10.430   8.054  67.405  1.00  0.00     0.000 HD 
BRANCH  11  13
HETATM   13  S   UNL     1      -9.604   9.065  69.334  1.00  0.00    -0.164 S  
HETATM   14  O   UNL     1      -8.871   7.824  69.493  1.00  0.00    -0.138 OA 
HETATM   15  O   UNL     1      -8.928  10.336  69.478  1.00  0.00    -0.197 OA 
BRANCH  13  16
HETATM   16  C   UNL     1     -11.006   9.009  70.413  1.00  0.00    -0.247 A  
HETATM   17  C   UNL     1     -11.502   7.780  70.849  1.00  0.00    -0.294 A  
HETATM   18  C   UNL     1     -12.601   7.751  71.713  1.00  0.00    -0.356 A  
HETATM   19  C   UNL     1     -13.232   8.935  72.111  1.00  0.00    -0.429 A  
HETATM   20  N   UNL     1     -14.266   8.902  73.055  1.00  0.00    -1.158 NA 
HETATM   21  C   UNL     1     -12.667  10.156  71.737  1.00  0.00    -0.534 A  
HETATM   22  C   UNL     1     -11.560  10.199  70.889  1.00  0.00    -0.459 A  
HETATM   23  H2  UNL     1     -13.924   8.424  73.889  1.00  0.00     0.000 HD 
HETATM   24  H1  UNL     1     -14.726   9.765  73.345  1.00  0.00     0.000 HD 
ENDBRANCH  13  16
ENDBRANCH  11  13
ENDBRANCH   6  11
ENDBRANCH   2   3
TORSDOF 4
ENDMDL
MODEL       36
REMARK 921   NORMALIZED FREE ENERGY PREDICTED BY IDOCK:   -5.73 KCAL/MOL
REMARK 922        TOTAL FREE ENERGY PREDICTED BY IDOCK:   -7.90 KCAL/MOL
REMARK 923 INTER-LIGAND FREE ENERGY PREDICTED BY IDOCK:   -7.24 KCAL/MOL
REMARK 924 INTRA-LIGAND FREE ENERGY PREDICTED BY IDOCK:   -0.65 KCAL/MOL
REMARK 927      BINDING AFFINITY PREDICTED BY RF-SCORE:    0.00 PKD
ROOT
HETATM    1  C   UNL     1     -10.369   7.352  73.430  1.00  0.00    -0.411 C  
HETATM    2  C   UNL     1     -11.446   7.084  72.390  1.00  0.00    -0.261 C  
ENDROOT
BRANCH   2   3
HETATM    3  N   UNL     1     -11.683   8.255  71.551  1.00  0.00    -0.280 N  
HETATM    4  C   UNL     1     -12.418   9.314  72.039  1.00  0.00    -0.378 C  
HETATM    5  C   UNL     1     -12.612  10.411  71.306  1.00  0.00    -0.525 C  
HETATM    6  C   UNL     1     -11.951  10.380  69.997  1.00  0.00    -0.247 C  
HETATM    7  N   UNL     1     -11.245   9.420  69.532  1.00  0.00    -0.429 N  
HETATM    8  O   UNL     1     -10.405   7.353  69.870  1.00  0.00    -0.207 OA 
HETATM    9  C   UNL     1     -11.075   8.295  70.289  1.00  0.00    -0.219 C  
HETATM   10  H   UNL     1     -10.816   9.493  68.609  1.00  0.00     0.000 HD 
BRANCH   6  11
HETATM   11  N   UNL     1     -12.156  11.537  69.240  1.00  0.00    -0.309 N  
HETATM   12  H   UNL     1     -13.119  11.813  69.048  1.00  0.00     0.000 HD 
BRANCH  11  13
HETATM   13  S   UNL     1     -10.935  12.504  68.627  1.00  0.00    -0.263 S  
HETATM   14  O   UNL     1     -11.072  13.762  69.333  1.00  0.00    -0.231 OA 
HETATM   15  O   UNL     1      -9.692  11.765  68.682  1.00  0.00    -0.191 OA 
BRANCH  13  16
HETATM   16  C   UNL     1     -11.390  12.779  66.938  1.00  0.00    -0.321 A  
HETATM   17  C   UNL     1     -11.955  13.997  66.557  1.00  0.00    -0.470 A  
HETATM   18  C   UNL     1     -12.296  14.206  65.217  1.00  0.00    -0.469 A  
HETATM   19  C   UNL     1     -12.116  13.196  64.265  1.00  0.00    -0.414 A  
HETATM   20  N   UNL     1     -12.366  13.449  62.911  1.00  0.00    -0.882 NA 
HETATM   21  C   UNL     1     -11.469  12.019  64.648  1.00  0.00    -0.371 A  
HETATM   22  C   UNL     1     -11.108  11.805  65.979  1.00  0.00    -0.363 A  
HETATM   23  H2  UNL     1     -11.813  14.258  62.629  1.00  0.00     0.000 HD 
HETATM   24  H1  UNL     1     -12.235  12.713  62.217  1.00  0.00     0.000 HD 
ENDBRANCH  13  16
ENDBRANCH  11  13
ENDBRANCH   6  11
ENDBRANCH   2   3
TORSDOF 4
ENDMDL
MODEL       37
REMARK 921   NORMALIZED FREE ENERGY PREDICTED BY IDOCK:   -5.73 KCAL/MOL
REMARK 922        TOTAL FREE ENERGY PREDICTED BY IDOCK:   -7.89 KCAL/MOL
REMARK 923 INTER-LIGAND FREE ENERGY PREDICTED BY IDOCK:   -7.31 KCAL/MOL
REMARK 924 INTRA-LIGAND FREE ENERGY PREDICTED BY IDOCK:   -0.58 KCAL/MOL
REMARK 927      BINDING AFFINITY PREDICTED BY RF-SCORE:    0.00 PKD
ROOT
HETATM    1  C   UNL     1     -12.756  11.815  63.370  1.00  0.00    -0.395 C  
HETATM    2  C   UNL     1     -12.401  13.290  63.260  1.00  0.00    -0.238 C  
ENDROOT
BRANCH   2   3
HETATM    3  N   UNL     1     -11.704  13.763  64.453  1.00  0.00    -0.398 N  
HETATM    4  C   UNL     1     -11.132  12.858  65.320  1.00  0.00    -0.284 C  
HETATM    5  C   UNL     1     -10.456  13.268  66.394  1.00  0.00    -0.286 C  
HETATM    6  C   UNL     1     -10.358  14.726  66.517  1.00  0.00    -0.286 C  
HETATM    7  N   UNL     1     -10.859  15.586  65.714  1.00  0.00    -0.338 N  
HETATM    8  O   UNL     1     -12.065  15.947  63.841  1.00  0.00    -0.768 OA 
HETATM    9  C   UNL     1     -11.568  15.147  64.631  1.00  0.00    -0.357 C  
HETATM   10  H   UNL     1     -10.731  16.584  65.879  1.00  0.00     0.000 HD 
BRANCH   6  11
HETATM   11  N   UNL     1      -9.641  15.143  67.643  1.00  0.00    -0.206 N  
HETATM   12  H   UNL     1      -8.754  14.680  67.838  1.00  0.00     0.000 HD 
BRANCH  11  13
HETATM   13  S   UNL     1     -10.134  16.350  68.692  1.00  0.00    -0.258 S  
HETATM   14  O   UNL     1      -8.927  16.746  69.391  1.00  0.00    -0.080 OA 
HETATM   15  O   UNL     1     -10.900  17.325  67.946  1.00  0.00    -0.369 OA 
BRANCH  13  16
HETATM   16  C   UNL     1     -11.187  15.528  69.854  1.00  0.00    -0.316 A  
HETATM   17  C   UNL     1     -11.538  14.192  69.654  1.00  0.00    -0.349 A  
HETATM   18  C   UNL     1     -12.359  13.552  70.586  1.00  0.00    -0.432 A  
HETATM   19  C   UNL     1     -12.864  14.244  71.694  1.00  0.00    -0.348 A  
HETATM   20  N   UNL     1     -13.600  13.567  72.673  1.00  0.00    -0.692 NA 
HETATM   21  C   UNL     1     -12.430  15.551  71.924  1.00  0.00    -0.475 A  
HETATM   22  C   UNL     1     -11.597  16.197  71.009  1.00  0.00    -0.434 A  
HETATM   23  H2  UNL     1     -13.040  12.785  73.013  1.00  0.00     0.000 HD 
HETATM   24  H1  UNL     1     -13.968  14.071  73.481  1.00  0.00     0.000 HD 
ENDBRANCH  13  16
ENDBRANCH  11  13
ENDBRANCH   6  11
ENDBRANCH   2   3
TORSDOF 4
ENDMDL
MODEL       38
REMARK 921   NORMALIZED FREE ENERGY PREDICTED BY IDOCK:   -5.72 KCAL/MOL
REMARK 922        TOTAL FREE ENERGY PREDICTED BY IDOCK:   -7.88 KCAL/MOL
REMARK 923 INTER-LIGAND FREE ENERGY PREDICTED BY IDOCK:   -7.25 KCAL/MOL
REMARK 924 INTRA-LIGAND FREE ENERGY PREDICTED BY IDOCK:   -0.63 KCAL/MOL
REMARK 927      BINDING AFFINITY PREDICTED BY RF-SCORE:    0.00 PKD
ROOT
HETATM    1  C   UNL     1     -12.769  15.901  74.116  1.00  0.00    -0.661 C  
HETATM    2  C   UNL     1     -13.608  15.539  72.900  1.00  0.00    -0.544 C  
ENDROOT
BRANCH   2   3
HETATM    3  N   UNL     1     -12.777  15.042  71.806  1.00  0.00    -0.318 N  
HETATM    4  C   UNL     1     -11.980  15.914  71.096  1.00  0.00    -0.427 C  
HETATM    5  C   UNL     1     -11.183  15.477  70.120  1.00  0.00    -0.331 C  
HETATM    6  C   UNL     1     -11.218  14.024  69.926  1.00  0.00    -0.071 C  
HETATM    7  N   UNL     1     -11.930  13.192  70.587  1.00  0.00    -0.533 N  
HETATM    8  O   UNL     1     -13.457  12.888  72.221  1.00  0.00    -0.562 OA 
HETATM    9  C   UNL     1     -12.757  13.661  71.569  1.00  0.00    -0.332 C  
HETATM   10  H   UNL     1     -11.881  12.193  70.384  1.00  0.00     0.000 HD 
BRANCH   6  11
HETATM   11  N   UNL     1     -10.374  13.577  68.906  1.00  0.00    -0.407 N  
HETATM   12  H   UNL     1      -9.427  13.299  69.162  1.00  0.00     0.000 HD 
BRANCH  11  13
HETATM   13  S   UNL     1     -10.806  13.465  67.293  1.00  0.00    -0.271 S  
HETATM   14  O   UNL     1     -12.234  13.714  67.276  1.00  0.00    -0.366 OA 
HETATM   15  O   UNL     1      -9.910  14.296  66.517  1.00  0.00    -0.268 OA 
BRANCH  13  16
HETATM   16  C   UNL     1     -10.548  11.762  66.879  1.00  0.00    -0.235 A  
HETATM   17  C   UNL     1      -9.855  11.424  65.716  1.00  0.00    -0.270 A  
HETATM   18  C   UNL     1      -9.646  10.076  65.409  1.00  0.00    -0.342 A  
HETATM   19  C   UNL     1     -10.158   9.066  66.231  1.00  0.00    -0.241 A  
HETATM   20  N   UNL     1      -9.857   7.724  65.970  1.00  0.00    -0.431 NA 
HETATM   21  C   UNL     1     -10.770   9.423  67.434  1.00  0.00    -0.280 A  
HETATM   22  C   UNL     1     -10.970  10.766  67.761  1.00  0.00    -0.354 A  
HETATM   23  H2  UNL     1      -8.843   7.623  65.933  1.00  0.00     0.000 HD 
HETATM   24  H1  UNL     1     -10.230   6.987  66.569  1.00  0.00     0.000 HD 
ENDBRANCH  13  16
ENDBRANCH  11  13
ENDBRANCH   6  11
ENDBRANCH   2   3
TORSDOF 4
ENDMDL
MODEL       39
REMARK 921   NORMALIZED FREE ENERGY PREDICTED BY IDOCK:   -5.70 KCAL/MOL
REMARK 922        TOTAL FREE ENERGY PREDICTED BY IDOCK:   -7.85 KCAL/MOL
REMARK 923 INTER-LIGAND FREE ENERGY PREDICTED BY IDOCK:   -7.25 KCAL/MOL
REMARK 924 INTRA-LIGAND FREE ENERGY PREDICTED BY IDOCK:   -0.61 KCAL/MOL
REMARK 927      BINDING AFFINITY PREDICTED BY RF-SCORE:    0.00 PKD
ROOT
HETATM    1  C   UNL     1     -10.310  19.282  67.428  1.00  0.00    -0.540 C  
HETATM    2  C   UNL     1      -9.214  18.281  67.761  1.00  0.00    -0.270 C  
ENDROOT
BRANCH   2   3
HETATM    3  N   UNL     1      -9.770  17.028  68.263  1.00  0.00    -0.264 N  
HETATM    4  C   UNL     1     -11.090  16.715  68.024  1.00  0.00    -0.255 C  
HETATM    5  C   UNL     1     -11.609  15.558  68.437  1.00  0.00    -0.368 C  
HETATM    6  C   UNL     1     -10.646  14.678  69.109  1.00  0.00    -0.242 C  
HETATM    7  N   UNL     1      -9.411  14.935  69.322  1.00  0.00    -0.367 N  
HETATM    8  O   UNL     1      -7.722  16.416  69.102  1.00  0.00    -0.234 OA 
HETATM    9  C   UNL     1      -8.903  16.136  68.910  1.00  0.00    -0.248 C  
HETATM   10  H   UNL     1      -8.815  14.255  69.793  1.00  0.00     0.000 HD 
BRANCH   6  11
HETATM   11  N   UNL     1     -11.199  13.466  69.532  1.00  0.00    -0.449 N  
HETATM   12  H   UNL     1     -11.817  13.485  70.342  1.00  0.00     0.000 HD 
BRANCH  11  13
HETATM   13  S   UNL     1     -10.919  11.985  68.803  1.00  0.00    -0.244 S  
HETATM   14  O   UNL     1     -11.945  11.877  67.785  1.00  0.00    -0.559 OA 
HETATM   15  O   UNL     1      -9.520  11.907  68.442  1.00  0.00    -0.200 OA 
BRANCH  13  16
HETATM   16  C   UNL     1     -11.277  10.793  70.062  1.00  0.00    -0.291 A  
HETATM   17  C   UNL     1     -12.433  10.920  70.835  1.00  0.00    -0.507 A  
HETATM   18  C   UNL     1     -12.710   9.964  71.816  1.00  0.00    -0.523 A  
HETATM   19  C   UNL     1     -11.825   8.908  72.059  1.00  0.00    -0.368 A  
HETATM   20  N   UNL     1     -12.160   7.901  72.973  1.00  0.00    -0.642 NA 
HETATM   21  C   UNL     1     -10.721   8.748  71.218  1.00  0.00    -0.339 A  
HETATM   22  C   UNL     1     -10.442   9.687  70.224  1.00  0.00    -0.338 A  
HETATM   23  H2  UNL     1     -13.061   7.508  72.700  1.00  0.00     0.000 HD 
HETATM   24  H1  UNL     1     -11.515   7.131  73.150  1.00  0.00     0.000 HD 
ENDBRANCH  13  16
ENDBRANCH  11  13
ENDBRANCH   6  11
ENDBRANCH   2   3
TORSDOF 4
ENDMDL
MODEL       40
REMARK 921   NORMALIZED FREE ENERGY PREDICTED BY IDOCK:   -5.70 KCAL/MOL
REMARK 922        TOTAL FREE ENERGY PREDICTED BY IDOCK:   -7.85 KCAL/MOL
REMARK 923 INTER-LIGAND FREE ENERGY PREDICTED BY IDOCK:   -7.08 KCAL/MOL
REMARK 924 INTRA-LIGAND FREE ENERGY PREDICTED BY IDOCK:   -0.77 KCAL/MOL
REMARK 927      BINDING AFFINITY PREDICTED BY RF-SCORE:    0.00 PKD
ROOT
HETATM    1  C   UNL     1     -12.638   8.866  72.125  1.00  0.00    -0.467 C  
HETATM    2  C   UNL     1     -13.321  10.191  71.820  1.00  0.00    -0.385 C  
ENDROOT
BRANCH   2   3
HETATM    3  N   UNL     1     -12.518  11.012  70.918  1.00  0.00    -0.381 N  
HETATM    4  C   UNL     1     -11.833  10.423  69.877  1.00  0.00    -0.238 C  
HETATM    5  C   UNL     1     -11.126  11.157  69.017  1.00  0.00    -0.299 C  
HETATM    6  C   UNL     1     -11.193  12.601  69.268  1.00  0.00    -0.193 C  
HETATM    7  N   UNL     1     -11.841  13.172  70.212  1.00  0.00    -0.525 N  
HETATM    8  O   UNL     1     -13.171  12.919  72.017  1.00  0.00    -0.452 OA 
HETATM    9  C   UNL     1     -12.541  12.402  71.097  1.00  0.00    -0.251 C  
HETATM   10  H   UNL     1     -11.834  14.189  70.302  1.00  0.00     0.000 HD 
BRANCH   6  11
HETATM   11  N   UNL     1     -10.454  13.361  68.357  1.00  0.00    -0.246 N  
HETATM   12  H   UNL     1      -9.452  13.454  68.521  1.00  0.00     0.000 HD 
BRANCH  11  13
HETATM   13  S   UNL     1     -11.097  14.128  67.015  1.00  0.00    -0.317 S  
HETATM   14  O   UNL     1     -12.527  14.141  67.248  1.00  0.00    -0.253 OA 
HETATM   15  O   UNL     1     -10.378  15.366  66.805  1.00  0.00    -0.267 OA 
BRANCH  13  16
HETATM   16  C   UNL     1     -10.777  13.019  65.672  1.00  0.00    -0.275 A  
HETATM   17  C   UNL     1     -11.474  13.158  64.471  1.00  0.00    -0.390 A  
HETATM   18  C   UNL     1     -11.202  12.284  63.414  1.00  0.00    -0.497 A  
HETATM   19  C   UNL     1     -10.270  11.250  63.560  1.00  0.00    -0.403 A  
HETATM   20  N   UNL     1      -9.931  10.445  62.466  1.00  0.00    -0.738 NA 
HETATM   21  C   UNL     1      -9.520  11.182  64.736  1.00  0.00    -0.250 A  
HETATM   22  C   UNL     1      -9.771  12.059  65.793  1.00  0.00    -0.254 A  
HETATM   23  H2  UNL     1      -9.621  11.051  61.706  1.00  0.00     0.000 HD 
HETATM   24  H1  UNL     1      -9.252   9.691  62.572  1.00  0.00     0.000 HD 
ENDBRANCH  13  16
ENDBRANCH  11  13
ENDBRANCH   6  11
ENDBRANCH   2   3
TORSDOF 4
ENDMDL
MODEL       41
REMARK 921   NORMALIZED FREE ENERGY PREDICTED BY IDOCK:   -5.68 KCAL/MOL
REMARK 922        TOTAL FREE ENERGY PREDICTED BY IDOCK:   -7.83 KCAL/MOL
REMARK 923 INTER-LIGAND FREE ENERGY PREDICTED BY IDOCK:   -7.13 KCAL/MOL
REMARK 924 INTRA-LIGAND FREE ENERGY PREDICTED BY IDOCK:   -0.70 KCAL/MOL
REMARK 927      BINDING AFFINITY PREDICTED BY RF-SCORE:    0.00 PKD
ROOT
HETATM    1  C   UNL     1     -10.698   4.982  74.194  1.00  0.00    -0.297 C  
HETATM    2  C   UNL     1      -9.757   5.622  73.184  1.00  0.00    -0.154 C  
ENDROOT
BRANCH   2   3
HETATM    3  N   UNL     1     -10.438   6.640  72.390  1.00  0.00    -0.203 N  
HETATM    4  C   UNL     1     -11.426   6.273  71.501  1.00  0.00    -0.293 C  
HETATM    5  C   UNL     1     -12.089   7.190  70.795  1.00  0.00    -0.331 C  
HETATM    6  C   UNL     1     -11.696   8.571  71.089  1.00  0.00    -0.281 C  
HETATM    7  N   UNL     1     -10.800   8.938  71.926  1.00  0.00    -0.356 N  
HETATM    8  O   UNL     1      -9.246   8.302  73.433  1.00  0.00    -0.241 OA 
HETATM    9  C   UNL     1     -10.115   7.984  72.625  1.00  0.00    -0.301 C  
HETATM   10  H   UNL     1     -10.600   9.928  72.069  1.00  0.00     0.000 HD 
BRANCH   6  11
HETATM   11  N   UNL     1     -12.403   9.523  70.348  1.00  0.00    -0.477 N  
HETATM   12  H   UNL     1     -13.413   9.407  70.269  1.00  0.00     0.000 HD 
BRANCH  11  13
HETATM   13  S   UNL     1     -11.710  10.840  69.581  1.00  0.00    -0.336 S  
HETATM   14  O   UNL     1     -10.288  10.703  69.827  1.00  0.00    -0.205 OA 
HETATM   15  O   UNL     1     -12.215  10.901  68.227  1.00  0.00    -0.526 OA 
BRANCH  13  16
HETATM   16  C   UNL     1     -12.286  12.242  70.496  1.00  0.00    -0.300 A  
HETATM   17  C   UNL     1     -12.001  13.532  70.048  1.00  0.00    -0.410 A  
HETATM   18  C   UNL     1     -12.474  14.630  70.772  1.00  0.00    -0.407 A  
HETATM   19  C   UNL     1     -13.192  14.451  71.960  1.00  0.00    -0.369 A  
HETATM   20  N   UNL     1     -13.747  15.552  72.622  1.00  0.00    -0.550 NA 
HETATM   21  C   UNL     1     -13.543  13.155  72.344  1.00  0.00    -0.667 A  
HETATM   22  C   UNL     1     -13.091  12.051  71.620  1.00  0.00    -0.422 A  
HETATM   23  H2  UNL     1     -14.339  16.059  71.963  1.00  0.00     0.000 HD 
HETATM   24  H1  UNL     1     -14.271  15.422  73.488  1.00  0.00     0.000 HD 
ENDBRANCH  13  16
ENDBRANCH  11  13
ENDBRANCH   6  11
ENDBRANCH   2   3
TORSDOF 4
ENDMDL
MODEL       42
REMARK 921   NORMALIZED FREE ENERGY PREDICTED BY IDOCK:   -5.68 KCAL/MOL
REMARK 922        TOTAL FREE ENERGY PREDICTED BY IDOCK:   -7.82 KCAL/MOL
REMARK 923 INTER-LIGAND FREE ENERGY PREDICTED BY IDOCK:   -7.20 KCAL/MOL
REMARK 924 INTRA-LIGAND FREE ENERGY PREDICTED BY IDOCK:   -0.63 KCAL/MOL
REMARK 927      BINDING AFFINITY PREDICTED BY RF-SCORE:    0.00 PKD
ROOT
HETATM    1  C   UNL     1     -11.306  11.174  67.995  1.00  0.00    -0.380 C  
HETATM    2  C   UNL     1     -11.482  11.754  66.600  1.00  0.00    -0.267 C  
ENDROOT
BRANCH   2   3
HETATM    3  N   UNL     1     -10.928  13.101  66.506  1.00  0.00    -0.283 N  
HETATM    4  C   UNL     1      -9.653  13.355  66.966  1.00  0.00    -0.244 C  
HETATM    5  C   UNL     1      -9.111  14.568  66.854  1.00  0.00    -0.274 C  
HETATM    6  C   UNL     1      -9.970  15.546  66.178  1.00  0.00    -0.309 C  
HETATM    7  N   UNL     1     -11.145  15.329  65.723  1.00  0.00    -0.328 N  
HETATM    8  O   UNL     1     -12.822  13.845  65.442  1.00  0.00    -0.662 OA 
HETATM    9  C   UNL     1     -11.693  14.085  65.866  1.00  0.00    -0.366 C  
HETATM   10  H   UNL     1     -11.666  16.074  65.259  1.00  0.00     0.000 HD 
BRANCH   6  11
HETATM   11  N   UNL     1      -9.389  16.812  66.061  1.00  0.00    -0.247 N  
HETATM   12  H   UNL     1      -8.526  16.889  65.522  1.00  0.00     0.000 HD 
BRANCH  11  13
HETATM   13  S   UNL     1     -10.007  18.211  66.740  1.00  0.00    -0.371 S  
HETATM   14  O   UNL     1     -10.513  18.974  65.616  1.00  0.00    -0.554 OA 
HETATM   15  O   UNL     1     -10.886  17.844  67.830  1.00  0.00    -0.374 OA 
BRANCH  13  16
HETATM   16  C   UNL     1      -8.590  19.061  67.378  1.00  0.00    -0.278 A  
HETATM   17  C   UNL     1      -8.116  20.206  66.736  1.00  0.00    -0.350 A  
HETATM   18  C   UNL     1      -7.005  20.875  67.258  1.00  0.00    -0.436 A  
HETATM   19  C   UNL     1      -6.341  20.388  68.390  1.00  0.00    -0.315 A  
HETATM   20  N   UNL     1      -5.294  21.119  68.963  1.00  0.00    -0.423 NA 
HETATM   21  C   UNL     1      -6.882  19.294  69.068  1.00  0.00    -0.372 A  
HETATM   22  C   UNL     1      -8.001  18.627  68.566  1.00  0.00    -0.365 A  
HETATM   23  H2  UNL     1      -5.635  22.058  69.171  1.00  0.00     0.000 HD 
HETATM   24  H1  UNL     1      -4.809  20.764  69.788  1.00  0.00     0.000 HD 
ENDBRANCH  13  16
ENDBRANCH  11  13
ENDBRANCH   6  11
ENDBRANCH   2   3
TORSDOF 4
ENDMDL
MODEL       43
REMARK 921   NORMALIZED FREE ENERGY PREDICTED BY IDOCK:   -5.64 KCAL/MOL
REMARK 922        TOTAL FREE ENERGY PREDICTED BY IDOCK:   -7.78 KCAL/MOL
REMARK 923 INTER-LIGAND FREE ENERGY PREDICTED BY IDOCK:   -6.95 KCAL/MOL
REMARK 924 INTRA-LIGAND FREE ENERGY PREDICTED BY IDOCK:   -0.83 KCAL/MOL
REMARK 927      BINDING AFFINITY PREDICTED BY RF-SCORE:    0.00 PKD
ROOT
HETATM    1  C   UNL     1     -12.231  12.169  63.383  1.00  0.00    -0.635 C  
HETATM    2  C   UNL     1     -12.637  12.658  64.765  1.00  0.00    -0.454 C  
ENDROOT
BRANCH   2   3
HETATM    3  N   UNL     1     -11.490  13.170  65.509  1.00  0.00    -0.308 N  
HETATM    4  C   UNL     1     -10.725  14.187  64.981  1.00  0.00    -0.416 C  
HETATM    5  C   UNL     1      -9.697  14.699  65.660  1.00  0.00    -0.302 C  
HETATM    6  C   UNL     1      -9.509  14.111  66.991  1.00  0.00    -0.251 C  
HETATM    7  N   UNL     1     -10.220  13.184  67.512  1.00  0.00    -0.223 N  
HETATM    8  O   UNL     1     -11.955  11.763  67.263  1.00  0.00    -0.618 OA 
HETATM    9  C   UNL     1     -11.255  12.657  66.792  1.00  0.00    -0.300 C  
HETATM   10  H   UNL     1     -10.016  12.843  68.452  1.00  0.00     0.000 HD 
BRANCH   6  11
HETATM   11  N   UNL     1      -8.434  14.659  67.696  1.00  0.00    -0.168 N  
HETATM   12  H   UNL     1      -7.494  14.470  67.348  1.00  0.00     0.000 HD 
BRANCH  11  13
HETATM   13  S   UNL     1      -8.578  15.603  69.070  1.00  0.00    -0.247 S  
HETATM   14  O   UNL     1      -9.799  15.147  69.704  1.00  0.00    -0.219 OA 
HETATM   15  O   UNL     1      -7.322  15.564  69.789  1.00  0.00    -0.185 OA 
BRANCH  13  16
HETATM   16  C   UNL     1      -8.864  17.240  68.459  1.00  0.00    -0.269 A  
HETATM   17  C   UNL     1      -7.807  17.982  67.929  1.00  0.00    -0.235 A  
HETATM   18  C   UNL     1      -8.050  19.268  67.438  1.00  0.00    -0.306 A  
HETATM   19  C   UNL     1      -9.329  19.833  67.506  1.00  0.00    -0.340 A  
HETATM   20  N   UNL     1      -9.583  21.078  66.920  1.00  0.00    -0.611 NA 
HETATM   21  C   UNL     1     -10.389  19.043  67.956  1.00  0.00    -0.472 A  
HETATM   22  C   UNL     1     -10.162  17.752  68.435  1.00  0.00    -0.384 A  
HETATM   23  H2  UNL     1      -9.304  21.034  65.940  1.00  0.00     0.000 HD 
HETATM   24  H1  UNL     1     -10.515  21.490  66.970  1.00  0.00     0.000 HD 
ENDBRANCH  13  16
ENDBRANCH  11  13
ENDBRANCH   6  11
ENDBRANCH   2   3
TORSDOF 4
ENDMDL
MODEL       44
REMARK 921   NORMALIZED FREE ENERGY PREDICTED BY IDOCK:   -5.60 KCAL/MOL
REMARK 922        TOTAL FREE ENERGY PREDICTED BY IDOCK:   -7.72 KCAL/MOL
REMARK 923 INTER-LIGAND FREE ENERGY PREDICTED BY IDOCK:   -7.01 KCAL/MOL
REMARK 924 INTRA-LIGAND FREE ENERGY PREDICTED BY IDOCK:   -0.72 KCAL/MOL
REMARK 927      BINDING AFFINITY PREDICTED BY RF-SCORE:    0.00 PKD
ROOT
HETATM    1  C   UNL     1      -6.834   8.481  65.021  1.00  0.00    -0.071 C  
HETATM    2  C   UNL     1      -8.297   8.237  64.683  1.00  0.00    -0.105 C  
ENDROOT
BRANCH   2   3
HETATM    3  N   UNL     1      -8.984   9.481  64.349  1.00  0.00    -0.228 N  
HETATM    4  C   UNL     1      -8.741  10.098  63.140  1.00  0.00    -0.211 C  
HETATM    5  C   UNL     1      -9.387  11.213  62.796  1.00  0.00    -0.377 C  
HETATM    6  C   UNL     1     -10.370  11.664  63.786  1.00  0.00    -0.398 C  
HETATM    7  N   UNL     1     -10.630  11.097  64.903  1.00  0.00    -0.307 N  
HETATM    8  O   UNL     1     -10.166   9.399  66.315  1.00  0.00    -0.274 OA 
HETATM    9  C   UNL     1      -9.943   9.967  65.248  1.00  0.00    -0.298 C  
HETATM   10  H   UNL     1     -11.340  11.483  65.526  1.00  0.00     0.000 HD 
BRANCH   6  11
HETATM   11  N   UNL     1     -11.045  12.830  63.412  1.00  0.00    -0.622 N  
HETATM   12  H   UNL     1     -10.819  13.237  62.504  1.00  0.00     0.000 HD 
BRANCH  11  13
HETATM   13  S   UNL     1     -12.197  13.606  64.346  1.00  0.00    -0.366 S  
HETATM   14  O   UNL     1     -12.749  14.626  63.476  1.00  0.00    -0.670 OA 
HETATM   15  O   UNL     1     -13.058  12.605  64.939  1.00  0.00    -0.850 OA 
BRANCH  13  16
HETATM   16  C   UNL     1     -11.268  14.420  65.614  1.00  0.00    -0.323 A  
HETATM   17  C   UNL     1     -10.053  15.034  65.304  1.00  0.00    -0.378 A  
HETATM   18  C   UNL     1      -9.337  15.686  66.313  1.00  0.00    -0.358 A  
HETATM   19  C   UNL     1      -9.803  15.694  67.633  1.00  0.00    -0.227 A  
HETATM   20  N   UNL     1      -9.132  16.434  68.613  1.00  0.00    -0.223 NA 
HETATM   21  C   UNL     1     -11.061  15.153  67.905  1.00  0.00    -0.322 A  
HETATM   22  C   UNL     1     -11.793  14.514  66.904  1.00  0.00    -0.399 A  
HETATM   23  H2  UNL     1      -9.059  17.400  68.293  1.00  0.00     0.000 HD 
HETATM   24  H1  UNL     1      -9.471  16.440  69.576  1.00  0.00     0.000 HD 
ENDBRANCH  13  16
ENDBRANCH  11  13
ENDBRANCH   6  11
ENDBRANCH   2   3
TORSDOF 4
ENDMDL
MODEL       45
REMARK 921   NORMALIZED FREE ENERGY PREDICTED BY IDOCK:   -5.58 KCAL/MOL
REMARK 922        TOTAL FREE ENERGY PREDICTED BY IDOCK:   -7.70 KCAL/MOL
REMARK 923 INTER-LIGAND FREE ENERGY PREDICTED BY IDOCK:   -7.34 KCAL/MOL
REMARK 924 INTRA-LIGAND FREE ENERGY PREDICTED BY IDOCK:   -0.36 KCAL/MOL
REMARK 927      BINDING AFFINITY PREDICTED BY RF-SCORE:    0.00 PKD
ROOT
HETATM    1  C   UNL     1     -11.428  15.714  71.348  1.00  0.00    -0.488 C  
HETATM    2  C   UNL     1     -12.763  15.116  70.933  1.00  0.00    -0.401 C  
ENDROOT
BRANCH   2   3
HETATM    3  N   UNL     1     -12.669  13.670  70.754  1.00  0.00    -0.298 N  
HETATM    4  C   UNL     1     -11.937  13.152  69.707  1.00  0.00    -0.314 C  
HETATM    5  C   UNL     1     -11.803  11.835  69.548  1.00  0.00    -0.402 C  
HETATM    6  C   UNL     1     -12.459  11.037  70.590  1.00  0.00    -0.373 C  
HETATM    7  N   UNL     1     -13.123  11.494  71.583  1.00  0.00    -0.439 N  
HETATM    8  O   UNL     1     -13.903  13.319  72.658  1.00  0.00    -0.712 OA 
HETATM    9  C   UNL     1     -13.268  12.847  71.718  1.00  0.00    -0.384 C  
HETATM   10  H   UNL     1     -13.539  10.859  72.264  1.00  0.00     0.000 HD 
BRANCH   6  11
HETATM   11  N   UNL     1     -12.306   9.659  70.416  1.00  0.00    -0.482 N  
HETATM   12  H   UNL     1     -12.028   9.326  69.493  1.00  0.00     0.000 HD 
BRANCH  11  13
HETATM   13  S   UNL     1     -12.547   8.515  71.614  1.00  0.00    -0.343 S  
HETATM   14  O   UNL     1     -13.339   9.196  72.620  1.00  0.00    -0.454 OA 
HETATM   15  O   UNL     1     -13.035   7.300  70.999  1.00  0.00    -0.307 OA 
BRANCH  13  16
HETATM   16  C   UNL     1     -10.936   8.234  72.292  1.00  0.00    -0.348 A  
HETATM   17  C   UNL     1     -10.786   7.433  73.425  1.00  0.00    -0.407 A  
HETATM   18  C   UNL     1      -9.506   7.208  73.942  1.00  0.00    -0.297 A  
HETATM   19  C   UNL     1      -8.383   7.808  73.362  1.00  0.00    -0.180 A  
HETATM   20  N   UNL     1      -7.098   7.497  73.824  1.00  0.00    -0.087 NA 
HETATM   21  C   UNL     1      -8.543   8.533  72.179  1.00  0.00    -0.242 A  
HETATM   22  C   UNL     1      -9.813   8.751  71.643  1.00  0.00    -0.378 A  
HETATM   23  H2  UNL     1      -6.979   6.484  73.781  1.00  0.00     0.000 HD 
HETATM   24  H1  UNL     1      -6.279   7.934  73.401  1.00  0.00     0.000 HD 
ENDBRANCH  13  16
ENDBRANCH  11  13
ENDBRANCH   6  11
ENDBRANCH   2   3
TORSDOF 4
ENDMDL
MODEL       46
REMARK 921   NORMALIZED FREE ENERGY PREDICTED BY IDOCK:   -5.57 KCAL/MOL
REMARK 922        TOTAL FREE ENERGY PREDICTED BY IDOCK:   -7.69 KCAL/MOL
REMARK 923 INTER-LIGAND FREE ENERGY PREDICTED BY IDOCK:   -7.07 KCAL/MOL
REMARK 924 INTRA-LIGAND FREE ENERGY PREDICTED BY IDOCK:   -0.62 KCAL/MOL
REMARK 927      BINDING AFFINITY PREDICTED BY RF-SCORE:    0.00 PKD
ROOT
HETATM    1  C   UNL     1     -12.153   9.116  71.642  1.00  0.00    -0.432 C  
HETATM    2  C   UNL     1     -13.155  10.260  71.618  1.00  0.00    -0.449 C  
ENDROOT
BRANCH   2   3
HETATM    3  N   UNL     1     -12.624  11.423  70.913  1.00  0.00    -0.371 N  
HETATM    4  C   UNL     1     -12.029  11.267  69.679  1.00  0.00    -0.353 C  
HETATM    5  C   UNL     1     -11.573  12.319  68.999  1.00  0.00    -0.368 C  
HETATM    6  C   UNL     1     -11.803  13.606  69.664  1.00  0.00    -0.335 C  
HETATM    7  N   UNL     1     -12.373  13.779  70.796  1.00  0.00    -0.363 N  
HETATM    8  O   UNL     1     -13.363  12.817  72.581  1.00  0.00    -0.418 OA 
HETATM    9  C   UNL     1     -12.815  12.686  71.489  1.00  0.00    -0.268 C  
HETATM   10  H   UNL     1     -12.495  14.718  71.176  1.00  0.00     0.000 HD 
BRANCH   6  11
HETATM   11  N   UNL     1     -11.327  14.702  68.938  1.00  0.00    -0.268 N  
HETATM   12  H   UNL     1     -11.609  14.783  67.962  1.00  0.00     0.000 HD 
BRANCH  11  13
HETATM   13  S   UNL     1     -10.326  15.893  69.558  1.00  0.00    -0.294 S  
HETATM   14  O   UNL     1     -11.031  16.399  70.719  1.00  0.00    -0.220 OA 
HETATM   15  O   UNL     1      -8.992  15.348  69.692  1.00  0.00    -0.263 OA 
BRANCH  13  16
HETATM   16  C   UNL     1     -10.329  17.164  68.325  1.00  0.00    -0.354 A  
HETATM   17  C   UNL     1     -10.137  18.495  68.696  1.00  0.00    -0.406 A  
HETATM   18  C   UNL     1     -10.128  19.487  67.711  1.00  0.00    -0.532 A  
HETATM   19  C   UNL     1     -10.350  19.166  66.366  1.00  0.00    -0.455 A  
HETATM   20  N   UNL     1     -10.238  20.150  65.377  1.00  0.00    -0.353 NA 
HETATM   21  C   UNL     1     -10.451  17.821  66.005  1.00  0.00    -0.286 A  
HETATM   22  C   UNL     1     -10.445  16.819  66.977  1.00  0.00    -0.285 A  
HETATM   23  H2  UNL     1      -9.317  20.581  65.456  1.00  0.00     0.000 HD 
HETATM   24  H1  UNL     1     -10.400  19.916  64.398  1.00  0.00     0.000 HD 
ENDBRANCH  13  16
ENDBRANCH  11  13
ENDBRANCH   6  11
ENDBRANCH   2   3
TORSDOF 4
ENDMDL
MODEL       47
REMARK 921   NORMALIZED FREE ENERGY PREDICTED BY IDOCK:   -5.57 KCAL/MOL
REMARK 922        TOTAL FREE ENERGY PREDICTED BY IDOCK:   -7.69 KCAL/MOL
REMARK 923 INTER-LIGAND FREE ENERGY PREDICTED BY IDOCK:   -6.93 KCAL/MOL
REMARK 924 INTRA-LIGAND FREE ENERGY PREDICTED BY IDOCK:   -0.76 KCAL/MOL
REMARK 927      BINDING AFFINITY PREDICTED BY RF-SCORE:    0.00 PKD
ROOT
HETATM    1  C   UNL     1     -10.868   6.100  67.065  1.00  0.00    -0.435 C  
HETATM    2  C   UNL     1      -9.735   7.116  67.080  1.00  0.00    -0.170 C  
ENDROOT
BRANCH   2   3
HETATM    3  N   UNL     1     -10.103   8.317  67.824  1.00  0.00    -0.193 N  
HETATM    4  C   UNL     1     -10.228   8.265  69.196  1.00  0.00    -0.218 C  
HETATM    5  C   UNL     1     -10.523   9.358  69.901  1.00  0.00    -0.257 C  
HETATM    6  C   UNL     1     -10.652  10.574  69.091  1.00  0.00    -0.229 C  
HETATM    7  N   UNL     1     -10.518  10.652  67.822  1.00  0.00    -0.206 N  
HETATM    8  O   UNL     1     -10.105   9.557  65.892  1.00  0.00    -0.294 OA 
HETATM    9  C   UNL     1     -10.236   9.517  67.114  1.00  0.00    -0.242 C  
HETATM   10  H   UNL     1     -10.619  11.549  67.344  1.00  0.00     0.000 HD 
BRANCH   6  11
HETATM   11  N   UNL     1     -10.955  11.714  69.841  1.00  0.00    -0.454 N  
HETATM   12  H   UNL     1     -10.947  11.629  70.857  1.00  0.00     0.000 HD 
BRANCH  11  13
HETATM   13  S   UNL     1     -11.329  13.211  69.191  1.00  0.00    -0.268 S  
HETATM   14  O   UNL     1     -10.053  13.766  68.787  1.00  0.00    -0.214 OA 
HETATM   15  O   UNL     1     -12.391  13.039  68.223  1.00  0.00    -0.097 OA 
BRANCH  13  16
HETATM   16  C   UNL     1     -11.922  14.158  70.564  1.00  0.00    -0.323 A  
HETATM   17  C   UNL     1     -12.886  13.622  71.418  1.00  0.00    -0.442 A  
HETATM   18  C   UNL     1     -13.335  14.376  72.507  1.00  0.00    -0.578 A  
HETATM   19  C   UNL     1     -12.859  15.673  72.726  1.00  0.00    -0.452 A  
HETATM   20  N   UNL     1     -13.237  16.380  73.873  1.00  0.00    -0.856 NA 
HETATM   21  C   UNL     1     -11.830  16.158  71.914  1.00  0.00    -0.605 A  
HETATM   22  C   UNL     1     -11.362  15.409  70.834  1.00  0.00    -0.395 A  
HETATM   23  H2  UNL     1     -13.008  15.813  74.690  1.00  0.00     0.000 HD 
HETATM   24  H1  UNL     1     -12.890  17.326  74.033  1.00  0.00     0.000 HD 
ENDBRANCH  13  16
ENDBRANCH  11  13
ENDBRANCH   6  11
ENDBRANCH   2   3
TORSDOF 4
ENDMDL
MODEL       48
REMARK 921   NORMALIZED FREE ENERGY PREDICTED BY IDOCK:   -5.54 KCAL/MOL
REMARK 922        TOTAL FREE ENERGY PREDICTED BY IDOCK:   -7.66 KCAL/MOL
REMARK 923 INTER-LIGAND FREE ENERGY PREDICTED BY IDOCK:   -6.96 KCAL/MOL
REMARK 924 INTRA-LIGAND FREE ENERGY PREDICTED BY IDOCK:   -0.70 KCAL/MOL
REMARK 927      BINDING AFFINITY PREDICTED BY RF-SCORE:    0.00 PKD
ROOT
HETATM    1  C   UNL     1     -11.705  15.783  72.494  1.00  0.00    -0.566 C  
HETATM    2  C   UNL     1     -12.682  15.294  71.435  1.00  0.00    -0.392 C  
ENDROOT
BRANCH   2   3
HETATM    3  N   UNL     1     -12.605  13.846  71.265  1.00  0.00    -0.358 N  
HETATM    4  C   UNL     1     -13.303  13.014  72.114  1.00  0.00    -0.524 C  
HETATM    5  C   UNL     1     -13.279  11.691  71.952  1.00  0.00    -0.475 C  
HETATM    6  C   UNL     1     -12.496  11.244  70.794  1.00  0.00    -0.376 C  
HETATM    7  N   UNL     1     -11.860  11.996  69.979  1.00  0.00    -0.420 N  
HETATM    8  O   UNL     1     -11.274  14.101  69.411  1.00  0.00    -0.256 OA 
HETATM    9  C   UNL     1     -11.878  13.349  70.174  1.00  0.00    -0.272 C  
HETATM   10  H   UNL     1     -11.347  11.593  69.195  1.00  0.00     0.000 HD 
BRANCH   6  11
HETATM   11  N   UNL     1     -12.485   9.856  70.631  1.00  0.00    -0.466 N  
HETATM   12  H   UNL     1     -13.343   9.410  70.307  1.00  0.00     0.000 HD 
BRANCH  11  13
HETATM   13  S   UNL     1     -11.163   8.873  70.928  1.00  0.00    -0.294 S  
HETATM   14  O   UNL     1     -10.046   9.787  71.057  1.00  0.00    -0.216 OA 
HETATM   15  O   UNL     1     -11.496   7.968  72.007  1.00  0.00    -0.272 OA 
BRANCH  13  16
HETATM   16  C   UNL     1     -10.943   7.957  69.429  1.00  0.00    -0.020 A  
HETATM   17  C   UNL     1     -10.554   8.614  68.260  1.00  0.00    -0.181 A  
HETATM   18  C   UNL     1     -10.370   7.876  67.087  1.00  0.00    -0.398 A  
HETATM   19  C   UNL     1     -10.610   6.498  67.061  1.00  0.00    -0.332 A  
HETATM   20  N   UNL     1     -10.325   5.753  65.910  1.00  0.00    -0.413 NA 
HETATM   21  C   UNL     1     -10.911   5.845  68.259  1.00  0.00    -0.325 A  
HETATM   22  C   UNL     1     -11.081   6.568  69.440  1.00  0.00    -0.407 A  
HETATM   23  H2  UNL     1      -9.350   5.914  65.657  1.00  0.00     0.000 HD 
HETATM   24  H1  UNL     1     -10.500   4.748  65.891  1.00  0.00     0.000 HD 
ENDBRANCH  13  16
ENDBRANCH  11  13
ENDBRANCH   6  11
ENDBRANCH   2   3
TORSDOF 4
ENDMDL
MODEL       49
REMARK 921   NORMALIZED FREE ENERGY PREDICTED BY IDOCK:   -5.51 KCAL/MOL
REMARK 922        TOTAL FREE ENERGY PREDICTED BY IDOCK:   -7.62 KCAL/MOL
REMARK 923 INTER-LIGAND FREE ENERGY PREDICTED BY IDOCK:   -6.91 KCAL/MOL
REMARK 924 INTRA-LIGAND FREE ENERGY PREDICTED BY IDOCK:   -0.71 KCAL/MOL
REMARK 927      BINDING AFFINITY PREDICTED BY RF-SCORE:    0.00 PKD
ROOT
HETATM    1  C   UNL     1      -7.418   8.103  66.644  1.00  0.00    -0.089 C  
HETATM    2  C   UNL     1      -8.813   7.961  66.055  1.00  0.00    -0.158 C  
ENDROOT
BRANCH   2   3
HETATM    3  N   UNL     1      -9.283   9.220  65.484  1.00  0.00    -0.222 N  
HETATM    4  C   UNL     1      -8.940   9.560  64.193  1.00  0.00    -0.198 C  
HETATM    5  C   UNL     1      -9.391  10.685  63.636  1.00  0.00    -0.315 C  
HETATM    6  C   UNL     1     -10.287  11.462  64.500  1.00  0.00    -0.313 C  
HETATM    7  N   UNL     1     -10.638  11.155  65.691  1.00  0.00    -0.248 N  
HETATM    8  O   UNL     1     -10.464   9.687  67.397  1.00  0.00    -0.228 OA 
HETATM    9  C   UNL     1     -10.149  10.009  66.253  1.00  0.00    -0.243 C  
HETATM   10  H   UNL     1     -11.275  11.757  66.214  1.00  0.00     0.000 HD 
BRANCH   6  11
HETATM   11  N   UNL     1     -10.758  12.635  63.904  1.00  0.00    -0.419 N  
HETATM   12  H   UNL     1     -10.227  13.015  63.121  1.00  0.00     0.000 HD 
BRANCH  11  13
HETATM   13  S   UNL     1     -12.133  13.461  64.383  1.00  0.00    -0.416 S  
HETATM   14  O   UNL     1     -12.481  14.289  63.244  1.00  0.00    -0.705 OA 
HETATM   15  O   UNL     1     -13.083  12.506  64.910  1.00  0.00    -0.833 OA 
BRANCH  13  16
HETATM   16  C   UNL     1     -11.581  14.531  65.681  1.00  0.00    -0.344 A  
HETATM   17  C   UNL     1     -12.012  14.318  66.992  1.00  0.00    -0.463 A  
HETATM   18  C   UNL     1     -11.557  15.162  68.009  1.00  0.00    -0.345 A  
HETATM   19  C   UNL     1     -10.710  16.238  67.723  1.00  0.00    -0.325 A  
HETATM   20  N   UNL     1     -10.180  17.015  68.761  1.00  0.00    -0.298 NA 
HETATM   21  C   UNL     1     -10.220  16.382  66.424  1.00  0.00    -0.325 A  
HETATM   22  C   UNL     1     -10.653  15.536  65.402  1.00  0.00    -0.428 A  
HETATM   23  H2  UNL     1      -9.701  16.394  69.414  1.00  0.00     0.000 HD 
HETATM   24  H1  UNL     1      -9.563  17.800  68.553  1.00  0.00     0.000 HD 
ENDBRANCH  13  16
ENDBRANCH  11  13
ENDBRANCH   6  11
ENDBRANCH   2   3
TORSDOF 4
ENDMDL
MODEL       50
REMARK 921   NORMALIZED FREE ENERGY PREDICTED BY IDOCK:   -5.50 KCAL/MOL
REMARK 922        TOTAL FREE ENERGY PREDICTED BY IDOCK:   -7.61 KCAL/MOL
REMARK 923 INTER-LIGAND FREE ENERGY PREDICTED BY IDOCK:   -7.11 KCAL/MOL
REMARK 924 INTRA-LIGAND FREE ENERGY PREDICTED BY IDOCK:   -0.50 KCAL/MOL
REMARK 927      BINDING AFFINITY PREDICTED BY RF-SCORE:    0.00 PKD
ROOT
HETATM    1  C   UNL     1     -11.104  10.211  69.895  1.00  0.00    -0.346 C  
HETATM    2  C   UNL     1     -11.673  11.584  70.219  1.00  0.00    -0.289 C  
ENDROOT
BRANCH   2   3
HETATM    3  N   UNL     1     -11.787  12.412  69.023  1.00  0.00    -0.310 N  
HETATM    4  C   UNL     1     -11.648  11.842  67.775  1.00  0.00    -0.323 C  
HETATM    5  C   UNL     1     -11.789  12.571  66.667  1.00  0.00    -0.422 C  
HETATM    6  C   UNL     1     -12.134  13.975  66.916  1.00  0.00    -0.430 C  
HETATM    7  N   UNL     1     -12.291  14.521  68.061  1.00  0.00    -0.594 N  
HETATM    8  O   UNL     1     -12.261  14.258  70.303  1.00  0.00    -0.301 OA 
HETATM    9  C   UNL     1     -12.121  13.763  69.186  1.00  0.00    -0.333 C  
HETATM   10  H   UNL     1     -12.539  15.508  68.134  1.00  0.00     0.000 HD 
BRANCH   6  11
HETATM   11  N   UNL     1     -12.285  14.728  65.747  1.00  0.00    -0.137 N  
HETATM   12  H   UNL     1     -13.234  14.908  65.419  1.00  0.00     0.000 HD 
BRANCH  11  13
HETATM   13  S   UNL     1     -11.021  15.355  64.848  1.00  0.00    -0.401 S  
HETATM   14  O   UNL     1     -10.294  14.194  64.373  1.00  0.00    -0.290 OA 
HETATM   15  O   UNL     1     -11.557  16.316  63.908  1.00  0.00    -0.987 OA 
BRANCH  13  16
HETATM   16  C   UNL     1      -9.999  16.185  66.032  1.00  0.00    -0.348 A  
HETATM   17  C   UNL     1     -10.411  17.402  66.577  1.00  0.00    -0.312 A  
HETATM   18  C   UNL     1      -9.601  18.040  67.522  1.00  0.00    -0.273 A  
HETATM   19  C   UNL     1      -8.368  17.493  67.896  1.00  0.00    -0.229 A  
HETATM   20  N   UNL     1      -7.613  18.085  68.915  1.00  0.00    -0.258 NA 
HETATM   21  C   UNL     1      -8.016  16.233  67.407  1.00  0.00    -0.179 A  
HETATM   22  C   UNL     1      -8.823  15.579  66.476  1.00  0.00    -0.348 A  
HETATM   23  H2  UNL     1      -8.198  18.156  69.748  1.00  0.00     0.000 HD 
HETATM   24  H1  UNL     1      -6.714  17.687  69.188  1.00  0.00     0.000 HD 
ENDBRANCH  13  16
ENDBRANCH  11  13
ENDBRANCH   6  11
ENDBRANCH   2   3
TORSDOF 4
ENDMDL
MODEL       51
REMARK 921   NORMALIZED FREE ENERGY PREDICTED BY IDOCK:   -5.49 KCAL/MOL
REMARK 922        TOTAL FREE ENERGY PREDICTED BY IDOCK:   -7.59 KCAL/MOL
REMARK 923 INTER-LIGAND FREE ENERGY PREDICTED BY IDOCK:   -7.16 KCAL/MOL
REMARK 924 INTRA-LIGAND FREE ENERGY PREDICTED BY IDOCK:   -0.42 KCAL/MOL
REMARK 927      BINDING AFFINITY PREDICTED BY RF-SCORE:    0.00 PKD
ROOT
HETATM    1  C   UNL     1     -13.239  11.692  71.875  1.00  0.00    -0.475 C  
HETATM    2  C   UNL     1     -13.387  13.097  72.440  1.00  0.00    -0.490 C  
ENDROOT
BRANCH   2   3
HETATM    3  N   UNL     1     -12.693  14.081  71.613  1.00  0.00    -0.338 N  
HETATM    4  C   UNL     1     -12.523  13.850  70.265  1.00  0.00    -0.314 C  
HETATM    5  C   UNL     1     -11.930  14.753  69.483  1.00  0.00    -0.351 C  
HETATM    6  C   UNL     1     -11.534  15.980  70.181  1.00  0.00    -0.344 C  
HETATM    7  N   UNL     1     -11.702  16.228  71.424  1.00  0.00    -0.621 N  
HETATM    8  O   UNL     1     -12.466  15.486  73.415  1.00  0.00    -0.402 OA 
HETATM    9  C   UNL     1     -12.293  15.282  72.215  1.00  0.00    -0.370 C  
HETATM   10  H   UNL     1     -11.399  17.118  71.821  1.00  0.00     0.000 HD 
BRANCH   6  11
HETATM   11  N   UNL     1     -10.919  16.921  69.350  1.00  0.00    -0.336 N  
HETATM   12  H   UNL     1     -11.412  17.798  69.180  1.00  0.00     0.000 HD 
BRANCH  11  13
HETATM   13  S   UNL     1      -9.430  16.713  68.614  1.00  0.00    -0.256 S  
HETATM   14  O   UNL     1      -9.065  18.034  68.141  1.00  0.00    -0.262 OA 
HETATM   15  O   UNL     1      -8.563  15.997  69.525  1.00  0.00    -0.211 OA 
BRANCH  13  16
HETATM   16  C   UNL     1      -9.769  15.706  67.198  1.00  0.00    -0.223 A  
HETATM   17  C   UNL     1     -10.417  16.255  66.090  1.00  0.00    -0.330 A  
HETATM   18  C   UNL     1     -10.666  15.451  64.974  1.00  0.00    -0.460 A  
HETATM   19  C   UNL     1     -10.311  14.097  64.970  1.00  0.00    -0.418 A  
HETATM   20  N   UNL     1     -10.472  13.328  63.812  1.00  0.00    -0.561 NA 
HETATM   21  C   UNL     1      -9.585  13.590  66.050  1.00  0.00    -0.179 A  
HETATM   22  C   UNL     1      -9.316  14.386  67.164  1.00  0.00    -0.226 A  
HETATM   23  H2  UNL     1      -9.979  13.791  63.048  1.00  0.00     0.000 HD 
HETATM   24  H1  UNL     1     -10.213  12.341  63.809  1.00  0.00     0.000 HD 
ENDBRANCH  13  16
ENDBRANCH  11  13
ENDBRANCH   6  11
ENDBRANCH   2   3
TORSDOF 4
ENDMDL
MODEL       52
REMARK 921   NORMALIZED FREE ENERGY PREDICTED BY IDOCK:   -5.48 KCAL/MOL
REMARK 922        TOTAL FREE ENERGY PREDICTED BY IDOCK:   -7.59 KCAL/MOL
REMARK 923 INTER-LIGAND FREE ENERGY PREDICTED BY IDOCK:   -6.94 KCAL/MOL
REMARK 924 INTRA-LIGAND FREE ENERGY PREDICTED BY IDOCK:   -0.65 KCAL/MOL
REMARK 927      BINDING AFFINITY PREDICTED BY RF-SCORE:    0.00 PKD
ROOT
HETATM    1  C   UNL     1      -7.057  18.412  68.896  1.00  0.00    -0.292 C  
HETATM    2  C   UNL     1      -7.119  18.495  67.378  1.00  0.00    -0.205 C  
ENDROOT
BRANCH   2   3
HETATM    3  N   UNL     1      -8.209  17.684  66.842  1.00  0.00    -0.216 N  
HETATM    4  C   UNL     1      -9.403  18.279  66.495  1.00  0.00    -0.302 C  
HETATM    5  C   UNL     1     -10.397  17.565  65.966  1.00  0.00    -0.309 C  
HETATM    6  C   UNL     1     -10.075  16.149  65.765  1.00  0.00    -0.363 C  
HETATM    7  N   UNL     1      -8.968  15.579  66.057  1.00  0.00    -0.412 N  
HETATM    8  O   UNL     1      -6.892  15.805  66.914  1.00  0.00    -0.248 OA 
HETATM    9  C   UNL     1      -7.967  16.322  66.618  1.00  0.00    -0.289 C  
HETATM   10  H   UNL     1      -8.833  14.584  65.872  1.00  0.00     0.000 HD 
BRANCH   6  11
HETATM   11  N   UNL     1     -11.122  15.412  65.204  1.00  0.00    -0.393 N  
HETATM   12  H   UNL     1     -11.455  15.690  64.281  1.00  0.00     0.000 HD 
BRANCH  11  13
HETATM   13  S   UNL     1     -11.869  14.107  65.938  1.00  0.00    -0.397 S  
HETATM   14  O   UNL     1     -11.513  14.218  67.339  1.00  0.00    -0.312 OA 
HETATM   15  O   UNL     1     -13.260  14.087  65.537  1.00  0.00    -0.710 OA 
BRANCH  13  16
HETATM   16  C   UNL     1     -11.038  12.689  65.280  1.00  0.00    -0.295 A  
HETATM   17  C   UNL     1     -10.462  12.745  64.010  1.00  0.00    -0.433 A  
HETATM   18  C   UNL     1      -9.797  11.622  63.508  1.00  0.00    -0.391 A  
HETATM   19  C   UNL     1      -9.737  10.434  64.245  1.00  0.00    -0.326 A  
HETATM   20  N   UNL     1      -8.984   9.351  63.779  1.00  0.00    -0.400 NA 
HETATM   21  C   UNL     1     -10.241  10.426  65.548  1.00  0.00    -0.316 A  
HETATM   22  C   UNL     1     -10.893  11.545  66.067  1.00  0.00    -0.330 A  
HETATM   23  H2  UNL     1      -8.030   9.672  63.610  1.00  0.00     0.000 HD 
HETATM   24  H1  UNL     1      -8.940   8.485  64.316  1.00  0.00     0.000 HD 
ENDBRANCH  13  16
ENDBRANCH  11  13
ENDBRANCH   6  11
ENDBRANCH   2   3
TORSDOF 4
ENDMDL
MODEL       53
REMARK 921   NORMALIZED FREE ENERGY PREDICTED BY IDOCK:   -5.48 KCAL/MOL
REMARK 922        TOTAL FREE ENERGY PREDICTED BY IDOCK:   -7.58 KCAL/MOL
REMARK 923 INTER-LIGAND FREE ENERGY PREDICTED BY IDOCK:   -6.88 KCAL/MOL
REMARK 924 INTRA-LIGAND FREE ENERGY PREDICTED BY IDOCK:   -0.70 KCAL/MOL
REMARK 927      BINDING AFFINITY PREDICTED BY RF-SCORE:    0.00 PKD
ROOT
HETATM    1  C   UNL     1     -13.424   7.467  71.575  1.00  0.00    -0.445 C  
HETATM    2  C   UNL     1     -12.657   8.556  72.310  1.00  0.00    -0.381 C  
ENDROOT
BRANCH   2   3
HETATM    3  N   UNL     1     -11.900   9.394  71.385  1.00  0.00    -0.346 N  
HETATM    4  C   UNL     1     -10.849   8.858  70.672  1.00  0.00    -0.239 C  
HETATM    5  C   UNL     1     -10.170   9.594  69.792  1.00  0.00    -0.262 C  
HETATM    6  C   UNL     1     -10.672  10.964  69.644  1.00  0.00    -0.180 C  
HETATM    7  N   UNL     1     -11.658  11.477  70.276  1.00  0.00    -0.504 N  
HETATM    8  O   UNL     1     -13.280  11.178  71.817  1.00  0.00    -0.442 OA 
HETATM    9  C   UNL     1     -12.329  10.714  71.190  1.00  0.00    -0.400 C  
HETATM   10  H   UNL     1     -11.940  12.442  70.100  1.00  0.00     0.000 HD 
BRANCH   6  11
HETATM   11  N   UNL     1      -9.956  11.723  68.714  1.00  0.00    -0.367 N  
HETATM   12  H   UNL     1      -9.007  12.004  68.962  1.00  0.00     0.000 HD 
BRANCH  11  13
HETATM   13  S   UNL     1     -10.543  12.204  67.223  1.00  0.00    -0.233 S  
HETATM   14  O   UNL     1      -9.565  11.720  66.268  1.00  0.00    -0.214 OA 
HETATM   15  O   UNL     1     -11.928  11.796  67.120  1.00  0.00    -0.617 OA 
BRANCH  13  16
HETATM   16  C   UNL     1     -10.443  13.971  67.252  1.00  0.00    -0.268 A  
HETATM   17  C   UNL     1      -9.691  14.644  66.288  1.00  0.00    -0.329 A  
HETATM   18  C   UNL     1      -9.632  16.040  66.316  1.00  0.00    -0.336 A  
HETATM   19  C   UNL     1     -10.284  16.767  67.319  1.00  0.00    -0.292 A  
HETATM   20  N   UNL     1     -10.303  18.166  67.278  1.00  0.00    -0.371 NA 
HETATM   21  C   UNL     1     -11.103  16.083  68.220  1.00  0.00    -0.351 A  
HETATM   22  C   UNL     1     -11.183  14.690  68.193  1.00  0.00    -0.304 A  
HETATM   23  H2  UNL     1     -10.680  18.456  66.376  1.00  0.00     0.000 HD 
HETATM   24  H1  UNL     1     -10.778  18.696  68.010  1.00  0.00     0.000 HD 
ENDBRANCH  13  16
ENDBRANCH  11  13
ENDBRANCH   6  11
ENDBRANCH   2   3
TORSDOF 4
ENDMDL
MODEL       54
REMARK 921   NORMALIZED FREE ENERGY PREDICTED BY IDOCK:   -5.47 KCAL/MOL
REMARK 922        TOTAL FREE ENERGY PREDICTED BY IDOCK:   -7.57 KCAL/MOL
REMARK 923 INTER-LIGAND FREE ENERGY PREDICTED BY IDOCK:   -7.37 KCAL/MOL
REMARK 924 INTRA-LIGAND FREE ENERGY PREDICTED BY IDOCK:   -0.20 KCAL/MOL
REMARK 927      BINDING AFFINITY PREDICTED BY RF-SCORE:    0.00 PKD
ROOT
HETATM    1  C   UNL     1     -12.186  13.707  63.916  1.00  0.00    -0.429 C  
HETATM    2  C   UNL     1     -10.921  12.869  63.799  1.00  0.00    -0.352 C  
ENDROOT
BRANCH   2   3
HETATM    3  N   UNL     1     -10.804  11.922  64.904  1.00  0.00    -0.296 N  
HETATM    4  C   UNL     1     -11.343  12.229  66.135  1.00  0.00    -0.353 C  
HETATM    5  C   UNL     1     -11.283  11.362  67.147  1.00  0.00    -0.363 C  
HETATM    6  C   UNL     1     -10.645  10.087  66.804  1.00  0.00    -0.159 C  
HETATM    7  N   UNL     1     -10.158   9.770  65.665  1.00  0.00    -0.274 N  
HETATM    8  O   UNL     1      -9.748  10.407  63.539  1.00  0.00    -0.307 OA 
HETATM    9  C   UNL     1     -10.210  10.679  64.645  1.00  0.00    -0.334 C  
HETATM   10  H   UNL     1      -9.739   8.851  65.519  1.00  0.00     0.000 HD 
BRANCH   6  11
HETATM   11  N   UNL     1     -10.594   9.184  67.870  1.00  0.00    -0.361 N  
HETATM   12  H   UNL     1     -11.049   8.280  67.747  1.00  0.00     0.000 HD 
BRANCH  11  13
HETATM   13  S   UNL     1      -9.840   9.481  69.335  1.00  0.00    -0.199 S  
HETATM   14  O   UNL     1      -8.935   8.363  69.516  1.00  0.00    -0.147 OA 
HETATM   15  O   UNL     1      -9.333  10.837  69.325  1.00  0.00    -0.167 OA 
BRANCH  13  16
HETATM   16  C   UNL     1     -11.130   9.335  70.539  1.00  0.00    -0.265 A  
HETATM   17  C   UNL     1     -11.889  10.453  70.887  1.00  0.00    -0.475 A  
HETATM   18  C   UNL     1     -12.913  10.321  71.829  1.00  0.00    -0.574 A  
HETATM   19  C   UNL     1     -13.159   9.093  72.454  1.00  0.00    -0.423 A  
HETATM   20  N   UNL     1     -14.250   8.946  73.319  1.00  0.00    -1.237 NA 
HETATM   21  C   UNL     1     -12.449   7.968  72.029  1.00  0.00    -0.357 A  
HETATM   22  C   UNL     1     -11.434   8.084  71.077  1.00  0.00    -0.300 A  
HETATM   23  H2  UNL     1     -15.094   9.226  72.820  1.00  0.00     0.000 HD 
HETATM   24  H1  UNL     1     -14.429   8.051  73.775  1.00  0.00     0.000 HD 
ENDBRANCH  13  16
ENDBRANCH  11  13
ENDBRANCH   6  11
ENDBRANCH   2   3
TORSDOF 4
ENDMDL
MODEL       55
REMARK 921   NORMALIZED FREE ENERGY PREDICTED BY IDOCK:   -5.47 KCAL/MOL
REMARK 922        TOTAL FREE ENERGY PREDICTED BY IDOCK:   -7.57 KCAL/MOL
REMARK 923 INTER-LIGAND FREE ENERGY PREDICTED BY IDOCK:   -6.84 KCAL/MOL
REMARK 924 INTRA-LIGAND FREE ENERGY PREDICTED BY IDOCK:   -0.73 KCAL/MOL
REMARK 927      BINDING AFFINITY PREDICTED BY RF-SCORE:    0.00 PKD
ROOT
HETATM    1  C   UNL     1     -10.782   5.641  73.563  1.00  0.00    -0.311 C  
HETATM    2  C   UNL     1     -11.241   5.727  72.115  1.00  0.00    -0.269 C  
ENDROOT
BRANCH   2   3
HETATM    3  N   UNL     1     -10.971   7.043  71.545  1.00  0.00    -0.232 N  
HETATM    4  C   UNL     1     -10.437   8.039  72.335  1.00  0.00    -0.301 C  
HETATM    5  C   UNL     1     -10.144   9.236  71.827  1.00  0.00    -0.129 C  
HETATM    6  C   UNL     1     -10.402   9.354  70.388  1.00  0.00    -0.262 C  
HETATM    7  N   UNL     1     -10.874   8.439  69.630  1.00  0.00    -0.362 N  
HETATM    8  O   UNL     1     -11.648   6.325  69.472  1.00  0.00    -0.423 OA 
HETATM    9  C   UNL     1     -11.189   7.225  70.173  1.00  0.00    -0.239 C  
HETATM   10  H   UNL     1     -11.013   8.612  68.634  1.00  0.00     0.000 HD 
BRANCH   6  11
HETATM   11  N   UNL     1     -10.085  10.611  69.865  1.00  0.00    -0.427 N  
HETATM   12  H   UNL     1      -9.145  10.970  70.033  1.00  0.00     0.000 HD 
BRANCH  11  13
HETATM   13  S   UNL     1     -11.136  11.569  68.983  1.00  0.00    -0.260 S  
HETATM   14  O   UNL     1     -10.276  12.437  68.202  1.00  0.00    -0.212 OA 
HETATM   15  O   UNL     1     -12.099  10.711  68.327  1.00  0.00    -0.423 OA 
BRANCH  13  16
HETATM   16  C   UNL     1     -11.955  12.567  70.195  1.00  0.00    -0.301 A  
HETATM   17  C   UNL     1     -12.672  11.962  71.228  1.00  0.00    -0.401 A  
HETATM   18  C   UNL     1     -13.302  12.761  72.186  1.00  0.00    -0.593 A  
HETATM   19  C   UNL     1     -13.255  14.158  72.099  1.00  0.00    -0.420 A  
HETATM   20  N   UNL     1     -13.802  14.947  73.117  1.00  0.00    -0.507 NA 
HETATM   21  C   UNL     1     -12.460  14.743  71.111  1.00  0.00    -0.397 A  
HETATM   22  C   UNL     1     -11.812  13.955  70.158  1.00  0.00    -0.368 A  
HETATM   23  H2  UNL     1     -13.379  14.668  74.002  1.00  0.00     0.000 HD 
HETATM   24  H1  UNL     1     -13.768  15.965  73.053  1.00  0.00     0.000 HD 
ENDBRANCH  13  16
ENDBRANCH  11  13
ENDBRANCH   6  11
ENDBRANCH   2   3
TORSDOF 4
ENDMDL
MODEL       56
REMARK 921   NORMALIZED FREE ENERGY PREDICTED BY IDOCK:   -5.46 KCAL/MOL
REMARK 922        TOTAL FREE ENERGY PREDICTED BY IDOCK:   -7.56 KCAL/MOL
REMARK 923 INTER-LIGAND FREE ENERGY PREDICTED BY IDOCK:   -6.65 KCAL/MOL
REMARK 924 INTRA-LIGAND FREE ENERGY PREDICTED BY IDOCK:   -0.90 KCAL/MOL
REMARK 927      BINDING AFFINITY PREDICTED BY RF-SCORE:    0.00 PKD
ROOT
HETATM    1  C   UNL     1     -10.433  11.612  63.462  1.00  0.00    -0.498 C  
HETATM    2  C   UNL     1     -11.334  12.761  63.888  1.00  0.00    -0.442 C  
ENDROOT
BRANCH   2   3
HETATM    3  N   UNL     1     -11.295  12.964  65.333  1.00  0.00    -0.295 N  
HETATM    4  C   UNL     1     -10.233  12.482  66.068  1.00  0.00    -0.251 C  
HETATM    5  C   UNL     1     -10.156  12.690  67.383  1.00  0.00    -0.218 C  
HETATM    6  C   UNL     1     -11.259  13.490  67.926  1.00  0.00    -0.274 C  
HETATM    7  N   UNL     1     -12.242  13.968  67.262  1.00  0.00    -0.539 N  
HETATM    8  O   UNL     1     -13.249  14.167  65.252  1.00  0.00    -0.760 OA 
HETATM    9  C   UNL     1     -12.315  13.725  65.919  1.00  0.00    -0.476 C  
HETATM   10  H   UNL     1     -12.962  14.521  67.728  1.00  0.00     0.000 HD 
BRANCH   6  11
HETATM   11  N   UNL     1     -11.165  13.708  69.304  1.00  0.00    -0.334 N  
HETATM   12  H   UNL     1     -10.948  12.906  69.896  1.00  0.00     0.000 HD 
BRANCH  11  13
HETATM   13  S   UNL     1     -11.380  15.190  70.051  1.00  0.00    -0.298 S  
HETATM   14  O   UNL     1     -12.752  15.554  69.758  1.00  0.00    -0.189 OA 
HETATM   15  O   UNL     1     -10.928  15.083  71.422  1.00  0.00    -0.221 OA 
BRANCH  13  16
HETATM   16  C   UNL     1     -10.324  16.296  69.160  1.00  0.00    -0.272 A  
HETATM   17  C   UNL     1      -8.938  16.192  69.286  1.00  0.00    -0.200 A  
HETATM   18  C   UNL     1      -8.116  17.063  68.566  1.00  0.00    -0.251 A  
HETATM   19  C   UNL     1      -8.665  18.062  67.754  1.00  0.00    -0.251 A  
HETATM   20  N   UNL     1      -7.836  18.862  66.960  1.00  0.00    -0.239 NA 
HETATM   21  C   UNL     1     -10.050  18.093  67.571  1.00  0.00    -0.358 A  
HETATM   22  C   UNL     1     -10.881  17.218  68.272  1.00  0.00    -0.287 A  
HETATM   23  H2  UNL     1      -7.265  18.252  66.375  1.00  0.00     0.000 HD 
HETATM   24  H1  UNL     1      -8.236  19.590  66.368  1.00  0.00     0.000 HD 
ENDBRANCH  13  16
ENDBRANCH  11  13
ENDBRANCH   6  11
ENDBRANCH   2   3
TORSDOF 4
ENDMDL
MODEL       57
REMARK 921   NORMALIZED FREE ENERGY PREDICTED BY IDOCK:   -5.45 KCAL/MOL
REMARK 922        TOTAL FREE ENERGY PREDICTED BY IDOCK:   -7.55 KCAL/MOL
REMARK 923 INTER-LIGAND FREE ENERGY PREDICTED BY IDOCK:   -7.20 KCAL/MOL
REMARK 924 INTRA-LIGAND FREE ENERGY PREDICTED BY IDOCK:   -0.35 KCAL/MOL
REMARK 927      BINDING AFFINITY PREDICTED BY RF-SCORE:    0.00 PKD
ROOT
HETATM    1  C   UNL     1     -13.222  12.327  72.044  1.00  0.00    -0.508 C  
HETATM    2  C   UNL     1     -13.259  13.828  72.295  1.00  0.00    -0.467 C  
ENDROOT
BRANCH   2   3
HETATM    3  N   UNL     1     -12.570  14.564  71.240  1.00  0.00    -0.322 N  
HETATM    4  C   UNL     1     -12.470  14.024  69.975  1.00  0.00    -0.281 C  
HETATM    5  C   UNL     1     -11.881  14.695  68.985  1.00  0.00    -0.346 C  
HETATM    6  C   UNL     1     -11.410  16.031  69.367  1.00  0.00    -0.355 C  
HETATM    7  N   UNL     1     -11.512  16.563  70.526  1.00  0.00    -0.487 N  
HETATM    8  O   UNL     1     -12.209  16.332  72.660  1.00  0.00    -0.495 OA 
HETATM    9  C   UNL     1     -12.099  15.851  71.534  1.00  0.00    -0.470 C  
HETATM   10  H   UNL     1     -11.159  17.506  70.695  1.00  0.00     0.000 HD 
BRANCH   6  11
HETATM   11  N   UNL     1     -10.801  16.728  68.320  1.00  0.00    -0.366 N  
HETATM   12  H   UNL     1     -11.169  17.650  68.087  1.00  0.00     0.000 HD 
BRANCH  11  13
HETATM   13  S   UNL     1      -9.508  16.159  67.422  1.00  0.00    -0.228 S  
HETATM   14  O   UNL     1      -8.632  15.533  68.393  1.00  0.00    -0.160 OA 
HETATM   15  O   UNL     1     -10.024  15.397  66.305  1.00  0.00    -0.255 OA 
BRANCH  13  16
HETATM   16  C   UNL     1      -8.701  17.618  66.827  1.00  0.00    -0.258 A  
HETATM   17  C   UNL     1      -7.411  17.537  66.301  1.00  0.00    -0.355 A  
HETATM   18  C   UNL     1      -6.791  18.696  65.823  1.00  0.00    -0.307 A  
HETATM   19  C   UNL     1      -7.432  19.937  65.901  1.00  0.00    -0.328 A  
HETATM   20  N   UNL     1      -6.846  21.072  65.328  1.00  0.00    -0.514 NA 
HETATM   21  C   UNL     1      -8.755  19.984  66.348  1.00  0.00    -0.364 A  
HETATM   22  C   UNL     1      -9.390  18.832  66.813  1.00  0.00    -0.330 A  
HETATM   23  H2  UNL     1      -6.654  20.872  64.346  1.00  0.00     0.000 HD 
HETATM   24  H1  UNL     1      -7.313  21.977  65.385  1.00  0.00     0.000 HD 
ENDBRANCH  13  16
ENDBRANCH  11  13
ENDBRANCH   6  11
ENDBRANCH   2   3
TORSDOF 4
ENDMDL
MODEL       58
REMARK 921   NORMALIZED FREE ENERGY PREDICTED BY IDOCK:   -5.43 KCAL/MOL
REMARK 922        TOTAL FREE ENERGY PREDICTED BY IDOCK:   -7.52 KCAL/MOL
REMARK 923 INTER-LIGAND FREE ENERGY PREDICTED BY IDOCK:   -6.87 KCAL/MOL
REMARK 924 INTRA-LIGAND FREE ENERGY PREDICTED BY IDOCK:   -0.65 KCAL/MOL
REMARK 927      BINDING AFFINITY PREDICTED BY RF-SCORE:    0.00 PKD
ROOT
HETATM    1  C   UNL     1     -14.296   7.571  71.788  1.00  0.00    -0.588 C  
HETATM    2  C   UNL     1     -12.888   8.002  72.169  1.00  0.00    -0.241 C  
ENDROOT
BRANCH   2   3
HETATM    3  N   UNL     1     -12.438   9.132  71.361  1.00  0.00    -0.318 N  
HETATM    4  C   UNL     1     -12.964  10.387  71.579  1.00  0.00    -0.458 C  
HETATM    5  C   UNL     1     -12.539  11.441  70.881  1.00  0.00    -0.453 C  
HETATM    6  C   UNL     1     -11.467  11.134  69.929  1.00  0.00    -0.306 C  
HETATM    7  N   UNL     1     -10.946   9.984  69.725  1.00  0.00    -0.260 N  
HETATM    8  O   UNL     1     -10.933   7.792  70.260  1.00  0.00    -0.249 OA 
HETATM    9  C   UNL     1     -11.410   8.912  70.434  1.00  0.00    -0.202 C  
HETATM   10  H   UNL     1     -10.196   9.869  69.044  1.00  0.00     0.000 HD 
BRANCH   6  11
HETATM   11  N   UNL     1     -11.025  12.248  69.208  1.00  0.00    -0.426 N  
HETATM   12  H   UNL     1     -10.857  13.111  69.726  1.00  0.00     0.000 HD 
BRANCH  11  13
HETATM   13  S   UNL     1     -10.751  12.267  67.557  1.00  0.00    -0.232 S  
HETATM   14  O   UNL     1      -9.469  11.612  67.390  1.00  0.00    -0.166 OA 
HETATM   15  O   UNL     1     -11.927  11.753  66.890  1.00  0.00    -0.605 OA 
BRANCH  13  16
HETATM   16  C   UNL     1     -10.540  13.979  67.160  1.00  0.00    -0.274 A  
HETATM   17  C   UNL     1      -9.920  14.347  65.965  1.00  0.00    -0.337 A  
HETATM   18  C   UNL     1      -9.773  15.703  65.657  1.00  0.00    -0.348 A  
HETATM   19  C   UNL     1     -10.202  16.692  66.550  1.00  0.00    -0.310 A  
HETATM   20  N   UNL     1     -10.142  18.043  66.188  1.00  0.00    -0.505 NA 
HETATM   21  C   UNL     1     -10.898  16.306  67.697  1.00  0.00    -0.293 A  
HETATM   22  C   UNL     1     -11.066  14.955  68.007  1.00  0.00    -0.301 A  
HETATM   23  H2  UNL     1     -10.647  18.163  65.310  1.00  0.00     0.000 HD 
HETATM   24  H1  UNL     1     -10.454  18.764  66.839  1.00  0.00     0.000 HD 
ENDBRANCH  13  16
ENDBRANCH  11  13
ENDBRANCH   6  11
ENDBRANCH   2   3
TORSDOF 4
ENDMDL
MODEL       59
REMARK 921   NORMALIZED FREE ENERGY PREDICTED BY IDOCK:   -5.42 KCAL/MOL
REMARK 922        TOTAL FREE ENERGY PREDICTED BY IDOCK:   -7.51 KCAL/MOL
REMARK 923 INTER-LIGAND FREE ENERGY PREDICTED BY IDOCK:   -6.63 KCAL/MOL
REMARK 924 INTRA-LIGAND FREE ENERGY PREDICTED BY IDOCK:   -0.88 KCAL/MOL
REMARK 927      BINDING AFFINITY PREDICTED BY RF-SCORE:    0.00 PKD
ROOT
HETATM    1  C   UNL     1      -5.726  10.746  62.418  1.00  0.00    -0.165 C  
HETATM    2  C   UNL     1      -6.021   9.614  63.391  1.00  0.00    -0.102 C  
ENDROOT
BRANCH   2   3
HETATM    3  N   UNL     1      -7.245   9.864  64.147  1.00  0.00    -0.130 N  
HETATM    4  C   UNL     1      -8.454   9.947  63.491  1.00  0.00    -0.183 C  
HETATM    5  C   UNL     1      -9.590  10.134  64.165  1.00  0.00    -0.336 C  
HETATM    6  C   UNL     1      -9.418  10.195  65.620  1.00  0.00    -0.220 C  
HETATM    7  N   UNL     1      -8.311  10.097  66.253  1.00  0.00    -0.127 N  
HETATM    8  O   UNL     1      -6.073   9.833  66.122  1.00  0.00    -0.061 OA 
HETATM    9  C   UNL     1      -7.154   9.927  65.544  1.00  0.00    -0.118 C  
HETATM   10  H   UNL     1      -8.291  10.144  67.272  1.00  0.00     0.000 HD 
BRANCH   6  11
HETATM   11  N   UNL     1     -10.615  10.384  66.316  1.00  0.00    -0.159 N  
HETATM   12  H   UNL     1     -11.366   9.712  66.159  1.00  0.00     0.000 HD 
BRANCH  11  13
HETATM   13  S   UNL     1     -10.906  11.635  67.390  1.00  0.00    -0.266 S  
HETATM   14  O   UNL     1     -12.204  11.336  67.962  1.00  0.00    -0.621 OA 
HETATM   15  O   UNL     1      -9.748  11.786  68.244  1.00  0.00    -0.189 OA 
BRANCH  13  16
HETATM   16  C   UNL     1     -11.083  13.069  66.366  1.00  0.00    -0.287 A  
HETATM   17  C   UNL     1     -10.077  14.036  66.339  1.00  0.00    -0.299 A  
HETATM   18  C   UNL     1     -10.224  15.156  65.516  1.00  0.00    -0.405 A  
HETATM   19  C   UNL     1     -11.382  15.338  64.752  1.00  0.00    -0.391 A  
HETATM   20  N   UNL     1     -11.475  16.409  63.856  1.00  0.00    -1.618 NA 
HETATM   21  C   UNL     1     -12.336  14.319  64.724  1.00  0.00    -0.440 A  
HETATM   22  C   UNL     1     -12.194  13.188  65.529  1.00  0.00    -0.513 A  
HETATM   23  H2  UNL     1     -10.677  16.368  63.222  1.00  0.00     0.000 HD 
HETATM   24  H1  UNL     1     -12.320  16.543  63.299  1.00  0.00     0.000 HD 
ENDBRANCH  13  16
ENDBRANCH  11  13
ENDBRANCH   6  11
ENDBRANCH   2   3
TORSDOF 4
ENDMDL
MODEL       60
REMARK 921   NORMALIZED FREE ENERGY PREDICTED BY IDOCK:   -5.40 KCAL/MOL
REMARK 922        TOTAL FREE ENERGY PREDICTED BY IDOCK:   -7.49 KCAL/MOL
REMARK 923 INTER-LIGAND FREE ENERGY PREDICTED BY IDOCK:   -6.85 KCAL/MOL
REMARK 924 INTRA-LIGAND FREE ENERGY PREDICTED BY IDOCK:   -0.63 KCAL/MOL
REMARK 927      BINDING AFFINITY PREDICTED BY RF-SCORE:    0.00 PKD
ROOT
HETATM    1  C   UNL     1      -9.461   4.935  69.740  1.00  0.00    -0.223 C  
HETATM    2  C   UNL     1     -10.761   5.714  69.877  1.00  0.00    -0.329 C  
ENDROOT
BRANCH   2   3
HETATM    3  N   UNL     1     -10.715   6.968  69.132  1.00  0.00    -0.225 N  
HETATM    4  C   UNL     1     -10.530   6.951  67.766  1.00  0.00    -0.223 C  
HETATM    5  C   UNL     1     -10.525   8.081  67.059  1.00  0.00    -0.410 C  
HETATM    6  C   UNL     1     -10.770   9.287  67.858  1.00  0.00    -0.188 C  
HETATM    7  N   UNL     1     -10.968   9.327  69.121  1.00  0.00    -0.414 N  
HETATM    8  O   UNL     1     -11.131   8.163  71.048  1.00  0.00    -0.244 OA 
HETATM    9  C   UNL     1     -10.948   8.159  69.832  1.00  0.00    -0.168 C  
HETATM   10  H   UNL     1     -11.138  10.216  69.590  1.00  0.00     0.000 HD 
BRANCH   6  11
HETATM   11  N   UNL     1     -10.769  10.465  67.105  1.00  0.00    -0.266 N  
HETATM   12  H   UNL     1     -11.379  10.506  66.289  1.00  0.00     0.000 HD 
BRANCH  11  13
HETATM   13  S   UNL     1      -9.839  11.813  67.448  1.00  0.00    -0.178 S  
HETATM   14  O   UNL     1     -10.176  12.155  68.816  1.00  0.00    -0.201 OA 
HETATM   15  O   UNL     1      -8.468  11.532  67.081  1.00  0.00    -0.146 OA 
BRANCH  13  16
HETATM   16  C   UNL     1     -10.489  13.082  66.397  1.00  0.00    -0.276 A  
HETATM   17  C   UNL     1      -9.760  14.253  66.184  1.00  0.00    -0.325 A  
HETATM   18  C   UNL     1     -10.279  15.240  65.342  1.00  0.00    -0.414 A  
HETATM   19  C   UNL     1     -11.535  15.085  64.742  1.00  0.00    -0.403 A  
HETATM   20  N   UNL     1     -11.999  16.032  63.822  1.00  0.00    -1.339 NA 
HETATM   21  C   UNL     1     -12.207  13.871  64.895  1.00  0.00    -0.445 A  
HETATM   22  C   UNL     1     -11.692  12.870  65.721  1.00  0.00    -0.437 A  
HETATM   23  H2  UNL     1     -11.302  16.131  63.084  1.00  0.00     0.000 HD 
HETATM   24  H1  UNL     1     -12.914  15.919  63.385  1.00  0.00     0.000 HD 
ENDBRANCH  13  16
ENDBRANCH  11  13
ENDBRANCH   6  11
ENDBRANCH   2   3
TORSDOF 4
ENDMDL
MODEL       61
REMARK 921   NORMALIZED FREE ENERGY PREDICTED BY IDOCK:   -5.40 KCAL/MOL
REMARK 922        TOTAL FREE ENERGY PREDICTED BY IDOCK:   -7.48 KCAL/MOL
REMARK 923 INTER-LIGAND FREE ENERGY PREDICTED BY IDOCK:   -7.16 KCAL/MOL
REMARK 924 INTRA-LIGAND FREE ENERGY PREDICTED BY IDOCK:   -0.32 KCAL/MOL
REMARK 927      BINDING AFFINITY PREDICTED BY RF-SCORE:    0.00 PKD
ROOT
HETATM    1  C   UNL     1     -11.538  15.469  70.027  1.00  0.00    -0.356 C  
HETATM    2  C   UNL     1     -12.649  14.932  70.918  1.00  0.00    -0.341 C  
ENDROOT
BRANCH   2   3
HETATM    3  N   UNL     1     -12.684  13.473  70.909  1.00  0.00    -0.318 N  
HETATM    4  C   UNL     1     -12.022  12.774  69.922  1.00  0.00    -0.298 C  
HETATM    5  C   UNL     1     -12.006  11.441  69.916  1.00  0.00    -0.434 C  
HETATM    6  C   UNL     1     -12.705  10.830  71.052  1.00  0.00    -0.415 C  
HETATM    7  N   UNL     1     -13.306  11.456  71.992  1.00  0.00    -0.518 N  
HETATM    8  O   UNL     1     -13.902  13.454  72.855  1.00  0.00    -0.624 OA 
HETATM    9  C   UNL     1     -13.330  12.823  71.969  1.00  0.00    -0.466 C  
HETATM   10  H   UNL     1     -13.760  10.943  72.748  1.00  0.00     0.000 HD 
BRANCH   6  11
HETATM   11  N   UNL     1     -12.676   9.433  71.039  1.00  0.00    -0.488 N  
HETATM   12  H   UNL     1     -13.541   8.943  70.808  1.00  0.00     0.000 HD 
BRANCH  11  13
HETATM   13  S   UNL     1     -11.324   8.505  71.375  1.00  0.00    -0.290 S  
HETATM   14  O   UNL     1     -10.295   9.465  71.721  1.00  0.00    -0.260 OA 
HETATM   15  O   UNL     1     -11.700   7.466  72.310  1.00  0.00    -0.286 OA 
BRANCH  13  16
HETATM   16  C   UNL     1     -10.885   7.778  69.821  1.00  0.00    -0.209 A  
HETATM   17  C   UNL     1     -11.038   6.404  69.625  1.00  0.00    -0.465 A  
HETATM   18  C   UNL     1     -10.701   5.846  68.389  1.00  0.00    -0.323 A  
HETATM   19  C   UNL     1     -10.175   6.640  67.362  1.00  0.00    -0.190 A  
HETATM   20  N   UNL     1      -9.937   6.090  66.097  1.00  0.00    -0.386 NA 
HETATM   21  C   UNL     1     -10.114   8.023  67.546  1.00  0.00    -0.281 A  
HETATM   22  C   UNL     1     -10.463   8.595  68.770  1.00  0.00    -0.209 A  
HETATM   23  H2  UNL     1     -10.802   5.666  65.763  1.00  0.00     0.000 HD 
HETATM   24  H1  UNL     1      -9.554   6.668  65.349  1.00  0.00     0.000 HD 
ENDBRANCH  13  16
ENDBRANCH  11  13
ENDBRANCH   6  11
ENDBRANCH   2   3
TORSDOF 4
ENDMDL
MODEL       62
REMARK 921   NORMALIZED FREE ENERGY PREDICTED BY IDOCK:   -5.35 KCAL/MOL
REMARK 922        TOTAL FREE ENERGY PREDICTED BY IDOCK:   -7.42 KCAL/MOL
REMARK 923 INTER-LIGAND FREE ENERGY PREDICTED BY IDOCK:   -6.82 KCAL/MOL
REMARK 924 INTRA-LIGAND FREE ENERGY PREDICTED BY IDOCK:   -0.60 KCAL/MOL
REMARK 927      BINDING AFFINITY PREDICTED BY RF-SCORE:    0.00 PKD
ROOT
HETATM    1  C   UNL     1     -10.585   8.163  68.344  1.00  0.00    -0.148 C  
HETATM    2  C   UNL     1     -10.460   8.940  67.042  1.00  0.00    -0.256 C  
ENDROOT
BRANCH   2   3
HETATM    3  N   UNL     1     -10.929  10.314  67.192  1.00  0.00    -0.218 N  
HETATM    4  C   UNL     1     -11.436  10.741  68.400  1.00  0.00    -0.288 C  
HETATM    5  C   UNL     1     -11.833  12.003  68.572  1.00  0.00    -0.369 C  
HETATM    6  C   UNL     1     -11.637  12.856  67.396  1.00  0.00    -0.360 C  
HETATM    7  N   UNL     1     -11.147  12.490  66.272  1.00  0.00    -0.283 N  
HETATM    8  O   UNL     1     -10.295  10.802  65.040  1.00  0.00    -0.302 OA 
HETATM    9  C   UNL     1     -10.766  11.188  66.108  1.00  0.00    -0.225 C  
HETATM   10  H   UNL     1     -11.042  13.161  65.510  1.00  0.00     0.000 HD 
BRANCH   6  11
HETATM   11  N   UNL     1     -12.050  14.177  67.590  1.00  0.00    -0.545 N  
HETATM   12  H   UNL     1     -12.965  14.445  67.230  1.00  0.00     0.000 HD 
BRANCH  11  13
HETATM   13  S   UNL     1     -11.149  15.352  68.372  1.00  0.00    -0.317 S  
HETATM   14  O   UNL     1      -9.844  14.750  68.560  1.00  0.00    -0.206 OA 
HETATM   15  O   UNL     1     -11.283  16.595  67.643  1.00  0.00    -0.177 OA 
BRANCH  13  16
HETATM   16  C   UNL     1     -11.908  15.509  69.964  1.00  0.00    -0.359 A  
HETATM   17  C   UNL     1     -11.193  16.067  71.025  1.00  0.00    -0.347 A  
HETATM   18  C   UNL     1     -11.810  16.197  72.273  1.00  0.00    -0.631 A  
HETATM   19  C   UNL     1     -13.116  15.741  72.480  1.00  0.00    -0.474 A  
HETATM   20  N   UNL     1     -13.759  15.968  73.703  1.00  0.00    -0.785 NA 
HETATM   21  C   UNL     1     -13.844  15.268  71.385  1.00  0.00    -0.603 A  
HETATM   22  C   UNL     1     -13.246  15.148  70.130  1.00  0.00     0.073 A  
HETATM   23  H2  UNL     1     -13.735  16.969  73.896  1.00  0.00     0.000 HD 
HETATM   24  H1  UNL     1     -14.711  15.635  73.854  1.00  0.00     0.000 HD 
ENDBRANCH  13  16
ENDBRANCH  11  13
ENDBRANCH   6  11
ENDBRANCH   2   3
TORSDOF 4
ENDMDL
MODEL       63
REMARK 921   NORMALIZED FREE ENERGY PREDICTED BY IDOCK:   -5.29 KCAL/MOL
REMARK 922        TOTAL FREE ENERGY PREDICTED BY IDOCK:   -7.35 KCAL/MOL
REMARK 923 INTER-LIGAND FREE ENERGY PREDICTED BY IDOCK:   -6.83 KCAL/MOL
REMARK 924 INTRA-LIGAND FREE ENERGY PREDICTED BY IDOCK:   -0.52 KCAL/MOL
REMARK 927      BINDING AFFINITY PREDICTED BY RF-SCORE:    0.00 PKD
ROOT
HETATM    1  C   UNL     1     -11.502  16.043  71.165  1.00  0.00    -0.470 C  
HETATM    2  C   UNL     1     -12.876  15.391  71.213  1.00  0.00    -0.452 C  
ENDROOT
BRANCH   2   3
HETATM    3  N   UNL     1     -12.788  13.945  71.030  1.00  0.00    -0.334 N  
HETATM    4  C   UNL     1     -12.004  13.425  70.023  1.00  0.00    -0.337 C  
HETATM    5  C   UNL     1     -11.877  12.107  69.863  1.00  0.00    -0.392 C  
HETATM    6  C   UNL     1     -12.600  11.311  70.861  1.00  0.00    -0.371 C  
HETATM    7  N   UNL     1     -13.314  11.770  71.818  1.00  0.00    -0.348 N  
HETATM    8  O   UNL     1     -14.132  13.597  72.860  1.00  0.00    -0.589 OA 
HETATM    9  C   UNL     1     -13.450  13.123  71.953  1.00  0.00    -0.424 C  
HETATM   10  H   UNL     1     -13.774  11.135  72.471  1.00  0.00     0.000 HD 
BRANCH   6  11
HETATM   11  N   UNL     1     -12.454   9.932  70.687  1.00  0.00    -0.466 N  
HETATM   12  H   UNL     1     -11.967   9.609  69.851  1.00  0.00     0.000 HD 
BRANCH  11  13
HETATM   13  S   UNL     1     -13.019   8.772  71.753  1.00  0.00    -0.382 S  
HETATM   14  O   UNL     1     -12.860   9.369  73.065  1.00  0.00    -0.011 OA 
HETATM   15  O   UNL     1     -14.321   8.329  71.304  1.00  0.00    -0.355 OA 
BRANCH  13  16
HETATM   16  C   UNL     1     -11.859   7.441  71.620  1.00  0.00    -0.291 A  
HETATM   17  C   UNL     1     -11.178   6.993  72.753  1.00  0.00    -0.294 A  
HETATM   18  C   UNL     1     -10.275   5.932  72.636  1.00  0.00    -0.209 A  
HETATM   19  C   UNL     1     -10.017   5.343  71.393  1.00  0.00    -0.184 A  
HETATM   20  N   UNL     1      -9.190   4.217  71.303  1.00  0.00    -0.127 NA 
HETATM   21  C   UNL     1     -10.772   5.745  70.289  1.00  0.00    -0.380 A  
HETATM   22  C   UNL     1     -11.689   6.792  70.396  1.00  0.00    -0.418 A  
HETATM   23  H2  UNL     1      -9.556   3.499  71.928  1.00  0.00     0.000 HD 
HETATM   24  H1  UNL     1      -9.001   3.788  70.397  1.00  0.00     0.000 HD 
ENDBRANCH  13  16
ENDBRANCH  11  13
ENDBRANCH   6  11
ENDBRANCH   2   3
TORSDOF 4
ENDMDL
MODEL       64
REMARK 921   NORMALIZED FREE ENERGY PREDICTED BY IDOCK:   -5.28 KCAL/MOL
REMARK 922        TOTAL FREE ENERGY PREDICTED BY IDOCK:   -7.34 KCAL/MOL
REMARK 923 INTER-LIGAND FREE ENERGY PREDICTED BY IDOCK:   -6.71 KCAL/MOL
REMARK 924 INTRA-LIGAND FREE ENERGY PREDICTED BY IDOCK:   -0.62 KCAL/MOL
REMARK 927      BINDING AFFINITY PREDICTED BY RF-SCORE:    0.00 PKD
ROOT
HETATM    1  C   UNL     1     -14.302  15.551  72.508  1.00  0.00    -0.363 C  
HETATM    2  C   UNL     1     -12.975  14.879  72.828  1.00  0.00    -0.447 C  
ENDROOT
BRANCH   2   3
HETATM    3  N   UNL     1     -12.700  13.775  71.913  1.00  0.00    -0.288 N  
HETATM    4  C   UNL     1     -13.168  12.511  72.200  1.00  0.00    -0.403 C  
HETATM    5  C   UNL     1     -12.964  11.496  71.359  1.00  0.00    -0.450 C  
HETATM    6  C   UNL     1     -12.255  11.871  70.131  1.00  0.00    -0.241 C  
HETATM    7  N   UNL     1     -11.832  13.040  69.832  1.00  0.00    -0.428 N  
HETATM    8  O   UNL     1     -11.634  15.199  70.460  1.00  0.00    -0.260 OA 
HETATM    9  C   UNL     1     -12.031  14.064  70.716  1.00  0.00    -0.291 C  
HETATM   10  H   UNL     1     -11.354  13.207  68.946  1.00  0.00     0.000 HD 
BRANCH   6  11
HETATM   11  N   UNL     1     -12.053  10.801  69.254  1.00  0.00    -0.517 N  
HETATM   12  H   UNL     1     -12.809  10.566  68.611  1.00  0.00     0.000 HD 
BRANCH  11  13
HETATM   13  S   UNL     1     -10.659   9.876  69.184  1.00  0.00    -0.229 S  
HETATM   14  O   UNL     1     -10.668   9.297  67.856  1.00  0.00    -0.242 OA 
HETATM   15  O   UNL     1      -9.545  10.691  69.619  1.00  0.00    -0.115 OA 
BRANCH  13  16
HETATM   16  C   UNL     1     -10.932   8.570  70.348  1.00  0.00    -0.238 A  
HETATM   17  C   UNL     1     -11.212   7.280  69.895  1.00  0.00    -0.195 A  
HETATM   18  C   UNL     1     -11.412   6.255  70.824  1.00  0.00    -0.383 A  
HETATM   19  C   UNL     1     -11.373   6.515  72.199  1.00  0.00    -0.282 A  
HETATM   20  N   UNL     1     -11.473   5.465  73.119  1.00  0.00    -0.502 NA 
HETATM   21  C   UNL     1     -11.004   7.790  72.631  1.00  0.00    -0.422 A  
HETATM   22  C   UNL     1     -10.786   8.819  71.713  1.00  0.00    -0.416 A  
HETATM   23  H2  UNL     1     -10.750   4.778  72.903  1.00  0.00     0.000 HD 
HETATM   24  H1  UNL     1     -11.445   5.654  74.121  1.00  0.00     0.000 HD 
ENDBRANCH  13  16
ENDBRANCH  11  13
ENDBRANCH   6  11
ENDBRANCH   2   3
TORSDOF 4
ENDMDL
MODEL       65
REMARK 921   NORMALIZED FREE ENERGY PREDICTED BY IDOCK:   -5.26 KCAL/MOL
REMARK 922        TOTAL FREE ENERGY PREDICTED BY IDOCK:   -7.31 KCAL/MOL
REMARK 923 INTER-LIGAND FREE ENERGY PREDICTED BY IDOCK:   -6.39 KCAL/MOL
REMARK 924 INTRA-LIGAND FREE ENERGY PREDICTED BY IDOCK:   -0.92 KCAL/MOL
REMARK 927      BINDING AFFINITY PREDICTED BY RF-SCORE:    0.00 PKD
ROOT
HETATM    1  C   UNL     1      -9.129   8.954  65.522  1.00  0.00    -0.248 C  
HETATM    2  C   UNL     1      -8.257   9.184  66.748  1.00  0.00    -0.119 C  
ENDROOT
BRANCH   2   3
HETATM    3  N   UNL     1      -8.500  10.497  67.338  1.00  0.00    -0.122 N  
HETATM    4  C   UNL     1      -7.848  11.606  66.842  1.00  0.00    -0.156 C  
HETATM    5  C   UNL     1      -8.084  12.821  67.338  1.00  0.00    -0.185 C  
HETATM    6  C   UNL     1      -9.101  12.847  68.395  1.00  0.00    -0.126 C  
HETATM    7  N   UNL     1      -9.736  11.837  68.856  1.00  0.00    -0.410 N  
HETATM    8  O   UNL     1     -10.054   9.604  68.773  1.00  0.00    -0.167 OA 
HETATM    9  C   UNL     1      -9.464  10.596  68.350  1.00  0.00    -0.165 C  
HETATM   10  H   UNL     1     -10.434  11.955  69.591  1.00  0.00     0.000 HD 
BRANCH   6  11
HETATM   11  N   UNL     1      -9.345  14.126  68.903  1.00  0.00    -0.385 N  
HETATM   12  H   UNL     1      -8.579  14.599  69.384  1.00  0.00     0.000 HD 
BRANCH  11  13
HETATM   13  S   UNL     1     -10.803  14.939  68.779  1.00  0.00    -0.263 S  
HETATM   14  O   UNL     1     -11.717  14.185  69.615  1.00  0.00    -0.278 OA 
HETATM   15  O   UNL     1     -10.569  16.344  69.033  1.00  0.00    -0.265 OA 
BRANCH  13  16
HETATM   16  C   UNL     1     -11.297  14.712  67.094  1.00  0.00    -0.356 A  
HETATM   17  C   UNL     1     -10.560  15.300  66.065  1.00  0.00    -0.327 A  
HETATM   18  C   UNL     1     -10.954  15.101  64.739  1.00  0.00    -0.394 A  
HETATM   19  C   UNL     1     -12.099  14.356  64.434  1.00  0.00    -0.470 A  
HETATM   20  N   UNL     1     -12.427  14.078  63.102  1.00  0.00    -1.070 NA 
HETATM   21  C   UNL     1     -12.771  13.703  65.470  1.00  0.00    -0.514 A  
HETATM   22  C   UNL     1     -12.378  13.880  66.797  1.00  0.00    -0.370 A  
HETATM   23  H2  UNL     1     -11.624  13.628  62.661  1.00  0.00     0.000 HD 
HETATM   24  H1  UNL     1     -13.261  13.535  62.880  1.00  0.00     0.000 HD 
ENDBRANCH  13  16
ENDBRANCH  11  13
ENDBRANCH   6  11
ENDBRANCH   2   3
TORSDOF 4
ENDMDL
MODEL       66
REMARK 921   NORMALIZED FREE ENERGY PREDICTED BY IDOCK:   -5.25 KCAL/MOL
REMARK 922        TOTAL FREE ENERGY PREDICTED BY IDOCK:   -7.30 KCAL/MOL
REMARK 923 INTER-LIGAND FREE ENERGY PREDICTED BY IDOCK:   -6.66 KCAL/MOL
REMARK 924 INTRA-LIGAND FREE ENERGY PREDICTED BY IDOCK:   -0.64 KCAL/MOL
REMARK 927      BINDING AFFINITY PREDICTED BY RF-SCORE:    0.00 PKD
ROOT
HETATM    1  C   UNL     1      -9.934   5.569  68.643  1.00  0.00    -0.222 C  
HETATM    2  C   UNL     1      -8.788   6.472  68.214  1.00  0.00    -0.119 C  
ENDROOT
BRANCH   2   3
HETATM    3  N   UNL     1      -9.143   7.883  68.337  1.00  0.00    -0.136 N  
HETATM    4  C   UNL     1      -8.904   8.552  69.518  1.00  0.00    -0.141 C  
HETATM    5  C   UNL     1      -9.182   9.851  69.640  1.00  0.00    -0.246 C  
HETATM    6  C   UNL     1      -9.708  10.467  68.417  1.00  0.00    -0.158 C  
HETATM    7  N   UNL     1      -9.916   9.873  67.304  1.00  0.00    -0.186 N  
HETATM    8  O   UNL     1      -9.837   7.936  66.149  1.00  0.00    -0.121 OA 
HETATM    9  C   UNL     1      -9.645   8.537  67.204  1.00  0.00    -0.178 C  
HETATM   10  H   UNL     1     -10.279  10.389  66.502  1.00  0.00     0.000 HD 
BRANCH   6  11
HETATM   11  N   UNL     1      -9.990  11.829  68.556  1.00  0.00    -0.221 N  
HETATM   12  H   UNL     1      -9.202  12.466  68.670  1.00  0.00     0.000 HD 
BRANCH  11  13
HETATM   13  S   UNL     1     -11.528  12.489  68.547  1.00  0.00    -0.329 S  
HETATM   14  O   UNL     1     -12.405  11.375  68.247  1.00  0.00    -0.506 OA 
HETATM   15  O   UNL     1     -11.707  13.254  69.762  1.00  0.00    -0.298 OA 
BRANCH  13  16
HETATM   16  C   UNL     1     -11.538  13.578  67.150  1.00  0.00    -0.357 A  
HETATM   17  C   UNL     1     -12.370  13.310  66.063  1.00  0.00    -0.449 A  
HETATM   18  C   UNL     1     -12.378  14.185  64.973  1.00  0.00    -0.452 A  
HETATM   19  C   UNL     1     -11.534  15.301  64.942  1.00  0.00    -0.343 A  
HETATM   20  N   UNL     1     -11.622  16.225  63.894  1.00  0.00    -1.573 NA 
HETATM   21  C   UNL     1     -10.775  15.601  66.076  1.00  0.00    -0.322 A  
HETATM   22  C   UNL     1     -10.771  14.744  67.177  1.00  0.00    -0.299 A  
HETATM   23  H2  UNL     1     -12.587  16.551  63.835  1.00  0.00     0.000 HD 
HETATM   24  H1  UNL     1     -11.007  17.039  63.872  1.00  0.00     0.000 HD 
ENDBRANCH  13  16
ENDBRANCH  11  13
ENDBRANCH   6  11
ENDBRANCH   2   3
TORSDOF 4
ENDMDL
MODEL       67
REMARK 921   NORMALIZED FREE ENERGY PREDICTED BY IDOCK:   -5.24 KCAL/MOL
REMARK 922        TOTAL FREE ENERGY PREDICTED BY IDOCK:   -7.29 KCAL/MOL
REMARK 923 INTER-LIGAND FREE ENERGY PREDICTED BY IDOCK:   -6.90 KCAL/MOL
REMARK 924 INTRA-LIGAND FREE ENERGY PREDICTED BY IDOCK:   -0.39 KCAL/MOL
REMARK 927      BINDING AFFINITY PREDICTED BY RF-SCORE:    0.00 PKD
ROOT
HETATM    1  C   UNL     1     -10.088   5.061  69.987  1.00  0.00    -0.342 C  
HETATM    2  C   UNL     1     -11.231   5.971  70.411  1.00  0.00    -0.310 C  
ENDROOT
BRANCH   2   3
HETATM    3  N   UNL     1     -10.908   7.377  70.184  1.00  0.00    -0.252 N  
HETATM    4  C   UNL     1     -10.383   7.776  68.973  1.00  0.00    -0.211 C  
HETATM    5  C   UNL     1     -10.118   9.060  68.728  1.00  0.00    -0.214 C  
HETATM    6  C   UNL     1     -10.472   9.963  69.829  1.00  0.00    -0.261 C  
HETATM    7  N   UNL     1     -10.981   9.620  70.951  1.00  0.00    -0.317 N  
HETATM    8  O   UNL     1     -11.711   7.934  72.261  1.00  0.00    -0.313 OA 
HETATM    9  C   UNL     1     -11.226   8.297  71.192  1.00  0.00    -0.258 C  
HETATM   10  H   UNL     1     -11.202  10.324  71.656  1.00  0.00     0.000 HD 
BRANCH   6  11
HETATM   11  N   UNL     1     -10.196  11.306  69.558  1.00  0.00    -0.435 N  
HETATM   12  H   UNL     1      -9.348  11.705  69.960  1.00  0.00     0.000 HD 
BRANCH  11  13
HETATM   13  S   UNL     1     -11.158  12.307  68.622  1.00  0.00    -0.266 S  
HETATM   14  O   UNL     1     -10.223  13.166  67.922  1.00  0.00    -0.222 OA 
HETATM   15  O   UNL     1     -12.092  11.486  67.882  1.00  0.00    -0.630 OA 
BRANCH  13  16
HETATM   16  C   UNL     1     -12.037  13.303  69.793  1.00  0.00    -0.290 A  
HETATM   17  C   UNL     1     -12.707  12.700  70.858  1.00  0.00    -0.274 A  
HETATM   18  C   UNL     1     -13.385  13.500  71.783  1.00  0.00    -0.480 A  
HETATM   19  C   UNL     1     -13.434  14.890  71.629  1.00  0.00    -0.398 A  
HETATM   20  N   UNL     1     -14.028  15.689  72.614  1.00  0.00    -0.571 NA 
HETATM   21  C   UNL     1     -12.684  15.481  70.609  1.00  0.00    -0.487 A  
HETATM   22  C   UNL     1     -11.989  14.694  69.690  1.00  0.00    -0.368 A  
HETATM   23  H2  UNL     1     -13.584  15.480  73.508  1.00  0.00     0.000 HD 
HETATM   24  H1  UNL     1     -14.064  16.702  72.502  1.00  0.00     0.000 HD 
ENDBRANCH  13  16
ENDBRANCH  11  13
ENDBRANCH   6  11
ENDBRANCH   2   3
TORSDOF 4
ENDMDL
MODEL       68
REMARK 921   NORMALIZED FREE ENERGY PREDICTED BY IDOCK:   -5.23 KCAL/MOL
REMARK 922        TOTAL FREE ENERGY PREDICTED BY IDOCK:   -7.28 KCAL/MOL
REMARK 923 INTER-LIGAND FREE ENERGY PREDICTED BY IDOCK:   -6.51 KCAL/MOL
REMARK 924 INTRA-LIGAND FREE ENERGY PREDICTED BY IDOCK:   -0.77 KCAL/MOL
REMARK 927      BINDING AFFINITY PREDICTED BY RF-SCORE:    0.00 PKD
ROOT
HETATM    1  C   UNL     1     -12.547  11.889  63.393  1.00  0.00    -0.555 C  
HETATM    2  C   UNL     1     -11.262  11.861  64.206  1.00  0.00    -0.357 C  
ENDROOT
BRANCH   2   3
HETATM    3  N   UNL     1     -11.197  12.980  65.141  1.00  0.00    -0.289 N  
HETATM    4  C   UNL     1     -10.887  14.243  64.683  1.00  0.00    -0.368 C  
HETATM    5  C   UNL     1     -10.862  15.288  65.512  1.00  0.00    -0.382 C  
HETATM    6  C   UNL     1     -11.225  14.962  66.895  1.00  0.00    -0.343 C  
HETATM    7  N   UNL     1     -11.539  13.805  67.339  1.00  0.00    -0.341 N  
HETATM    8  O   UNL     1     -11.832  11.615  66.875  1.00  0.00    -0.577 OA 
HETATM    9  C   UNL     1     -11.539  12.742  66.479  1.00  0.00    -0.376 C  
HETATM   10  H   UNL     1     -11.786  13.677  68.321  1.00  0.00     0.000 HD 
BRANCH   6  11
HETATM   11  N   UNL     1     -11.202  16.066  67.752  1.00  0.00    -0.281 N  
HETATM   12  H   UNL     1     -12.046  16.634  67.817  1.00  0.00     0.000 HD 
BRANCH  11  13
HETATM   13  S   UNL     1      -9.887  16.522  68.682  1.00  0.00    -0.261 S  
HETATM   14  O   UNL     1     -10.403  17.539  69.577  1.00  0.00    -0.219 OA 
HETATM   15  O   UNL     1      -9.263  15.329  69.213  1.00  0.00    -0.220 OA 
BRANCH  13  16
HETATM   16  C   UNL     1      -8.786  17.312  67.542  1.00  0.00    -0.218 A  
HETATM   17  C   UNL     1      -7.702  16.607  67.016  1.00  0.00    -0.235 A  
HETATM   18  C   UNL     1      -6.850  17.239  66.106  1.00  0.00    -0.227 A  
HETATM   19  C   UNL     1      -7.047  18.578  65.749  1.00  0.00    -0.220 A  
HETATM   20  N   UNL     1      -6.250  19.170  64.761  1.00  0.00    -0.416 NA 
HETATM   21  C   UNL     1      -8.186  19.237  66.215  1.00  0.00    -0.327 A  
HETATM   22  C   UNL     1      -9.054  18.612  67.111  1.00  0.00    -0.294 A  
HETATM   23  H2  UNL     1      -6.309  18.600  63.917  1.00  0.00     0.000 HD 
HETATM   24  H1  UNL     1      -6.394  20.146  64.501  1.00  0.00     0.000 HD 
ENDBRANCH  13  16
ENDBRANCH  11  13
ENDBRANCH   6  11
ENDBRANCH   2   3
TORSDOF 4
ENDMDL
MODEL       69
REMARK 921   NORMALIZED FREE ENERGY PREDICTED BY IDOCK:   -5.23 KCAL/MOL
REMARK 922        TOTAL FREE ENERGY PREDICTED BY IDOCK:   -7.27 KCAL/MOL
REMARK 923 INTER-LIGAND FREE ENERGY PREDICTED BY IDOCK:   -6.38 KCAL/MOL
REMARK 924 INTRA-LIGAND FREE ENERGY PREDICTED BY IDOCK:   -0.89 KCAL/MOL
REMARK 927      BINDING AFFINITY PREDICTED BY RF-SCORE:    0.00 PKD
ROOT
HETATM    1  C   UNL     1     -10.222  18.548  66.912  1.00  0.00    -0.411 C  
HETATM    2  C   UNL     1      -9.900  18.075  68.322  1.00  0.00    -0.355 C  
ENDROOT
BRANCH   2   3
HETATM    3  N   UNL     1      -9.651  16.637  68.361  1.00  0.00    -0.226 N  
HETATM    4  C   UNL     1      -8.757  16.070  67.479  1.00  0.00    -0.182 C  
HETATM    5  C   UNL     1      -8.483  14.765  67.522  1.00  0.00    -0.204 C  
HETATM    6  C   UNL     1      -9.178  14.044  68.594  1.00  0.00    -0.119 C  
HETATM    7  N   UNL     1      -9.993  14.552  69.439  1.00  0.00    -0.423 N  
HETATM    8  O   UNL     1     -11.060  16.406  70.159  1.00  0.00    -0.355 OA 
HETATM    9  C   UNL     1     -10.278  15.887  69.365  1.00  0.00    -0.262 C  
HETATM   10  H   UNL     1     -10.424  13.969  70.157  1.00  0.00     0.000 HD 
BRANCH   6  11
HETATM   11  N   UNL     1      -8.878  12.679  68.634  1.00  0.00    -0.386 N  
HETATM   12  H   UNL     1      -7.905  12.413  68.787  1.00  0.00     0.000 HD 
BRANCH  11  13
HETATM   13  S   UNL     1     -10.000  11.452  68.450  1.00  0.00    -0.208 S  
HETATM   14  O   UNL     1      -9.216  10.232  68.456  1.00  0.00    -0.135 OA 
HETATM   15  O   UNL     1     -11.057  11.646  69.419  1.00  0.00    -0.244 OA 
BRANCH  13  16
HETATM   16  C   UNL     1     -10.642  11.675  66.815  1.00  0.00    -0.244 A  
HETATM   17  C   UNL     1     -10.034  11.036  65.733  1.00  0.00    -0.294 A  
HETATM   18  C   UNL     1     -10.560  11.211  64.450  1.00  0.00    -0.411 A  
HETATM   19  C   UNL     1     -11.660  12.048  64.233  1.00  0.00    -0.358 A  
HETATM   20  N   UNL     1     -12.240  12.137  62.962  1.00  0.00    -0.669 NA 
HETATM   21  C   UNL     1     -12.308  12.607  65.337  1.00  0.00    -0.499 A  
HETATM   22  C   UNL     1     -11.803  12.427  66.625  1.00  0.00    -0.394 A  
HETATM   23  H2  UNL     1     -12.489  11.195  62.657  1.00  0.00     0.000 HD 
HETATM   24  H1  UNL     1     -13.042  12.747  62.803  1.00  0.00     0.000 HD 
ENDBRANCH  13  16
ENDBRANCH  11  13
ENDBRANCH   6  11
ENDBRANCH   2   3
TORSDOF 4
ENDMDL
MODEL       70
REMARK 921   NORMALIZED FREE ENERGY PREDICTED BY IDOCK:   -5.19 KCAL/MOL
REMARK 922        TOTAL FREE ENERGY PREDICTED BY IDOCK:   -7.23 KCAL/MOL
REMARK 923 INTER-LIGAND FREE ENERGY PREDICTED BY IDOCK:   -6.70 KCAL/MOL
REMARK 924 INTRA-LIGAND FREE ENERGY PREDICTED BY IDOCK:   -0.53 KCAL/MOL
REMARK 927      BINDING AFFINITY PREDICTED BY RF-SCORE:    0.00 PKD
ROOT
HETATM    1  C   UNL     1      -7.429   8.474  62.557  1.00  0.00    -0.103 C  
HETATM    2  C   UNL     1      -8.096   9.810  62.850  1.00  0.00    -0.139 C  
ENDROOT
BRANCH   2   3
HETATM    3  N   UNL     1      -8.838   9.772  64.107  1.00  0.00    -0.216 N  
HETATM    4  C   UNL     1      -8.597   8.769  65.020  1.00  0.00    -0.169 C  
HETATM    5  C   UNL     1      -9.233   8.737  66.192  1.00  0.00    -0.273 C  
HETATM    6  C   UNL     1     -10.146   9.865  66.405  1.00  0.00    -0.240 C  
HETATM    7  N   UNL     1     -10.370  10.820  65.584  1.00  0.00    -0.250 N  
HETATM    8  O   UNL     1      -9.919  11.725  63.566  1.00  0.00    -0.356 OA 
HETATM    9  C   UNL     1      -9.724  10.823  64.380  1.00  0.00    -0.301 C  
HETATM   10  H   UNL     1     -11.020  11.568  65.826  1.00  0.00     0.000 HD 
BRANCH   6  11
HETATM   11  N   UNL     1     -10.803   9.825  67.639  1.00  0.00    -0.385 N  
HETATM   12  H   UNL     1     -11.581   9.174  67.741  1.00  0.00     0.000 HD 
BRANCH  11  13
HETATM   13  S   UNL     1     -10.403  10.769  68.962  1.00  0.00    -0.218 S  
HETATM   14  O   UNL     1      -9.056  10.362  69.311  1.00  0.00    -0.187 OA 
HETATM   15  O   UNL     1     -10.689  12.152  68.644  1.00  0.00    -0.223 OA 
BRANCH  13  16
HETATM   16  C   UNL     1     -11.487  10.217  70.248  1.00  0.00    -0.317 A  
HETATM   17  C   UNL     1     -12.513  11.048  70.700  1.00  0.00    -0.465 A  
HETATM   18  C   UNL     1     -13.370  10.593  71.707  1.00  0.00    -0.437 A  
HETATM   19  C   UNL     1     -13.186   9.335  72.292  1.00  0.00    -0.460 A  
HETATM   20  N   UNL     1     -14.109   8.849  73.226  1.00  0.00    -1.248 NA 
HETATM   21  C   UNL     1     -12.211   8.485  71.766  1.00  0.00    -0.388 A  
HETATM   22  C   UNL     1     -11.360   8.921  70.750  1.00  0.00    -0.325 A  
HETATM   23  H2  UNL     1     -15.037   8.873  72.803  1.00  0.00     0.000 HD 
HETATM   24  H1  UNL     1     -13.975   7.932  73.653  1.00  0.00     0.000 HD 
ENDBRANCH  13  16
ENDBRANCH  11  13
ENDBRANCH   6  11
ENDBRANCH   2   3
TORSDOF 4
ENDMDL
MODEL       71
REMARK 921   NORMALIZED FREE ENERGY PREDICTED BY IDOCK:   -5.19 KCAL/MOL
REMARK 922        TOTAL FREE ENERGY PREDICTED BY IDOCK:   -7.22 KCAL/MOL
REMARK 923 INTER-LIGAND FREE ENERGY PREDICTED BY IDOCK:   -6.46 KCAL/MOL
REMARK 924 INTRA-LIGAND FREE ENERGY PREDICTED BY IDOCK:   -0.76 KCAL/MOL
REMARK 927      BINDING AFFINITY PREDICTED BY RF-SCORE:    0.00 PKD
ROOT
HETATM    1  C   UNL     1     -10.071  18.935  66.505  1.00  0.00    -0.447 C  
HETATM    2  C   UNL     1     -10.148  18.196  67.832  1.00  0.00    -0.357 C  
ENDROOT
BRANCH   2   3
HETATM    3  N   UNL     1     -10.683  16.847  67.663  1.00  0.00    -0.321 N  
HETATM    4  C   UNL     1     -10.655  16.246  66.423  1.00  0.00    -0.253 C  
HETATM    5  C   UNL     1     -11.100  15.001  66.253  1.00  0.00    -0.334 C  
HETATM    6  C   UNL     1     -11.561  14.357  67.488  1.00  0.00    -0.373 C  
HETATM    7  N   UNL     1     -11.575  14.885  68.653  1.00  0.00    -0.304 N  
HETATM    8  O   UNL     1     -11.139  16.708  69.909  1.00  0.00    -0.305 OA 
HETATM    9  C   UNL     1     -11.135  16.170  68.804  1.00  0.00    -0.354 C  
HETATM   10  H   UNL     1     -11.909  14.354  69.457  1.00  0.00     0.000 HD 
BRANCH   6  11
HETATM   11  N   UNL     1     -12.019  13.050  67.298  1.00  0.00    -0.354 N  
HETATM   12  H   UNL     1     -12.837  12.916  66.705  1.00  0.00     0.000 HD 
BRANCH  11  13
HETATM   13  S   UNL     1     -11.320  11.688  67.975  1.00  0.00    -0.315 S  
HETATM   14  O   UNL     1     -10.264  12.201  68.826  1.00  0.00    -0.201 OA 
HETATM   15  O   UNL     1     -12.369  10.860  68.531  1.00  0.00    -0.490 OA 
BRANCH  13  16
HETATM   16  C   UNL     1     -10.559  10.853  66.612  1.00  0.00    -0.249 A  
HETATM   17  C   UNL     1     -10.587  11.425  65.340  1.00  0.00    -0.333 A  
HETATM   18  C   UNL     1      -9.971  10.761  64.275  1.00  0.00    -0.403 A  
HETATM   19  C   UNL     1      -9.363   9.514  64.462  1.00  0.00    -0.098 A  
HETATM   20  N   UNL     1      -8.662   8.906  63.414  1.00  0.00    -0.419 NA 
HETATM   21  C   UNL     1      -9.268   9.000  65.757  1.00  0.00    -0.293 A  
HETATM   22  C   UNL     1      -9.865   9.662  66.832  1.00  0.00    -0.257 A  
HETATM   23  H2  UNL     1      -7.954   9.560  63.080  1.00  0.00     0.000 HD 
HETATM   24  H1  UNL     1      -8.220   7.997  63.551  1.00  0.00     0.000 HD 
ENDBRANCH  13  16
ENDBRANCH  11  13
ENDBRANCH   6  11
ENDBRANCH   2   3
TORSDOF 4
ENDMDL
MODEL       72
REMARK 921   NORMALIZED FREE ENERGY PREDICTED BY IDOCK:   -5.17 KCAL/MOL
REMARK 922        TOTAL FREE ENERGY PREDICTED BY IDOCK:   -7.20 KCAL/MOL
REMARK 923 INTER-LIGAND FREE ENERGY PREDICTED BY IDOCK:   -6.70 KCAL/MOL
REMARK 924 INTRA-LIGAND FREE ENERGY PREDICTED BY IDOCK:   -0.50 KCAL/MOL
REMARK 927      BINDING AFFINITY PREDICTED BY RF-SCORE:    0.00 PKD
ROOT
HETATM    1  C   UNL     1      -9.718   8.006  66.659  1.00  0.00    -0.313 C  
HETATM    2  C   UNL     1      -8.544   8.944  66.422  1.00  0.00    -0.126 C  
ENDROOT
BRANCH   2   3
HETATM    3  N   UNL     1      -8.980  10.208  65.835  1.00  0.00    -0.152 N  
HETATM    4  C   UNL     1      -9.910  10.210  64.818  1.00  0.00    -0.312 C  
HETATM    5  C   UNL     1     -10.353  11.354  64.294  1.00  0.00    -0.383 C  
HETATM    6  C   UNL     1      -9.794  12.555  64.924  1.00  0.00    -0.072 C  
HETATM    7  N   UNL     1      -8.949  12.579  65.884  1.00  0.00    -0.411 N  
HETATM    8  O   UNL     1      -7.675  11.384  67.314  1.00  0.00    -0.130 OA 
HETATM    9  C   UNL     1      -8.491  11.396  66.393  1.00  0.00    -0.160 C  
HETATM   10  H   UNL     1      -8.623  13.468  66.264  1.00  0.00     0.000 HD 
BRANCH   6  11
HETATM   11  N   UNL     1     -10.270  13.748  64.372  1.00  0.00    -0.669 N  
HETATM   12  H   UNL     1      -9.743  14.156  63.600  1.00  0.00     0.000 HD 
BRANCH  11  13
HETATM   13  S   UNL     1     -11.644  14.554  64.886  1.00  0.00    -0.419 S  
HETATM   14  O   UNL     1     -11.494  15.902  64.374  1.00  0.00    -0.428 OA 
HETATM   15  O   UNL     1     -12.802  13.762  64.530  1.00  0.00    -0.648 OA 
BRANCH  13  16
HETATM   16  C   UNL     1     -11.488  14.623  66.648  1.00  0.00    -0.357 A  
HETATM   17  C   UNL     1     -10.878  15.723  67.252  1.00  0.00    -0.298 A  
HETATM   18  C   UNL     1     -10.774  15.771  68.645  1.00  0.00    -0.263 A  
HETATM   19  C   UNL     1     -11.236  14.713  69.436  1.00  0.00    -0.279 A  
HETATM   20  N   UNL     1     -11.219  14.815  70.832  1.00  0.00    -0.514 NA 
HETATM   21  C   UNL     1     -11.922  13.664  68.821  1.00  0.00    -0.394 A  
HETATM   22  C   UNL     1     -12.048  13.612  67.432  1.00  0.00    -0.375 A  
HETATM   23  H2  UNL     1     -11.726  15.660  71.098  1.00  0.00     0.000 HD 
HETATM   24  H1  UNL     1     -11.556  14.044  71.409  1.00  0.00     0.000 HD 
ENDBRANCH  13  16
ENDBRANCH  11  13
ENDBRANCH   6  11
ENDBRANCH   2   3
TORSDOF 4
ENDMDL
MODEL       73
REMARK 921   NORMALIZED FREE ENERGY PREDICTED BY IDOCK:   -5.17 KCAL/MOL
REMARK 922        TOTAL FREE ENERGY PREDICTED BY IDOCK:   -7.20 KCAL/MOL
REMARK 923 INTER-LIGAND FREE ENERGY PREDICTED BY IDOCK:   -6.57 KCAL/MOL
REMARK 924 INTRA-LIGAND FREE ENERGY PREDICTED BY IDOCK:   -0.62 KCAL/MOL
REMARK 927      BINDING AFFINITY PREDICTED BY RF-SCORE:    0.00 PKD
ROOT
HETATM    1  C   UNL     1      -7.985   4.911  68.455  1.00  0.00    -0.085 C  
HETATM    2  C   UNL     1      -9.057   4.970  67.377  1.00  0.00    -0.115 C  
ENDROOT
BRANCH   2   3
HETATM    3  N   UNL     1      -9.430   6.347  67.068  1.00  0.00    -0.134 N  
HETATM    4  C   UNL     1      -8.627   7.111  66.247  1.00  0.00    -0.139 C  
HETATM    5  C   UNL     1      -8.968   8.357  65.919  1.00  0.00    -0.223 C  
HETATM    6  C   UNL     1     -10.257   8.789  66.470  1.00  0.00    -0.244 C  
HETATM    7  N   UNL     1     -11.030   8.092  67.213  1.00  0.00    -0.457 N  
HETATM    8  O   UNL     1     -11.372   6.129  68.273  1.00  0.00    -0.253 OA 
HETATM    9  C   UNL     1     -10.654   6.824  67.557  1.00  0.00    -0.279 C  
HETATM   10  H   UNL     1     -11.915   8.477  67.544  1.00  0.00     0.000 HD 
BRANCH   6  11
HETATM   11  N   UNL     1     -10.607  10.095  66.114  1.00  0.00    -0.093 N  
HETATM   12  H   UNL     1     -10.695  10.307  65.120  1.00  0.00     0.000 HD 
BRANCH  11  13
HETATM   13  S   UNL     1     -10.895  11.334  67.201  1.00  0.00    -0.283 S  
HETATM   14  O   UNL     1     -12.119  10.955  67.877  1.00  0.00    -0.527 OA 
HETATM   15  O   UNL     1      -9.685  11.572  67.958  1.00  0.00    -0.174 OA 
BRANCH  13  16
HETATM   16  C   UNL     1     -11.249  12.743  66.188  1.00  0.00    -0.298 A  
HETATM   17  C   UNL     1     -10.824  14.012  66.583  1.00  0.00    -0.297 A  
HETATM   18  C   UNL     1     -11.099  15.112  65.766  1.00  0.00    -0.330 A  
HETATM   19  C   UNL     1     -11.829  14.963  64.581  1.00  0.00    -0.407 A  
HETATM   20  N   UNL     1     -12.011  16.052  63.722  1.00  0.00    -1.339 NA 
HETATM   21  C   UNL     1     -12.168  13.675  64.159  1.00  0.00    -0.450 A  
HETATM   22  C   UNL     1     -11.884  12.566  64.957  1.00  0.00    -0.445 A  
HETATM   23  H2  UNL     1     -11.094  16.433  63.487  1.00  0.00     0.000 HD 
HETATM   24  H1  UNL     1     -12.543  15.943  62.858  1.00  0.00     0.000 HD 
ENDBRANCH  13  16
ENDBRANCH  11  13
ENDBRANCH   6  11
ENDBRANCH   2   3
TORSDOF 4
ENDMDL
MODEL       74
REMARK 921   NORMALIZED FREE ENERGY PREDICTED BY IDOCK:   -5.17 KCAL/MOL
REMARK 922        TOTAL FREE ENERGY PREDICTED BY IDOCK:   -7.20 KCAL/MOL
REMARK 923 INTER-LIGAND FREE ENERGY PREDICTED BY IDOCK:   -6.60 KCAL/MOL
REMARK 924 INTRA-LIGAND FREE ENERGY PREDICTED BY IDOCK:   -0.60 KCAL/MOL
REMARK 927      BINDING AFFINITY PREDICTED BY RF-SCORE:    0.00 PKD
ROOT
HETATM    1  C   UNL     1     -11.971  12.929  63.460  1.00  0.00    -0.629 C  
HETATM    2  C   UNL     1     -10.844  13.104  64.468  1.00  0.00    -0.383 C  
ENDROOT
BRANCH   2   3
HETATM    3  N   UNL     1     -10.940  12.132  65.553  1.00  0.00    -0.291 N  
HETATM    4  C   UNL     1     -10.280  10.926  65.457  1.00  0.00    -0.271 C  
HETATM    5  C   UNL     1     -10.320  10.040  66.453  1.00  0.00    -0.249 C  
HETATM    6  C   UNL     1     -11.078  10.493  67.625  1.00  0.00    -0.309 C  
HETATM    7  N   UNL     1     -11.679  11.615  67.747  1.00  0.00    -0.281 N  
HETATM    8  O   UNL     1     -12.215  13.588  66.790  1.00  0.00    -0.390 OA 
HETATM    9  C   UNL     1     -11.644  12.502  66.707  1.00  0.00    -0.382 C  
HETATM   10  H   UNL     1     -12.177  11.845  68.607  1.00  0.00     0.000 HD 
BRANCH   6  11
HETATM   11  N   UNL     1     -11.108   9.558  68.665  1.00  0.00    -0.461 N  
HETATM   12  H   UNL     1     -11.424   8.614  68.444  1.00  0.00     0.000 HD 
BRANCH  11  13
HETATM   13  S   UNL     1     -10.661   9.878  70.246  1.00  0.00    -0.305 S  
HETATM   14  O   UNL     1      -9.227  10.083  70.189  1.00  0.00    -0.189 OA 
HETATM   15  O   UNL     1     -11.527  10.913  70.768  1.00  0.00    -0.268 OA 
BRANCH  13  16
HETATM   16  C   UNL     1     -10.957   8.361  71.109  1.00  0.00    -0.244 A  
HETATM   17  C   UNL     1     -11.145   7.177  70.394  1.00  0.00    -0.309 A  
HETATM   18  C   UNL     1     -11.365   5.984  71.088  1.00  0.00    -0.300 A  
HETATM   19  C   UNL     1     -11.437   5.970  72.486  1.00  0.00    -0.290 A  
HETATM   20  N   UNL     1     -11.555   4.757  73.175  1.00  0.00    -0.319 NA 
HETATM   21  C   UNL     1     -11.158   7.146  73.185  1.00  0.00    -0.302 A  
HETATM   22  C   UNL     1     -10.922   8.341  72.504  1.00  0.00    -0.424 A  
HETATM   23  H2  UNL     1     -10.788   4.149  72.888  1.00  0.00     0.000 HD 
HETATM   24  H1  UNL     1     -11.609   4.747  74.194  1.00  0.00     0.000 HD 
ENDBRANCH  13  16
ENDBRANCH  11  13
ENDBRANCH   6  11
ENDBRANCH   2   3
TORSDOF 4
ENDMDL
MODEL       75
REMARK 921   NORMALIZED FREE ENERGY PREDICTED BY IDOCK:   -5.16 KCAL/MOL
REMARK 922        TOTAL FREE ENERGY PREDICTED BY IDOCK:   -7.19 KCAL/MOL
REMARK 923 INTER-LIGAND FREE ENERGY PREDICTED BY IDOCK:   -6.49 KCAL/MOL
REMARK 924 INTRA-LIGAND FREE ENERGY PREDICTED BY IDOCK:   -0.70 KCAL/MOL
REMARK 927      BINDING AFFINITY PREDICTED BY RF-SCORE:    0.00 PKD
ROOT
HETATM    1  C   UNL     1      -6.364  19.122  65.213  1.00  0.00    -0.315 C  
HETATM    2  C   UNL     1      -6.823  18.768  66.619  1.00  0.00    -0.198 C  
ENDROOT
BRANCH   2   3
HETATM    3  N   UNL     1      -8.043  17.965  66.598  1.00  0.00    -0.242 N  
HETATM    4  C   UNL     1      -9.269  18.579  66.459  1.00  0.00    -0.310 C  
HETATM    5  C   UNL     1     -10.392  17.864  66.396  1.00  0.00    -0.365 C  
HETATM    6  C   UNL     1     -10.181  16.413  66.446  1.00  0.00    -0.316 C  
HETATM    7  N   UNL     1      -9.053  15.819  66.550  1.00  0.00    -0.264 N  
HETATM    8  O   UNL     1      -6.814  16.030  66.740  1.00  0.00    -0.241 OA 
HETATM    9  C   UNL     1      -7.914  16.570  66.635  1.00  0.00    -0.284 C  
HETATM   10  H   UNL     1      -9.004  14.800  66.569  1.00  0.00     0.000 HD 
BRANCH   6  11
HETATM   11  N   UNL     1     -11.365  15.674  66.372  1.00  0.00    -0.039 N  
HETATM   12  H   UNL     1     -12.216  16.106  66.730  1.00  0.00     0.000 HD 
BRANCH  11  13
HETATM   13  S   UNL     1     -11.486  14.130  65.737  1.00  0.00    -0.335 S  
HETATM   14  O   UNL     1     -12.814  14.072  65.160  1.00  0.00    -0.696 OA 
HETATM   15  O   UNL     1     -10.321  13.877  64.917  1.00  0.00    -0.397 OA 
BRANCH  13  16
HETATM   16  C   UNL     1     -11.463  13.064  67.151  1.00  0.00    -0.331 A  
HETATM   17  C   UNL     1     -11.743  13.578  68.417  1.00  0.00    -0.393 A  
HETATM   18  C   UNL     1     -11.735  12.722  69.523  1.00  0.00    -0.383 A  
HETATM   19  C   UNL     1     -11.411  11.368  69.379  1.00  0.00    -0.310 A  
HETATM   20  N   UNL     1     -11.505  10.500  70.473  1.00  0.00    -0.332 NA 
HETATM   21  C   UNL     1     -11.222  10.855  68.094  1.00  0.00    -0.363 A  
HETATM   22  C   UNL     1     -11.243  11.696  66.981  1.00  0.00    -0.376 A  
HETATM   23  H2  UNL     1     -12.449  10.565  70.855  1.00  0.00     0.000 HD 
HETATM   24  H1  UNL     1     -11.269   9.513  70.369  1.00  0.00     0.000 HD 
ENDBRANCH  13  16
ENDBRANCH  11  13
ENDBRANCH   6  11
ENDBRANCH   2   3
TORSDOF 4
ENDMDL
MODEL       76
REMARK 921   NORMALIZED FREE ENERGY PREDICTED BY IDOCK:   -5.15 KCAL/MOL
REMARK 922        TOTAL FREE ENERGY PREDICTED BY IDOCK:   -7.17 KCAL/MOL
REMARK 923 INTER-LIGAND FREE ENERGY PREDICTED BY IDOCK:   -6.60 KCAL/MOL
REMARK 924 INTRA-LIGAND FREE ENERGY PREDICTED BY IDOCK:   -0.58 KCAL/MOL
REMARK 927      BINDING AFFINITY PREDICTED BY RF-SCORE:    0.00 PKD
ROOT
HETATM    1  C   UNL     1     -11.104   5.741  73.081  1.00  0.00    -0.288 C  
HETATM    2  C   UNL     1     -10.876   5.676  71.578  1.00  0.00    -0.230 C  
ENDROOT
BRANCH   2   3
HETATM    3  N   UNL     1     -10.698   7.008  71.007  1.00  0.00    -0.230 N  
HETATM    4  C   UNL     1     -10.401   8.075  71.826  1.00  0.00    -0.217 C  
HETATM    5  C   UNL     1     -10.194   9.293  71.322  1.00  0.00    -0.383 C  
HETATM    6  C   UNL     1     -10.274   9.354  69.859  1.00  0.00    -0.222 C  
HETATM    7  N   UNL     1     -10.524   8.375  69.075  1.00  0.00    -0.268 N  
HETATM    8  O   UNL     1     -11.002   6.177  68.888  1.00  0.00    -0.310 OA 
HETATM    9  C   UNL     1     -10.755   7.139  69.612  1.00  0.00    -0.239 C  
HETATM   10  H   UNL     1     -10.552   8.514  68.065  1.00  0.00     0.000 HD 
BRANCH   6  11
HETATM   11  N   UNL     1     -10.049  10.633  69.341  1.00  0.00    -0.339 N  
HETATM   12  H   UNL     1      -9.101  11.004  69.391  1.00  0.00     0.000 HD 
BRANCH  11  13
HETATM   13  S   UNL     1     -11.225  11.599  68.644  1.00  0.00    -0.278 S  
HETATM   14  O   UNL     1     -12.480  10.963  68.995  1.00  0.00    -0.425 OA 
HETATM   15  O   UNL     1     -10.972  12.974  69.018  1.00  0.00    -0.244 OA 
BRANCH  13  16
HETATM   16  C   UNL     1     -10.988  11.403  66.901  1.00  0.00    -0.299 A  
HETATM   17  C   UNL     1     -11.606  12.280  66.009  1.00  0.00    -0.451 A  
HETATM   18  C   UNL     1     -11.399  12.122  64.635  1.00  0.00    -0.382 A  
HETATM   19  C   UNL     1     -10.613  11.072  64.145  1.00  0.00    -0.342 A  
HETATM   20  N   UNL     1     -10.329  10.983  62.777  1.00  0.00    -0.771 NA 
HETATM   21  C   UNL     1      -9.932  10.260  65.054  1.00  0.00    -0.393 A  
HETATM   22  C   UNL     1     -10.118  10.418  66.428  1.00  0.00    -0.287 A  
HETATM   23  H2  UNL     1      -9.910  11.864  62.478  1.00  0.00     0.000 HD 
HETATM   24  H1  UNL     1      -9.757  10.218  62.419  1.00  0.00     0.000 HD 
ENDBRANCH  13  16
ENDBRANCH  11  13
ENDBRANCH   6  11
ENDBRANCH   2   3
TORSDOF 4
ENDMDL
MODEL       77
REMARK 921   NORMALIZED FREE ENERGY PREDICTED BY IDOCK:   -5.15 KCAL/MOL
REMARK 922        TOTAL FREE ENERGY PREDICTED BY IDOCK:   -7.17 KCAL/MOL
REMARK 923 INTER-LIGAND FREE ENERGY PREDICTED BY IDOCK:   -6.53 KCAL/MOL
REMARK 924 INTRA-LIGAND FREE ENERGY PREDICTED BY IDOCK:   -0.64 KCAL/MOL
REMARK 927      BINDING AFFINITY PREDICTED BY RF-SCORE:    0.00 PKD
ROOT
HETATM    1  C   UNL     1     -12.198  12.201  63.378  1.00  0.00    -0.635 C  
HETATM    2  C   UNL     1     -12.755  12.651  64.720  1.00  0.00    -0.379 C  
ENDROOT
BRANCH   2   3
HETATM    3  N   UNL     1     -11.833  13.549  65.408  1.00  0.00    -0.341 N  
HETATM    4  C   UNL     1     -11.296  14.628  64.740  1.00  0.00    -0.396 C  
HETATM    5  C   UNL     1     -10.483  15.485  65.360  1.00  0.00    -0.429 C  
HETATM    6  C   UNL     1     -10.270  15.185  66.780  1.00  0.00    -0.264 C  
HETATM    7  N   UNL     1     -10.775  14.205  67.427  1.00  0.00    -0.282 N  
HETATM    8  O   UNL     1     -12.087  12.369  67.362  1.00  0.00    -0.505 OA 
HETATM    9  C   UNL     1     -11.588  13.325  66.770  1.00  0.00    -0.365 C  
HETATM   10  H   UNL     1     -10.573  14.082  68.420  1.00  0.00     0.000 HD 
BRANCH   6  11
HETATM   11  N   UNL     1      -9.422  16.094  67.420  1.00  0.00    -0.225 N  
HETATM   12  H   UNL     1      -9.634  17.087  67.327  1.00  0.00     0.000 HD 
BRANCH  11  13
HETATM   13  S   UNL     1      -8.083  15.668  68.331  1.00  0.00    -0.143 S  
HETATM   14  O   UNL     1      -8.630  15.053  69.524  1.00  0.00    -0.172 OA 
HETATM   15  O   UNL     1      -7.166  14.935  67.485  1.00  0.00    -0.178 OA 
BRANCH  13  16
HETATM   16  C   UNL     1      -7.356  17.212  68.802  1.00  0.00    -0.241 A  
HETATM   17  C   UNL     1      -7.946  18.412  68.404  1.00  0.00    -0.325 A  
HETATM   18  C   UNL     1      -7.368  19.624  68.794  1.00  0.00    -0.371 A  
HETATM   19  C   UNL     1      -6.186  19.647  69.544  1.00  0.00    -0.314 A  
HETATM   20  N   UNL     1      -5.672  20.860  70.015  1.00  0.00    -0.491 NA 
HETATM   21  C   UNL     1      -5.661  18.438  70.007  1.00  0.00    -0.243 A  
HETATM   22  C   UNL     1      -6.238  17.222  69.638  1.00  0.00    -0.232 A  
HETATM   23  H2  UNL     1      -6.401  21.330  70.552  1.00  0.00     0.000 HD 
HETATM   24  H1  UNL     1      -4.811  20.877  70.562  1.00  0.00     0.000 HD 
ENDBRANCH  13  16
ENDBRANCH  11  13
ENDBRANCH   6  11
ENDBRANCH   2   3
TORSDOF 4
ENDMDL
MODEL       78
REMARK 921   NORMALIZED FREE ENERGY PREDICTED BY IDOCK:   -5.13 KCAL/MOL
REMARK 922        TOTAL FREE ENERGY PREDICTED BY IDOCK:   -7.16 KCAL/MOL
REMARK 923 INTER-LIGAND FREE ENERGY PREDICTED BY IDOCK:   -6.53 KCAL/MOL
REMARK 924 INTRA-LIGAND FREE ENERGY PREDICTED BY IDOCK:   -0.63 KCAL/MOL
REMARK 927      BINDING AFFINITY PREDICTED BY RF-SCORE:    0.00 PKD
ROOT
HETATM    1  C   UNL     1     -12.806  15.537  73.553  1.00  0.00    -0.687 C  
HETATM    2  C   UNL     1     -12.570  15.437  72.054  1.00  0.00    -0.371 C  
ENDROOT
BRANCH   2   3
HETATM    3  N   UNL     1     -12.550  14.048  71.606  1.00  0.00    -0.333 N  
HETATM    4  C   UNL     1     -13.287  13.097  72.279  1.00  0.00    -0.522 C  
HETATM    5  C   UNL     1     -13.317  11.830  71.865  1.00  0.00    -0.401 C  
HETATM    6  C   UNL     1     -12.545  11.583  70.642  1.00  0.00    -0.248 C  
HETATM    7  N   UNL     1     -11.874  12.452  69.986  1.00  0.00    -0.465 N  
HETATM    8  O   UNL     1     -11.198  14.600  69.834  1.00  0.00    -0.253 OA 
HETATM    9  C   UNL     1     -11.837  13.741  70.439  1.00  0.00    -0.253 C  
HETATM   10  H   UNL     1     -11.372  12.187  69.138  1.00  0.00     0.000 HD 
BRANCH   6  11
HETATM   11  N   UNL     1     -12.589  10.253  70.213  1.00  0.00    -0.525 N  
HETATM   12  H   UNL     1     -13.442   9.931  69.756  1.00  0.00     0.000 HD 
BRANCH  11  13
HETATM   13  S   UNL     1     -11.342   9.152  70.395  1.00  0.00    -0.183 S  
HETATM   14  O   UNL     1     -10.366   9.834  71.223  1.00  0.00    -0.201 OA 
HETATM   15  O   UNL     1     -11.904   7.887  70.819  1.00  0.00    -0.269 OA 
BRANCH  13  16
HETATM   16  C   UNL     1     -10.654   8.985  68.772  1.00  0.00    -0.169 A  
HETATM   17  C   UNL     1     -10.634   7.737  68.148  1.00  0.00    -0.182 A  
HETATM   18  C   UNL     1     -10.100   7.623  66.861  1.00  0.00    -0.348 A  
HETATM   19  C   UNL     1      -9.551   8.733  66.210  1.00  0.00    -0.259 A  
HETATM   20  N   UNL     1      -9.112   8.630  64.885  1.00  0.00    -0.423 NA 
HETATM   21  C   UNL     1      -9.661   9.988  66.814  1.00  0.00    -0.239 A  
HETATM   22  C   UNL     1     -10.207  10.119  68.092  1.00  0.00    -0.200 A  
HETATM   23  H2  UNL     1      -9.883   8.275  64.318  1.00  0.00     0.000 HD 
HETATM   24  H1  UNL     1      -8.712   9.439  64.410  1.00  0.00     0.000 HD 
ENDBRANCH  13  16
ENDBRANCH  11  13
ENDBRANCH   6  11
ENDBRANCH   2   3
TORSDOF 4
ENDMDL
MODEL       79
REMARK 921   NORMALIZED FREE ENERGY PREDICTED BY IDOCK:   -5.13 KCAL/MOL
REMARK 922        TOTAL FREE ENERGY PREDICTED BY IDOCK:   -7.15 KCAL/MOL
REMARK 923 INTER-LIGAND FREE ENERGY PREDICTED BY IDOCK:   -6.34 KCAL/MOL
REMARK 924 INTRA-LIGAND FREE ENERGY PREDICTED BY IDOCK:   -0.80 KCAL/MOL
REMARK 927      BINDING AFFINITY PREDICTED BY RF-SCORE:    0.00 PKD
ROOT
HETATM    1  C   UNL     1     -12.124  12.843  63.572  1.00  0.00    -0.633 C  
HETATM    2  C   UNL     1     -10.710  12.531  64.038  1.00  0.00    -0.415 C  
ENDROOT
BRANCH   2   3
HETATM    3  N   UNL     1     -10.710  11.589  65.154  1.00  0.00    -0.294 N  
HETATM    4  C   UNL     1     -11.318  11.931  66.342  1.00  0.00    -0.339 C  
HETATM    5  C   UNL     1     -11.367  11.072  67.361  1.00  0.00    -0.306 C  
HETATM    6  C   UNL     1     -10.763   9.767  67.071  1.00  0.00    -0.166 C  
HETATM    7  N   UNL     1     -10.214   9.418  65.970  1.00  0.00    -0.254 N  
HETATM    8  O   UNL     1      -9.631  10.018  63.874  1.00  0.00    -0.283 OA 
HETATM    9  C   UNL     1     -10.155  10.320  64.944  1.00  0.00    -0.276 C  
HETATM   10  H   UNL     1      -9.826   8.481  65.859  1.00  0.00     0.000 HD 
BRANCH   6  11
HETATM   11  N   UNL     1     -10.825   8.873  68.144  1.00  0.00    -0.467 N  
HETATM   12  H   UNL     1     -11.247   9.203  69.012  1.00  0.00     0.000 HD 
BRANCH  11  13
HETATM   13  S   UNL     1     -10.258   7.298  68.106  1.00  0.00    -0.194 S  
HETATM   14  O   UNL     1     -11.122   6.619  67.161  1.00  0.00    -0.392 OA 
HETATM   15  O   UNL     1      -8.827   7.330  67.897  1.00  0.00    -0.129 OA 
BRANCH  13  16
HETATM   16  C   UNL     1     -10.611   6.658  69.719  1.00  0.00    -0.228 A  
HETATM   17  C   UNL     1     -11.653   7.201  70.473  1.00  0.00    -0.331 A  
HETATM   18  C   UNL     1     -11.929   6.677  71.739  1.00  0.00    -0.391 A  
HETATM   19  C   UNL     1     -11.150   5.644  72.273  1.00  0.00    -0.261 A  
HETATM   20  N   UNL     1     -11.498   5.058  73.497  1.00  0.00    -0.451 NA 
HETATM   21  C   UNL     1     -10.172   5.055  71.470  1.00  0.00    -0.273 A  
HETATM   22  C   UNL     1      -9.897   5.559  70.198  1.00  0.00    -0.261 A  
HETATM   23  H2  UNL     1     -12.463   4.733  73.434  1.00  0.00     0.000 HD 
HETATM   24  H1  UNL     1     -10.930   4.306  73.887  1.00  0.00     0.000 HD 
ENDBRANCH  13  16
ENDBRANCH  11  13
ENDBRANCH   6  11
ENDBRANCH   2   3
TORSDOF 4
ENDMDL
MODEL       80
REMARK 921   NORMALIZED FREE ENERGY PREDICTED BY IDOCK:   -5.12 KCAL/MOL
REMARK 922        TOTAL FREE ENERGY PREDICTED BY IDOCK:   -7.14 KCAL/MOL
REMARK 923 INTER-LIGAND FREE ENERGY PREDICTED BY IDOCK:   -6.79 KCAL/MOL
REMARK 924 INTRA-LIGAND FREE ENERGY PREDICTED BY IDOCK:   -0.35 KCAL/MOL
REMARK 927      BINDING AFFINITY PREDICTED BY RF-SCORE:    0.00 PKD
ROOT
HETATM    1  C   UNL     1     -12.595  11.745  63.344  1.00  0.00    -0.458 C  
HETATM    2  C   UNL     1     -11.143  11.922  63.764  1.00  0.00    -0.436 C  
ENDROOT
BRANCH   2   3
HETATM    3  N   UNL     1     -10.984  13.051  64.676  1.00  0.00    -0.323 N  
HETATM    4  C   UNL     1     -11.565  14.265  64.378  1.00  0.00    -0.344 C  
HETATM    5  C   UNL     1     -11.467  15.298  65.215  1.00  0.00    -0.217 C  
HETATM    6  C   UNL     1     -10.742  14.996  66.454  1.00  0.00    -0.322 C  
HETATM    7  N   UNL     1     -10.215  13.873  66.764  1.00  0.00    -0.264 N  
HETATM    8  O   UNL     1      -9.808  11.740  66.149  1.00  0.00    -0.216 OA 
HETATM    9  C   UNL     1     -10.306  12.832  65.883  1.00  0.00    -0.283 C  
HETATM   10  H   UNL     1      -9.734  13.755  67.656  1.00  0.00     0.000 HD 
BRANCH   6  11
HETATM   11  N   UNL     1     -10.652  16.084  67.327  1.00  0.00    -0.313 N  
HETATM   12  H   UNL     1     -11.088  16.960  67.039  1.00  0.00     0.000 HD 
BRANCH  11  13
HETATM   13  S   UNL     1      -9.881  16.053  68.812  1.00  0.00    -0.234 S  
HETATM   14  O   UNL     1      -8.839  15.056  68.665  1.00  0.00    -0.170 OA 
HETATM   15  O   UNL     1      -9.546  17.410  69.186  1.00  0.00    -0.191 OA 
BRANCH  13  16
HETATM   16  C   UNL     1     -11.093  15.408  69.930  1.00  0.00    -0.293 A  
HETATM   17  C   UNL     1     -11.498  14.077  69.828  1.00  0.00    -0.293 A  
HETATM   18  C   UNL     1     -12.446  13.577  70.726  1.00  0.00    -0.428 A  
HETATM   19  C   UNL     1     -13.020  14.405  71.698  1.00  0.00    -0.341 A  
HETATM   20  N   UNL     1     -13.891  13.871  72.655  1.00  0.00    -0.722 NA 
HETATM   21  C   UNL     1     -12.537  15.708  71.842  1.00  0.00    -0.509 A  
HETATM   22  C   UNL     1     -11.579  16.213  70.962  1.00  0.00    -0.434 A  
HETATM   23  H2  UNL     1     -13.415  13.104  73.129  1.00  0.00     0.000 HD 
HETATM   24  H1  UNL     1     -14.310  14.475  73.364  1.00  0.00     0.000 HD 
ENDBRANCH  13  16
ENDBRANCH  11  13
ENDBRANCH   6  11
ENDBRANCH   2   3
TORSDOF 4
ENDMDL
MODEL       81
REMARK 921   NORMALIZED FREE ENERGY PREDICTED BY IDOCK:   -5.12 KCAL/MOL
REMARK 922        TOTAL FREE ENERGY PREDICTED BY IDOCK:   -7.13 KCAL/MOL
REMARK 923 INTER-LIGAND FREE ENERGY PREDICTED BY IDOCK:   -6.43 KCAL/MOL
REMARK 924 INTRA-LIGAND FREE ENERGY PREDICTED BY IDOCK:   -0.70 KCAL/MOL
REMARK 927      BINDING AFFINITY PREDICTED BY RF-SCORE:    0.00 PKD
ROOT
HETATM    1  C   UNL     1      -6.380  20.483  68.448  1.00  0.00    -0.351 C  
HETATM    2  C   UNL     1      -6.532  19.298  67.506  1.00  0.00    -0.204 C  
ENDROOT
BRANCH   2   3
HETATM    3  N   UNL     1      -7.639  18.435  67.907  1.00  0.00    -0.241 N  
HETATM    4  C   UNL     1      -8.918  18.707  67.469  1.00  0.00    -0.276 C  
HETATM    5  C   UNL     1      -9.938  17.910  67.788  1.00  0.00    -0.331 C  
HETATM    6  C   UNL     1      -9.555  16.741  68.587  1.00  0.00    -0.255 C  
HETATM    7  N   UNL     1      -8.374  16.454  68.985  1.00  0.00    -0.240 N  
HETATM    8  O   UNL     1      -6.198  17.050  69.036  1.00  0.00    -0.169 OA 
HETATM    9  C   UNL     1      -7.344  17.295  68.666  1.00  0.00    -0.238 C  
HETATM   10  H   UNL     1      -8.203  15.611  69.533  1.00  0.00     0.000 HD 
BRANCH   6  11
HETATM   11  N   UNL     1     -10.632  15.910  68.910  1.00  0.00    -0.230 N  
HETATM   12  H   UNL     1     -11.461  16.345  69.313  1.00  0.00     0.000 HD 
BRANCH  11  13
HETATM   13  S   UNL     1     -10.656  14.252  68.683  1.00  0.00    -0.254 S  
HETATM   14  O   UNL     1      -9.270  13.844  68.794  1.00  0.00    -0.135 OA 
HETATM   15  O   UNL     1     -11.659  13.682  69.558  1.00  0.00    -0.279 OA 
BRANCH  13  16
HETATM   16  C   UNL     1     -11.149  14.041  66.995  1.00  0.00    -0.304 A  
HETATM   17  C   UNL     1     -12.487  13.794  66.684  1.00  0.00    -0.307 A  
HETATM   18  C   UNL     1     -12.863  13.643  65.346  1.00  0.00    -0.440 A  
HETATM   19  C   UNL     1     -11.911  13.696  64.322  1.00  0.00    -0.445 A  
HETATM   20  N   UNL     1     -12.312  13.645  62.982  1.00  0.00    -1.004 NA 
HETATM   21  C   UNL     1     -10.594  14.031  64.645  1.00  0.00    -0.416 A  
HETATM   22  C   UNL     1     -10.209  14.201  65.976  1.00  0.00    -0.318 A  
HETATM   23  H2  UNL     1     -12.995  14.386  62.823  1.00  0.00     0.000 HD 
HETATM   24  H1  UNL     1     -11.618  13.684  62.235  1.00  0.00     0.000 HD 
ENDBRANCH  13  16
ENDBRANCH  11  13
ENDBRANCH   6  11
ENDBRANCH   2   3
TORSDOF 4
ENDMDL
MODEL       82
REMARK 921   NORMALIZED FREE ENERGY PREDICTED BY IDOCK:   -5.09 KCAL/MOL
REMARK 922        TOTAL FREE ENERGY PREDICTED BY IDOCK:   -7.10 KCAL/MOL
REMARK 923 INTER-LIGAND FREE ENERGY PREDICTED BY IDOCK:   -6.54 KCAL/MOL
REMARK 924 INTRA-LIGAND FREE ENERGY PREDICTED BY IDOCK:   -0.57 KCAL/MOL
REMARK 927      BINDING AFFINITY PREDICTED BY RF-SCORE:    0.00 PKD
ROOT
HETATM    1  C   UNL     1      -7.698  17.564  66.244  1.00  0.00    -0.334 C  
HETATM    2  C   UNL     1      -9.130  17.064  66.126  1.00  0.00    -0.204 C  
ENDROOT
BRANCH   2   3
HETATM    3  N   UNL     1      -9.312  15.793  66.821  1.00  0.00    -0.228 N  
HETATM    4  C   UNL     1      -8.984  15.685  68.155  1.00  0.00    -0.179 C  
HETATM    5  C   UNL     1      -9.180  14.546  68.821  1.00  0.00    -0.162 C  
HETATM    6  C   UNL     1      -9.796  13.483  68.019  1.00  0.00    -0.238 C  
HETATM    7  N   UNL     1     -10.131  13.567  66.787  1.00  0.00    -0.262 N  
HETATM    8  O   UNL     1     -10.209  14.847  64.930  1.00  0.00    -0.372 OA 
HETATM    9  C   UNL     1      -9.902  14.735  66.115  1.00  0.00    -0.312 C  
HETATM   10  H   UNL     1     -10.562  12.773  66.313  1.00  0.00     0.000 HD 
BRANCH   6  11
HETATM   11  N   UNL     1     -10.002  12.297  68.729  1.00  0.00    -0.408 N  
HETATM   12  H   UNL     1      -9.524  12.191  69.623  1.00  0.00     0.000 HD 
BRANCH  11  13
HETATM   13  S   UNL     1     -10.979  11.038  68.216  1.00  0.00    -0.259 S  
HETATM   14  O   UNL     1     -12.050  11.679  67.480  1.00  0.00    -0.611 OA 
HETATM   15  O   UNL     1     -10.147  10.041  67.577  1.00  0.00    -0.177 OA 
BRANCH  13  16
HETATM   16  C   UNL     1     -11.668  10.374  69.706  1.00  0.00    -0.237 A  
HETATM   17  C   UNL     1     -12.757  11.002  70.312  1.00  0.00    -0.256 A  
HETATM   18  C   UNL     1     -13.299  10.459  71.480  1.00  0.00    -0.405 A  
HETATM   19  C   UNL     1     -12.740   9.319  72.069  1.00  0.00    -0.401 A  
HETATM   20  N   UNL     1     -13.351   8.725  73.179  1.00  0.00    -0.887 NA 
HETATM   21  C   UNL     1     -11.709   8.654  71.400  1.00  0.00    -0.355 A  
HETATM   22  C   UNL     1     -11.169   9.177  70.225  1.00  0.00    -0.249 A  
HETATM   23  H2  UNL     1     -14.321   8.518  72.939  1.00  0.00     0.000 HD 
HETATM   24  H1  UNL     1     -12.943   7.894  73.609  1.00  0.00     0.000 HD 
ENDBRANCH  13  16
ENDBRANCH  11  13
ENDBRANCH   6  11
ENDBRANCH   2   3
TORSDOF 4
ENDMDL
MODEL       83
REMARK 921   NORMALIZED FREE ENERGY PREDICTED BY IDOCK:   -5.09 KCAL/MOL
REMARK 922        TOTAL FREE ENERGY PREDICTED BY IDOCK:   -7.10 KCAL/MOL
REMARK 923 INTER-LIGAND FREE ENERGY PREDICTED BY IDOCK:   -6.29 KCAL/MOL
REMARK 924 INTRA-LIGAND FREE ENERGY PREDICTED BY IDOCK:   -0.81 KCAL/MOL
REMARK 927      BINDING AFFINITY PREDICTED BY RF-SCORE:    0.00 PKD
ROOT
HETATM    1  C   UNL     1      -8.862   3.324  67.139  1.00  0.00    -0.154 C  
HETATM    2  C   UNL     1      -9.034   4.259  65.951  1.00  0.00    -0.124 C  
ENDROOT
BRANCH   2   3
HETATM    3  N   UNL     1      -9.532   5.567  66.368  1.00  0.00    -0.151 N  
HETATM    4  C   UNL     1     -10.656   5.655  67.161  1.00  0.00    -0.270 C  
HETATM    5  C   UNL     1     -11.105   6.836  67.587  1.00  0.00    -0.309 C  
HETATM    6  C   UNL     1     -10.280   7.975  67.171  1.00  0.00    -0.292 C  
HETATM    7  N   UNL     1      -9.221   7.917  66.456  1.00  0.00    -0.181 N  
HETATM    8  O   UNL     1      -7.776   6.609  65.318  1.00  0.00    -0.086 OA 
HETATM    9  C   UNL     1      -8.788   6.699  66.010  1.00  0.00    -0.139 C  
HETATM   10  H   UNL     1      -8.707   8.766  66.222  1.00  0.00     0.000 HD 
BRANCH   6  11
HETATM   11  N   UNL     1     -10.756   9.206  67.629  1.00  0.00    -0.439 N  
HETATM   12  H   UNL     1     -11.528   9.635  67.118  1.00  0.00     0.000 HD 
BRANCH  11  13
HETATM   13  S   UNL     1     -10.152  10.027  68.957  1.00  0.00    -0.214 S  
HETATM   14  O   UNL     1      -8.918   9.341  69.284  1.00  0.00    -0.138 OA 
HETATM   15  O   UNL     1     -10.144  11.443  68.657  1.00  0.00    -0.203 OA 
BRANCH  13  16
HETATM   16  C   UNL     1     -11.315   9.699  70.251  1.00  0.00    -0.257 A  
HETATM   17  C   UNL     1     -12.355  10.596  70.499  1.00  0.00    -0.448 A  
HETATM   18  C   UNL     1     -13.274  10.317  71.515  1.00  0.00    -0.484 A  
HETATM   19  C   UNL     1     -13.139   9.172  72.310  1.00  0.00    -0.438 A  
HETATM   20  N   UNL     1     -14.120   8.850  73.256  1.00  0.00    -1.248 NA 
HETATM   21  C   UNL     1     -12.147   8.244  71.989  1.00  0.00    -0.402 A  
HETATM   22  C   UNL     1     -11.233   8.503  70.966  1.00  0.00    -0.312 A  
HETATM   23  H2  UNL     1     -15.022   8.807  72.781  1.00  0.00     0.000 HD 
HETATM   24  H1  UNL     1     -14.022   8.016  73.835  1.00  0.00     0.000 HD 
ENDBRANCH  13  16
ENDBRANCH  11  13
ENDBRANCH   6  11
ENDBRANCH   2   3
TORSDOF 4
ENDMDL
MODEL       84
REMARK 921   NORMALIZED FREE ENERGY PREDICTED BY IDOCK:   -5.08 KCAL/MOL
REMARK 922        TOTAL FREE ENERGY PREDICTED BY IDOCK:   -7.09 KCAL/MOL
REMARK 923 INTER-LIGAND FREE ENERGY PREDICTED BY IDOCK:   -6.40 KCAL/MOL
REMARK 924 INTRA-LIGAND FREE ENERGY PREDICTED BY IDOCK:   -0.69 KCAL/MOL
REMARK 927      BINDING AFFINITY PREDICTED BY RF-SCORE:    0.00 PKD
ROOT
HETATM    1  C   UNL     1     -10.705  19.269  67.067  1.00  0.00    -0.565 C  
HETATM    2  C   UNL     1     -10.632  18.099  68.036  1.00  0.00    -0.341 C  
ENDROOT
BRANCH   2   3
HETATM    3  N   UNL     1     -10.527  16.825  67.329  1.00  0.00    -0.321 N  
HETATM    4  C   UNL     1     -10.429  16.807  65.954  1.00  0.00    -0.301 C  
HETATM    5  C   UNL     1     -10.292  15.658  65.291  1.00  0.00    -0.405 C  
HETATM    6  C   UNL     1     -10.219  14.475  66.154  1.00  0.00    -0.305 C  
HETATM    7  N   UNL     1     -10.284  14.468  67.431  1.00  0.00    -0.240 N  
HETATM    8  O   UNL     1     -10.516  15.681  69.320  1.00  0.00    -0.215 OA 
HETATM    9  C   UNL     1     -10.446  15.653  68.093  1.00  0.00    -0.259 C  
HETATM   10  H   UNL     1     -10.216  13.591  67.948  1.00  0.00     0.000 HD 
BRANCH   6  11
HETATM   11  N   UNL     1     -10.068  13.278  65.447  1.00  0.00    -0.419 N  
HETATM   12  H   UNL     1      -9.182  13.119  64.968  1.00  0.00     0.000 HD 
BRANCH  11  13
HETATM   13  S   UNL     1     -11.238  12.086  65.332  1.00  0.00    -0.304 S  
HETATM   14  O   UNL     1     -12.469  12.738  65.735  1.00  0.00    -0.579 OA 
HETATM   15  O   UNL     1     -11.133  11.462  64.031  1.00  0.00    -0.374 OA 
BRANCH  13  16
HETATM   16  C   UNL     1     -10.808  10.916  66.590  1.00  0.00    -0.197 A  
HETATM   17  C   UNL     1     -11.318  11.061  67.881  1.00  0.00    -0.381 A  
HETATM   18  C   UNL     1     -10.981  10.123  68.861  1.00  0.00    -0.261 A  
HETATM   19  C   UNL     1     -10.110   9.066  68.573  1.00  0.00    -0.190 A  
HETATM   20  N   UNL     1      -9.860   8.076  69.531  1.00  0.00    -0.178 NA 
HETATM   21  C   UNL     1      -9.683   8.887  67.256  1.00  0.00    -0.235 A  
HETATM   22  C   UNL     1     -10.025   9.808  66.265  1.00  0.00    -0.331 A  
HETATM   23  H2  UNL     1     -10.754   7.683  69.827  1.00  0.00     0.000 HD 
HETATM   24  H1  UNL     1      -9.225   7.305  69.322  1.00  0.00     0.000 HD 
ENDBRANCH  13  16
ENDBRANCH  11  13
ENDBRANCH   6  11
ENDBRANCH   2   3
TORSDOF 4
ENDMDL
MODEL       85
REMARK 921   NORMALIZED FREE ENERGY PREDICTED BY IDOCK:   -5.08 KCAL/MOL
REMARK 922        TOTAL FREE ENERGY PREDICTED BY IDOCK:   -7.08 KCAL/MOL
REMARK 923 INTER-LIGAND FREE ENERGY PREDICTED BY IDOCK:   -6.37 KCAL/MOL
REMARK 924 INTRA-LIGAND FREE ENERGY PREDICTED BY IDOCK:   -0.72 KCAL/MOL
REMARK 927      BINDING AFFINITY PREDICTED BY RF-SCORE:    0.00 PKD
ROOT
HETATM    1  C   UNL     1     -11.611  14.057  64.751  1.00  0.00    -0.387 C  
HETATM    2  C   UNL     1     -10.720  14.466  65.915  1.00  0.00    -0.306 C  
ENDROOT
BRANCH   2   3
HETATM    3  N   UNL     1     -10.803  13.508  67.014  1.00  0.00    -0.280 N  
HETATM    4  C   UNL     1     -11.709  12.471  66.956  1.00  0.00    -0.367 C  
HETATM    5  C   UNL     1     -11.775  11.561  67.929  1.00  0.00    -0.317 C  
HETATM    6  C   UNL     1     -10.790  11.757  68.998  1.00  0.00    -0.195 C  
HETATM    7  N   UNL     1      -9.924  12.697  69.062  1.00  0.00    -0.410 N  
HETATM    8  O   UNL     1      -9.069  14.550  68.099  1.00  0.00    -0.178 OA 
HETATM    9  C   UNL     1      -9.886  13.632  68.066  1.00  0.00    -0.244 C  
HETATM   10  H   UNL     1      -9.271  12.747  69.845  1.00  0.00     0.000 HD 
BRANCH   6  11
HETATM   11  N   UNL     1     -10.864  10.794  70.009  1.00  0.00    -0.457 N  
HETATM   12  H   UNL     1     -11.674  10.818  70.627  1.00  0.00     0.000 HD 
BRANCH  11  13
HETATM   13  S   UNL     1      -9.718   9.604  70.276  1.00  0.00    -0.229 S  
HETATM   14  O   UNL     1      -8.459  10.212  69.894  1.00  0.00    -0.176 OA 
HETATM   15  O   UNL     1      -9.901   9.081  71.613  1.00  0.00    -0.306 OA 
BRANCH  13  16
HETATM   16  C   UNL     1     -10.094   8.347  69.088  1.00  0.00    -0.203 A  
HETATM   17  C   UNL     1     -10.685   7.152  69.500  1.00  0.00    -0.255 A  
HETATM   18  C   UNL     1     -10.990   6.173  68.549  1.00  0.00    -0.404 A  
HETATM   19  C   UNL     1     -10.673   6.362  67.199  1.00  0.00    -0.361 A  
HETATM   20  N   UNL     1     -11.073   5.422  66.242  1.00  0.00    -0.743 NA 
HETATM   21  C   UNL     1     -10.165   7.598  66.794  1.00  0.00    -0.333 A  
HETATM   22  C   UNL     1      -9.871   8.589  67.731  1.00  0.00    -0.218 A  
HETATM   23  H2  UNL     1     -12.083   5.294  66.319  1.00  0.00     0.000 HD 
HETATM   24  H1  UNL     1     -10.843   5.559  65.257  1.00  0.00     0.000 HD 
ENDBRANCH  13  16
ENDBRANCH  11  13
ENDBRANCH   6  11
ENDBRANCH   2   3
TORSDOF 4
ENDMDL
MODEL       86
REMARK 921   NORMALIZED FREE ENERGY PREDICTED BY IDOCK:   -5.07 KCAL/MOL
REMARK 922        TOTAL FREE ENERGY PREDICTED BY IDOCK:   -7.08 KCAL/MOL
REMARK 923 INTER-LIGAND FREE ENERGY PREDICTED BY IDOCK:   -6.42 KCAL/MOL
REMARK 924 INTRA-LIGAND FREE ENERGY PREDICTED BY IDOCK:   -0.66 KCAL/MOL
REMARK 927      BINDING AFFINITY PREDICTED BY RF-SCORE:    0.00 PKD
ROOT
HETATM    1  C   UNL     1     -13.026   7.017  71.450  1.00  0.00    -0.395 C  
HETATM    2  C   UNL     1     -12.005   7.877  72.181  1.00  0.00    -0.332 C  
ENDROOT
BRANCH   2   3
HETATM    3  N   UNL     1     -11.409   8.870  71.292  1.00  0.00    -0.277 N  
HETATM    4  C   UNL     1     -10.299   8.545  70.542  1.00  0.00    -0.200 C  
HETATM    5  C   UNL     1      -9.762   9.422  69.693  1.00  0.00    -0.202 C  
HETATM    6  C   UNL     1     -10.479  10.700  69.621  1.00  0.00    -0.179 C  
HETATM    7  N   UNL     1     -11.524  11.016  70.288  1.00  0.00    -0.414 N  
HETATM    8  O   UNL     1     -13.048  10.386  71.829  1.00  0.00    -0.420 OA 
HETATM    9  C   UNL     1     -12.047  10.112  71.169  1.00  0.00    -0.388 C  
HETATM   10  H   UNL     1     -11.959  11.931  70.165  1.00  0.00     0.000 HD 
BRANCH   6  11
HETATM   11  N   UNL     1      -9.911  11.609  68.724  1.00  0.00    -0.345 N  
HETATM   12  H   UNL     1      -8.987  11.978  68.946  1.00  0.00     0.000 HD 
BRANCH  11  13
HETATM   13  S   UNL     1     -10.639  12.134  67.311  1.00  0.00    -0.233 S  
HETATM   14  O   UNL     1      -9.705  11.777  66.261  1.00  0.00    -0.210 OA 
HETATM   15  O   UNL     1     -11.997  11.636  67.281  1.00  0.00    -0.627 OA 
BRANCH  13  16
HETATM   16  C   UNL     1     -10.654  13.899  67.446  1.00  0.00    -0.267 A  
HETATM   17  C   UNL     1     -11.263  14.510  68.543  1.00  0.00    -0.285 A  
HETATM   18  C   UNL     1     -11.255  15.904  68.644  1.00  0.00    -0.360 A  
HETATM   19  C   UNL     1     -10.681  16.693  67.641  1.00  0.00    -0.306 A  
HETATM   20  N   UNL     1     -10.588  18.081  67.801  1.00  0.00    -0.411 NA 
HETATM   21  C   UNL     1      -9.999  16.063  66.598  1.00  0.00    -0.277 A  
HETATM   22  C   UNL     1      -9.985  14.671  66.494  1.00  0.00    -0.292 A  
HETATM   23  H2  UNL     1     -10.101  18.271  68.677  1.00  0.00     0.000 HD 
HETATM   24  H1  UNL     1     -10.170  18.656  67.069  1.00  0.00     0.000 HD 
ENDBRANCH  13  16
ENDBRANCH  11  13
ENDBRANCH   6  11
ENDBRANCH   2   3
TORSDOF 4
ENDMDL
MODEL       87
REMARK 921   NORMALIZED FREE ENERGY PREDICTED BY IDOCK:   -5.07 KCAL/MOL
REMARK 922        TOTAL FREE ENERGY PREDICTED BY IDOCK:   -7.07 KCAL/MOL
REMARK 923 INTER-LIGAND FREE ENERGY PREDICTED BY IDOCK:   -6.50 KCAL/MOL
REMARK 924 INTRA-LIGAND FREE ENERGY PREDICTED BY IDOCK:   -0.57 KCAL/MOL
REMARK 927      BINDING AFFINITY PREDICTED BY RF-SCORE:    0.00 PKD
ROOT
HETATM    1  C   UNL     1     -10.750  16.293  65.061  1.00  0.00    -0.319 C  
HETATM    2  C   UNL     1     -10.505  16.447  66.555  1.00  0.00    -0.282 C  
ENDROOT
BRANCH   2   3
HETATM    3  N   UNL     1     -10.445  15.150  67.223  1.00  0.00    -0.267 N  
HETATM    4  C   UNL     1      -9.769  14.103  66.634  1.00  0.00    -0.288 C  
HETATM    5  C   UNL     1      -9.666  12.921  67.244  1.00  0.00    -0.220 C  
HETATM    6  C   UNL     1     -10.289  12.878  68.571  1.00  0.00    -0.229 C  
HETATM    7  N   UNL     1     -10.901  13.841  69.148  1.00  0.00    -0.378 N  
HETATM    8  O   UNL     1     -11.600  15.984  69.023  1.00  0.00    -0.367 OA 
HETATM    9  C   UNL     1     -11.015  15.038  68.498  1.00  0.00    -0.256 C  
HETATM   10  H   UNL     1     -11.298  13.718  70.080  1.00  0.00     0.000 HD 
BRANCH   6  11
HETATM   11  N   UNL     1     -10.170  11.637  69.203  1.00  0.00    -0.416 N  
HETATM   12  H   UNL     1      -9.370  11.495  69.820  1.00  0.00     0.000 HD 
BRANCH  11  13
HETATM   13  S   UNL     1     -11.245  10.367  69.021  1.00  0.00    -0.216 S  
HETATM   14  O   UNL     1     -12.554  10.990  69.018  1.00  0.00    -0.378 OA 
HETATM   15  O   UNL     1     -10.817   9.559  67.899  1.00  0.00    -0.245 OA 
BRANCH  13  16
HETATM   16  C   UNL     1     -11.092   9.435  70.519  1.00  0.00    -0.273 A  
HETATM   17  C   UNL     1     -12.233   9.087  71.244  1.00  0.00    -0.373 A  
HETATM   18  C   UNL     1     -12.099   8.340  72.417  1.00  0.00    -0.430 A  
HETATM   19  C   UNL     1     -10.835   7.972  72.893  1.00  0.00    -0.330 A  
HETATM   20  N   UNL     1     -10.717   7.138  74.011  1.00  0.00    -0.556 NA 
HETATM   21  C   UNL     1      -9.714   8.251  72.109  1.00  0.00    -0.344 A  
HETATM   22  C   UNL     1      -9.836   8.983  70.927  1.00  0.00    -0.330 A  
HETATM   23  H2  UNL     1     -11.253   6.288  73.836  1.00  0.00     0.000 HD 
HETATM   24  H1  UNL     1      -9.796   6.870  74.359  1.00  0.00     0.000 HD 
ENDBRANCH  13  16
ENDBRANCH  11  13
ENDBRANCH   6  11
ENDBRANCH   2   3
TORSDOF 4
ENDMDL
MODEL       88
REMARK 921   NORMALIZED FREE ENERGY PREDICTED BY IDOCK:   -5.06 KCAL/MOL
REMARK 922        TOTAL FREE ENERGY PREDICTED BY IDOCK:   -7.07 KCAL/MOL
REMARK 923 INTER-LIGAND FREE ENERGY PREDICTED BY IDOCK:   -6.58 KCAL/MOL
REMARK 924 INTRA-LIGAND FREE ENERGY PREDICTED BY IDOCK:   -0.48 KCAL/MOL
REMARK 927      BINDING AFFINITY PREDICTED BY RF-SCORE:    0.00 PKD
ROOT
HETATM    1  C   UNL     1      -9.998  11.311  63.376  1.00  0.00    -0.433 C  
HETATM    2  C   UNL     1     -11.475  11.623  63.568  1.00  0.00    -0.329 C  
ENDROOT
BRANCH   2   3
HETATM    3  N   UNL     1     -11.705  12.394  64.786  1.00  0.00    -0.354 N  
HETATM    4  C   UNL     1     -11.371  11.859  66.012  1.00  0.00    -0.316 C  
HETATM    5  C   UNL     1     -11.534  12.561  67.135  1.00  0.00    -0.414 C  
HETATM    6  C   UNL     1     -12.046  13.919  66.922  1.00  0.00    -0.430 C  
HETATM    7  N   UNL     1     -12.341  14.445  65.794  1.00  0.00    -0.371 N  
HETATM    8  O   UNL     1     -12.464  14.178  63.556  1.00  0.00    -0.817 OA 
HETATM    9  C   UNL     1     -12.187  13.703  64.656  1.00  0.00    -0.409 C  
HETATM   10  H   UNL     1     -12.685  15.404  65.744  1.00  0.00     0.000 HD 
BRANCH   6  11
HETATM   11  N   UNL     1     -12.207  14.646  68.105  1.00  0.00    -0.596 N  
HETATM   12  H   UNL     1     -13.015  14.429  68.688  1.00  0.00     0.000 HD 
BRANCH  11  13
HETATM   13  S   UNL     1     -11.168  15.847  68.633  1.00  0.00    -0.377 S  
HETATM   14  O   UNL     1     -11.411  16.963  67.740  1.00  0.00    -0.111 OA 
HETATM   15  O   UNL     1     -11.335  16.004  70.062  1.00  0.00    -0.320 OA 
BRANCH  13  16
HETATM   16  C   UNL     1      -9.549  15.220  68.287  1.00  0.00    -0.206 A  
HETATM   17  C   UNL     1      -9.151  13.988  68.810  1.00  0.00    -0.033 A  
HETATM   18  C   UNL     1      -7.875  13.499  68.518  1.00  0.00    -0.125 A  
HETATM   19  C   UNL     1      -6.980  14.245  67.743  1.00  0.00    -0.177 A  
HETATM   20  N   UNL     1      -5.744  13.702  67.372  1.00  0.00    -0.344 NA 
HETATM   21  C   UNL     1      -7.426  15.431  67.156  1.00  0.00    -0.224 A  
HETATM   22  C   UNL     1      -8.704  15.923  67.427  1.00  0.00    -0.197 A  
HETATM   23  H2  UNL     1      -5.912  12.814  66.900  1.00  0.00     0.000 HD 
HETATM   24  H1  UNL     1      -5.091  14.247  66.807  1.00  0.00     0.000 HD 
ENDBRANCH  13  16
ENDBRANCH  11  13
ENDBRANCH   6  11
ENDBRANCH   2   3
TORSDOF 4
ENDMDL
MODEL       89
REMARK 921   NORMALIZED FREE ENERGY PREDICTED BY IDOCK:   -5.06 KCAL/MOL
REMARK 922        TOTAL FREE ENERGY PREDICTED BY IDOCK:   -7.07 KCAL/MOL
REMARK 923 INTER-LIGAND FREE ENERGY PREDICTED BY IDOCK:   -6.81 KCAL/MOL
REMARK 924 INTRA-LIGAND FREE ENERGY PREDICTED BY IDOCK:   -0.26 KCAL/MOL
REMARK 927      BINDING AFFINITY PREDICTED BY RF-SCORE:    0.00 PKD
ROOT
HETATM    1  C   UNL     1     -13.277  14.177  72.811  1.00  0.00    -0.604 C  
HETATM    2  C   UNL     1     -13.739  14.254  71.363  1.00  0.00    -0.311 C  
ENDROOT
BRANCH   2   3
HETATM    3  N   UNL     1     -12.626  14.532  70.460  1.00  0.00    -0.341 N  
HETATM    4  C   UNL     1     -12.245  15.834  70.217  1.00  0.00    -0.339 C  
HETATM    5  C   UNL     1     -11.206  16.110  69.428  1.00  0.00    -0.335 C  
HETATM    6  C   UNL     1     -10.519  14.924  68.908  1.00  0.00    -0.242 C  
HETATM    7  N   UNL     1     -10.837  13.706  69.138  1.00  0.00    -0.395 N  
HETATM    8  O   UNL     1     -12.254  12.284  70.170  1.00  0.00    -0.292 OA 
HETATM    9  C   UNL     1     -11.919  13.443  69.931  1.00  0.00    -0.338 C  
HETATM   10  H   UNL     1     -10.292  12.944  68.736  1.00  0.00     0.000 HD 
BRANCH   6  11
HETATM   11  N   UNL     1      -9.427  15.225  68.088  1.00  0.00    -0.201 N  
HETATM   12  H   UNL     1      -8.496  14.998  68.437  1.00  0.00     0.000 HD 
BRANCH  11  13
HETATM   13  S   UNL     1      -9.538  15.933  66.576  1.00  0.00    -0.291 S  
HETATM   14  O   UNL     1     -10.356  17.113  66.780  1.00  0.00    -0.311 OA 
HETATM   15  O   UNL     1      -8.206  16.053  66.025  1.00  0.00    -0.181 OA 
BRANCH  13  16
HETATM   16  C   UNL     1     -10.479  14.783  65.613  1.00  0.00    -0.349 A  
HETATM   17  C   UNL     1     -11.808  15.064  65.292  1.00  0.00    -0.148 A  
HETATM   18  C   UNL     1     -12.535  14.153  64.520  1.00  0.00    -0.350 A  
HETATM   19  C   UNL     1     -11.960  12.948  64.101  1.00  0.00    -0.423 A  
HETATM   20  N   UNL     1     -12.661  12.091  63.245  1.00  0.00    -0.839 NA 
HETATM   21  C   UNL     1     -10.605  12.726  64.356  1.00  0.00    -0.402 A  
HETATM   22  C   UNL     1      -9.863  13.635  65.112  1.00  0.00    -0.115 A  
HETATM   23  H2  UNL     1     -12.937  12.619  62.417  1.00  0.00     0.000 HD 
HETATM   24  H1  UNL     1     -12.242  11.212  62.939  1.00  0.00     0.000 HD 
ENDBRANCH  13  16
ENDBRANCH  11  13
ENDBRANCH   6  11
ENDBRANCH   2   3
TORSDOF 4
ENDMDL
MODEL       90
REMARK 921   NORMALIZED FREE ENERGY PREDICTED BY IDOCK:   -5.05 KCAL/MOL
REMARK 922        TOTAL FREE ENERGY PREDICTED BY IDOCK:   -7.05 KCAL/MOL
REMARK 923 INTER-LIGAND FREE ENERGY PREDICTED BY IDOCK:   -6.39 KCAL/MOL
REMARK 924 INTRA-LIGAND FREE ENERGY PREDICTED BY IDOCK:   -0.66 KCAL/MOL
REMARK 927      BINDING AFFINITY PREDICTED BY RF-SCORE:    0.00 PKD
ROOT
HETATM    1  C   UNL     1     -10.098   4.765  70.680  1.00  0.00    -0.288 C  
HETATM    2  C   UNL     1     -10.771   6.129  70.672  1.00  0.00    -0.275 C  
ENDROOT
BRANCH   2   3
HETATM    3  N   UNL     1     -10.555   6.825  69.407  1.00  0.00    -0.219 N  
HETATM    4  C   UNL     1     -10.154   6.120  68.293  1.00  0.00    -0.158 C  
HETATM    5  C   UNL     1      -9.989   6.728  67.118  1.00  0.00    -0.220 C  
HETATM    6  C   UNL     1     -10.309   8.159  67.135  1.00  0.00    -0.321 C  
HETATM    7  N   UNL     1     -10.706   8.830  68.149  1.00  0.00    -0.439 N  
HETATM    8  O   UNL     1     -11.223   8.811  70.346  1.00  0.00    -0.253 OA 
HETATM    9  C   UNL     1     -10.848   8.194  69.351  1.00  0.00    -0.086 C  
HETATM   10  H   UNL     1     -10.912   9.826  68.062  1.00  0.00     0.000 HD 
BRANCH   6  11
HETATM   11  N   UNL     1     -10.139   8.784  65.896  1.00  0.00    -0.388 N  
HETATM   12  H   UNL     1     -10.728   8.472  65.124  1.00  0.00     0.000 HD 
BRANCH  11  13
HETATM   13  S   UNL     1      -9.039  10.007  65.589  1.00  0.00    -0.199 S  
HETATM   14  O   UNL     1      -8.479  10.333  66.886  1.00  0.00    -0.125 OA 
HETATM   15  O   UNL     1      -8.177   9.590  64.505  1.00  0.00    -0.133 OA 
BRANCH  13  16
HETATM   16  C   UNL     1     -10.031  11.378  65.068  1.00  0.00    -0.266 A  
HETATM   17  C   UNL     1     -10.887  11.244  63.974  1.00  0.00    -0.414 A  
HETATM   18  C   UNL     1     -11.675  12.331  63.582  1.00  0.00    -0.591 A  
HETATM   19  C   UNL     1     -11.585  13.559  64.247  1.00  0.00    -0.397 A  
HETATM   20  N   UNL     1     -12.450  14.608  63.913  1.00  0.00    -1.041 NA 
HETATM   21  C   UNL     1     -10.791  13.647  65.392  1.00  0.00    -0.302 A  
HETATM   22  C   UNL     1     -10.012  12.565  65.804  1.00  0.00    -0.272 A  
HETATM   23  H2  UNL     1     -13.409  14.271  63.991  1.00  0.00     0.000 HD 
HETATM   24  H1  UNL     1     -12.384  15.504  64.397  1.00  0.00     0.000 HD 
ENDBRANCH  13  16
ENDBRANCH  11  13
ENDBRANCH   6  11
ENDBRANCH   2   3
TORSDOF 4
ENDMDL
MODEL       91
REMARK 921   NORMALIZED FREE ENERGY PREDICTED BY IDOCK:   -5.04 KCAL/MOL
REMARK 922        TOTAL FREE ENERGY PREDICTED BY IDOCK:   -7.04 KCAL/MOL
REMARK 923 INTER-LIGAND FREE ENERGY PREDICTED BY IDOCK:   -6.58 KCAL/MOL
REMARK 924 INTRA-LIGAND FREE ENERGY PREDICTED BY IDOCK:   -0.46 KCAL/MOL
REMARK 927      BINDING AFFINITY PREDICTED BY RF-SCORE:    0.00 PKD
ROOT
HETATM    1  C   UNL     1     -13.216   9.102  71.964  1.00  0.00    -0.505 C  
HETATM    2  C   UNL     1     -11.778   9.520  71.696  1.00  0.00    -0.390 C  
ENDROOT
BRANCH   2   3
HETATM    3  N   UNL     1     -11.456   9.445  70.273  1.00  0.00    -0.221 N  
HETATM    4  C   UNL     1     -11.692  10.530  69.456  1.00  0.00    -0.241 C  
HETATM    5  C   UNL     1     -11.369  10.499  68.163  1.00  0.00    -0.324 C  
HETATM    6  C   UNL     1     -10.724   9.252  67.738  1.00  0.00    -0.207 C  
HETATM    7  N   UNL     1     -10.473   8.242  68.481  1.00  0.00    -0.312 N  
HETATM    8  O   UNL     1     -10.609   7.328  70.541  1.00  0.00    -0.215 OA 
HETATM    9  C   UNL     1     -10.832   8.284  69.800  1.00  0.00    -0.185 C  
HETATM   10  H   UNL     1     -10.012   7.417  68.096  1.00  0.00     0.000 HD 
BRANCH   6  11
HETATM   11  N   UNL     1     -10.383   9.233  66.382  1.00  0.00    -0.219 N  
HETATM   12  H   UNL     1     -10.853   8.553  65.785  1.00  0.00     0.000 HD 
BRANCH  11  13
HETATM   13  S   UNL     1      -9.261  10.249  65.668  1.00  0.00    -0.199 S  
HETATM   14  O   UNL     1      -8.409  10.681  66.758  1.00  0.00    -0.126 OA 
HETATM   15  O   UNL     1      -8.694   9.574  64.520  1.00  0.00    -0.181 OA 
BRANCH  13  16
HETATM   16  C   UNL     1     -10.204  11.648  65.131  1.00  0.00    -0.274 A  
HETATM   17  C   UNL     1     -11.281  11.472  64.262  1.00  0.00    -0.358 A  
HETATM   18  C   UNL     1     -12.025  12.584  63.857  1.00  0.00    -0.563 A  
HETATM   19  C   UNL     1     -11.678  13.872  64.280  1.00  0.00    -0.380 A  
HETATM   20  N   UNL     1     -12.489  14.965  63.952  1.00  0.00    -1.056 NA 
HETATM   21  C   UNL     1     -10.654  14.018  65.218  1.00  0.00    -0.376 A  
HETATM   22  C   UNL     1      -9.914  12.914  65.643  1.00  0.00    -0.245 A  
HETATM   23  H2  UNL     1     -13.438  14.768  64.270  1.00  0.00     0.000 HD 
HETATM   24  H1  UNL     1     -12.236  15.904  64.260  1.00  0.00     0.000 HD 
ENDBRANCH  13  16
ENDBRANCH  11  13
ENDBRANCH   6  11
ENDBRANCH   2   3
TORSDOF 4
ENDMDL
MODEL       92
REMARK 921   NORMALIZED FREE ENERGY PREDICTED BY IDOCK:   -5.00 KCAL/MOL
REMARK 922        TOTAL FREE ENERGY PREDICTED BY IDOCK:   -6.99 KCAL/MOL
REMARK 923 INTER-LIGAND FREE ENERGY PREDICTED BY IDOCK:   -6.27 KCAL/MOL
REMARK 924 INTRA-LIGAND FREE ENERGY PREDICTED BY IDOCK:   -0.72 KCAL/MOL
REMARK 927      BINDING AFFINITY PREDICTED BY RF-SCORE:    0.00 PKD
ROOT
HETATM    1  C   UNL     1     -12.259  13.461  64.215  1.00  0.00    -0.450 C  
HETATM    2  C   UNL     1     -10.891  13.300  64.862  1.00  0.00    -0.345 C  
ENDROOT
BRANCH   2   3
HETATM    3  N   UNL     1     -11.005  12.994  66.285  1.00  0.00    -0.281 N  
HETATM    4  C   UNL     1     -11.509  13.937  67.154  1.00  0.00    -0.347 C  
HETATM    5  C   UNL     1     -11.660  13.665  68.451  1.00  0.00    -0.377 C  
HETATM    6  C   UNL     1     -11.286  12.296  68.822  1.00  0.00    -0.289 C  
HETATM    7  N   UNL     1     -10.839  11.396  68.031  1.00  0.00    -0.203 N  
HETATM    8  O   UNL     1     -10.240  10.859  65.922  1.00  0.00    -0.242 OA 
HETATM    9  C   UNL     1     -10.671  11.700  66.709  1.00  0.00    -0.260 C  
HETATM   10  H   UNL     1     -10.612  10.465  68.381  1.00  0.00     0.000 HD 
BRANCH   6  11
HETATM   11  N   UNL     1     -11.455  12.021  70.182  1.00  0.00    -0.526 N  
HETATM   12  H   UNL     1     -10.857  12.516  70.843  1.00  0.00     0.000 HD 
BRANCH  11  13
HETATM   13  S   UNL     1     -12.568  10.936  70.804  1.00  0.00    -0.372 S  
HETATM   14  O   UNL     1     -13.164  11.626  71.931  1.00  0.00    -0.485 OA 
HETATM   15  O   UNL     1     -13.397  10.456  69.719  1.00  0.00     0.122 OA 
BRANCH  13  16
HETATM   16  C   UNL     1     -11.588   9.606  71.439  1.00  0.00    -0.400 A  
HETATM   17  C   UNL     1     -10.233   9.520  71.115  1.00  0.00    -0.300 A  
HETATM   18  C   UNL     1      -9.469   8.472  71.635  1.00  0.00    -0.316 A  
HETATM   19  C   UNL     1     -10.053   7.488  72.441  1.00  0.00    -0.203 A  
HETATM   20  N   UNL     1      -9.259   6.502  73.038  1.00  0.00    -0.132 NA 
HETATM   21  C   UNL     1     -11.387   7.640  72.826  1.00  0.00    -0.419 A  
HETATM   22  C   UNL     1     -12.157   8.691  72.327  1.00  0.00    -0.443 A  
HETATM   23  H2  UNL     1      -8.525   6.963  73.576  1.00  0.00     0.000 HD 
HETATM   24  H1  UNL     1      -9.685   5.785  73.626  1.00  0.00     0.000 HD 
ENDBRANCH  13  16
ENDBRANCH  11  13
ENDBRANCH   6  11
ENDBRANCH   2   3
TORSDOF 4
ENDMDL
MODEL       93
REMARK 921   NORMALIZED FREE ENERGY PREDICTED BY IDOCK:   -4.96 KCAL/MOL
REMARK 922        TOTAL FREE ENERGY PREDICTED BY IDOCK:   -6.94 KCAL/MOL
REMARK 923 INTER-LIGAND FREE ENERGY PREDICTED BY IDOCK:   -6.44 KCAL/MOL
REMARK 924 INTRA-LIGAND FREE ENERGY PREDICTED BY IDOCK:   -0.50 KCAL/MOL
REMARK 927      BINDING AFFINITY PREDICTED BY RF-SCORE:    0.00 PKD
ROOT
HETATM    1  C   UNL     1     -10.292  19.119  67.830  1.00  0.00    -0.505 C  
HETATM    2  C   UNL     1     -10.412  18.020  66.785  1.00  0.00    -0.328 C  
ENDROOT
BRANCH   2   3
HETATM    3  N   UNL     1     -10.343  16.694  67.393  1.00  0.00    -0.288 N  
HETATM    4  C   UNL     1     -10.316  16.566  68.765  1.00  0.00    -0.286 C  
HETATM    5  C   UNL     1     -10.294  15.364  69.343  1.00  0.00    -0.258 C  
HETATM    6  C   UNL     1     -10.343  14.245  68.396  1.00  0.00    -0.247 C  
HETATM    7  N   UNL     1     -10.392  14.338  67.121  1.00  0.00    -0.261 N  
HETATM    8  O   UNL     1     -10.435  15.703  65.324  1.00  0.00    -0.379 OA 
HETATM    9  C   UNL     1     -10.392  15.578  66.546  1.00  0.00    -0.288 C  
HETATM   10  H   UNL     1     -10.432  13.499  66.542  1.00  0.00     0.000 HD 
BRANCH   6  11
HETATM   11  N   UNL     1     -10.327  12.991  69.013  1.00  0.00    -0.436 N  
HETATM   12  H   UNL     1      -9.426  12.627  69.322  1.00  0.00     0.000 HD 
BRANCH  11  13
HETATM   13  S   UNL     1     -11.680  12.043  69.281  1.00  0.00    -0.332 S  
HETATM   14  O   UNL     1     -12.485  12.806  70.215  1.00  0.00    -0.219 OA 
HETATM   15  O   UNL     1     -12.225  11.647  68.000  1.00  0.00    -0.551 OA 
BRANCH  13  16
HETATM   16  C   UNL     1     -11.065  10.619  70.134  1.00  0.00    -0.268 A  
HETATM   17  C   UNL     1     -11.862   9.975  71.082  1.00  0.00    -0.481 A  
HETATM   18  C   UNL     1     -11.369   8.844  71.738  1.00  0.00    -0.431 A  
HETATM   19  C   UNL     1     -10.075   8.374  71.485  1.00  0.00    -0.226 A  
HETATM   20  N   UNL     1      -9.629   7.184  72.071  1.00  0.00    -0.144 NA 
HETATM   21  C   UNL     1      -9.328   8.977  70.471  1.00  0.00    -0.262 A  
HETATM   22  C   UNL     1      -9.815  10.098  69.797  1.00  0.00    -0.245 A  
HETATM   23  H2  UNL     1     -10.290   6.443  71.836  1.00  0.00     0.000 HD 
HETATM   24  H1  UNL     1      -8.686   6.841  71.887  1.00  0.00     0.000 HD 
ENDBRANCH  13  16
ENDBRANCH  11  13
ENDBRANCH   6  11
ENDBRANCH   2   3
TORSDOF 4
ENDMDL
MODEL       94
REMARK 921   NORMALIZED FREE ENERGY PREDICTED BY IDOCK:   -4.92 KCAL/MOL
REMARK 922        TOTAL FREE ENERGY PREDICTED BY IDOCK:   -6.89 KCAL/MOL
REMARK 923 INTER-LIGAND FREE ENERGY PREDICTED BY IDOCK:   -6.32 KCAL/MOL
REMARK 924 INTRA-LIGAND FREE ENERGY PREDICTED BY IDOCK:   -0.58 KCAL/MOL
REMARK 927      BINDING AFFINITY PREDICTED BY RF-SCORE:    0.00 PKD
ROOT
HETATM    1  C   UNL     1     -10.525   8.111  67.156  1.00  0.00    -0.396 C  
HETATM    2  C   UNL     1      -9.823   9.188  66.342  1.00  0.00    -0.280 C  
ENDROOT
BRANCH   2   3
HETATM    3  N   UNL     1     -10.312  10.520  66.684  1.00  0.00    -0.236 N  
HETATM    4  C   UNL     1     -11.170  10.687  67.750  1.00  0.00    -0.313 C  
HETATM    5  C   UNL     1     -11.597  11.899  68.105  1.00  0.00    -0.400 C  
HETATM    6  C   UNL     1     -11.042  12.989  67.297  1.00  0.00    -0.273 C  
HETATM    7  N   UNL     1     -10.227  12.863  66.319  1.00  0.00    -0.272 N  
HETATM    8  O   UNL     1      -9.037  11.454  65.018  1.00  0.00    -0.143 OA 
HETATM    9  C   UNL     1      -9.817  11.610  65.956  1.00  0.00    -0.230 C  
HETATM   10  H   UNL     1      -9.887  13.684  65.819  1.00  0.00     0.000 HD 
BRANCH   6  11
HETATM   11  N   UNL     1     -11.491  14.255  67.683  1.00  0.00    -0.327 N  
HETATM   12  H   UNL     1     -12.333  14.616  67.234  1.00  0.00     0.000 HD 
BRANCH  11  13
HETATM   13  S   UNL     1     -10.748  15.221  68.830  1.00  0.00    -0.258 S  
HETATM   14  O   UNL     1     -11.748  15.401  69.864  1.00  0.00    -0.289 OA 
HETATM   15  O   UNL     1      -9.460  14.645  69.152  1.00  0.00    -0.166 OA 
BRANCH  13  16
HETATM   16  C   UNL     1     -10.520  16.779  68.021  1.00  0.00    -0.333 A  
HETATM   17  C   UNL     1     -10.227  17.919  68.772  1.00  0.00    -0.362 A  
HETATM   18  C   UNL     1     -10.036  19.140  68.119  1.00  0.00    -0.468 A  
HETATM   19  C   UNL     1     -10.173  19.240  66.730  1.00  0.00    -0.409 A  
HETATM   20  N   UNL     1      -9.880  20.443  66.076  1.00  0.00    -0.643 NA 
HETATM   21  C   UNL     1     -10.377  18.074  65.989  1.00  0.00    -0.333 A  
HETATM   22  C   UNL     1     -10.554  16.846  66.627  1.00  0.00    -0.189 A  
HETATM   23  H2  UNL     1      -8.930  20.720  66.325  1.00  0.00     0.000 HD 
HETATM   24  H1  UNL     1      -9.980  20.516  65.063  1.00  0.00     0.000 HD 
ENDBRANCH  13  16
ENDBRANCH  11  13
ENDBRANCH   6  11
ENDBRANCH   2   3
TORSDOF 4
ENDMDL
MODEL       95
REMARK 921   NORMALIZED FREE ENERGY PREDICTED BY IDOCK:   -4.91 KCAL/MOL
REMARK 922        TOTAL FREE ENERGY PREDICTED BY IDOCK:   -6.88 KCAL/MOL
REMARK 923 INTER-LIGAND FREE ENERGY PREDICTED BY IDOCK:   -6.21 KCAL/MOL
REMARK 924 INTRA-LIGAND FREE ENERGY PREDICTED BY IDOCK:   -0.67 KCAL/MOL
REMARK 927      BINDING AFFINITY PREDICTED BY RF-SCORE:    0.00 PKD
ROOT
HETATM    1  C   UNL     1     -12.410  15.832  72.880  1.00  0.00    -0.570 C  
HETATM    2  C   UNL     1     -13.498  15.147  72.067  1.00  0.00    -0.421 C  
ENDROOT
BRANCH   2   3
HETATM    3  N   UNL     1     -13.023  13.893  71.489  1.00  0.00    -0.342 N  
HETATM    4  C   UNL     1     -13.311  12.696  72.110  1.00  0.00    -0.466 C  
HETATM    5  C   UNL     1     -12.923  11.536  71.579  1.00  0.00    -0.485 C  
HETATM    6  C   UNL     1     -12.225  11.670  70.296  1.00  0.00    -0.318 C  
HETATM    7  N   UNL     1     -11.967  12.765  69.689  1.00  0.00    -0.310 N  
HETATM    8  O   UNL     1     -12.118  15.017  69.703  1.00  0.00    -0.308 OA 
HETATM    9  C   UNL     1     -12.353  13.946  70.259  1.00  0.00    -0.345 C  
HETATM   10  H   UNL     1     -11.481  12.758  68.792  1.00  0.00     0.000 HD 
BRANCH   6  11
HETATM   11  N   UNL     1     -11.829  10.447  69.746  1.00  0.00    -0.412 N  
HETATM   12  H   UNL     1     -12.315   9.607  70.060  1.00  0.00     0.000 HD 
BRANCH  11  13
HETATM   13  S   UNL     1     -10.616  10.262  68.608  1.00  0.00    -0.221 S  
HETATM   14  O   UNL     1     -11.178  10.791  67.381  1.00  0.00    -0.321 OA 
HETATM   15  O   UNL     1      -9.391  10.812  69.148  1.00  0.00    -0.190 OA 
BRANCH  13  16
HETATM   16  C   UNL     1     -10.448   8.510  68.416  1.00  0.00    -0.171 A  
HETATM   17  C   UNL     1     -10.585   7.670  69.522  1.00  0.00    -0.227 A  
HETATM   18  C   UNL     1     -10.464   6.288  69.352  1.00  0.00    -0.298 A  
HETATM   19  C   UNL     1     -10.167   5.741  68.099  1.00  0.00    -0.190 A  
HETATM   20  N   UNL     1     -10.148   4.353  67.920  1.00  0.00    -0.014 NA 
HETATM   21  C   UNL     1     -10.121   6.589  66.990  1.00  0.00    -0.236 A  
HETATM   22  C   UNL     1     -10.257   7.970  67.143  1.00  0.00    -0.362 A  
HETATM   23  H2  UNL     1     -11.045   3.977  68.229  1.00  0.00     0.000 HD 
HETATM   24  H1  UNL     1      -9.931   3.955  67.006  1.00  0.00     0.000 HD 
ENDBRANCH  13  16
ENDBRANCH  11  13
ENDBRANCH   6  11
ENDBRANCH   2   3
TORSDOF 4
ENDMDL
MODEL       96
REMARK 921   NORMALIZED FREE ENERGY PREDICTED BY IDOCK:   -4.89 KCAL/MOL
REMARK 922        TOTAL FREE ENERGY PREDICTED BY IDOCK:   -6.85 KCAL/MOL
REMARK 923 INTER-LIGAND FREE ENERGY PREDICTED BY IDOCK:   -6.38 KCAL/MOL
REMARK 924 INTRA-LIGAND FREE ENERGY PREDICTED BY IDOCK:   -0.47 KCAL/MOL
REMARK 927      BINDING AFFINITY PREDICTED BY RF-SCORE:    0.00 PKD
ROOT
HETATM    1  C   UNL     1     -12.175  14.348  64.103  1.00  0.00    -0.393 C  
HETATM    2  C   UNL     1     -11.147  14.945  65.053  1.00  0.00    -0.414 C  
ENDROOT
BRANCH   2   3
HETATM    3  N   UNL     1     -10.924  14.083  66.210  1.00  0.00    -0.298 N  
HETATM    4  C   UNL     1     -11.903  13.199  66.609  1.00  0.00    -0.391 C  
HETATM    5  C   UNL     1     -11.706  12.374  67.638  1.00  0.00    -0.412 C  
HETATM    6  C   UNL     1     -10.373  12.479  68.241  1.00  0.00    -0.236 C  
HETATM    7  N   UNL     1      -9.440  13.273  67.874  1.00  0.00    -0.207 N  
HETATM    8  O   UNL     1      -8.794  14.906  66.456  1.00  0.00    -0.266 OA 
HETATM    9  C   UNL     1      -9.668  14.127  66.832  1.00  0.00    -0.269 C  
HETATM   10  H   UNL     1      -8.539  13.269  68.353  1.00  0.00     0.000 HD 
BRANCH   6  11
HETATM   11  N   UNL     1     -10.176  11.605  69.314  1.00  0.00    -0.425 N  
HETATM   12  H   UNL     1     -10.451  11.924  70.242  1.00  0.00     0.000 HD 
BRANCH  11  13
HETATM   13  S   UNL     1      -9.520  10.070  69.184  1.00  0.00    -0.218 S  
HETATM   14  O   UNL     1      -9.618   9.746  67.775  1.00  0.00    -0.134 OA 
HETATM   15  O   UNL     1      -8.235  10.061  69.849  1.00  0.00    -0.176 OA 
BRANCH  13  16
HETATM   16  C   UNL     1     -10.651   9.026  70.060  1.00  0.00    -0.228 A  
HETATM   17  C   UNL     1     -10.561   7.639  69.934  1.00  0.00    -0.237 A  
HETATM   18  C   UNL     1     -11.452   6.827  70.642  1.00  0.00    -0.403 A  
HETATM   19  C   UNL     1     -12.455   7.388  71.441  1.00  0.00    -0.368 A  
HETATM   20  N   UNL     1     -13.276   6.568  72.224  1.00  0.00    -0.492 NA 
HETATM   21  C   UNL     1     -12.473   8.773  71.624  1.00  0.00    -0.392 A  
HETATM   22  C   UNL     1     -11.579   9.594  70.935  1.00  0.00    -0.420 A  
HETATM   23  H2  UNL     1     -12.680   5.990  72.817  1.00  0.00     0.000 HD 
HETATM   24  H1  UNL     1     -14.007   6.976  72.806  1.00  0.00     0.000 HD 
ENDBRANCH  13  16
ENDBRANCH  11  13
ENDBRANCH   6  11
ENDBRANCH   2   3
TORSDOF 4
ENDMDL
MODEL       97
REMARK 921   NORMALIZED FREE ENERGY PREDICTED BY IDOCK:   -4.88 KCAL/MOL
REMARK 922        TOTAL FREE ENERGY PREDICTED BY IDOCK:   -6.84 KCAL/MOL
REMARK 923 INTER-LIGAND FREE ENERGY PREDICTED BY IDOCK:   -7.31 KCAL/MOL
REMARK 924 INTRA-LIGAND FREE ENERGY PREDICTED BY IDOCK:    0.47 KCAL/MOL
REMARK 927      BINDING AFFINITY PREDICTED BY RF-SCORE:    0.00 PKD
ROOT
HETATM    1  C   UNL     1     -10.169  14.894  65.335  1.00  0.00    -0.409 C  
HETATM    2  C   UNL     1      -9.266  15.637  66.308  1.00  0.00    -0.330 C  
ENDROOT
BRANCH   2   3
HETATM    3  N   UNL     1      -9.859  15.706  67.641  1.00  0.00    -0.226 N  
HETATM    4  C   UNL     1     -11.150  16.163  67.797  1.00  0.00    -0.254 C  
HETATM    5  C   UNL     1     -11.727  16.197  68.999  1.00  0.00    -0.254 C  
HETATM    6  C   UNL     1     -10.884  15.676  70.080  1.00  0.00    -0.343 C  
HETATM    7  N   UNL     1      -9.693  15.226  69.958  1.00  0.00    -0.465 N  
HETATM    8  O   UNL     1      -7.967  14.796  68.569  1.00  0.00    -0.123 OA 
HETATM    9  C   UNL     1      -9.111  15.219  68.721  1.00  0.00    -0.200 C  
HETATM   10  H   UNL     1      -9.185  14.876  70.771  1.00  0.00     0.000 HD 
BRANCH   6  11
HETATM   11  N   UNL     1     -11.501  15.711  71.334  1.00  0.00    -0.391 N  
HETATM   12  H   UNL     1     -11.015  16.197  72.088  1.00  0.00     0.000 HD 
BRANCH  11  13
HETATM   13  S   UNL     1     -12.980  15.012  71.688  1.00  0.00    -0.389 S  
HETATM   14  O   UNL     1     -13.094  15.101  73.130  1.00  0.00    -0.456 OA 
HETATM   15  O   UNL     1     -13.986  15.611  70.837  1.00  0.00    -0.479 OA 
BRANCH  13  16
HETATM   16  C   UNL     1     -12.779  13.305  71.264  1.00  0.00    -0.323 A  
HETATM   17  C   UNL     1     -12.030  12.947  70.143  1.00  0.00    -0.373 A  
HETATM   18  C   UNL     1     -11.868  11.595  69.828  1.00  0.00    -0.428 A  
HETATM   19  C   UNL     1     -12.481  10.601  70.599  1.00  0.00    -0.371 A  
HETATM   20  N   UNL     1     -12.231   9.249  70.336  1.00  0.00    -0.464 NA 
HETATM   21  C   UNL     1     -13.152  10.973  71.766  1.00  0.00    -0.554 A  
HETATM   22  C   UNL     1     -13.306  12.319  72.100  1.00  0.00    -0.473 A  
HETATM   23  H2  UNL     1     -11.222   9.098  70.362  1.00  0.00     0.000 HD 
HETATM   24  H1  UNL     1     -12.677   8.524  70.898  1.00  0.00     0.000 HD 
ENDBRANCH  13  16
ENDBRANCH  11  13
ENDBRANCH   6  11
ENDBRANCH   2   3
TORSDOF 4
ENDMDL
MODEL       98
REMARK 921   NORMALIZED FREE ENERGY PREDICTED BY IDOCK:   -4.87 KCAL/MOL
REMARK 922        TOTAL FREE ENERGY PREDICTED BY IDOCK:   -6.83 KCAL/MOL
REMARK 923 INTER-LIGAND FREE ENERGY PREDICTED BY IDOCK:   -6.05 KCAL/MOL
REMARK 924 INTRA-LIGAND FREE ENERGY PREDICTED BY IDOCK:   -0.77 KCAL/MOL
REMARK 927      BINDING AFFINITY PREDICTED BY RF-SCORE:    0.00 PKD
ROOT
HETATM    1  C   UNL     1      -8.424   7.529  66.462  1.00  0.00    -0.131 C  
HETATM    2  C   UNL     1      -8.165   8.592  65.405  1.00  0.00    -0.136 C  
ENDROOT
BRANCH   2   3
HETATM    3  N   UNL     1      -9.154   9.664  65.471  1.00  0.00    -0.188 N  
HETATM    4  C   UNL     1      -9.632  10.086  66.693  1.00  0.00    -0.186 C  
HETATM    5  C   UNL     1     -10.505  11.091  66.780  1.00  0.00    -0.300 C  
HETATM    6  C   UNL     1     -10.851  11.694  65.489  1.00  0.00    -0.279 C  
HETATM    7  N   UNL     1     -10.404  11.337  64.346  1.00  0.00    -0.304 N  
HETATM    8  O   UNL     1      -9.081   9.919  63.190  1.00  0.00    -0.244 OA 
HETATM    9  C   UNL     1      -9.527  10.291  64.274  1.00  0.00    -0.307 C  
HETATM   10  H   UNL     1     -10.699  11.824  63.499  1.00  0.00     0.000 HD 
BRANCH   6  11
HETATM   11  N   UNL     1     -11.762  12.750  65.594  1.00  0.00    -0.376 N  
HETATM   12  H   UNL     1     -12.744  12.516  65.739  1.00  0.00     0.000 HD 
BRANCH  11  13
HETATM   13  S   UNL     1     -11.356  14.371  65.497  1.00  0.00    -0.344 S  
HETATM   14  O   UNL     1      -9.959  14.379  65.112  1.00  0.00    -0.354 OA 
HETATM   15  O   UNL     1     -12.343  15.044  64.681  1.00  0.00    -0.351 OA 
BRANCH  13  16
HETATM   16  C   UNL     1     -11.462  14.957  67.165  1.00  0.00    -0.335 A  
HETATM   17  C   UNL     1     -12.031  14.152  68.153  1.00  0.00    -0.367 A  
HETATM   18  C   UNL     1     -12.095  14.622  69.468  1.00  0.00    -0.335 A  
HETATM   19  C   UNL     1     -11.633  15.902  69.796  1.00  0.00    -0.338 A  
HETATM   20  N   UNL     1     -11.609  16.323  71.131  1.00  0.00    -0.585 NA 
HETATM   21  C   UNL     1     -10.987  16.655  68.814  1.00  0.00    -0.309 A  
HETATM   22  C   UNL     1     -10.902  16.191  67.500  1.00  0.00    -0.284 A  
HETATM   23  H2  UNL     1     -11.077  15.641  71.673  1.00  0.00     0.000 HD 
HETATM   24  H1  UNL     1     -11.272  17.256  71.370  1.00  0.00     0.000 HD 
ENDBRANCH  13  16
ENDBRANCH  11  13
ENDBRANCH   6  11
ENDBRANCH   2   3
TORSDOF 4
ENDMDL
MODEL       99
REMARK 921   NORMALIZED FREE ENERGY PREDICTED BY IDOCK:   -4.86 KCAL/MOL
REMARK 922        TOTAL FREE ENERGY PREDICTED BY IDOCK:   -6.81 KCAL/MOL
REMARK 923 INTER-LIGAND FREE ENERGY PREDICTED BY IDOCK:   -6.40 KCAL/MOL
REMARK 924 INTRA-LIGAND FREE ENERGY PREDICTED BY IDOCK:   -0.41 KCAL/MOL
REMARK 927      BINDING AFFINITY PREDICTED BY RF-SCORE:    0.00 PKD
ROOT
HETATM    1  C   UNL     1      -8.727   9.131  64.906  1.00  0.00    -0.215 C  
HETATM    2  C   UNL     1      -7.712  10.063  65.551  1.00  0.00    -0.135 C  
ENDROOT
BRANCH   2   3
HETATM    3  N   UNL     1      -8.353  10.993  66.476  1.00  0.00    -0.158 N  
HETATM    4  C   UNL     1      -9.074  12.062  65.989  1.00  0.00    -0.092 C  
HETATM    5  C   UNL     1      -9.701  12.901  66.814  1.00  0.00    -0.246 C  
HETATM    6  C   UNL     1      -9.577  12.549  68.232  1.00  0.00    -0.209 C  
HETATM    7  N   UNL     1      -8.934  11.551  68.707  1.00  0.00    -0.353 N  
HETATM    8  O   UNL     1      -7.648   9.747  68.272  1.00  0.00    -0.080 OA 
HETATM    9  C   UNL     1      -8.279  10.714  67.847  1.00  0.00    -0.112 C  
HETATM   10  H   UNL     1      -8.910  11.382  69.713  1.00  0.00     0.000 HD 
BRANCH   6  11
HETATM   11  N   UNL     1     -10.244  13.432  69.087  1.00  0.00    -0.424 N  
HETATM   12  H   UNL     1      -9.679  14.098  69.614  1.00  0.00     0.000 HD 
BRANCH  11  13
HETATM   13  S   UNL     1     -11.903  13.475  69.306  1.00  0.00    -0.342 S  
HETATM   14  O   UNL     1     -12.387  14.372  68.276  1.00  0.00    -0.201 OA 
HETATM   15  O   UNL     1     -12.392  12.115  69.381  1.00  0.00    -0.124 OA 
BRANCH  13  16
HETATM   16  C   UNL     1     -12.125  14.275  70.870  1.00  0.00    -0.347 A  
HETATM   17  C   UNL     1     -11.637  15.568  71.068  1.00  0.00    -0.424 A  
HETATM   18  C   UNL     1     -11.832  16.193  72.303  1.00  0.00    -0.631 A  
HETATM   19  C   UNL     1     -12.473  15.524  73.353  1.00  0.00    -0.511 A  
HETATM   20  N   UNL     1     -12.752  16.194  74.550  1.00  0.00    -0.985 NA 
HETATM   21  C   UNL     1     -13.031  14.268  73.108  1.00  0.00    -0.426 A  
HETATM   22  C   UNL     1     -12.858  13.640  71.874  1.00  0.00    -0.381 A  
HETATM   23  H2  UNL     1     -13.288  17.034  74.330  1.00  0.00     0.000 HD 
HETATM   24  H1  UNL     1     -13.219  15.707  75.315  1.00  0.00     0.000 HD 
ENDBRANCH  13  16
ENDBRANCH  11  13
ENDBRANCH   6  11
ENDBRANCH   2   3
TORSDOF 4
ENDMDL
MODEL      100
REMARK 921   NORMALIZED FREE ENERGY PREDICTED BY IDOCK:   -4.85 KCAL/MOL
REMARK 922        TOTAL FREE ENERGY PREDICTED BY IDOCK:   -6.80 KCAL/MOL
REMARK 923 INTER-LIGAND FREE ENERGY PREDICTED BY IDOCK:   -6.45 KCAL/MOL
REMARK 924 INTRA-LIGAND FREE ENERGY PREDICTED BY IDOCK:   -0.35 KCAL/MOL
REMARK 927      BINDING AFFINITY PREDICTED BY RF-SCORE:    0.00 PKD
ROOT
HETATM    1  C   UNL     1     -10.048   4.235  71.298  1.00  0.00    -0.178 C  
HETATM    2  C   UNL     1     -10.688   5.516  71.810  1.00  0.00    -0.226 C  
ENDROOT
BRANCH   2   3
HETATM    3  N   UNL     1     -10.757   6.534  70.766  1.00  0.00    -0.230 N  
HETATM    4  C   UNL     1     -10.405   6.218  69.472  1.00  0.00    -0.212 C  
HETATM    5  C   UNL     1     -10.499   7.120  68.494  1.00  0.00    -0.229 C  
HETATM    6  C   UNL     1     -11.036   8.415  68.925  1.00  0.00     0.152 C  
HETATM    7  N   UNL     1     -11.392   8.725  70.114  1.00  0.00    -0.430 N  
HETATM    8  O   UNL     1     -11.597   8.061  72.261  1.00  0.00    -0.316 OA 
HETATM    9  C   UNL     1     -11.268   7.794  71.107  1.00  0.00    -0.264 C  
HETATM   10  H   UNL     1     -11.763   9.653  70.318  1.00  0.00     0.000 HD 
BRANCH   6  11
HETATM   11  N   UNL     1     -11.136   9.350  67.891  1.00  0.00    -0.503 N  
HETATM   12  H   UNL     1     -12.053   9.490  67.467  1.00  0.00     0.000 HD 
BRANCH  11  13
HETATM   13  S   UNL     1      -9.860  10.257  67.300  1.00  0.00    -0.189 S  
HETATM   14  O   UNL     1      -9.417  11.051  68.429  1.00  0.00    -0.168 OA 
HETATM   15  O   UNL     1      -8.938   9.369  66.624  1.00  0.00    -0.140 OA 
BRANCH  13  16
HETATM   16  C   UNL     1     -10.600  11.354  66.123  1.00  0.00    -0.265 A  
HETATM   17  C   UNL     1     -11.491  12.339  66.552  1.00  0.00    -0.438 A  
HETATM   18  C   UNL     1     -12.057  13.207  65.614  1.00  0.00    -0.501 A  
HETATM   19  C   UNL     1     -11.772  13.075  64.250  1.00  0.00    -0.389 A  
HETATM   20  N   UNL     1     -12.263  14.011  63.333  1.00  0.00    -1.112 NA 
HETATM   21  C   UNL     1     -10.811  12.144  63.852  1.00  0.00    -0.461 A  
HETATM   22  C   UNL     1     -10.227  11.281  64.780  1.00  0.00    -0.347 A  
HETATM   23  H2  UNL     1     -11.968  14.941  63.633  1.00  0.00     0.000 HD 
HETATM   24  H1  UNL     1     -12.056  13.915  62.338  1.00  0.00     0.000 HD 
ENDBRANCH  13  16
ENDBRANCH  11  13
ENDBRANCH   6  11
ENDBRANCH   2   3
TORSDOF 4
ENDMDL
MODEL      101
REMARK 921   NORMALIZED FREE ENERGY PREDICTED BY IDOCK:   -4.84 KCAL/MOL
REMARK 922        TOTAL FREE ENERGY PREDICTED BY IDOCK:   -6.79 KCAL/MOL
REMARK 923 INTER-LIGAND FREE ENERGY PREDICTED BY IDOCK:   -6.14 KCAL/MOL
REMARK 924 INTRA-LIGAND FREE ENERGY PREDICTED BY IDOCK:   -0.65 KCAL/MOL
REMARK 927      BINDING AFFINITY PREDICTED BY RF-SCORE:    0.00 PKD
ROOT
HETATM    1  C   UNL     1     -11.272   4.174  73.111  1.00  0.00    -0.244 C  
HETATM    2  C   UNL     1     -10.897   5.648  73.143  1.00  0.00    -0.281 C  
ENDROOT
BRANCH   2   3
HETATM    3  N   UNL     1     -10.878   6.224  71.801  1.00  0.00    -0.239 N  
HETATM    4  C   UNL     1     -10.557   5.435  70.718  1.00  0.00    -0.223 C  
HETATM    5  C   UNL     1     -10.573   5.930  69.479  1.00  0.00    -0.378 C  
HETATM    6  C   UNL     1     -10.992   7.333  69.401  1.00  0.00    -0.136 C  
HETATM    7  N   UNL     1     -11.317   8.079  70.388  1.00  0.00    -0.395 N  
HETATM    8  O   UNL     1     -11.577   8.251  72.624  1.00  0.00    -0.399 OA 
HETATM    9  C   UNL     1     -11.274   7.560  71.653  1.00  0.00    -0.243 C  
HETATM   10  H   UNL     1     -11.604   9.045  70.234  1.00  0.00     0.000 HD 
BRANCH   6  11
HETATM   11  N   UNL     1     -11.011   7.838  68.098  1.00  0.00    -0.444 N  
HETATM   12  H   UNL     1     -11.805   7.594  67.507  1.00  0.00     0.000 HD 
BRANCH  11  13
HETATM   13  S   UNL     1      -9.824   8.817  67.438  1.00  0.00    -0.212 S  
HETATM   14  O   UNL     1      -8.797   8.889  68.459  1.00  0.00    -0.133 OA 
HETATM   15  O   UNL     1      -9.506   8.325  66.115  1.00  0.00    -0.209 OA 
BRANCH  13  16
HETATM   16  C   UNL     1     -10.580  10.413  67.315  1.00  0.00    -0.267 A  
HETATM   17  C   UNL     1     -11.162  10.998  68.440  1.00  0.00    -0.337 A  
HETATM   18  C   UNL     1     -11.743  12.265  68.332  1.00  0.00    -0.390 A  
HETATM   19  C   UNL     1     -11.782  12.934  67.103  1.00  0.00    -0.377 A  
HETATM   20  N   UNL     1     -12.274  14.242  67.027  1.00  0.00    -0.575 NA 
HETATM   21  C   UNL     1     -11.116  12.373  66.011  1.00  0.00    -0.344 A  
HETATM   22  C   UNL     1     -10.518  11.116  66.110  1.00  0.00    -0.307 A  
HETATM   23  H2  UNL     1     -11.755  14.819  67.689  1.00  0.00     0.000 HD 
HETATM   24  H1  UNL     1     -12.302  14.730  66.131  1.00  0.00     0.000 HD 
ENDBRANCH  13  16
ENDBRANCH  11  13
ENDBRANCH   6  11
ENDBRANCH   2   3
TORSDOF 4
ENDMDL
MODEL      102
REMARK 921   NORMALIZED FREE ENERGY PREDICTED BY IDOCK:   -4.82 KCAL/MOL
REMARK 922        TOTAL FREE ENERGY PREDICTED BY IDOCK:   -6.77 KCAL/MOL
REMARK 923 INTER-LIGAND FREE ENERGY PREDICTED BY IDOCK:   -5.95 KCAL/MOL
REMARK 924 INTRA-LIGAND FREE ENERGY PREDICTED BY IDOCK:   -0.83 KCAL/MOL
REMARK 927      BINDING AFFINITY PREDICTED BY RF-SCORE:    0.00 PKD
ROOT
HETATM    1  C   UNL     1     -13.106  10.931  71.752  1.00  0.00    -0.564 C  
HETATM    2  C   UNL     1     -13.039  12.438  71.952  1.00  0.00    -0.366 C  
ENDROOT
BRANCH   2   3
HETATM    3  N   UNL     1     -12.595  13.120  70.740  1.00  0.00    -0.300 N  
HETATM    4  C   UNL     1     -12.023  12.398  69.714  1.00  0.00    -0.289 C  
HETATM    5  C   UNL     1     -11.647  12.993  68.582  1.00  0.00    -0.354 C  
HETATM    6  C   UNL     1     -11.938  14.430  68.537  1.00  0.00    -0.298 C  
HETATM    7  N   UNL     1     -12.489  15.117  69.464  1.00  0.00    -0.588 N  
HETATM    8  O   UNL     1     -13.376  15.126  71.540  1.00  0.00    -0.376 OA 
HETATM    9  C   UNL     1     -12.847  14.494  70.627  1.00  0.00    -0.340 C  
HETATM   10  H   UNL     1     -12.658  16.115  69.338  1.00  0.00     0.000 HD 
BRANCH   6  11
HETATM   11  N   UNL     1     -11.545  15.041  67.342  1.00  0.00    -0.330 N  
HETATM   12  H   UNL     1     -11.973  14.710  66.478  1.00  0.00     0.000 HD 
BRANCH  11  13
HETATM   13  S   UNL     1     -10.424  16.279  67.229  1.00  0.00    -0.288 S  
HETATM   14  O   UNL     1     -10.233  16.474  65.805  1.00  0.00    -0.386 OA 
HETATM   15  O   UNL     1     -10.864  17.376  68.064  1.00  0.00    -0.384 OA 
BRANCH  13  16
HETATM   16  C   UNL     1      -8.932  15.590  67.887  1.00  0.00    -0.173 A  
HETATM   17  C   UNL     1      -7.950  15.100  67.024  1.00  0.00    -0.223 A  
HETATM   18  C   UNL     1      -6.771  14.571  67.557  1.00  0.00    -0.141 A  
HETATM   19  C   UNL     1      -6.581  14.493  68.941  1.00  0.00    -0.095 A  
HETATM   20  N   UNL     1      -5.357  14.057  69.462  1.00  0.00    -0.083 NA 
HETATM   21  C   UNL     1      -7.533  15.069  69.784  1.00  0.00    -0.102 A  
HETATM   22  C   UNL     1      -8.708  15.614  69.264  1.00  0.00    -0.267 A  
HETATM   23  H2  UNL     1      -4.616  14.638  69.070  1.00  0.00     0.000 HD 
HETATM   24  H1  UNL     1      -5.218  13.999  70.471  1.00  0.00     0.000 HD 
ENDBRANCH  13  16
ENDBRANCH  11  13
ENDBRANCH   6  11
ENDBRANCH   2   3
TORSDOF 4
ENDMDL
MODEL      103
REMARK 921   NORMALIZED FREE ENERGY PREDICTED BY IDOCK:   -4.79 KCAL/MOL
REMARK 922        TOTAL FREE ENERGY PREDICTED BY IDOCK:   -6.73 KCAL/MOL
REMARK 923 INTER-LIGAND FREE ENERGY PREDICTED BY IDOCK:   -6.30 KCAL/MOL
REMARK 924 INTRA-LIGAND FREE ENERGY PREDICTED BY IDOCK:   -0.44 KCAL/MOL
REMARK 927      BINDING AFFINITY PREDICTED BY RF-SCORE:    0.00 PKD
ROOT
HETATM    1  C   UNL     1      -9.879  19.725  68.862  1.00  0.00    -0.454 C  
HETATM    2  C   UNL     1     -10.805  19.310  67.728  1.00  0.00    -0.308 C  
ENDROOT
BRANCH   2   3
HETATM    3  N   UNL     1     -10.610  17.909  67.364  1.00  0.00    -0.383 N  
HETATM    4  C   UNL     1     -10.448  16.958  68.349  1.00  0.00    -0.355 C  
HETATM    5  C   UNL     1     -10.309  15.668  68.042  1.00  0.00    -0.246 C  
HETATM    6  C   UNL     1     -10.387  15.384  66.605  1.00  0.00    -0.280 C  
HETATM    7  N   UNL     1     -10.560  16.245  65.675  1.00  0.00    -0.364 N  
HETATM    8  O   UNL     1     -10.842  18.419  65.138  1.00  0.00    -0.630 OA 
HETATM    9  C   UNL     1     -10.679  17.566  66.007  1.00  0.00    -0.116 C  
HETATM   10  H   UNL     1     -10.609  15.950  64.699  1.00  0.00     0.000 HD 
BRANCH   6  11
HETATM   11  N   UNL     1     -10.247  14.028  66.295  1.00  0.00    -0.288 N  
HETATM   12  H   UNL     1      -9.314  13.622  66.359  1.00  0.00     0.000 HD 
BRANCH  11  13
HETATM   13  S   UNL     1     -11.501  13.023  65.829  1.00  0.00    -0.349 S  
HETATM   14  O   UNL     1     -12.582  13.333  66.745  1.00  0.00    -0.215 OA 
HETATM   15  O   UNL     1     -11.692  13.157  64.401  1.00  0.00    -0.344 OA 
BRANCH  13  16
HETATM   16  C   UNL     1     -10.927  11.390  66.202  1.00  0.00    -0.236 A  
HETATM   17  C   UNL     1     -10.121  10.708  65.290  1.00  0.00    -0.363 A  
HETATM   18  C   UNL     1      -9.663   9.425  65.604  1.00  0.00    -0.336 A  
HETATM   19  C   UNL     1     -10.036   8.803  66.801  1.00  0.00    -0.268 A  
HETATM   20  N   UNL     1      -9.491   7.562  67.151  1.00  0.00    -0.146 NA 
HETATM   21  C   UNL     1     -10.768   9.535  67.739  1.00  0.00    -0.302 A  
HETATM   22  C   UNL     1     -11.217  10.823  67.444  1.00  0.00    -0.315 A  
HETATM   23  H2  UNL     1      -8.474   7.642  67.134  1.00  0.00     0.000 HD 
HETATM   24  H1  UNL     1      -9.762   7.109  68.024  1.00  0.00     0.000 HD 
ENDBRANCH  13  16
ENDBRANCH  11  13
ENDBRANCH   6  11
ENDBRANCH   2   3
TORSDOF 4
ENDMDL
MODEL      104
REMARK 921   NORMALIZED FREE ENERGY PREDICTED BY IDOCK:   -4.79 KCAL/MOL
REMARK 922        TOTAL FREE ENERGY PREDICTED BY IDOCK:   -6.73 KCAL/MOL
REMARK 923 INTER-LIGAND FREE ENERGY PREDICTED BY IDOCK:   -6.05 KCAL/MOL
REMARK 924 INTRA-LIGAND FREE ENERGY PREDICTED BY IDOCK:   -0.68 KCAL/MOL
REMARK 927      BINDING AFFINITY PREDICTED BY RF-SCORE:    0.00 PKD
ROOT
HETATM    1  C   UNL     1     -10.085   8.177  67.322  1.00  0.00    -0.309 C  
HETATM    2  C   UNL     1     -10.192   8.872  68.671  1.00  0.00    -0.200 C  
ENDROOT
BRANCH   2   3
HETATM    3  N   UNL     1     -10.464  10.299  68.518  1.00  0.00    -0.181 N  
HETATM    4  C   UNL     1     -10.333  10.896  67.282  1.00  0.00    -0.216 C  
HETATM    5  C   UNL     1     -10.615  12.188  67.110  1.00  0.00    -0.254 C  
HETATM    6  C   UNL     1     -11.098  12.860  68.321  1.00  0.00    -0.264 C  
HETATM    7  N   UNL     1     -11.250  12.323  69.471  1.00  0.00    -0.457 N  
HETATM    8  O   UNL     1     -11.067  10.457  70.728  1.00  0.00    -0.304 OA 
HETATM    9  C   UNL     1     -10.936  11.003  69.634  1.00  0.00    -0.225 C  
HETATM   10  H   UNL     1     -11.602  12.873  70.256  1.00  0.00     0.000 HD 
BRANCH   6  11
HETATM   11  N   UNL     1     -11.397  14.212  68.126  1.00  0.00    -0.275 N  
HETATM   12  H   UNL     1     -11.821  14.481  67.239  1.00  0.00     0.000 HD 
BRANCH  11  13
HETATM   13  S   UNL     1     -11.108  15.422  69.247  1.00  0.00    -0.305 S  
HETATM   14  O   UNL     1     -12.401  15.682  69.849  1.00  0.00    -0.354 OA 
HETATM   15  O   UNL     1      -9.984  15.029  70.069  1.00  0.00    -0.104 OA 
BRANCH  13  16
HETATM   16  C   UNL     1     -10.670  16.835  68.274  1.00  0.00    -0.364 A  
HETATM   17  C   UNL     1     -10.346  18.040  68.900  1.00  0.00    -0.244 A  
HETATM   18  C   UNL     1      -9.989  19.144  68.120  1.00  0.00    -0.468 A  
HETATM   19  C   UNL     1      -9.991  19.066  66.723  1.00  0.00    -0.360 A  
HETATM   20  N   UNL     1      -9.534  20.144  65.955  1.00  0.00    -0.603 NA 
HETATM   21  C   UNL     1     -10.230  17.830  66.119  1.00  0.00    -0.339 A  
HETATM   22  C   UNL     1     -10.573  16.716  66.887  1.00  0.00    -0.229 A  
HETATM   23  H2  UNL     1      -8.590  20.379  66.262  1.00  0.00     0.000 HD 
HETATM   24  H1  UNL     1      -9.536  20.088  64.936  1.00  0.00     0.000 HD 
ENDBRANCH  13  16
ENDBRANCH  11  13
ENDBRANCH   6  11
ENDBRANCH   2   3
TORSDOF 4
ENDMDL
MODEL      105
REMARK 921   NORMALIZED FREE ENERGY PREDICTED BY IDOCK:   -4.76 KCAL/MOL
REMARK 922        TOTAL FREE ENERGY PREDICTED BY IDOCK:   -6.69 KCAL/MOL
REMARK 923 INTER-LIGAND FREE ENERGY PREDICTED BY IDOCK:   -6.08 KCAL/MOL
REMARK 924 INTRA-LIGAND FREE ENERGY PREDICTED BY IDOCK:   -0.62 KCAL/MOL
REMARK 927      BINDING AFFINITY PREDICTED BY RF-SCORE:    0.00 PKD
ROOT
HETATM    1  C   UNL     1      -9.826   5.260  73.833  1.00  0.00    -0.178 C  
HETATM    2  C   UNL     1     -10.410   6.639  74.104  1.00  0.00    -0.321 C  
ENDROOT
BRANCH   2   3
HETATM    3  N   UNL     1     -10.655   7.369  72.863  1.00  0.00    -0.287 N  
HETATM    4  C   UNL     1     -11.798   7.120  72.133  1.00  0.00    -0.277 C  
HETATM    5  C   UNL     1     -12.063   7.803  71.018  1.00  0.00    -0.264 C  
HETATM    6  C   UNL     1     -11.067   8.831  70.697  1.00  0.00    -0.246 C  
HETATM    7  N   UNL     1     -10.013   9.097  71.370  1.00  0.00    -0.314 N  
HETATM    8  O   UNL     1      -8.740   8.599  73.166  1.00  0.00    -0.371 OA 
HETATM    9  C   UNL     1      -9.747   8.371  72.498  1.00  0.00    -0.289 C  
HETATM   10  H   UNL     1      -9.380   9.839  71.070  1.00  0.00     0.000 HD 
BRANCH   6  11
HETATM   11  N   UNL     1     -11.359   9.545  69.530  1.00  0.00    -0.438 N  
HETATM   12  H   UNL     1     -12.259  10.022  69.480  1.00  0.00     0.000 HD 
BRANCH  11  13
HETATM   13  S   UNL     1     -10.336   9.674  68.211  1.00  0.00    -0.214 S  
HETATM   14  O   UNL     1      -9.042   9.997  68.779  1.00  0.00    -0.136 OA 
HETATM   15  O   UNL     1     -10.499   8.496  67.386  1.00  0.00    -0.262 OA 
BRANCH  13  16
HETATM   16  C   UNL     1     -10.916  11.099  67.336  1.00  0.00    -0.290 A  
HETATM   17  C   UNL     1     -11.576  12.120  68.022  1.00  0.00    -0.411 A  
HETATM   18  C   UNL     1     -12.015  13.246  67.321  1.00  0.00    -0.393 A  
HETATM   19  C   UNL     1     -11.838  13.343  65.936  1.00  0.00    -0.376 A  
HETATM   20  N   UNL     1     -12.190  14.517  65.259  1.00  0.00    -0.354 NA 
HETATM   21  C   UNL     1     -11.098  12.356  65.282  1.00  0.00    -0.342 A  
HETATM   22  C   UNL     1     -10.639  11.234  65.974  1.00  0.00    -0.314 A  
HETATM   23  H2  UNL     1     -11.705  15.299  65.700  1.00  0.00     0.000 HD 
HETATM   24  H1  UNL     1     -12.060  14.588  64.250  1.00  0.00     0.000 HD 
ENDBRANCH  13  16
ENDBRANCH  11  13
ENDBRANCH   6  11
ENDBRANCH   2   3
TORSDOF 4
ENDMDL
MODEL      106
REMARK 921   NORMALIZED FREE ENERGY PREDICTED BY IDOCK:   -4.76 KCAL/MOL
REMARK 922        TOTAL FREE ENERGY PREDICTED BY IDOCK:   -6.69 KCAL/MOL
REMARK 923 INTER-LIGAND FREE ENERGY PREDICTED BY IDOCK:   -6.02 KCAL/MOL
REMARK 924 INTRA-LIGAND FREE ENERGY PREDICTED BY IDOCK:   -0.67 KCAL/MOL
REMARK 927      BINDING AFFINITY PREDICTED BY RF-SCORE:    0.00 PKD
ROOT
HETATM    1  C   UNL     1      -7.413   5.446  69.769  1.00  0.00    -0.066 C  
HETATM    2  C   UNL     1      -8.158   5.557  68.447  1.00  0.00    -0.099 C  
ENDROOT
BRANCH   2   3
HETATM    3  N   UNL     1      -9.064   6.702  68.438  1.00  0.00    -0.126 N  
HETATM    4  C   UNL     1      -9.781   7.021  69.571  1.00  0.00    -0.160 C  
HETATM    5  C   UNL     1     -10.584   8.086  69.599  1.00  0.00    -0.223 C  
HETATM    6  C   UNL     1     -10.584   8.867  68.358  1.00  0.00    -0.143 C  
HETATM    7  N   UNL     1      -9.910   8.605  67.302  1.00  0.00    -0.180 N  
HETATM    8  O   UNL     1      -8.451   7.215  66.285  1.00  0.00    -0.124 OA 
HETATM    9  C   UNL     1      -9.109   7.497  67.285  1.00  0.00    -0.124 C  
HETATM   10  H   UNL     1      -9.970   9.214  66.486  1.00  0.00     0.000 HD 
BRANCH   6  11
HETATM   11  N   UNL     1     -11.424   9.983  68.401  1.00  0.00    -0.528 N  
HETATM   12  H   UNL     1     -12.430   9.819  68.416  1.00  0.00     0.000 HD 
BRANCH  11  13
HETATM   13  S   UNL     1     -10.896  11.572  68.431  1.00  0.00    -0.228 S  
HETATM   14  O   UNL     1     -11.713  12.212  69.442  1.00  0.00    -0.291 OA 
HETATM   15  O   UNL     1      -9.453  11.575  68.547  1.00  0.00    -0.185 OA 
BRANCH  13  16
HETATM   16  C   UNL     1     -11.369  12.228  66.856  1.00  0.00    -0.333 A  
HETATM   17  C   UNL     1     -12.153  13.380  66.787  1.00  0.00    -0.419 A  
HETATM   18  C   UNL     1     -12.507  13.895  65.537  1.00  0.00    -0.541 A  
HETATM   19  C   UNL     1     -12.119  13.249  64.358  1.00  0.00    -0.415 A  
HETATM   20  N   UNL     1     -12.392  13.827  63.113  1.00  0.00    -1.106 NA 
HETATM   21  C   UNL     1     -11.262  12.150  64.445  1.00  0.00    -0.400 A  
HETATM   22  C   UNL     1     -10.887  11.635  65.687  1.00  0.00    -0.330 A  
HETATM   23  H2  UNL     1     -12.002  14.769  63.104  1.00  0.00     0.000 HD 
HETATM   24  H1  UNL     1     -12.110  13.355  62.253  1.00  0.00     0.000 HD 
ENDBRANCH  13  16
ENDBRANCH  11  13
ENDBRANCH   6  11
ENDBRANCH   2   3
TORSDOF 4
ENDMDL
MODEL      107
REMARK 921   NORMALIZED FREE ENERGY PREDICTED BY IDOCK:   -4.75 KCAL/MOL
REMARK 922        TOTAL FREE ENERGY PREDICTED BY IDOCK:   -6.68 KCAL/MOL
REMARK 923 INTER-LIGAND FREE ENERGY PREDICTED BY IDOCK:   -5.97 KCAL/MOL
REMARK 924 INTRA-LIGAND FREE ENERGY PREDICTED BY IDOCK:   -0.71 KCAL/MOL
REMARK 927      BINDING AFFINITY PREDICTED BY RF-SCORE:    0.00 PKD
ROOT
HETATM    1  C   UNL     1     -12.257  12.721  63.336  1.00  0.00    -0.594 C  
HETATM    2  C   UNL     1     -11.361  11.959  64.301  1.00  0.00    -0.353 C  
ENDROOT
BRANCH   2   3
HETATM    3  N   UNL     1     -10.762  12.849  65.291  1.00  0.00    -0.289 N  
HETATM    4  C   UNL     1     -11.208  14.147  65.409  1.00  0.00    -0.325 C  
HETATM    5  C   UNL     1     -10.704  14.966  66.334  1.00  0.00    -0.316 C  
HETATM    6  C   UNL     1      -9.696  14.343  67.198  1.00  0.00    -0.248 C  
HETATM    7  N   UNL     1      -9.283  13.135  67.124  1.00  0.00    -0.219 N  
HETATM    8  O   UNL     1      -9.417  11.151  66.055  1.00  0.00    -0.193 OA 
HETATM    9  C   UNL     1      -9.795  12.317  66.156  1.00  0.00    -0.243 C  
HETATM   10  H   UNL     1      -8.580  12.787  67.777  1.00  0.00     0.000 HD 
BRANCH   6  11
HETATM   11  N   UNL     1      -9.180  15.208  68.167  1.00  0.00    -0.182 N  
HETATM   12  H   UNL     1      -9.833  15.613  68.836  1.00  0.00     0.000 HD 
BRANCH  11  13
HETATM   13  S   UNL     1      -7.565  15.626  68.307  1.00  0.00    -0.123 S  
HETATM   14  O   UNL     1      -7.285  15.544  69.728  1.00  0.00    -0.186 OA 
HETATM   15  O   UNL     1      -6.802  14.836  67.365  1.00  0.00    -0.203 OA 
BRANCH  13  16
HETATM   16  C   UNL     1      -7.504  17.333  67.842  1.00  0.00    -0.182 A  
HETATM   17  C   UNL     1      -7.469  18.324  68.824  1.00  0.00    -0.297 A  
HETATM   18  C   UNL     1      -7.407  19.667  68.442  1.00  0.00    -0.354 A  
HETATM   19  C   UNL     1      -7.420  20.030  67.090  1.00  0.00    -0.271 A  
HETATM   20  N   UNL     1      -7.256  21.369  66.717  1.00  0.00    -0.802 NA 
HETATM   21  C   UNL     1      -7.365  19.024  66.123  1.00  0.00    -0.294 A  
HETATM   22  C   UNL     1      -7.410  17.678  66.492  1.00  0.00    -0.296 A  
HETATM   23  H2  UNL     1      -6.391  21.714  67.133  1.00  0.00     0.000 HD 
HETATM   24  H1  UNL     1      -7.265  21.634  65.732  1.00  0.00     0.000 HD 
ENDBRANCH  13  16
ENDBRANCH  11  13
ENDBRANCH   6  11
ENDBRANCH   2   3
TORSDOF 4
ENDMDL
MODEL      108
REMARK 921   NORMALIZED FREE ENERGY PREDICTED BY IDOCK:   -4.75 KCAL/MOL
REMARK 922        TOTAL FREE ENERGY PREDICTED BY IDOCK:   -6.68 KCAL/MOL
REMARK 923 INTER-LIGAND FREE ENERGY PREDICTED BY IDOCK:   -6.07 KCAL/MOL
REMARK 924 INTRA-LIGAND FREE ENERGY PREDICTED BY IDOCK:   -0.60 KCAL/MOL
REMARK 927      BINDING AFFINITY PREDICTED BY RF-SCORE:    0.00 PKD
ROOT
HETATM    1  C   UNL     1      -8.982   6.988  68.099  1.00  0.00    -0.127 C  
HETATM    2  C   UNL     1      -8.612   7.835  69.308  1.00  0.00    -0.138 C  
ENDROOT
BRANCH   2   3
HETATM    3  N   UNL     1      -9.302   9.121  69.291  1.00  0.00    -0.154 N  
HETATM    4  C   UNL     1     -10.591   9.217  69.772  1.00  0.00    -0.231 C  
HETATM    5  C   UNL     1     -11.226  10.389  69.804  1.00  0.00    -0.353 C  
HETATM    6  C   UNL     1     -10.420  11.520  69.332  1.00  0.00     0.049 C  
HETATM    7  N   UNL     1      -9.216  11.460  68.904  1.00  0.00    -0.382 N  
HETATM    8  O   UNL     1      -7.433  10.154  68.449  1.00  0.00    -0.083 OA 
HETATM    9  C   UNL     1      -8.588  10.247  68.858  1.00  0.00    -0.150 C  
HETATM   10  H   UNL     1      -8.732  12.306  68.602  1.00  0.00     0.000 HD 
BRANCH   6  11
HETATM   11  N   UNL     1     -11.094  12.744  69.376  1.00  0.00    -0.450 N  
HETATM   12  H   UNL     1     -11.973  12.781  69.892  1.00  0.00     0.000 HD 
BRANCH  11  13
HETATM   13  S   UNL     1     -10.562  14.152  68.645  1.00  0.00    -0.251 S  
HETATM   14  O   UNL     1     -11.327  15.208  69.279  1.00  0.00    -0.265 OA 
HETATM   15  O   UNL     1      -9.116  14.172  68.685  1.00  0.00    -0.192 OA 
BRANCH  13  16
HETATM   16  C   UNL     1     -11.110  14.018  66.967  1.00  0.00    -0.304 A  
HETATM   17  C   UNL     1     -12.087  13.082  66.625  1.00  0.00    -0.386 A  
HETATM   18  C   UNL     1     -12.521  12.996  65.299  1.00  0.00    -0.555 A  
HETATM   19  C   UNL     1     -11.959  13.808  64.306  1.00  0.00    -0.443 A  
HETATM   20  N   UNL     1     -12.470  13.787  63.003  1.00  0.00    -1.000 NA 
HETATM   21  C   UNL     1     -11.049  14.798  64.683  1.00  0.00    -0.337 A  
HETATM   22  C   UNL     1     -10.620  14.905  66.007  1.00  0.00    -0.321 A  
HETATM   23  H2  UNL     1     -13.471  13.981  63.048  1.00  0.00     0.000 HD 
HETATM   24  H1  UNL     1     -12.061  14.378  62.280  1.00  0.00     0.000 HD 
ENDBRANCH  13  16
ENDBRANCH  11  13
ENDBRANCH   6  11
ENDBRANCH   2   3
TORSDOF 4
ENDMDL
MODEL      109
REMARK 921   NORMALIZED FREE ENERGY PREDICTED BY IDOCK:   -4.73 KCAL/MOL
REMARK 922        TOTAL FREE ENERGY PREDICTED BY IDOCK:   -6.66 KCAL/MOL
REMARK 923 INTER-LIGAND FREE ENERGY PREDICTED BY IDOCK:   -5.95 KCAL/MOL
REMARK 924 INTRA-LIGAND FREE ENERGY PREDICTED BY IDOCK:   -0.71 KCAL/MOL
REMARK 927      BINDING AFFINITY PREDICTED BY RF-SCORE:    0.00 PKD
ROOT
HETATM    1  C   UNL     1     -11.285  15.500  64.521  1.00  0.00    -0.327 C  
HETATM    2  C   UNL     1     -12.279  14.352  64.429  1.00  0.00    -0.458 C  
ENDROOT
BRANCH   2   3
HETATM    3  N   UNL     1     -11.612  13.057  64.523  1.00  0.00    -0.342 N  
HETATM    4  C   UNL     1     -11.014  12.508  63.409  1.00  0.00    -0.333 C  
HETATM    5  C   UNL     1     -10.363  11.346  63.481  1.00  0.00    -0.476 C  
HETATM    6  C   UNL     1     -10.322  10.767  64.828  1.00  0.00    -0.310 C  
HETATM    7  N   UNL     1     -10.849  11.268  65.881  1.00  0.00    -0.241 N  
HETATM    8  O   UNL     1     -12.051  12.956  66.775  1.00  0.00    -0.399 OA 
HETATM    9  C   UNL     1     -11.530  12.449  65.783  1.00  0.00    -0.370 C  
HETATM   10  H   UNL     1     -10.761  10.793  66.779  1.00  0.00     0.000 HD 
BRANCH   6  11
HETATM   11  N   UNL     1      -9.632   9.553  64.892  1.00  0.00    -0.446 N  
HETATM   12  H   UNL     1      -9.798   8.874  64.150  1.00  0.00     0.000 HD 
BRANCH  11  13
HETATM   13  S   UNL     1      -8.553   9.133  66.100  1.00  0.00    -0.142 S  
HETATM   14  O   UNL     1      -7.695   8.132  65.497  1.00  0.00    -0.086 OA 
HETATM   15  O   UNL     1      -7.985  10.345  66.651  1.00  0.00    -0.113 OA 
BRANCH  13  16
HETATM   16  C   UNL     1      -9.545   8.329  67.326  1.00  0.00    -0.166 A  
HETATM   17  C   UNL     1      -9.579   8.823  68.631  1.00  0.00    -0.159 A  
HETATM   18  C   UNL     1     -10.377   8.185  69.585  1.00  0.00    -0.221 A  
HETATM   19  C   UNL     1     -11.110   7.039  69.258  1.00  0.00    -0.127 A  
HETATM   20  N   UNL     1     -11.984   6.469  70.191  1.00  0.00    -0.549 NA 
HETATM   21  C   UNL     1     -11.133   6.613  67.928  1.00  0.00    -0.310 A  
HETATM   22  C   UNL     1     -10.353   7.250  66.962  1.00  0.00    -0.376 A  
HETATM   23  H2  UNL     1     -12.637   7.189  70.500  1.00  0.00     0.000 HD 
HETATM   24  H1  UNL     1     -12.518   5.633  69.953  1.00  0.00     0.000 HD 
ENDBRANCH  13  16
ENDBRANCH  11  13
ENDBRANCH   6  11
ENDBRANCH   2   3
TORSDOF 4
ENDMDL
MODEL      110
REMARK 921   NORMALIZED FREE ENERGY PREDICTED BY IDOCK:   -4.73 KCAL/MOL
REMARK 922        TOTAL FREE ENERGY PREDICTED BY IDOCK:   -6.66 KCAL/MOL
REMARK 923 INTER-LIGAND FREE ENERGY PREDICTED BY IDOCK:   -5.87 KCAL/MOL
REMARK 924 INTRA-LIGAND FREE ENERGY PREDICTED BY IDOCK:   -0.79 KCAL/MOL
REMARK 927      BINDING AFFINITY PREDICTED BY RF-SCORE:    0.00 PKD
ROOT
HETATM    1  C   UNL     1     -11.447   6.212  72.498  1.00  0.00    -0.318 C  
HETATM    2  C   UNL     1     -12.379   6.985  71.577  1.00  0.00    -0.379 C  
ENDROOT
BRANCH   2   3
HETATM    3  N   UNL     1     -11.691   8.103  70.936  1.00  0.00    -0.273 N  
HETATM    4  C   UNL     1     -10.836   7.871  69.880  1.00  0.00    -0.221 C  
HETATM    5  C   UNL     1     -10.228   8.879  69.254  1.00  0.00    -0.214 C  
HETATM    6  C   UNL     1     -10.591  10.205  69.765  1.00  0.00    -0.260 C  
HETATM    7  N   UNL     1     -11.399  10.447  70.727  1.00  0.00    -0.347 N  
HETATM    8  O   UNL     1     -12.774   9.598  72.302  1.00  0.00    -0.353 OA 
HETATM    9  C   UNL     1     -11.995   9.400  71.371  1.00  0.00    -0.371 C  
HETATM   10  H   UNL     1     -11.595  11.408  71.008  1.00  0.00     0.000 HD 
BRANCH   6  11
HETATM   11  N   UNL     1      -9.953  11.254  69.096  1.00  0.00    -0.410 N  
HETATM   12  H   UNL     1      -9.005  11.493  69.385  1.00  0.00     0.000 HD 
BRANCH  11  13
HETATM   13  S   UNL     1     -10.634  12.146  67.854  1.00  0.00    -0.214 S  
HETATM   14  O   UNL     1     -12.047  11.821  67.900  1.00  0.00    -0.592 OA 
HETATM   15  O   UNL     1     -10.196  13.519  67.980  1.00  0.00    -0.230 OA 
BRANCH  13  16
HETATM   16  C   UNL     1      -9.963  11.439  66.377  1.00  0.00    -0.214 A  
HETATM   17  C   UNL     1      -8.741  10.765  66.418  1.00  0.00    -0.163 A  
HETATM   18  C   UNL     1      -8.230  10.200  65.247  1.00  0.00    -0.157 A  
HETATM   19  C   UNL     1      -8.906  10.335  64.029  1.00  0.00    -0.221 A  
HETATM   20  N   UNL     1      -8.438   9.680  62.884  1.00  0.00    -0.165 NA 
HETATM   21  C   UNL     1     -10.168  10.934  64.025  1.00  0.00    -0.422 A  
HETATM   22  C   UNL     1     -10.698  11.488  65.191  1.00  0.00    -0.348 A  
HETATM   23  H2  UNL     1      -8.354   8.685  63.095  1.00  0.00     0.000 HD 
HETATM   24  H1  UNL     1      -8.931   9.779  61.997  1.00  0.00     0.000 HD 
ENDBRANCH  13  16
ENDBRANCH  11  13
ENDBRANCH   6  11
ENDBRANCH   2   3
TORSDOF 4
ENDMDL
MODEL      111
REMARK 921   NORMALIZED FREE ENERGY PREDICTED BY IDOCK:   -4.68 KCAL/MOL
REMARK 922        TOTAL FREE ENERGY PREDICTED BY IDOCK:   -6.60 KCAL/MOL
REMARK 923 INTER-LIGAND FREE ENERGY PREDICTED BY IDOCK:   -6.08 KCAL/MOL
REMARK 924 INTRA-LIGAND FREE ENERGY PREDICTED BY IDOCK:   -0.52 KCAL/MOL
REMARK 927      BINDING AFFINITY PREDICTED BY RF-SCORE:    0.00 PKD
ROOT
HETATM    1  C   UNL     1     -10.388   5.230  69.867  1.00  0.00    -0.374 C  
HETATM    2  C   UNL     1      -9.825   6.147  70.943  1.00  0.00    -0.182 C  
ENDROOT
BRANCH   2   3
HETATM    3  N   UNL     1      -9.874   7.547  70.532  1.00  0.00    -0.183 N  
HETATM    4  C   UNL     1      -9.412   7.915  69.286  1.00  0.00    -0.152 C  
HETATM    5  C   UNL     1      -9.483   9.181  68.873  1.00  0.00    -0.151 C  
HETATM    6  C   UNL     1     -10.119  10.088  69.835  1.00  0.00    -0.246 C  
HETATM    7  N   UNL     1     -10.576   9.767  70.985  1.00  0.00    -0.306 N  
HETATM    8  O   UNL     1     -10.900   8.127  72.502  1.00  0.00    -0.314 OA 
HETATM    9  C   UNL     1     -10.474   8.468  71.400  1.00  0.00    -0.237 C  
HETATM   10  H   UNL     1     -11.010  10.469  71.584  1.00  0.00     0.000 HD 
BRANCH   6  11
HETATM   11  N   UNL     1     -10.194  11.411  69.388  1.00  0.00    -0.433 N  
HETATM   12  H   UNL     1      -9.318  11.899  69.204  1.00  0.00     0.000 HD 
BRANCH  11  13
HETATM   13  S   UNL     1     -11.620  12.250  69.133  1.00  0.00    -0.334 S  
HETATM   14  O   UNL     1     -12.465  11.327  68.402  1.00  0.00    -0.403 OA 
HETATM   15  O   UNL     1     -12.060  12.803  70.396  1.00  0.00    -0.363 OA 
BRANCH  13  16
HETATM   16  C   UNL     1     -11.173  13.563  68.032  1.00  0.00    -0.271 A  
HETATM   17  C   UNL     1     -10.825  13.278  66.711  1.00  0.00    -0.289 A  
HETATM   18  C   UNL     1     -10.488  14.325  65.849  1.00  0.00    -0.315 A  
HETATM   19  C   UNL     1     -10.456  15.648  66.305  1.00  0.00    -0.306 A  
HETATM   20  N   UNL     1     -10.217  16.698  65.410  1.00  0.00    -0.616 NA 
HETATM   21  C   UNL     1     -10.893  15.922  67.603  1.00  0.00    -0.312 A  
HETATM   22  C   UNL     1     -11.248  14.887  68.469  1.00  0.00    -0.292 A  
HETATM   23  H2  UNL     1     -10.898  16.636  64.653  1.00  0.00     0.000 HD 
HETATM   24  H1  UNL     1     -10.194  17.662  65.742  1.00  0.00     0.000 HD 
ENDBRANCH  13  16
ENDBRANCH  11  13
ENDBRANCH   6  11
ENDBRANCH   2   3
TORSDOF 4
ENDMDL
MODEL      112
REMARK 921   NORMALIZED FREE ENERGY PREDICTED BY IDOCK:   -4.65 KCAL/MOL
REMARK 922        TOTAL FREE ENERGY PREDICTED BY IDOCK:   -6.56 KCAL/MOL
REMARK 923 INTER-LIGAND FREE ENERGY PREDICTED BY IDOCK:   -5.85 KCAL/MOL
REMARK 924 INTRA-LIGAND FREE ENERGY PREDICTED BY IDOCK:   -0.71 KCAL/MOL
REMARK 927      BINDING AFFINITY PREDICTED BY RF-SCORE:    0.00 PKD
ROOT
HETATM    1  C   UNL     1      -7.564   7.444  68.261  1.00  0.00    -0.114 C  
HETATM    2  C   UNL     1      -9.010   7.911  68.335  1.00  0.00    -0.133 C  
ENDROOT
BRANCH   2   3
HETATM    3  N   UNL     1      -9.245   9.059  67.463  1.00  0.00    -0.135 N  
HETATM    4  C   UNL     1      -9.261   8.893  66.095  1.00  0.00    -0.217 C  
HETATM    5  C   UNL     1      -9.515   9.919  65.281  1.00  0.00    -0.331 C  
HETATM    6  C   UNL     1      -9.804  11.177  65.978  1.00  0.00    -0.228 C  
HETATM    7  N   UNL     1      -9.819  11.350  67.245  1.00  0.00    -0.188 N  
HETATM    8  O   UNL     1      -9.537  10.427  69.285  1.00  0.00    -0.207 OA 
HETATM    9  C   UNL     1      -9.535  10.292  68.063  1.00  0.00    -0.146 C  
HETATM   10  H   UNL     1     -10.039  12.265  67.639  1.00  0.00     0.000 HD 
BRANCH   6  11
HETATM   11  N   UNL     1     -10.075  12.243  65.115  1.00  0.00    -0.289 N  
HETATM   12  H   UNL     1      -9.357  12.496  64.436  1.00  0.00     0.000 HD 
BRANCH  11  13
HETATM   13  S   UNL     1     -11.492  13.133  65.116  1.00  0.00    -0.311 S  
HETATM   14  O   UNL     1     -11.690  13.512  63.730  1.00  0.00    -0.396 OA 
HETATM   15  O   UNL     1     -12.508  12.379  65.820  1.00  0.00    -0.615 OA 
BRANCH  13  16
HETATM   16  C   UNL     1     -11.098  14.598  66.027  1.00  0.00    -0.332 A  
HETATM   17  C   UNL     1     -10.547  15.700  65.372  1.00  0.00    -0.436 A  
HETATM   18  C   UNL     1     -10.253  16.856  66.102  1.00  0.00    -0.352 A  
HETATM   19  C   UNL     1     -10.467  16.906  67.484  1.00  0.00    -0.328 A  
HETATM   20  N   UNL     1     -10.266  18.099  68.188  1.00  0.00    -0.370 NA 
HETATM   21  C   UNL     1     -11.101  15.827  68.105  1.00  0.00    -0.341 A  
HETATM   22  C   UNL     1     -11.414  14.674  67.385  1.00  0.00    -0.384 A  
HETATM   23  H2  UNL     1     -10.829  18.829  67.749  1.00  0.00     0.000 HD 
HETATM   24  H1  UNL     1     -10.422  18.136  69.195  1.00  0.00     0.000 HD 
ENDBRANCH  13  16
ENDBRANCH  11  13
ENDBRANCH   6  11
ENDBRANCH   2   3
TORSDOF 4
ENDMDL
MODEL      113
REMARK 921   NORMALIZED FREE ENERGY PREDICTED BY IDOCK:   -4.65 KCAL/MOL
REMARK 922        TOTAL FREE ENERGY PREDICTED BY IDOCK:   -6.56 KCAL/MOL
REMARK 923 INTER-LIGAND FREE ENERGY PREDICTED BY IDOCK:   -6.01 KCAL/MOL
REMARK 924 INTRA-LIGAND FREE ENERGY PREDICTED BY IDOCK:   -0.55 KCAL/MOL
REMARK 927      BINDING AFFINITY PREDICTED BY RF-SCORE:    0.00 PKD
ROOT
HETATM    1  C   UNL     1     -11.112   5.379  73.234  1.00  0.00    -0.352 C  
HETATM    2  C   UNL     1     -10.938   5.443  71.723  1.00  0.00    -0.128 C  
ENDROOT
BRANCH   2   3
HETATM    3  N   UNL     1     -10.904   6.823  71.248  1.00  0.00    -0.227 N  
HETATM    4  C   UNL     1     -10.672   7.852  72.135  1.00  0.00    -0.257 C  
HETATM    5  C   UNL     1     -10.596   9.116  71.716  1.00  0.00    -0.383 C  
HETATM    6  C   UNL     1     -10.740   9.275  70.266  1.00  0.00    -0.243 C  
HETATM    7  N   UNL     1     -10.933   8.335  69.420  1.00  0.00    -0.431 N  
HETATM    8  O   UNL     1     -11.218   6.122  69.084  1.00  0.00    -0.386 OA 
HETATM    9  C   UNL     1     -11.029   7.048  69.870  1.00  0.00    -0.263 C  
HETATM   10  H   UNL     1     -11.014   8.543  68.424  1.00  0.00     0.000 HD 
BRANCH   6  11
HETATM   11  N   UNL     1     -10.653  10.603  69.838  1.00  0.00    -0.433 N  
HETATM   12  H   UNL     1      -9.740  11.055  69.880  1.00  0.00     0.000 HD 
BRANCH  11  13
HETATM   13  S   UNL     1     -11.939  11.505  69.261  1.00  0.00    -0.304 S  
HETATM   14  O   UNL     1     -12.137  11.038  67.903  1.00  0.00    -0.600 OA 
HETATM   15  O   UNL     1     -13.018  11.435  70.223  1.00  0.00    -0.010 OA 
BRANCH  13  16
HETATM   16  C   UNL     1     -11.321  13.162  69.179  1.00  0.00    -0.281 A  
HETATM   17  C   UNL     1     -10.123  13.428  68.516  1.00  0.00    -0.208 A  
HETATM   18  C   UNL     1      -9.653  14.743  68.447  1.00  0.00    -0.213 A  
HETATM   19  C   UNL     1     -10.349  15.787  69.068  1.00  0.00    -0.223 A  
HETATM   20  N   UNL     1      -9.926  17.111  68.908  1.00  0.00    -0.300 NA 
HETATM   21  C   UNL     1     -11.590  15.515  69.650  1.00  0.00    -0.359 A  
HETATM   22  C   UNL     1     -12.077  14.209  69.711  1.00  0.00    -0.409 A  
HETATM   23  H2  UNL     1      -9.872  17.312  67.909  1.00  0.00     0.000 HD 
HETATM   24  H1  UNL     1     -10.433  17.872  69.361  1.00  0.00     0.000 HD 
ENDBRANCH  13  16
ENDBRANCH  11  13
ENDBRANCH   6  11
ENDBRANCH   2   3
TORSDOF 4
ENDMDL
MODEL      114
REMARK 921   NORMALIZED FREE ENERGY PREDICTED BY IDOCK:   -4.64 KCAL/MOL
REMARK 922        TOTAL FREE ENERGY PREDICTED BY IDOCK:   -6.55 KCAL/MOL
REMARK 923 INTER-LIGAND FREE ENERGY PREDICTED BY IDOCK:   -5.85 KCAL/MOL
REMARK 924 INTRA-LIGAND FREE ENERGY PREDICTED BY IDOCK:   -0.69 KCAL/MOL
REMARK 927      BINDING AFFINITY PREDICTED BY RF-SCORE:    0.00 PKD
ROOT
HETATM    1  C   UNL     1      -6.890  19.514  69.413  1.00  0.00    -0.365 C  
HETATM    2  C   UNL     1      -8.169  19.706  68.612  1.00  0.00    -0.276 C  
ENDROOT
BRANCH   2   3
HETATM    3  N   UNL     1      -8.440  18.556  67.754  1.00  0.00    -0.267 N  
HETATM    4  C   UNL     1      -7.751  17.377  67.944  1.00  0.00    -0.199 C  
HETATM    5  C   UNL     1      -8.011  16.302  67.200  1.00  0.00    -0.220 C  
HETATM    6  C   UNL     1      -9.094  16.494  66.229  1.00  0.00    -0.313 C  
HETATM    7  N   UNL     1      -9.763  17.569  66.050  1.00  0.00    -0.196 N  
HETATM    8  O   UNL     1     -10.090  19.718  66.659  1.00  0.00    -0.390 OA 
HETATM    9  C   UNL     1      -9.468  18.668  66.808  1.00  0.00    -0.316 C  
HETATM   10  H   UNL     1     -10.507  17.606  65.352  1.00  0.00     0.000 HD 
BRANCH   6  11
HETATM   11  N   UNL     1      -9.361  15.359  65.459  1.00  0.00    -0.334 N  
HETATM   12  H   UNL     1      -8.601  14.978  64.897  1.00  0.00     0.000 HD 
BRANCH  11  13
HETATM   13  S   UNL     1     -10.841  14.578  65.395  1.00  0.00    -0.381 S  
HETATM   14  O   UNL     1     -11.740  15.543  64.792  1.00  0.00    -0.294 OA 
HETATM   15  O   UNL     1     -10.649  13.279  64.788  1.00  0.00    -0.341 OA 
BRANCH  13  16
HETATM   16  C   UNL     1     -11.315  14.381  67.089  1.00  0.00    -0.343 A  
HETATM   17  C   UNL     1     -11.862  15.457  67.790  1.00  0.00    -0.045 A  
HETATM   18  C   UNL     1     -12.244  15.283  69.124  1.00  0.00    -0.188 A  
HETATM   19  C   UNL     1     -12.049  14.058  69.773  1.00  0.00    -0.348 A  
HETATM   20  N   UNL     1     -12.528  13.864  71.074  1.00  0.00    -0.360 NA 
HETATM   21  C   UNL     1     -11.585  12.971  69.030  1.00  0.00    -0.367 A  
HETATM   22  C   UNL     1     -11.214  13.127  67.693  1.00  0.00    -0.313 A  
HETATM   23  H2  UNL     1     -13.526  14.077  71.083  1.00  0.00     0.000 HD 
HETATM   24  H1  UNL     1     -12.386  12.972  71.547  1.00  0.00     0.000 HD 
ENDBRANCH  13  16
ENDBRANCH  11  13
ENDBRANCH   6  11
ENDBRANCH   2   3
TORSDOF 4
ENDMDL
MODEL      115
REMARK 921   NORMALIZED FREE ENERGY PREDICTED BY IDOCK:   -4.64 KCAL/MOL
REMARK 922        TOTAL FREE ENERGY PREDICTED BY IDOCK:   -6.54 KCAL/MOL
REMARK 923 INTER-LIGAND FREE ENERGY PREDICTED BY IDOCK:   -5.85 KCAL/MOL
REMARK 924 INTRA-LIGAND FREE ENERGY PREDICTED BY IDOCK:   -0.69 KCAL/MOL
REMARK 927      BINDING AFFINITY PREDICTED BY RF-SCORE:    0.00 PKD
ROOT
HETATM    1  C   UNL     1      -6.895   4.409  71.856  1.00  0.00    -0.034 C  
HETATM    2  C   UNL     1      -7.610   5.285  70.838  1.00  0.00    -0.088 C  
ENDROOT
BRANCH   2   3
HETATM    3  N   UNL     1      -8.769   5.950  71.425  1.00  0.00    -0.132 N  
HETATM    4  C   UNL     1      -8.592   7.038  72.253  1.00  0.00    -0.121 C  
HETATM    5  C   UNL     1      -9.637   7.687  72.768  1.00  0.00    -0.253 C  
HETATM    6  C   UNL     1     -10.937   7.162  72.338  1.00  0.00    -0.251 C  
HETATM    7  N   UNL     1     -11.127   6.170  71.552  1.00  0.00    -0.276 N  
HETATM    8  O   UNL     1     -10.192   4.545  70.297  1.00  0.00    -0.219 OA 
HETATM    9  C   UNL     1     -10.044   5.504  71.052  1.00  0.00    -0.209 C  
HETATM   10  H   UNL     1     -12.074   5.881  71.303  1.00  0.00     0.000 HD 
BRANCH   6  11
HETATM   11  N   UNL     1     -12.025   7.854  72.878  1.00  0.00    -0.619 N  
HETATM   12  H   UNL     1     -12.040   7.998  73.888  1.00  0.00     0.000 HD 
BRANCH  11  13
HETATM   13  S   UNL     1     -13.304   8.464  71.987  1.00  0.00    -0.329 S  
HETATM   14  O   UNL     1     -13.551   7.465  70.966  1.00  0.00    -0.236 OA 
HETATM   15  O   UNL     1     -14.357   8.851  72.901  1.00  0.00    -0.548 OA 
BRANCH  13  16
HETATM   16  C   UNL     1     -12.647   9.902  71.191  1.00  0.00    -0.367 A  
HETATM   17  C   UNL     1     -13.062  11.172  71.591  1.00  0.00    -0.529 A  
HETATM   18  C   UNL     1     -12.525  12.299  70.962  1.00  0.00    -0.361 A  
HETATM   19  C   UNL     1     -11.608  12.167  69.913  1.00  0.00    -0.221 A  
HETATM   20  N   UNL     1     -11.000  13.300  69.359  1.00  0.00    -0.447 NA 
HETATM   21  C   UNL     1     -11.138  10.893  69.587  1.00  0.00    -0.328 A  
HETATM   22  C   UNL     1     -11.655   9.761  70.219  1.00  0.00    -0.283 A  
HETATM   23  H2  UNL     1     -10.552  13.824  70.112  1.00  0.00     0.000 HD 
HETATM   24  H1  UNL     1     -10.332  13.204  68.594  1.00  0.00     0.000 HD 
ENDBRANCH  13  16
ENDBRANCH  11  13
ENDBRANCH   6  11
ENDBRANCH   2   3
TORSDOF 4
ENDMDL
MODEL      116
REMARK 921   NORMALIZED FREE ENERGY PREDICTED BY IDOCK:   -4.64 KCAL/MOL
REMARK 922        TOTAL FREE ENERGY PREDICTED BY IDOCK:   -6.54 KCAL/MOL
REMARK 923 INTER-LIGAND FREE ENERGY PREDICTED BY IDOCK:   -6.17 KCAL/MOL
REMARK 924 INTRA-LIGAND FREE ENERGY PREDICTED BY IDOCK:   -0.37 KCAL/MOL
REMARK 927      BINDING AFFINITY PREDICTED BY RF-SCORE:    0.00 PKD
ROOT
HETATM    1  C   UNL     1      -6.689  19.581  69.603  1.00  0.00    -0.314 C  
HETATM    2  C   UNL     1      -7.404  19.676  68.264  1.00  0.00    -0.316 C  
ENDROOT
BRANCH   2   3
HETATM    3  N   UNL     1      -7.755  18.355  67.750  1.00  0.00    -0.230 N  
HETATM    4  C   UNL     1      -8.130  17.355  68.622  1.00  0.00    -0.264 C  
HETATM    5  C   UNL     1      -8.494  16.153  68.173  1.00  0.00    -0.175 C  
HETATM    6  C   UNL     1      -8.490  16.035  66.711  1.00  0.00    -0.260 C  
HETATM    7  N   UNL     1      -8.170  16.954  65.882  1.00  0.00    -0.118 N  
HETATM    8  O   UNL     1      -7.460  19.077  65.591  1.00  0.00    -0.466 OA 
HETATM    9  C   UNL     1      -7.778  18.173  66.361  1.00  0.00    -0.261 C  
HETATM   10  H   UNL     1      -8.205  16.780  64.877  1.00  0.00     0.000 HD 
BRANCH   6  11
HETATM   11  N   UNL     1      -8.880  14.773  66.253  1.00  0.00    -0.479 N  
HETATM   12  H   UNL     1      -8.151  14.073  66.117  1.00  0.00     0.000 HD 
BRANCH  11  13
HETATM   13  S   UNL     1     -10.457  14.328  65.911  1.00  0.00    -0.321 S  
HETATM   14  O   UNL     1     -11.272  15.205  66.729  1.00  0.00    -0.331 OA 
HETATM   15  O   UNL     1     -10.626  14.303  64.474  1.00  0.00    -0.388 OA 
BRANCH  13  16
HETATM   16  C   UNL     1     -10.608  12.688  66.559  1.00  0.00    -0.253 A  
HETATM   17  C   UNL     1     -10.008  11.617  65.894  1.00  0.00    -0.264 A  
HETATM   18  C   UNL     1     -10.124  10.329  66.424  1.00  0.00    -0.296 A  
HETATM   19  C   UNL     1     -10.866  10.095  67.588  1.00  0.00    -0.290 A  
HETATM   20  N   UNL     1     -10.891   8.821  68.165  1.00  0.00    -0.466 NA 
HETATM   21  C   UNL     1     -11.383  11.189  68.286  1.00  0.00    -0.365 A  
HETATM   22  C   UNL     1     -11.260  12.482  67.776  1.00  0.00    -0.318 A  
HETATM   23  H2  UNL     1      -9.929   8.526  68.334  1.00  0.00     0.000 HD 
HETATM   24  H1  UNL     1     -11.432   8.650  69.013  1.00  0.00     0.000 HD 
ENDBRANCH  13  16
ENDBRANCH  11  13
ENDBRANCH   6  11
ENDBRANCH   2   3
TORSDOF 4
ENDMDL
MODEL      117
REMARK 921   NORMALIZED FREE ENERGY PREDICTED BY IDOCK:   -4.63 KCAL/MOL
REMARK 922        TOTAL FREE ENERGY PREDICTED BY IDOCK:   -6.53 KCAL/MOL
REMARK 923 INTER-LIGAND FREE ENERGY PREDICTED BY IDOCK:   -6.24 KCAL/MOL
REMARK 924 INTRA-LIGAND FREE ENERGY PREDICTED BY IDOCK:   -0.29 KCAL/MOL
REMARK 927      BINDING AFFINITY PREDICTED BY RF-SCORE:    0.00 PKD
ROOT
HETATM    1  C   UNL     1      -6.699  17.664  66.211  1.00  0.00    -0.317 C  
HETATM    2  C   UNL     1      -6.217  17.052  67.518  1.00  0.00    -0.147 C  
ENDROOT
BRANCH   2   3
HETATM    3  N   UNL     1      -7.332  16.549  68.316  1.00  0.00    -0.163 N  
HETATM    4  C   UNL     1      -8.501  17.274  68.399  1.00  0.00    -0.254 C  
HETATM    5  C   UNL     1      -9.547  16.815  69.089  1.00  0.00    -0.185 C  
HETATM    6  C   UNL     1      -9.334  15.492  69.685  1.00  0.00    -0.223 C  
HETATM    7  N   UNL     1      -8.268  14.790  69.602  1.00  0.00    -0.416 N  
HETATM    8  O   UNL     1      -6.159  14.639  68.813  1.00  0.00    -0.080 OA 
HETATM    9  C   UNL     1      -7.200  15.286  68.909  1.00  0.00    -0.137 C  
HETATM   10  H   UNL     1      -8.217  13.872  70.046  1.00  0.00     0.000 HD 
BRANCH   6  11
HETATM   11  N   UNL     1     -10.439  15.018  70.399  1.00  0.00    -0.510 N  
HETATM   12  H   UNL     1     -10.325  14.867  71.401  1.00  0.00     0.000 HD 
BRANCH  11  13
HETATM   13  S   UNL     1     -11.935  14.682  69.727  1.00  0.00    -0.339 S  
HETATM   14  O   UNL     1     -12.868  15.498  70.479  1.00  0.00    -0.443 OA 
HETATM   15  O   UNL     1     -11.835  14.821  68.290  1.00  0.00    -0.320 OA 
BRANCH  13  16
HETATM   16  C   UNL     1     -12.240  12.988  70.143  1.00  0.00    -0.272 A  
HETATM   17  C   UNL     1     -11.792  11.971  69.299  1.00  0.00    -0.377 A  
HETATM   18  C   UNL     1     -12.027  10.637  69.646  1.00  0.00    -0.340 A  
HETATM   19  C   UNL     1     -12.740  10.313  70.806  1.00  0.00    -0.346 A  
HETATM   20  N   UNL     1     -12.882   8.976  71.197  1.00  0.00    -0.497 NA 
HETATM   21  C   UNL     1     -13.101  11.339  71.682  1.00  0.00    -0.513 A  
HETATM   22  C   UNL     1     -12.857  12.674  71.355  1.00  0.00    -0.358 A  
HETATM   23  H2  UNL     1     -11.953   8.561  71.266  1.00  0.00     0.000 HD 
HETATM   24  H1  UNL     1     -13.402   8.740  72.043  1.00  0.00     0.000 HD 
ENDBRANCH  13  16
ENDBRANCH  11  13
ENDBRANCH   6  11
ENDBRANCH   2   3
TORSDOF 4
ENDMDL
MODEL      118
REMARK 921   NORMALIZED FREE ENERGY PREDICTED BY IDOCK:   -4.63 KCAL/MOL
REMARK 922        TOTAL FREE ENERGY PREDICTED BY IDOCK:   -6.53 KCAL/MOL
REMARK 923 INTER-LIGAND FREE ENERGY PREDICTED BY IDOCK:   -6.16 KCAL/MOL
REMARK 924 INTRA-LIGAND FREE ENERGY PREDICTED BY IDOCK:   -0.36 KCAL/MOL
REMARK 927      BINDING AFFINITY PREDICTED BY RF-SCORE:    0.00 PKD
ROOT
HETATM    1  C   UNL     1      -8.730  14.162  66.914  1.00  0.00    -0.187 C  
HETATM    2  C   UNL     1      -9.972  13.546  66.287  1.00  0.00    -0.298 C  
ENDROOT
BRANCH   2   3
HETATM    3  N   UNL     1     -10.047  12.111  66.546  1.00  0.00    -0.206 N  
HETATM    4  C   UNL     1      -8.936  11.319  66.357  1.00  0.00    -0.188 C  
HETATM    5  C   UNL     1      -8.969  10.013  66.627  1.00  0.00    -0.156 C  
HETATM    6  C   UNL     1     -10.252   9.546  67.162  1.00  0.00    -0.242 C  
HETATM    7  N   UNL     1     -11.290  10.265  67.368  1.00  0.00    -0.257 N  
HETATM    8  O   UNL     1     -12.224  12.316  67.248  1.00  0.00    -0.485 OA 
HETATM    9  C   UNL     1     -11.243  11.598  67.065  1.00  0.00    -0.314 C  
HETATM   10  H   UNL     1     -12.139   9.851  67.752  1.00  0.00     0.000 HD 
BRANCH   6  11
HETATM   11  N   UNL     1     -10.274   8.177  67.446  1.00  0.00    -0.233 N  
HETATM   12  H   UNL     1     -10.712   7.559  66.764  1.00  0.00     0.000 HD 
BRANCH  11  13
HETATM   13  S   UNL     1      -9.630   7.481  68.826  1.00  0.00    -0.150 S  
HETATM   14  O   UNL     1      -9.710   6.053  68.589  1.00  0.00    -0.122 OA 
HETATM   15  O   UNL     1      -8.355   8.106  69.105  1.00  0.00    -0.127 OA 
BRANCH  13  16
HETATM   16  C   UNL     1     -10.784   7.882  70.107  1.00  0.00    -0.244 A  
HETATM   17  C   UNL     1     -10.797   9.164  70.659  1.00  0.00    -0.321 A  
HETATM   18  C   UNL     1     -11.722   9.471  71.661  1.00  0.00    -0.460 A  
HETATM   19  C   UNL     1     -12.607   8.499  72.143  1.00  0.00    -0.377 A  
HETATM   20  N   UNL     1     -13.595   8.844  73.072  1.00  0.00    -0.981 NA 
HETATM   21  C   UNL     1     -12.639   7.251  71.518  1.00  0.00    -0.415 A  
HETATM   22  C   UNL     1     -11.731   6.937  70.505  1.00  0.00    -0.401 A  
HETATM   23  H2  UNL     1     -14.144   9.613  72.687  1.00  0.00     0.000 HD 
HETATM   24  H1  UNL     1     -14.240   8.135  73.424  1.00  0.00     0.000 HD 
ENDBRANCH  13  16
ENDBRANCH  11  13
ENDBRANCH   6  11
ENDBRANCH   2   3
TORSDOF 4
ENDMDL
MODEL      119
REMARK 921   NORMALIZED FREE ENERGY PREDICTED BY IDOCK:   -4.60 KCAL/MOL
REMARK 922        TOTAL FREE ENERGY PREDICTED BY IDOCK:   -6.50 KCAL/MOL
REMARK 923 INTER-LIGAND FREE ENERGY PREDICTED BY IDOCK:   -5.79 KCAL/MOL
REMARK 924 INTRA-LIGAND FREE ENERGY PREDICTED BY IDOCK:   -0.71 KCAL/MOL
REMARK 927      BINDING AFFINITY PREDICTED BY RF-SCORE:    0.00 PKD
ROOT
HETATM    1  C   UNL     1      -9.601  19.223  67.018  1.00  0.00    -0.394 C  
HETATM    2  C   UNL     1     -10.783  18.357  66.608  1.00  0.00    -0.212 C  
ENDROOT
BRANCH   2   3
HETATM    3  N   UNL     1     -10.586  16.965  67.001  1.00  0.00    -0.276 N  
HETATM    4  C   UNL     1     -10.635  16.611  68.332  1.00  0.00    -0.343 C  
HETATM    5  C   UNL     1     -10.499  15.339  68.711  1.00  0.00    -0.237 C  
HETATM    6  C   UNL     1     -10.341  14.398  67.597  1.00  0.00    -0.237 C  
HETATM    7  N   UNL     1     -10.317  14.698  66.354  1.00  0.00    -0.282 N  
HETATM    8  O   UNL     1     -10.412  16.332  64.800  1.00  0.00    -0.607 OA 
HETATM    9  C   UNL     1     -10.436  16.009  65.986  1.00  0.00    -0.345 C  
HETATM   10  H   UNL     1     -10.209  13.970  65.648  1.00  0.00     0.000 HD 
BRANCH   6  11
HETATM   11  N   UNL     1     -10.207  13.068  68.006  1.00  0.00    -0.227 N  
HETATM   12  H   UNL     1      -9.422  12.837  68.615  1.00  0.00     0.000 HD 
BRANCH  11  13
HETATM   13  S   UNL     1     -11.242  11.827  67.569  1.00  0.00    -0.308 S  
HETATM   14  O   UNL     1     -11.730  11.295  68.826  1.00  0.00    -0.295 OA 
HETATM   15  O   UNL     1     -12.169  12.330  66.578  1.00  0.00    -0.588 OA 
BRANCH  13  16
HETATM   16  C   UNL     1     -10.190  10.606  66.836  1.00  0.00    -0.223 A  
HETATM   17  C   UNL     1     -10.492   9.251  66.976  1.00  0.00    -0.303 A  
HETATM   18  C   UNL     1      -9.660   8.298  66.381  1.00  0.00    -0.300 A  
HETATM   19  C   UNL     1      -8.510   8.685  65.683  1.00  0.00    -0.156 A  
HETATM   20  N   UNL     1      -7.741   7.731  65.006  1.00  0.00    -0.100 NA 
HETATM   21  C   UNL     1      -8.274  10.046  65.478  1.00  0.00    -0.146 A  
HETATM   22  C   UNL     1      -9.106  11.007  66.054  1.00  0.00    -0.212 A  
HETATM   23  H2  UNL     1      -8.350   7.224  64.363  1.00  0.00     0.000 HD 
HETATM   24  H1  UNL     1      -6.902   8.013  64.497  1.00  0.00     0.000 HD 
ENDBRANCH  13  16
ENDBRANCH  11  13
ENDBRANCH   6  11
ENDBRANCH   2   3
TORSDOF 4
ENDMDL
MODEL      120
REMARK 921   NORMALIZED FREE ENERGY PREDICTED BY IDOCK:   -4.60 KCAL/MOL
REMARK 922        TOTAL FREE ENERGY PREDICTED BY IDOCK:   -6.49 KCAL/MOL
REMARK 923 INTER-LIGAND FREE ENERGY PREDICTED BY IDOCK:   -5.73 KCAL/MOL
REMARK 924 INTRA-LIGAND FREE ENERGY PREDICTED BY IDOCK:   -0.76 KCAL/MOL
REMARK 927      BINDING AFFINITY PREDICTED BY RF-SCORE:    0.00 PKD
ROOT
HETATM    1  C   UNL     1      -9.294   3.786  66.696  1.00  0.00    -0.207 C  
HETATM    2  C   UNL     1      -8.889   4.000  68.147  1.00  0.00    -0.108 C  
ENDROOT
BRANCH   2   3
HETATM    3  N   UNL     1      -9.777   4.945  68.816  1.00  0.00    -0.156 N  
HETATM    4  C   UNL     1     -10.509   5.847  68.073  1.00  0.00    -0.234 C  
HETATM    5  C   UNL     1     -11.357   6.693  68.660  1.00  0.00    -0.148 C  
HETATM    6  C   UNL     1     -11.450   6.532  70.115  1.00  0.00    -0.415 C  
HETATM    7  N   UNL     1     -10.801   5.688  70.823  1.00  0.00    -0.253 N  
HETATM    8  O   UNL     1      -9.277   4.023  70.859  1.00  0.00    -0.111 OA 
HETATM    9  C   UNL     1      -9.920   4.844  70.207  1.00  0.00    -0.251 C  
HETATM   10  H   UNL     1     -10.938   5.645  71.833  1.00  0.00     0.000 HD 
BRANCH   6  11
HETATM   11  N   UNL     1     -12.347   7.418  70.718  1.00  0.00    -0.546 N  
HETATM   12  H   UNL     1     -13.332   7.342  70.463  1.00  0.00     0.000 HD 
BRANCH  11  13
HETATM   13  S   UNL     1     -11.921   8.596  71.829  1.00  0.00    -0.364 S  
HETATM   14  O   UNL     1     -13.037   8.651  72.753  1.00  0.00    -0.304 OA 
HETATM   15  O   UNL     1     -10.587   8.312  72.311  1.00  0.00    -0.273 OA 
BRANCH  13  16
HETATM   16  C   UNL     1     -11.912  10.103  70.900  1.00  0.00    -0.365 A  
HETATM   17  C   UNL     1     -12.648  11.202  71.345  1.00  0.00    -0.479 A  
HETATM   18  C   UNL     1     -12.621  12.390  70.609  1.00  0.00    -0.237 A  
HETATM   19  C   UNL     1     -11.898  12.477  69.413  1.00  0.00    -0.308 A  
HETATM   20  N   UNL     1     -11.795  13.698  68.738  1.00  0.00    -0.344 NA 
HETATM   21  C   UNL     1     -11.098  11.398  69.031  1.00  0.00    -0.300 A  
HETATM   22  C   UNL     1     -11.104  10.211  69.767  1.00  0.00    -0.328 A  
HETATM   23  H2  UNL     1     -11.425  14.393  69.387  1.00  0.00     0.000 HD 
HETATM   24  H1  UNL     1     -11.268  13.762  67.866  1.00  0.00     0.000 HD 
ENDBRANCH  13  16
ENDBRANCH  11  13
ENDBRANCH   6  11
ENDBRANCH   2   3
TORSDOF 4
ENDMDL
MODEL      121
REMARK 921   NORMALIZED FREE ENERGY PREDICTED BY IDOCK:   -4.57 KCAL/MOL
REMARK 922        TOTAL FREE ENERGY PREDICTED BY IDOCK:   -6.46 KCAL/MOL
REMARK 923 INTER-LIGAND FREE ENERGY PREDICTED BY IDOCK:   -6.13 KCAL/MOL
REMARK 924 INTRA-LIGAND FREE ENERGY PREDICTED BY IDOCK:   -0.33 KCAL/MOL
REMARK 927      BINDING AFFINITY PREDICTED BY RF-SCORE:    0.00 PKD
ROOT
HETATM    1  C   UNL     1     -11.096   6.039  69.992  1.00  0.00    -0.451 C  
HETATM    2  C   UNL     1      -9.816   6.385  69.248  1.00  0.00    -0.147 C  
ENDROOT
BRANCH   2   3
HETATM    3  N   UNL     1      -9.953   7.630  68.498  1.00  0.00    -0.174 N  
HETATM    4  C   UNL     1      -9.545   8.821  69.060  1.00  0.00    -0.162 C  
HETATM    5  C   UNL     1      -9.623   9.965  68.378  1.00  0.00    -0.157 C  
HETATM    6  C   UNL     1     -10.130   9.812  67.011  1.00  0.00    -0.218 C  
HETATM    7  N   UNL     1     -10.492   8.716  66.459  1.00  0.00    -0.291 N  
HETATM    8  O   UNL     1     -10.770   6.487  66.681  1.00  0.00    -0.252 OA 
HETATM    9  C   UNL     1     -10.425   7.557  67.180  1.00  0.00    -0.336 C  
HETATM   10  H   UNL     1     -10.826   8.708  65.495  1.00  0.00     0.000 HD 
BRANCH   6  11
HETATM   11  N   UNL     1     -10.201  11.016  66.304  1.00  0.00    -0.238 N  
HETATM   12  H   UNL     1      -9.430  11.243  65.676  1.00  0.00     0.000 HD 
BRANCH  11  13
HETATM   13  S   UNL     1     -11.461  12.112  66.414  1.00  0.00    -0.351 S  
HETATM   14  O   UNL     1     -12.251  11.886  65.220  1.00  0.00    -0.357 OA 
HETATM   15  O   UNL     1     -12.064  11.990  67.724  1.00  0.00    -0.537 OA 
BRANCH  13  16
HETATM   16  C   UNL     1     -10.688  13.698  66.260  1.00  0.00    -0.285 A  
HETATM   17  C   UNL     1      -9.492  13.959  66.930  1.00  0.00    -0.263 A  
HETATM   18  C   UNL     1      -8.886  15.211  66.788  1.00  0.00    -0.302 A  
HETATM   19  C   UNL     1      -9.483  16.214  66.016  1.00  0.00    -0.339 A  
HETATM   20  N   UNL     1      -8.818  17.427  65.798  1.00  0.00    -0.482 NA 
HETATM   21  C   UNL     1     -10.630  15.905  65.283  1.00  0.00    -0.441 A  
HETATM   22  C   UNL     1     -11.237  14.653  65.403  1.00  0.00    -0.347 A  
HETATM   23  H2  UNL     1      -7.899  17.223  65.404  1.00  0.00     0.000 HD 
HETATM   24  H1  UNL     1      -9.253  18.158  65.236  1.00  0.00     0.000 HD 
ENDBRANCH  13  16
ENDBRANCH  11  13
ENDBRANCH   6  11
ENDBRANCH   2   3
TORSDOF 4
ENDMDL
MODEL      122
REMARK 921   NORMALIZED FREE ENERGY PREDICTED BY IDOCK:   -4.56 KCAL/MOL
REMARK 922        TOTAL FREE ENERGY PREDICTED BY IDOCK:   -6.45 KCAL/MOL
REMARK 923 INTER-LIGAND FREE ENERGY PREDICTED BY IDOCK:   -5.58 KCAL/MOL
REMARK 924 INTRA-LIGAND FREE ENERGY PREDICTED BY IDOCK:   -0.86 KCAL/MOL
REMARK 927      BINDING AFFINITY PREDICTED BY RF-SCORE:    0.00 PKD
ROOT
HETATM    1  C   UNL     1      -7.481   7.022  66.990  1.00  0.00    -0.094 C  
HETATM    2  C   UNL     1      -8.300   7.899  67.926  1.00  0.00    -0.126 C  
ENDROOT
BRANCH   2   3
HETATM    3  N   UNL     1      -8.715   9.137  67.272  1.00  0.00    -0.117 N  
HETATM    4  C   UNL     1      -7.819  10.175  67.133  1.00  0.00    -0.099 C  
HETATM    5  C   UNL     1      -8.163  11.300  66.504  1.00  0.00    -0.165 C  
HETATM    6  C   UNL     1      -9.527  11.289  65.964  1.00  0.00    -0.216 C  
HETATM    7  N   UNL     1     -10.368  10.330  66.059  1.00  0.00    -0.214 N  
HETATM    8  O   UNL     1     -10.791   8.255  66.840  1.00  0.00    -0.228 OA 
HETATM    9  C   UNL     1     -10.005   9.194  66.727  1.00  0.00    -0.254 C  
HETATM   10  H   UNL     1     -11.296  10.412  65.643  1.00  0.00     0.000 HD 
BRANCH   6  11
HETATM   11  N   UNL     1      -9.874  12.470  65.301  1.00  0.00    -0.432 N  
HETATM   12  H   UNL     1      -9.206  12.850  64.631  1.00  0.00     0.000 HD 
BRANCH  11  13
HETATM   13  S   UNL     1     -11.307  13.304  65.528  1.00  0.00    -0.299 S  
HETATM   14  O   UNL     1     -11.200  14.462  64.662  1.00  0.00    -0.377 OA 
HETATM   15  O   UNL     1     -12.408  12.377  65.376  1.00  0.00    -0.596 OA 
BRANCH  13  16
HETATM   16  C   UNL     1     -11.233  13.872  67.203  1.00  0.00    -0.313 A  
HETATM   17  C   UNL     1     -11.907  13.175  68.207  1.00  0.00    -0.384 A  
HETATM   18  C   UNL     1     -11.828  13.627  69.527  1.00  0.00    -0.394 A  
HETATM   19  C   UNL     1     -11.116  14.789  69.847  1.00  0.00    -0.233 A  
HETATM   20  N   UNL     1     -10.959  15.176  71.183  1.00  0.00    -0.552 NA 
HETATM   21  C   UNL     1     -10.376  15.421  68.845  1.00  0.00    -0.233 A  
HETATM   22  C   UNL     1     -10.433  14.970  67.525  1.00  0.00    -0.256 A  
HETATM   23  H2  UNL     1     -10.547  14.396  71.696  1.00  0.00     0.000 HD 
HETATM   24  H1  UNL     1     -10.440  16.023  71.416  1.00  0.00     0.000 HD 
ENDBRANCH  13  16
ENDBRANCH  11  13
ENDBRANCH   6  11
ENDBRANCH   2   3
TORSDOF 4
ENDMDL
MODEL      123
REMARK 921   NORMALIZED FREE ENERGY PREDICTED BY IDOCK:   -4.55 KCAL/MOL
REMARK 922        TOTAL FREE ENERGY PREDICTED BY IDOCK:   -6.44 KCAL/MOL
REMARK 923 INTER-LIGAND FREE ENERGY PREDICTED BY IDOCK:   -5.72 KCAL/MOL
REMARK 924 INTRA-LIGAND FREE ENERGY PREDICTED BY IDOCK:   -0.72 KCAL/MOL
REMARK 927      BINDING AFFINITY PREDICTED BY RF-SCORE:    0.00 PKD
ROOT
HETATM    1  C   UNL     1      -7.392   5.523  65.528  1.00  0.00    -0.073 C  
HETATM    2  C   UNL     1      -8.228   4.492  66.272  1.00  0.00    -0.106 C  
ENDROOT
BRANCH   2   3
HETATM    3  N   UNL     1      -9.174   5.128  67.185  1.00  0.00    -0.115 N  
HETATM    4  C   UNL     1      -9.949   6.181  66.749  1.00  0.00    -0.172 C  
HETATM    5  C   UNL     1     -10.848   6.751  67.553  1.00  0.00    -0.388 C  
HETATM    6  C   UNL     1     -10.943   6.130  68.879  1.00  0.00    -0.356 C  
HETATM    7  N   UNL     1     -10.252   5.138  69.298  1.00  0.00    -0.222 N  
HETATM    8  O   UNL     1      -8.637   3.630  68.840  1.00  0.00    -0.078 OA 
HETATM    9  C   UNL     1      -9.320   4.581  68.467  1.00  0.00    -0.143 C  
HETATM   10  H   UNL     1     -10.394   4.769  70.238  1.00  0.00     0.000 HD 
BRANCH   6  11
HETATM   11  N   UNL     1     -11.892   6.731  69.710  1.00  0.00    -0.651 N  
HETATM   12  H   UNL     1     -12.838   6.843  69.345  1.00  0.00     0.000 HD 
BRANCH  11  13
HETATM   13  S   UNL     1     -11.589   7.279  71.262  1.00  0.00    -0.300 S  
HETATM   14  O   UNL     1     -12.619   6.665  72.077  1.00  0.00    -0.317 OA 
HETATM   15  O   UNL     1     -10.191   7.059  71.563  1.00  0.00    -0.198 OA 
BRANCH  13  16
HETATM   16  C   UNL     1     -11.918   9.017  71.194  1.00  0.00    -0.298 A  
HETATM   17  C   UNL     1     -11.201   9.829  70.313  1.00  0.00    -0.347 A  
HETATM   18  C   UNL     1     -11.480  11.197  70.260  1.00  0.00    -0.329 A  
HETATM   19  C   UNL     1     -12.439  11.768  71.105  1.00  0.00    -0.285 A  
HETATM   20  N   UNL     1     -12.783  13.118  70.973  1.00  0.00    -0.316 NA 
HETATM   21  C   UNL     1     -13.207  10.927  71.914  1.00  0.00    -0.508 A  
HETATM   22  C   UNL     1     -12.949   9.557  71.964  1.00  0.00    -0.514 A  
HETATM   23  H2  UNL     1     -13.067  13.284  70.007  1.00  0.00     0.000 HD 
HETATM   24  H1  UNL     1     -13.482  13.534  71.589  1.00  0.00     0.000 HD 
ENDBRANCH  13  16
ENDBRANCH  11  13
ENDBRANCH   6  11
ENDBRANCH   2   3
TORSDOF 4
ENDMDL
MODEL      124
REMARK 921   NORMALIZED FREE ENERGY PREDICTED BY IDOCK:   -4.55 KCAL/MOL
REMARK 922        TOTAL FREE ENERGY PREDICTED BY IDOCK:   -6.43 KCAL/MOL
REMARK 923 INTER-LIGAND FREE ENERGY PREDICTED BY IDOCK:   -5.80 KCAL/MOL
REMARK 924 INTRA-LIGAND FREE ENERGY PREDICTED BY IDOCK:   -0.63 KCAL/MOL
REMARK 927      BINDING AFFINITY PREDICTED BY RF-SCORE:    0.00 PKD
ROOT
HETATM    1  C   UNL     1     -12.444  10.603  71.537  1.00  0.00    -0.471 C  
HETATM    2  C   UNL     1     -12.753  10.960  70.090  1.00  0.00    -0.161 C  
ENDROOT
BRANCH   2   3
HETATM    3  N   UNL     1     -12.066  12.182  69.682  1.00  0.00    -0.256 N  
HETATM    4  C   UNL     1     -12.327  13.369  70.331  1.00  0.00    -0.312 C  
HETATM    5  C   UNL     1     -11.682  14.489  70.002  1.00  0.00    -0.359 C  
HETATM    6  C   UNL     1     -10.677  14.312  68.948  1.00  0.00    -0.257 C  
HETATM    7  N   UNL     1     -10.400  13.217  68.348  1.00  0.00    -0.251 N  
HETATM    8  O   UNL     1     -10.848  11.016  68.123  1.00  0.00    -0.193 OA 
HETATM    9  C   UNL     1     -11.087  12.084  68.683  1.00  0.00    -0.250 C  
HETATM   10  H   UNL     1      -9.676  13.190  67.629  1.00  0.00     0.000 HD 
BRANCH   6  11
HETATM   11  N   UNL     1     -10.003  15.490  68.617  1.00  0.00    -0.203 N  
HETATM   12  H   UNL     1     -10.512  16.369  68.707  1.00  0.00     0.000 HD 
BRANCH  11  13
HETATM   13  S   UNL     1      -8.418  15.563  68.083  1.00  0.00    -0.149 S  
HETATM   14  O   UNL     1      -7.627  15.128  69.218  1.00  0.00    -0.171 OA 
HETATM   15  O   UNL     1      -8.326  14.866  66.818  1.00  0.00    -0.219 OA 
BRANCH  13  16
HETATM   16  C   UNL     1      -8.109  17.289  67.838  1.00  0.00    -0.210 A  
HETATM   17  C   UNL     1      -7.327  17.995  68.753  1.00  0.00    -0.279 A  
HETATM   18  C   UNL     1      -7.079  19.354  68.539  1.00  0.00    -0.350 A  
HETATM   19  C   UNL     1      -7.638  20.022  67.443  1.00  0.00    -0.281 A  
HETATM   20  N   UNL     1      -7.302  21.355  67.182  1.00  0.00    -0.815 NA 
HETATM   21  C   UNL     1      -8.342  19.280  66.492  1.00  0.00    -0.329 A  
HETATM   22  C   UNL     1      -8.583  17.919  66.686  1.00  0.00    -0.283 A  
HETATM   23  H2  UNL     1      -6.287  21.423  67.115  1.00  0.00     0.000 HD 
HETATM   24  H1  UNL     1      -7.710  21.842  66.383  1.00  0.00     0.000 HD 
ENDBRANCH  13  16
ENDBRANCH  11  13
ENDBRANCH   6  11
ENDBRANCH   2   3
TORSDOF 4
ENDMDL
MODEL      125
REMARK 921   NORMALIZED FREE ENERGY PREDICTED BY IDOCK:   -4.52 KCAL/MOL
REMARK 922        TOTAL FREE ENERGY PREDICTED BY IDOCK:   -6.40 KCAL/MOL
REMARK 923 INTER-LIGAND FREE ENERGY PREDICTED BY IDOCK:   -5.68 KCAL/MOL
REMARK 924 INTRA-LIGAND FREE ENERGY PREDICTED BY IDOCK:   -0.72 KCAL/MOL
REMARK 927      BINDING AFFINITY PREDICTED BY RF-SCORE:    0.00 PKD
ROOT
HETATM    1  C   UNL     1     -10.824   5.386  73.157  1.00  0.00    -0.333 C  
HETATM    2  C   UNL     1     -10.490   6.747  73.747  1.00  0.00    -0.354 C  
ENDROOT
BRANCH   2   3
HETATM    3  N   UNL     1     -10.677   7.815  72.769  1.00  0.00    -0.326 N  
HETATM    4  C   UNL     1     -11.938   8.318  72.532  1.00  0.00    -0.356 C  
HETATM    5  C   UNL     1     -12.128   9.321  71.673  1.00  0.00    -0.451 C  
HETATM    6  C   UNL     1     -10.893   9.831  71.068  1.00  0.00    -0.308 C  
HETATM    7  N   UNL     1      -9.710   9.397  71.289  1.00  0.00    -0.221 N  
HETATM    8  O   UNL     1      -8.415   7.911  72.388  1.00  0.00    -0.117 OA 
HETATM    9  C   UNL     1      -9.538   8.354  72.157  1.00  0.00    -0.297 C  
HETATM   10  H   UNL     1      -8.907   9.822  70.825  1.00  0.00     0.000 HD 
BRANCH   6  11
HETATM   11  N   UNL     1     -11.103  10.885  70.175  1.00  0.00    -0.455 N  
HETATM   12  H   UNL     1     -11.393  11.783  70.562  1.00  0.00     0.000 HD 
BRANCH  11  13
HETATM   13  S   UNL     1     -10.912  10.780  68.515  1.00  0.00    -0.265 S  
HETATM   14  O   UNL     1     -10.379   9.451  68.289  1.00  0.00    -0.195 OA 
HETATM   15  O   UNL     1     -12.149  11.189  67.883  1.00  0.00    -0.627 OA 
BRANCH  13  16
HETATM   16  C   UNL     1      -9.636  11.948  68.138  1.00  0.00    -0.195 A  
HETATM   17  C   UNL     1      -9.965  13.193  67.602  1.00  0.00    -0.219 A  
HETATM   18  C   UNL     1      -8.948  14.110  67.322  1.00  0.00    -0.221 A  
HETATM   19  C   UNL     1      -7.605  13.780  67.535  1.00  0.00    -0.173 A  
HETATM   20  N   UNL     1      -6.603  14.739  67.348  1.00  0.00    -0.301 NA 
HETATM   21  C   UNL     1      -7.302  12.565  68.155  1.00  0.00    -0.110 A  
HETATM   22  C   UNL     1      -8.310  11.647  68.454  1.00  0.00    -0.157 A  
HETATM   23  H2  UNL     1      -6.828  15.554  67.920  1.00  0.00     0.000 HD 
HETATM   24  H1  UNL     1      -5.624  14.499  67.503  1.00  0.00     0.000 HD 
ENDBRANCH  13  16
ENDBRANCH  11  13
ENDBRANCH   6  11
ENDBRANCH   2   3
TORSDOF 4
ENDMDL
MODEL      126
REMARK 921   NORMALIZED FREE ENERGY PREDICTED BY IDOCK:   -4.50 KCAL/MOL
REMARK 922        TOTAL FREE ENERGY PREDICTED BY IDOCK:   -6.38 KCAL/MOL
REMARK 923 INTER-LIGAND FREE ENERGY PREDICTED BY IDOCK:   -5.84 KCAL/MOL
REMARK 924 INTRA-LIGAND FREE ENERGY PREDICTED BY IDOCK:   -0.54 KCAL/MOL
REMARK 927      BINDING AFFINITY PREDICTED BY RF-SCORE:    0.00 PKD
ROOT
HETATM    1  C   UNL     1     -12.322  13.885  66.297  1.00  0.00    -0.489 C  
HETATM    2  C   UNL     1     -11.050  13.504  67.037  1.00  0.00    -0.296 C  
ENDROOT
BRANCH   2   3
HETATM    3  N   UNL     1     -11.280  12.396  67.961  1.00  0.00    -0.248 N  
HETATM    4  C   UNL     1     -11.807  12.641  69.211  1.00  0.00    -0.302 C  
HETATM    5  C   UNL     1     -12.063  11.641  70.056  1.00  0.00    -0.395 C  
HETATM    6  C   UNL     1     -11.774  10.310  69.512  1.00  0.00    -0.122 C  
HETATM    7  N   UNL     1     -11.308  10.056  68.348  1.00  0.00    -0.521 N  
HETATM    8  O   UNL     1     -10.578  10.886  66.380  1.00  0.00    -0.254 OA 
HETATM    9  C   UNL     1     -11.031  11.095  67.504  1.00  0.00    -0.275 C  
HETATM   10  H   UNL     1     -11.146   9.093  68.054  1.00  0.00     0.000 HD 
BRANCH   6  11
HETATM   11  N   UNL     1     -12.054   9.270  70.403  1.00  0.00    -0.468 N  
HETATM   12  H   UNL     1     -13.006   8.907  70.424  1.00  0.00     0.000 HD 
BRANCH  11  13
HETATM   13  S   UNL     1     -10.936   8.577  71.438  1.00  0.00    -0.286 S  
HETATM   14  O   UNL     1      -9.771   9.435  71.351  1.00  0.00    -0.236 OA 
HETATM   15  O   UNL     1     -11.576   8.340  72.715  1.00  0.00    -0.395 OA 
BRANCH  13  16
HETATM   16  C   UNL     1     -10.526   7.030  70.681  1.00  0.00    -0.210 A  
HETATM   17  C   UNL     1     -11.038   6.712  69.422  1.00  0.00    -0.365 A  
HETATM   18  C   UNL     1     -10.696   5.492  68.830  1.00  0.00    -0.207 A  
HETATM   19  C   UNL     1      -9.880   4.573  69.500  1.00  0.00    -0.207 A  
HETATM   20  N   UNL     1      -9.461   3.402  68.858  1.00  0.00    -0.163 NA 
HETATM   21  C   UNL     1      -9.307   4.946  70.718  1.00  0.00    -0.211 A  
HETATM   22  C   UNL     1      -9.628   6.168  71.312  1.00  0.00    -0.189 A  
HETATM   23  H2  UNL     1      -9.001   3.661  67.986  1.00  0.00     0.000 HD 
HETATM   24  H1  UNL     1      -8.867   2.732  69.347  1.00  0.00     0.000 HD 
ENDBRANCH  13  16
ENDBRANCH  11  13
ENDBRANCH   6  11
ENDBRANCH   2   3
TORSDOF 4
ENDMDL
MODEL      127
REMARK 921   NORMALIZED FREE ENERGY PREDICTED BY IDOCK:   -4.50 KCAL/MOL
REMARK 922        TOTAL FREE ENERGY PREDICTED BY IDOCK:   -6.37 KCAL/MOL
REMARK 923 INTER-LIGAND FREE ENERGY PREDICTED BY IDOCK:   -5.74 KCAL/MOL
REMARK 924 INTRA-LIGAND FREE ENERGY PREDICTED BY IDOCK:   -0.63 KCAL/MOL
REMARK 927      BINDING AFFINITY PREDICTED BY RF-SCORE:    0.00 PKD
ROOT
HETATM    1  C   UNL     1     -12.135  12.961  65.269  1.00  0.00    -0.496 C  
HETATM    2  C   UNL     1     -12.316  13.725  66.572  1.00  0.00    -0.386 C  
ENDROOT
BRANCH   2   3
HETATM    3  N   UNL     1     -11.036  13.967  67.232  1.00  0.00    -0.293 N  
HETATM    4  C   UNL     1      -9.858  13.737  66.555  1.00  0.00    -0.290 C  
HETATM    5  C   UNL     1      -8.678  13.989  67.124  1.00  0.00    -0.234 C  
HETATM    6  C   UNL     1      -8.775  14.552  68.475  1.00  0.00    -0.177 C  
HETATM    7  N   UNL     1      -9.855  14.796  69.115  1.00  0.00    -0.330 N  
HETATM    8  O   UNL     1     -12.111  14.730  69.113  1.00  0.00    -0.298 OA 
HETATM    9  C   UNL     1     -11.054  14.511  68.524  1.00  0.00    -0.256 C  
HETATM   10  H   UNL     1      -9.822  15.197  70.052  1.00  0.00     0.000 HD 
BRANCH   6  11
HETATM   11  N   UNL     1      -7.532  14.818  69.059  1.00  0.00    -0.134 N  
HETATM   12  H   UNL     1      -7.269  14.275  69.880  1.00  0.00     0.000 HD 
BRANCH  11  13
HETATM   13  S   UNL     1      -6.445  15.964  68.505  1.00  0.00    -0.115 S  
HETATM   14  O   UNL     1      -5.756  16.423  69.694  1.00  0.00    -0.149 OA 
HETATM   15  O   UNL     1      -5.701  15.397  67.401  1.00  0.00    -0.327 OA 
BRANCH  13  16
HETATM   16  C   UNL     1      -7.458  17.294  67.919  1.00  0.00    -0.182 A  
HETATM   17  C   UNL     1      -8.123  18.117  68.829  1.00  0.00    -0.251 A  
HETATM   18  C   UNL     1      -8.908  19.172  68.353  1.00  0.00    -0.386 A  
HETATM   19  C   UNL     1      -9.067  19.384  66.979  1.00  0.00    -0.309 A  
HETATM   20  N   UNL     1      -9.771  20.501  66.515  1.00  0.00    -0.646 NA 
HETATM   21  C   UNL     1      -8.325  18.607  66.088  1.00  0.00    -0.174 A  
HETATM   22  C   UNL     1      -7.524  17.561  66.551  1.00  0.00    -0.309 A  
HETATM   23  H2  UNL     1      -9.352  21.338  66.922  1.00  0.00     0.000 HD 
HETATM   24  H1  UNL     1      -9.888  20.657  65.513  1.00  0.00     0.000 HD 
ENDBRANCH  13  16
ENDBRANCH  11  13
ENDBRANCH   6  11
ENDBRANCH   2   3
TORSDOF 4
ENDMDL
MODEL      128
REMARK 921   NORMALIZED FREE ENERGY PREDICTED BY IDOCK:   -4.50 KCAL/MOL
REMARK 922        TOTAL FREE ENERGY PREDICTED BY IDOCK:   -6.37 KCAL/MOL
REMARK 923 INTER-LIGAND FREE ENERGY PREDICTED BY IDOCK:   -5.53 KCAL/MOL
REMARK 924 INTRA-LIGAND FREE ENERGY PREDICTED BY IDOCK:   -0.84 KCAL/MOL
REMARK 927      BINDING AFFINITY PREDICTED BY RF-SCORE:    0.00 PKD
ROOT
HETATM    1  C   UNL     1      -5.884  14.509  70.668  1.00  0.00    -0.179 C  
HETATM    2  C   UNL     1      -5.878  14.880  69.193  1.00  0.00    -0.096 C  
ENDROOT
BRANCH   2   3
HETATM    3  N   UNL     1      -7.153  14.563  68.556  1.00  0.00    -0.106 N  
HETATM    4  C   UNL     1      -8.287  15.267  68.898  1.00  0.00    -0.196 C  
HETATM    5  C   UNL     1      -9.454  15.022  68.301  1.00  0.00    -0.196 C  
HETATM    6  C   UNL     1      -9.387  13.995  67.256  1.00  0.00    -0.230 C  
HETATM    7  N   UNL     1      -8.343  13.345  66.904  1.00  0.00    -0.406 N  
HETATM    8  O   UNL     1      -6.139  12.984  67.232  1.00  0.00    -0.303 OA 
HETATM    9  C   UNL     1      -7.160  13.594  67.543  1.00  0.00    -0.152 C  
HETATM   10  H   UNL     1      -8.392  12.651  66.158  1.00  0.00     0.000 HD 
BRANCH   6  11
HETATM   11  N   UNL     1     -10.614  13.751  66.633  1.00  0.00    -0.273 N  
HETATM   12  H   UNL     1     -11.165  14.558  66.341  1.00  0.00     0.000 HD 
BRANCH  11  13
HETATM   13  S   UNL     1     -11.244  12.231  66.330  1.00  0.00    -0.339 S  
HETATM   14  O   UNL     1     -12.579  12.479  65.822  1.00  0.00    -0.569 OA 
HETATM   15  O   UNL     1     -10.288  11.486  65.540  1.00  0.00    -0.253 OA 
BRANCH  13  16
HETATM   16  C   UNL     1     -11.404  11.487  67.929  1.00  0.00    -0.303 A  
HETATM   17  C   UNL     1     -10.966  10.179  68.137  1.00  0.00    -0.313 A  
HETATM   18  C   UNL     1     -11.085   9.609  69.408  1.00  0.00    -0.170 A  
HETATM   19  C   UNL     1     -11.674  10.320  70.461  1.00  0.00    -0.331 A  
HETATM   20  N   UNL     1     -11.696   9.780  71.752  1.00  0.00    -0.314 NA 
HETATM   21  C   UNL     1     -12.023  11.657  70.256  1.00  0.00    -0.445 A  
HETATM   22  C   UNL     1     -11.894  12.242  68.996  1.00  0.00    -0.358 A  
HETATM   23  H2  UNL     1     -10.740   9.546  72.019  1.00  0.00     0.000 HD 
HETATM   24  H1  UNL     1     -12.125  10.298  72.519  1.00  0.00     0.000 HD 
ENDBRANCH  13  16
ENDBRANCH  11  13
ENDBRANCH   6  11
ENDBRANCH   2   3
TORSDOF 4
ENDMDL
MODEL      129
REMARK 921   NORMALIZED FREE ENERGY PREDICTED BY IDOCK:   -4.50 KCAL/MOL
REMARK 922        TOTAL FREE ENERGY PREDICTED BY IDOCK:   -6.37 KCAL/MOL
REMARK 923 INTER-LIGAND FREE ENERGY PREDICTED BY IDOCK:   -6.00 KCAL/MOL
REMARK 924 INTRA-LIGAND FREE ENERGY PREDICTED BY IDOCK:   -0.37 KCAL/MOL
REMARK 927      BINDING AFFINITY PREDICTED BY RF-SCORE:    0.00 PKD
ROOT
HETATM    1  C   UNL     1     -12.624  11.399  70.743  1.00  0.00    -0.409 C  
HETATM    2  C   UNL     1     -12.853  12.805  71.277  1.00  0.00    -0.262 C  
ENDROOT
BRANCH   2   3
HETATM    3  N   UNL     1     -12.240  13.811  70.415  1.00  0.00    -0.346 N  
HETATM    4  C   UNL     1     -12.347  13.702  69.045  1.00  0.00    -0.041 C  
HETATM    5  C   UNL     1     -11.830  14.631  68.240  1.00  0.00    -0.333 C  
HETATM    6  C   UNL     1     -11.200  15.751  68.946  1.00  0.00    -0.332 C  
HETATM    7  N   UNL     1     -11.109  15.886  70.215  1.00  0.00    -0.346 N  
HETATM    8  O   UNL     1     -11.551  15.011  72.248  1.00  0.00    -0.383 OA 
HETATM    9  C   UNL     1     -11.625  14.914  71.024  1.00  0.00    -0.298 C  
HETATM   10  H   UNL     1     -10.657  16.708  70.616  1.00  0.00     0.000 HD 
BRANCH   6  11
HETATM   11  N   UNL     1     -10.668  16.721  68.092  1.00  0.00    -0.351 N  
HETATM   12  H   UNL     1     -11.170  17.604  68.007  1.00  0.00     0.000 HD 
BRANCH  11  13
HETATM   13  S   UNL     1      -9.264  16.537  67.199  1.00  0.00    -0.219 S  
HETATM   14  O   UNL     1      -8.739  15.246  67.599  1.00  0.00    -0.164 OA 
HETATM   15  O   UNL     1      -9.565  16.804  65.809  1.00  0.00    -0.506 OA 
BRANCH  13  16
HETATM   16  C   UNL     1      -8.172  17.783  67.822  1.00  0.00    -0.227 A  
HETATM   17  C   UNL     1      -8.210  19.073  67.291  1.00  0.00    -0.294 A  
HETATM   18  C   UNL     1      -7.351  20.051  67.802  1.00  0.00    -0.329 A  
HETATM   19  C   UNL     1      -6.430  19.742  68.809  1.00  0.00    -0.291 A  
HETATM   20  N   UNL     1      -5.647  20.750  69.384  1.00  0.00    -0.367 NA 
HETATM   21  C   UNL     1      -6.469  18.472  69.389  1.00  0.00    -0.257 A  
HETATM   22  C   UNL     1      -7.333  17.491  68.898  1.00  0.00    -0.245 A  
HETATM   23  H2  UNL     1      -6.269  21.480  69.732  1.00  0.00     0.000 HD 
HETATM   24  H1  UNL     1      -4.975  20.525  70.118  1.00  0.00     0.000 HD 
ENDBRANCH  13  16
ENDBRANCH  11  13
ENDBRANCH   6  11
ENDBRANCH   2   3
TORSDOF 4
ENDMDL
MODEL      130
REMARK 921   NORMALIZED FREE ENERGY PREDICTED BY IDOCK:   -4.49 KCAL/MOL
REMARK 922        TOTAL FREE ENERGY PREDICTED BY IDOCK:   -6.37 KCAL/MOL
REMARK 923 INTER-LIGAND FREE ENERGY PREDICTED BY IDOCK:   -5.83 KCAL/MOL
REMARK 924 INTRA-LIGAND FREE ENERGY PREDICTED BY IDOCK:   -0.54 KCAL/MOL
REMARK 927      BINDING AFFINITY PREDICTED BY RF-SCORE:    0.00 PKD
ROOT
HETATM    1  C   UNL     1     -13.396   7.740  71.467  1.00  0.00    -0.365 C  
HETATM    2  C   UNL     1     -13.241   9.053  72.221  1.00  0.00    -0.460 C  
ENDROOT
BRANCH   2   3
HETATM    3  N   UNL     1     -12.576  10.063  71.403  1.00  0.00    -0.380 N  
HETATM    4  C   UNL     1     -11.665   9.681  70.441  1.00  0.00    -0.202 C  
HETATM    5  C   UNL     1     -11.076  10.583  69.655  1.00  0.00    -0.338 C  
HETATM    6  C   UNL     1     -11.519  11.961  69.892  1.00  0.00    -0.186 C  
HETATM    7  N   UNL     1     -12.378  12.338  70.762  1.00  0.00    -0.356 N  
HETATM    8  O   UNL     1     -13.782  11.731  72.421  1.00  0.00    -0.150 OA 
HETATM    9  C   UNL     1     -12.955  11.402  71.573  1.00  0.00    -0.399 C  
HETATM   10  H   UNL     1     -12.629  13.324  70.848  1.00  0.00     0.000 HD 
BRANCH   6  11
HETATM   11  N   UNL     1     -10.900  12.897  69.059  1.00  0.00    -0.394 N  
HETATM   12  H   UNL     1      -9.946  12.703  68.756  1.00  0.00     0.000 HD 
BRANCH  11  13
HETATM   13  S   UNL     1     -11.613  14.313  68.521  1.00  0.00    -0.340 S  
HETATM   14  O   UNL     1     -12.184  13.972  67.233  1.00  0.00    -0.405 OA 
HETATM   15  O   UNL     1     -12.452  14.835  69.578  1.00  0.00    -0.220 OA 
BRANCH  13  16
HETATM   16  C   UNL     1     -10.256  15.416  68.237  1.00  0.00    -0.229 A  
HETATM   17  C   UNL     1     -10.188  16.147  67.051  1.00  0.00    -0.285 A  
HETATM   18  C   UNL     1      -9.119  17.024  66.846  1.00  0.00    -0.253 A  
HETATM   19  C   UNL     1      -8.099  17.146  67.797  1.00  0.00    -0.193 A  
HETATM   20  N   UNL     1      -7.088  18.100  67.629  1.00  0.00    -0.198 NA 
HETATM   21  C   UNL     1      -8.231  16.475  69.014  1.00  0.00    -0.208 A  
HETATM   22  C   UNL     1      -9.302  15.608  69.238  1.00  0.00    -0.267 A  
HETATM   23  H2  UNL     1      -7.525  19.014  67.509  1.00  0.00     0.000 HD 
HETATM   24  H1  UNL     1      -6.344  18.189  68.322  1.00  0.00     0.000 HD 
ENDBRANCH  13  16
ENDBRANCH  11  13
ENDBRANCH   6  11
ENDBRANCH   2   3
TORSDOF 4
ENDMDL
MODEL      131
REMARK 921   NORMALIZED FREE ENERGY PREDICTED BY IDOCK:   -4.48 KCAL/MOL
REMARK 922        TOTAL FREE ENERGY PREDICTED BY IDOCK:   -6.35 KCAL/MOL
REMARK 923 INTER-LIGAND FREE ENERGY PREDICTED BY IDOCK:   -5.61 KCAL/MOL
REMARK 924 INTRA-LIGAND FREE ENERGY PREDICTED BY IDOCK:   -0.74 KCAL/MOL
REMARK 927      BINDING AFFINITY PREDICTED BY RF-SCORE:    0.00 PKD
ROOT
HETATM    1  C   UNL     1      -8.384   3.392  72.048  1.00  0.00    -0.078 C  
HETATM    2  C   UNL     1      -9.085   3.876  73.308  1.00  0.00    -0.105 C  
ENDROOT
BRANCH   2   3
HETATM    3  N   UNL     1      -9.654   5.208  73.124  1.00  0.00    -0.141 N  
HETATM    4  C   UNL     1      -8.826   6.287  72.901  1.00  0.00    -0.124 C  
HETATM    5  C   UNL     1      -9.326   7.505  72.690  1.00  0.00    -0.208 C  
HETATM    6  C   UNL     1     -10.791   7.556  72.681  1.00  0.00    -0.315 C  
HETATM    7  N   UNL     1     -11.581   6.567  72.863  1.00  0.00    -0.491 N  
HETATM    8  O   UNL     1     -11.782   4.358  73.281  1.00  0.00    -0.226 OA 
HETATM    9  C   UNL     1     -11.050   5.329  73.099  1.00  0.00    -0.324 C  
HETATM   10  H   UNL     1     -12.592   6.699  72.832  1.00  0.00     0.000 HD 
BRANCH   6  11
HETATM   11  N   UNL     1     -11.304   8.837  72.453  1.00  0.00    -0.288 N  
HETATM   12  H   UNL     1     -10.742   9.632  72.756  1.00  0.00     0.000 HD 
BRANCH  11  13
HETATM   13  S   UNL     1     -12.772   9.158  71.717  1.00  0.00    -0.403 S  
HETATM   14  O   UNL     1     -12.739   8.399  70.482  1.00  0.00     0.291 OA 
HETATM   15  O   UNL     1     -13.828   8.940  72.681  1.00  0.00    -0.445 OA 
BRANCH  13  16
HETATM   16  C   UNL     1     -12.694  10.877  71.297  1.00  0.00    -0.437 A  
HETATM   17  C   UNL     1     -11.933  11.294  70.204  1.00  0.00    -0.452 A  
HETATM   18  C   UNL     1     -11.891  12.652  69.876  1.00  0.00    -0.364 A  
HETATM   19  C   UNL     1     -12.569  13.599  70.653  1.00  0.00    -0.296 A  
HETATM   20  N   UNL     1     -12.604  14.942  70.257  1.00  0.00    -0.489 NA 
HETATM   21  C   UNL     1     -13.395  13.154  71.686  1.00  0.00    -0.393 A  
HETATM   22  C   UNL     1     -13.459  11.798  72.014  1.00  0.00    -0.319 A  
HETATM   23  H2  UNL     1     -12.969  14.987  69.306  1.00  0.00     0.000 HD 
HETATM   24  H1  UNL     1     -13.098  15.632  70.823  1.00  0.00     0.000 HD 
ENDBRANCH  13  16
ENDBRANCH  11  13
ENDBRANCH   6  11
ENDBRANCH   2   3
TORSDOF 4
ENDMDL
MODEL      132
REMARK 921   NORMALIZED FREE ENERGY PREDICTED BY IDOCK:   -4.48 KCAL/MOL
REMARK 922        TOTAL FREE ENERGY PREDICTED BY IDOCK:   -6.34 KCAL/MOL
REMARK 923 INTER-LIGAND FREE ENERGY PREDICTED BY IDOCK:   -5.69 KCAL/MOL
REMARK 924 INTRA-LIGAND FREE ENERGY PREDICTED BY IDOCK:   -0.65 KCAL/MOL
REMARK 927      BINDING AFFINITY PREDICTED BY RF-SCORE:    0.00 PKD
ROOT
HETATM    1  C   UNL     1     -10.661   6.821  68.182  1.00  0.00    -0.295 C  
HETATM    2  C   UNL     1     -10.604   7.773  66.996  1.00  0.00    -0.326 C  
ENDROOT
BRANCH   2   3
HETATM    3  N   UNL     1     -10.599   9.167  67.430  1.00  0.00    -0.274 N  
HETATM    4  C   UNL     1     -10.771   9.475  68.762  1.00  0.00    -0.190 C  
HETATM    5  C   UNL     1     -10.730  10.738  69.187  1.00  0.00    -0.265 C  
HETATM    6  C   UNL     1     -10.449  11.715  68.129  1.00  0.00    -0.195 C  
HETATM    7  N   UNL     1     -10.262  11.453  66.891  1.00  0.00    -0.213 N  
HETATM    8  O   UNL     1     -10.159   9.868  65.288  1.00  0.00    -0.313 OA 
HETATM    9  C   UNL     1     -10.330  10.154  66.471  1.00  0.00    -0.202 C  
HETATM   10  H   UNL     1     -10.065  12.203  66.228  1.00  0.00     0.000 HD 
BRANCH   6  11
HETATM   11  N   UNL     1     -10.402  13.035  68.587  1.00  0.00    -0.350 N  
HETATM   12  H   UNL     1      -9.565  13.332  69.090  1.00  0.00     0.000 HD 
BRANCH  11  13
HETATM   13  S   UNL     1     -11.618  14.164  68.369  1.00  0.00    -0.338 S  
HETATM   14  O   UNL     1     -12.301  13.741  67.162  1.00  0.00    -0.357 OA 
HETATM   15  O   UNL     1     -12.346  14.301  69.612  1.00  0.00    -0.329 OA 
BRANCH  13  16
HETATM   16  C   UNL     1     -10.766  15.674  68.008  1.00  0.00    -0.287 A  
HETATM   17  C   UNL     1     -10.854  16.752  68.889  1.00  0.00    -0.301 A  
HETATM   18  C   UNL     1     -10.165  17.933  68.597  1.00  0.00    -0.387 A  
HETATM   19  C   UNL     1      -9.423  18.060  67.417  1.00  0.00    -0.262 A  
HETATM   20  N   UNL     1      -8.656  19.207  67.184  1.00  0.00    -0.280 NA 
HETATM   21  C   UNL     1      -9.275  16.941  66.594  1.00  0.00    -0.278 A  
HETATM   22  C   UNL     1      -9.945  15.751  66.882  1.00  0.00    -0.247 A  
HETATM   23  H2  UNL     1      -8.024  19.336  67.975  1.00  0.00     0.000 HD 
HETATM   24  H1  UNL     1      -8.116  19.299  66.324  1.00  0.00     0.000 HD 
ENDBRANCH  13  16
ENDBRANCH  11  13
ENDBRANCH   6  11
ENDBRANCH   2   3
TORSDOF 4
ENDMDL
MODEL      133
REMARK 921   NORMALIZED FREE ENERGY PREDICTED BY IDOCK:   -4.48 KCAL/MOL
REMARK 922        TOTAL FREE ENERGY PREDICTED BY IDOCK:   -6.34 KCAL/MOL
REMARK 923 INTER-LIGAND FREE ENERGY PREDICTED BY IDOCK:   -5.65 KCAL/MOL
REMARK 924 INTRA-LIGAND FREE ENERGY PREDICTED BY IDOCK:   -0.70 KCAL/MOL
REMARK 927      BINDING AFFINITY PREDICTED BY RF-SCORE:    0.00 PKD
ROOT
HETATM    1  C   UNL     1      -8.223   6.950  66.843  1.00  0.00    -0.113 C  
HETATM    2  C   UNL     1      -8.430   8.106  65.877  1.00  0.00    -0.142 C  
ENDROOT
BRANCH   2   3
HETATM    3  N   UNL     1      -9.347   9.102  66.424  1.00  0.00    -0.187 N  
HETATM    4  C   UNL     1      -9.542   9.184  67.786  1.00  0.00    -0.146 C  
HETATM    5  C   UNL     1     -10.343  10.112  68.311  1.00  0.00    -0.215 C  
HETATM    6  C   UNL     1     -10.932  11.021  67.322  1.00  0.00    -0.297 C  
HETATM    7  N   UNL     1     -10.749  10.980  66.057  1.00  0.00    -0.218 N  
HETATM    8  O   UNL     1      -9.747   9.939  64.324  1.00  0.00    -0.252 OA 
HETATM    9  C   UNL     1      -9.941  10.009  65.536  1.00  0.00    -0.296 C  
HETATM   10  H   UNL     1     -11.198  11.663  65.447  1.00  0.00     0.000 HD 
BRANCH   6  11
HETATM   11  N   UNL     1     -11.765  11.993  67.885  1.00  0.00    -0.339 N  
HETATM   12  H   UNL     1     -12.600  11.675  68.375  1.00  0.00     0.000 HD 
BRANCH  11  13
HETATM   13  S   UNL     1     -11.487  13.643  67.812  1.00  0.00    -0.338 S  
HETATM   14  O   UNL     1     -10.078  13.765  67.495  1.00  0.00    -0.236 OA 
HETATM   15  O   UNL     1     -12.486  14.239  66.951  1.00  0.00    -0.338 OA 
BRANCH  13  16
HETATM   16  C   UNL     1     -11.719  14.208  69.474  1.00  0.00    -0.312 A  
HETATM   17  C   UNL     1     -11.584  15.563  69.775  1.00  0.00    -0.345 A  
HETATM   18  C   UNL     1     -11.784  15.997  71.089  1.00  0.00    -0.487 A  
HETATM   19  C   UNL     1     -12.077  15.085  72.110  1.00  0.00    -0.377 A  
HETATM   20  N   UNL     1     -12.374  15.541  73.399  1.00  0.00    -0.465 NA 
HETATM   21  C   UNL     1     -12.295  13.748  71.773  1.00  0.00    -0.154 A  
HETATM   22  C   UNL     1     -12.115  13.304  70.462  1.00  0.00    -0.391 A  
HETATM   23  H2  UNL     1     -13.144  16.207  73.335  1.00  0.00     0.000 HD 
HETATM   24  H1  UNL     1     -12.588  14.876  74.144  1.00  0.00     0.000 HD 
ENDBRANCH  13  16
ENDBRANCH  11  13
ENDBRANCH   6  11
ENDBRANCH   2   3
TORSDOF 4
ENDMDL
MODEL      134
REMARK 921   NORMALIZED FREE ENERGY PREDICTED BY IDOCK:   -4.46 KCAL/MOL
REMARK 922        TOTAL FREE ENERGY PREDICTED BY IDOCK:   -6.32 KCAL/MOL
REMARK 923 INTER-LIGAND FREE ENERGY PREDICTED BY IDOCK:   -5.88 KCAL/MOL
REMARK 924 INTRA-LIGAND FREE ENERGY PREDICTED BY IDOCK:   -0.44 KCAL/MOL
REMARK 927      BINDING AFFINITY PREDICTED BY RF-SCORE:    0.00 PKD
ROOT
HETATM    1  C   UNL     1     -12.605   7.332  71.636  1.00  0.00    -0.403 C  
HETATM    2  C   UNL     1     -11.604   8.367  72.126  1.00  0.00    -0.374 C  
ENDROOT
BRANCH   2   3
HETATM    3  N   UNL     1     -10.880   8.978  71.015  1.00  0.00    -0.252 N  
HETATM    4  C   UNL     1      -9.840   8.301  70.415  1.00  0.00    -0.186 C  
HETATM    5  C   UNL     1      -9.191   8.822  69.373  1.00  0.00    -0.146 C  
HETATM    6  C   UNL     1      -9.713  10.120  68.932  1.00  0.00    -0.187 C  
HETATM    7  N   UNL     1     -10.690  10.757  69.457  1.00  0.00    -0.286 N  
HETATM    8  O   UNL     1     -12.270  10.806  71.069  1.00  0.00    -0.342 OA 
HETATM    9  C   UNL     1     -11.329  10.217  70.538  1.00  0.00    -0.341 C  
HETATM   10  H   UNL     1     -10.987  11.655  69.074  1.00  0.00     0.000 HD 
BRANCH   6  11
HETATM   11  N   UNL     1      -9.029  10.653  67.836  1.00  0.00    -0.136 N  
HETATM   12  H   UNL     1      -8.446  10.020  67.289  1.00  0.00     0.000 HD 
BRANCH  11  13
HETATM   13  S   UNL     1      -9.101  12.254  67.355  1.00  0.00    -0.192 S  
HETATM   14  O   UNL     1      -9.671  12.954  68.490  1.00  0.00    -0.206 OA 
HETATM   15  O   UNL     1      -7.805  12.637  66.836  1.00  0.00    -0.083 OA 
BRANCH  13  16
HETATM   16  C   UNL     1     -10.296  12.275  66.049  1.00  0.00    -0.245 A  
HETATM   17  C   UNL     1     -11.549  12.854  66.259  1.00  0.00    -0.424 A  
HETATM   18  C   UNL     1     -12.478  12.875  65.214  1.00  0.00    -0.552 A  
HETATM   19  C   UNL     1     -12.181  12.290  63.978  1.00  0.00    -0.475 A  
HETATM   20  N   UNL     1     -13.077  12.407  62.909  1.00  0.00    -0.284 NA 
HETATM   21  C   UNL     1     -10.893  11.797  63.759  1.00  0.00    -0.490 A  
HETATM   22  C   UNL     1      -9.951  11.784  64.789  1.00  0.00    -0.275 A  
HETATM   23  H2  UNL     1     -13.269  13.397  62.757  1.00  0.00     0.000 HD 
HETATM   24  H1  UNL     1     -12.862  11.980  62.007  1.00  0.00     0.000 HD 
ENDBRANCH  13  16
ENDBRANCH  11  13
ENDBRANCH   6  11
ENDBRANCH   2   3
TORSDOF 4
ENDMDL
MODEL      135
REMARK 921   NORMALIZED FREE ENERGY PREDICTED BY IDOCK:   -4.46 KCAL/MOL
REMARK 922        TOTAL FREE ENERGY PREDICTED BY IDOCK:   -6.32 KCAL/MOL
REMARK 923 INTER-LIGAND FREE ENERGY PREDICTED BY IDOCK:   -5.58 KCAL/MOL
REMARK 924 INTRA-LIGAND FREE ENERGY PREDICTED BY IDOCK:   -0.75 KCAL/MOL
REMARK 927      BINDING AFFINITY PREDICTED BY RF-SCORE:    0.00 PKD
ROOT
HETATM    1  C   UNL     1      -9.091   3.428  66.980  1.00  0.00    -0.192 C  
HETATM    2  C   UNL     1      -8.801   3.787  68.430  1.00  0.00    -0.112 C  
ENDROOT
BRANCH   2   3
HETATM    3  N   UNL     1      -9.558   4.962  68.852  1.00  0.00    -0.147 N  
HETATM    4  C   UNL     1     -10.383   5.607  67.956  1.00  0.00    -0.202 C  
HETATM    5  C   UNL     1     -11.114   6.658  68.329  1.00  0.00    -0.283 C  
HETATM    6  C   UNL     1     -10.979   7.007  69.747  1.00  0.00    -0.250 C  
HETATM    7  N   UNL     1     -10.239   6.410  70.603  1.00  0.00    -0.187 N  
HETATM    8  O   UNL     1      -8.755   4.755  70.993  1.00  0.00    -0.112 OA 
HETATM    9  C   UNL     1      -9.480   5.348  70.197  1.00  0.00    -0.161 C  
HETATM   10  H   UNL     1     -10.215   6.722  71.574  1.00  0.00     0.000 HD 
BRANCH   6  11
HETATM   11  N   UNL     1     -11.755   8.106  70.128  1.00  0.00    -0.458 N  
HETATM   12  H   UNL     1     -12.762   8.048  69.979  1.00  0.00     0.000 HD 
BRANCH  11  13
HETATM   13  S   UNL     1     -11.150   9.508  70.813  1.00  0.00    -0.352 S  
HETATM   14  O   UNL     1     -12.070   9.819  71.889  1.00  0.00    -0.375 OA 
HETATM   15  O   UNL     1      -9.742   9.316  71.087  1.00  0.00    -0.283 OA 
BRANCH  13  16
HETATM   16  C   UNL     1     -11.349  10.739  69.556  1.00  0.00    -0.289 A  
HETATM   17  C   UNL     1     -11.093  10.422  68.221  1.00  0.00    -0.338 A  
HETATM   18  C   UNL     1     -11.268  11.401  67.238  1.00  0.00    -0.370 A  
HETATM   19  C   UNL     1     -11.657  12.701  67.581  1.00  0.00    -0.357 A  
HETATM   20  N   UNL     1     -11.927  13.643  66.581  1.00  0.00    -0.402 NA 
HETATM   21  C   UNL     1     -11.994  12.974  68.908  1.00  0.00    -0.303 A  
HETATM   22  C   UNL     1     -11.839  12.001  69.897  1.00  0.00    -0.405 A  
HETATM   23  H2  UNL     1     -12.631  13.253  65.954  1.00  0.00     0.000 HD 
HETATM   24  H1  UNL     1     -12.210  14.591  66.831  1.00  0.00     0.000 HD 
ENDBRANCH  13  16
ENDBRANCH  11  13
ENDBRANCH   6  11
ENDBRANCH   2   3
TORSDOF 4
ENDMDL
MODEL      136
REMARK 921   NORMALIZED FREE ENERGY PREDICTED BY IDOCK:   -4.45 KCAL/MOL
REMARK 922        TOTAL FREE ENERGY PREDICTED BY IDOCK:   -6.31 KCAL/MOL
REMARK 923 INTER-LIGAND FREE ENERGY PREDICTED BY IDOCK:   -5.68 KCAL/MOL
REMARK 924 INTRA-LIGAND FREE ENERGY PREDICTED BY IDOCK:   -0.63 KCAL/MOL
REMARK 927      BINDING AFFINITY PREDICTED BY RF-SCORE:    0.00 PKD
ROOT
HETATM    1  C   UNL     1     -10.400   8.338  66.835  1.00  0.00    -0.391 C  
HETATM    2  C   UNL     1     -10.100   9.049  68.146  1.00  0.00    -0.191 C  
ENDROOT
BRANCH   2   3
HETATM    3  N   UNL     1      -9.933  10.486  67.949  1.00  0.00    -0.166 N  
HETATM    4  C   UNL     1      -8.725  10.985  67.511  1.00  0.00    -0.128 C  
HETATM    5  C   UNL     1      -8.562  12.289  67.284  1.00  0.00    -0.183 C  
HETATM    6  C   UNL     1      -9.771  13.090  67.505  1.00  0.00    -0.206 C  
HETATM    7  N   UNL     1     -10.908  12.648  67.888  1.00  0.00    -0.213 N  
HETATM    8  O   UNL     1     -12.129  10.854  68.509  1.00  0.00    -0.545 OA 
HETATM    9  C   UNL     1     -11.051  11.311  68.135  1.00  0.00    -0.259 C  
HETATM   10  H   UNL     1     -11.697  13.284  68.007  1.00  0.00     0.000 HD 
BRANCH   6  11
HETATM   11  N   UNL     1      -9.589  14.454  67.258  1.00  0.00    -0.222 N  
HETATM   12  H   UNL     1      -8.672  14.853  67.458  1.00  0.00     0.000 HD 
BRANCH  11  13
HETATM   13  S   UNL     1     -10.768  15.479  66.657  1.00  0.00    -0.285 S  
HETATM   14  O   UNL     1     -10.849  15.158  65.245  1.00  0.00    -0.347 OA 
HETATM   15  O   UNL     1     -11.940  15.375  67.499  1.00  0.00    -0.086 OA 
BRANCH  13  16
HETATM   16  C   UNL     1     -10.068  17.098  66.805  1.00  0.00    -0.303 A  
HETATM   17  C   UNL     1      -8.958  17.307  67.624  1.00  0.00    -0.224 A  
HETATM   18  C   UNL     1      -8.408  18.588  67.721  1.00  0.00    -0.273 A  
HETATM   19  C   UNL     1      -8.980  19.668  67.039  1.00  0.00    -0.316 A  
HETATM   20  N   UNL     1      -8.362  20.925  67.061  1.00  0.00    -0.566 NA 
HETATM   21  C   UNL     1     -10.033  19.423  66.155  1.00  0.00    -0.501 A  
HETATM   22  C   UNL     1     -10.582  18.145  66.037  1.00  0.00    -0.278 A  
HETATM   23  H2  UNL     1      -7.400  20.815  66.739  1.00  0.00     0.000 HD 
HETATM   24  H1  UNL     1      -8.779  21.712  66.564  1.00  0.00     0.000 HD 
ENDBRANCH  13  16
ENDBRANCH  11  13
ENDBRANCH   6  11
ENDBRANCH   2   3
TORSDOF 4
ENDMDL
MODEL      137
REMARK 921   NORMALIZED FREE ENERGY PREDICTED BY IDOCK:   -4.45 KCAL/MOL
REMARK 922        TOTAL FREE ENERGY PREDICTED BY IDOCK:   -6.31 KCAL/MOL
REMARK 923 INTER-LIGAND FREE ENERGY PREDICTED BY IDOCK:   -5.59 KCAL/MOL
REMARK 924 INTRA-LIGAND FREE ENERGY PREDICTED BY IDOCK:   -0.72 KCAL/MOL
REMARK 927      BINDING AFFINITY PREDICTED BY RF-SCORE:    0.00 PKD
ROOT
HETATM    1  C   UNL     1     -11.849  12.863  63.518  1.00  0.00    -0.605 C  
HETATM    2  C   UNL     1     -10.576  12.776  64.347  1.00  0.00    -0.379 C  
ENDROOT
BRANCH   2   3
HETATM    3  N   UNL     1     -10.793  12.031  65.584  1.00  0.00    -0.273 N  
HETATM    4  C   UNL     1     -11.523  12.594  66.609  1.00  0.00    -0.351 C  
HETATM    5  C   UNL     1     -11.768  11.916  67.731  1.00  0.00    -0.362 C  
HETATM    6  C   UNL     1     -11.234  10.550  67.732  1.00  0.00    -0.273 C  
HETATM    7  N   UNL     1     -10.575   9.997  66.786  1.00  0.00    -0.194 N  
HETATM    8  O   UNL     1      -9.681  10.215  64.725  1.00  0.00    -0.294 OA 
HETATM    9  C   UNL     1     -10.315  10.715  65.652  1.00  0.00    -0.216 C  
HETATM   10  H   UNL     1     -10.249   9.035  66.876  1.00  0.00     0.000 HD 
BRANCH   6  11
HETATM   11  N   UNL     1     -11.503   9.848  68.911  1.00  0.00    -0.484 N  
HETATM   12  H   UNL     1     -12.455   9.512  69.055  1.00  0.00     0.000 HD 
BRANCH  11  13
HETATM   13  S   UNL     1     -10.374   9.517  70.102  1.00  0.00    -0.276 S  
HETATM   14  O   UNL     1      -9.187  10.243  69.695  1.00  0.00    -0.199 OA 
HETATM   15  O   UNL     1     -10.979   9.769  71.392  1.00  0.00    -0.342 OA 
BRANCH  13  16
HETATM   16  C   UNL     1     -10.037   7.787  69.929  1.00  0.00    -0.203 A  
HETATM   17  C   UNL     1      -9.004   7.201  70.662  1.00  0.00    -0.154 A  
HETATM   18  C   UNL     1      -8.758   5.832  70.526  1.00  0.00    -0.140 A  
HETATM   19  C   UNL     1      -9.508   5.053  69.637  1.00  0.00    -0.143 A  
HETATM   20  N   UNL     1      -9.322   3.666  69.583  1.00  0.00    -0.160 NA 
HETATM   21  C   UNL     1     -10.593   5.638  68.981  1.00  0.00    -0.316 A  
HETATM   22  C   UNL     1     -10.859   7.001  69.120  1.00  0.00    -0.223 A  
HETATM   23  H2  UNL     1      -9.446   3.289  70.523  1.00  0.00     0.000 HD 
HETATM   24  H1  UNL     1      -9.868   3.098  68.935  1.00  0.00     0.000 HD 
ENDBRANCH  13  16
ENDBRANCH  11  13
ENDBRANCH   6  11
ENDBRANCH   2   3
TORSDOF 4
ENDMDL
MODEL      138
REMARK 921   NORMALIZED FREE ENERGY PREDICTED BY IDOCK:   -4.45 KCAL/MOL
REMARK 922        TOTAL FREE ENERGY PREDICTED BY IDOCK:   -6.31 KCAL/MOL
REMARK 923 INTER-LIGAND FREE ENERGY PREDICTED BY IDOCK:   -6.98 KCAL/MOL
REMARK 924 INTRA-LIGAND FREE ENERGY PREDICTED BY IDOCK:    0.67 KCAL/MOL
REMARK 927      BINDING AFFINITY PREDICTED BY RF-SCORE:    0.00 PKD
ROOT
HETATM    1  C   UNL     1      -9.958  19.466  66.148  1.00  0.00    -0.501 C  
HETATM    2  C   UNL     1      -9.313  19.218  67.504  1.00  0.00    -0.306 C  
ENDROOT
BRANCH   2   3
HETATM    3  N   UNL     1      -9.554  17.855  67.970  1.00  0.00    -0.280 N  
HETATM    4  C   UNL     1     -10.683  17.178  67.561  1.00  0.00    -0.276 C  
HETATM    5  C   UNL     1     -10.904  15.918  67.941  1.00  0.00    -0.327 C  
HETATM    6  C   UNL     1      -9.836  15.349  68.771  1.00  0.00    -0.211 C  
HETATM    7  N   UNL     1      -8.770  15.949  69.143  1.00  0.00    -0.246 N  
HETATM    8  O   UNL     1      -7.558  17.853  69.105  1.00  0.00    -0.183 OA 
HETATM    9  C   UNL     1      -8.571  17.246  68.762  1.00  0.00    -0.230 C  
HETATM   10  H   UNL     1      -8.078  15.465  69.716  1.00  0.00     0.000 HD 
BRANCH   6  11
HETATM   11  N   UNL     1     -10.076  14.027  69.157  1.00  0.00    -0.432 N  
HETATM   12  H   UNL     1      -9.271  13.408  69.251  1.00  0.00     0.000 HD 
BRANCH  11  13
HETATM   13  S   UNL     1     -11.589  13.387  69.478  1.00  0.00    -0.271 S  
HETATM   14  O   UNL     1     -12.382  13.714  68.310  1.00  0.00    -0.231 OA 
HETATM   15  O   UNL     1     -11.428  12.009  69.890  1.00  0.00    -0.253 OA 
BRANCH  13  16
HETATM   16  C   UNL     1     -12.200  14.347  70.834  1.00  0.00    -0.342 A  
HETATM   17  C   UNL     1     -13.435  14.039  71.407  1.00  0.00    -0.360 A  
HETATM   18  C   UNL     1     -13.900  14.797  72.486  1.00  0.00    -0.561 A  
HETATM   19  C   UNL     1     -13.161  15.882  72.971  1.00  0.00    -0.552 A  
HETATM   20  N   UNL     1     -13.585  16.570  74.114  1.00  0.00    -0.330 NA 
HETATM   21  C   UNL     1     -11.890  16.119  72.444  1.00  0.00    -0.637 A  
HETATM   22  C   UNL     1     -11.407  15.359  71.377  1.00  0.00    -0.449 A  
HETATM   23  H2  UNL     1     -13.698  15.895  74.871  1.00  0.00     0.000 HD 
HETATM   24  H1  UNL     1     -13.047  17.361  74.468  1.00  0.00     0.000 HD 
ENDBRANCH  13  16
ENDBRANCH  11  13
ENDBRANCH   6  11
ENDBRANCH   2   3
TORSDOF 4
ENDMDL
MODEL      139
REMARK 921   NORMALIZED FREE ENERGY PREDICTED BY IDOCK:   -4.44 KCAL/MOL
REMARK 922        TOTAL FREE ENERGY PREDICTED BY IDOCK:   -6.30 KCAL/MOL
REMARK 923 INTER-LIGAND FREE ENERGY PREDICTED BY IDOCK:   -5.64 KCAL/MOL
REMARK 924 INTRA-LIGAND FREE ENERGY PREDICTED BY IDOCK:   -0.66 KCAL/MOL
REMARK 927      BINDING AFFINITY PREDICTED BY RF-SCORE:    0.00 PKD
ROOT
HETATM    1  C   UNL     1      -7.946   8.058  67.565  1.00  0.00    -0.122 C  
HETATM    2  C   UNL     1      -8.668   8.618  68.781  1.00  0.00    -0.135 C  
ENDROOT
BRANCH   2   3
HETATM    3  N   UNL     1      -9.383   9.849  68.459  1.00  0.00    -0.140 N  
HETATM    4  C   UNL     1     -10.670   9.790  67.971  1.00  0.00    -0.247 C  
HETATM    5  C   UNL     1     -11.358  10.903  67.709  1.00  0.00    -0.366 C  
HETATM    6  C   UNL     1     -10.635  12.139  68.024  1.00  0.00    -0.210 C  
HETATM    7  N   UNL     1      -9.450  12.220  68.499  1.00  0.00    -0.359 N  
HETATM    8  O   UNL     1      -7.611  11.112  69.195  1.00  0.00    -0.132 OA 
HETATM    9  C   UNL     1      -8.753  11.069  68.742  1.00  0.00    -0.145 C  
HETATM   10  H   UNL     1      -9.032  13.130  68.695  1.00  0.00     0.000 HD 
BRANCH   6  11
HETATM   11  N   UNL     1     -11.367  13.299  67.751  1.00  0.00    -0.279 N  
HETATM   12  H   UNL     1     -12.014  13.629  68.467  1.00  0.00     0.000 HD 
BRANCH  11  13
HETATM   13  S   UNL     1     -11.258  14.183  66.335  1.00  0.00    -0.337 S  
HETATM   14  O   UNL     1     -10.096  13.645  65.654  1.00  0.00    -0.293 OA 
HETATM   15  O   UNL     1     -12.552  14.178  65.688  1.00  0.00    -0.487 OA 
BRANCH  13  16
HETATM   16  C   UNL     1     -10.862  15.826  66.864  1.00  0.00    -0.265 A  
HETATM   17  C   UNL     1     -10.915  16.154  68.220  1.00  0.00    -0.340 A  
HETATM   18  C   UNL     1     -10.587  17.451  68.625  1.00  0.00    -0.318 A  
HETATM   19  C   UNL     1     -10.246  18.431  67.686  1.00  0.00    -0.379 A  
HETATM   20  N   UNL     1      -9.821  19.696  68.109  1.00  0.00    -0.393 NA 
HETATM   21  C   UNL     1     -10.112  18.061  66.346  1.00  0.00    -0.384 A  
HETATM   22  C   UNL     1     -10.421  16.765  65.931  1.00  0.00    -0.311 A  
HETATM   23  H2  UNL     1      -9.033  19.574  68.746  1.00  0.00     0.000 HD 
HETATM   24  H1  UNL     1      -9.572  20.411  67.425  1.00  0.00     0.000 HD 
ENDBRANCH  13  16
ENDBRANCH  11  13
ENDBRANCH   6  11
ENDBRANCH   2   3
TORSDOF 4
ENDMDL
MODEL      140
REMARK 921   NORMALIZED FREE ENERGY PREDICTED BY IDOCK:   -4.44 KCAL/MOL
REMARK 922        TOTAL FREE ENERGY PREDICTED BY IDOCK:   -6.30 KCAL/MOL
REMARK 923 INTER-LIGAND FREE ENERGY PREDICTED BY IDOCK:   -5.75 KCAL/MOL
REMARK 924 INTRA-LIGAND FREE ENERGY PREDICTED BY IDOCK:   -0.55 KCAL/MOL
REMARK 927      BINDING AFFINITY PREDICTED BY RF-SCORE:    0.00 PKD
ROOT
HETATM    1  C   UNL     1      -6.309  17.482  66.797  1.00  0.00    -0.228 C  
HETATM    2  C   UNL     1      -7.114  16.966  67.981  1.00  0.00    -0.157 C  
ENDROOT
BRANCH   2   3
HETATM    3  N   UNL     1      -8.345  16.313  67.546  1.00  0.00    -0.155 N  
HETATM    4  C   UNL     1      -9.472  17.065  67.292  1.00  0.00    -0.240 C  
HETATM    5  C   UNL     1     -10.595  16.495  66.855  1.00  0.00    -0.238 C  
HETATM    6  C   UNL     1     -10.487  15.047  66.644  1.00  0.00    -0.284 C  
HETATM    7  N   UNL     1      -9.447  14.331  66.849  1.00  0.00    -0.252 N  
HETATM    8  O   UNL     1      -7.296  14.270  67.528  1.00  0.00    -0.170 OA 
HETATM    9  C   UNL     1      -8.312  14.930  67.318  1.00  0.00    -0.210 C  
HETATM   10  H   UNL     1      -9.466  13.328  66.665  1.00  0.00     0.000 HD 
BRANCH   6  11
HETATM   11  N   UNL     1     -11.668  14.462  66.179  1.00  0.00    -0.375 N  
HETATM   12  H   UNL     1     -12.548  14.923  66.411  1.00  0.00     0.000 HD 
BRANCH  11  13
HETATM   13  S   UNL     1     -11.742  13.058  65.270  1.00  0.00    -0.376 S  
HETATM   14  O   UNL     1     -13.144  12.914  64.929  1.00  0.00    -0.799 OA 
HETATM   15  O   UNL     1     -10.740  13.132  64.229  1.00  0.00    -0.386 OA 
BRANCH  13  16
HETATM   16  C   UNL     1     -11.327  11.767  66.408  1.00  0.00    -0.297 A  
HETATM   17  C   UNL     1     -10.370  10.813  66.061  1.00  0.00    -0.300 A  
HETATM   18  C   UNL     1     -10.042   9.807  66.974  1.00  0.00    -0.277 A  
HETATM   19  C   UNL     1     -10.688   9.723  68.213  1.00  0.00    -0.233 A  
HETATM   20  N   UNL     1     -10.281   8.775  69.159  1.00  0.00    -0.203 NA 
HETATM   21  C   UNL     1     -11.577  10.737  68.577  1.00  0.00    -0.325 A  
HETATM   22  C   UNL     1     -11.901  11.756  67.680  1.00  0.00    -0.241 A  
HETATM   23  H2  UNL     1      -9.283   8.897  69.327  1.00  0.00     0.000 HD 
HETATM   24  H1  UNL     1     -10.753   8.714  70.062  1.00  0.00     0.000 HD 
ENDBRANCH  13  16
ENDBRANCH  11  13
ENDBRANCH   6  11
ENDBRANCH   2   3
TORSDOF 4
ENDMDL
MODEL      141
REMARK 921   NORMALIZED FREE ENERGY PREDICTED BY IDOCK:   -4.44 KCAL/MOL
REMARK 922        TOTAL FREE ENERGY PREDICTED BY IDOCK:   -6.30 KCAL/MOL
REMARK 923 INTER-LIGAND FREE ENERGY PREDICTED BY IDOCK:   -5.60 KCAL/MOL
REMARK 924 INTRA-LIGAND FREE ENERGY PREDICTED BY IDOCK:   -0.70 KCAL/MOL
REMARK 927      BINDING AFFINITY PREDICTED BY RF-SCORE:    0.00 PKD
ROOT
HETATM    1  C   UNL     1     -10.248   6.127  73.902  1.00  0.00    -0.289 C  
HETATM    2  C   UNL     1     -10.680   6.029  72.447  1.00  0.00    -0.228 C  
ENDROOT
BRANCH   2   3
HETATM    3  N   UNL     1     -10.794   7.349  71.833  1.00  0.00    -0.226 N  
HETATM    4  C   UNL     1      -9.677   8.146  71.700  1.00  0.00    -0.179 C  
HETATM    5  C   UNL     1      -9.750   9.338  71.106  1.00  0.00    -0.327 C  
HETATM    6  C   UNL     1     -11.085   9.671  70.597  1.00  0.00    -0.319 C  
HETATM    7  N   UNL     1     -12.130   8.940  70.687  1.00  0.00    -0.483 N  
HETATM    8  O   UNL     1     -13.028   7.005  71.425  1.00  0.00    -0.382 OA 
HETATM    9  C   UNL     1     -12.041   7.730  71.318  1.00  0.00    -0.306 C  
HETATM   10  H   UNL     1     -13.017   9.254  70.293  1.00  0.00     0.000 HD 
BRANCH   6  11
HETATM   11  N   UNL     1     -11.147  10.919  69.971  1.00  0.00    -0.426 N  
HETATM   12  H   UNL     1     -11.246  11.742  70.565  1.00  0.00     0.000 HD 
BRANCH  11  13
HETATM   13  S   UNL     1     -11.070  11.160  68.316  1.00  0.00    -0.277 S  
HETATM   14  O   UNL     1     -10.862   9.838  67.761  1.00  0.00    -0.275 OA 
HETATM   15  O   UNL     1     -12.213  11.951  67.913  1.00  0.00    -0.508 OA 
BRANCH  13  16
HETATM   16  C   UNL     1      -9.584  12.091  68.070  1.00  0.00    -0.199 A  
HETATM   17  C   UNL     1      -8.356  11.564  68.472  1.00  0.00    -0.146 A  
HETATM   18  C   UNL     1      -7.189  12.304  68.259  1.00  0.00    -0.101 A  
HETATM   19  C   UNL     1      -7.243  13.580  67.685  1.00  0.00    -0.168 A  
HETATM   20  N   UNL     1      -6.062  14.268  67.383  1.00  0.00    -0.314 NA 
HETATM   21  C   UNL     1      -8.468  14.051  67.209  1.00  0.00    -0.220 A  
HETATM   22  C   UNL     1      -9.638  13.315  67.401  1.00  0.00    -0.223 A  
HETATM   23  H2  UNL     1      -5.487  13.673  66.788  1.00  0.00     0.000 HD 
HETATM   24  H1  UNL     1      -6.101  15.198  66.965  1.00  0.00     0.000 HD 
ENDBRANCH  13  16
ENDBRANCH  11  13
ENDBRANCH   6  11
ENDBRANCH   2   3
TORSDOF 4
ENDMDL
MODEL      142
REMARK 921   NORMALIZED FREE ENERGY PREDICTED BY IDOCK:   -4.44 KCAL/MOL
REMARK 922        TOTAL FREE ENERGY PREDICTED BY IDOCK:   -6.29 KCAL/MOL
REMARK 923 INTER-LIGAND FREE ENERGY PREDICTED BY IDOCK:   -5.38 KCAL/MOL
REMARK 924 INTRA-LIGAND FREE ENERGY PREDICTED BY IDOCK:   -0.91 KCAL/MOL
REMARK 927      BINDING AFFINITY PREDICTED BY RF-SCORE:    0.00 PKD
ROOT
HETATM    1  C   UNL     1     -10.824   5.561  73.365  1.00  0.00    -0.332 C  
HETATM    2  C   UNL     1     -11.367   5.810  71.966  1.00  0.00    -0.228 C  
ENDROOT
BRANCH   2   3
HETATM    3  N   UNL     1     -11.212   7.208  71.573  1.00  0.00    -0.240 N  
HETATM    4  C   UNL     1      -9.955   7.770  71.508  1.00  0.00    -0.171 C  
HETATM    5  C   UNL     1      -9.787   9.032  71.113  1.00  0.00    -0.371 C  
HETATM    6  C   UNL     1     -11.031   9.710  70.732  1.00  0.00    -0.327 C  
HETATM    7  N   UNL     1     -12.205   9.204  70.762  1.00  0.00    -0.474 N  
HETATM    8  O   UNL     1     -13.475   7.399  71.234  1.00  0.00    -0.353 OA 
HETATM    9  C   UNL     1     -12.360   7.915  71.190  1.00  0.00    -0.230 C  
HETATM   10  H   UNL     1     -13.013   9.753  70.469  1.00  0.00     0.000 HD 
BRANCH   6  11
HETATM   11  N   UNL     1     -10.841  11.030  70.314  1.00  0.00    -0.396 N  
HETATM   12  H   UNL     1     -10.548  11.712  71.014  1.00  0.00     0.000 HD 
BRANCH  11  13
HETATM   13  S   UNL     1     -11.059  11.573  68.746  1.00  0.00    -0.256 S  
HETATM   14  O   UNL     1     -12.405  11.163  68.398  1.00  0.00    -0.556 OA 
HETATM   15  O   UNL     1     -10.681  12.969  68.685  1.00  0.00    -0.247 OA 
BRANCH  13  16
HETATM   16  C   UNL     1      -9.931  10.609  67.779  1.00  0.00    -0.167 A  
HETATM   17  C   UNL     1     -10.408   9.558  66.994  1.00  0.00    -0.319 A  
HETATM   18  C   UNL     1      -9.508   8.814  66.225  1.00  0.00    -0.300 A  
HETATM   19  C   UNL     1      -8.135   9.083  66.265  1.00  0.00    -0.110 A  
HETATM   20  N   UNL     1      -7.257   8.400  65.416  1.00  0.00    -0.081 NA 
HETATM   21  C   UNL     1      -7.689  10.193  66.986  1.00  0.00    -0.096 A  
HETATM   22  C   UNL     1      -8.579  10.954  67.745  1.00  0.00    -0.128 A  
HETATM   23  H2  UNL     1      -7.579   8.521  64.456  1.00  0.00     0.000 HD 
HETATM   24  H1  UNL     1      -6.256   8.597  65.445  1.00  0.00     0.000 HD 
ENDBRANCH  13  16
ENDBRANCH  11  13
ENDBRANCH   6  11
ENDBRANCH   2   3
TORSDOF 4
ENDMDL
MODEL      143
REMARK 921   NORMALIZED FREE ENERGY PREDICTED BY IDOCK:   -4.42 KCAL/MOL
REMARK 922        TOTAL FREE ENERGY PREDICTED BY IDOCK:   -6.27 KCAL/MOL
REMARK 923 INTER-LIGAND FREE ENERGY PREDICTED BY IDOCK:   -5.49 KCAL/MOL
REMARK 924 INTRA-LIGAND FREE ENERGY PREDICTED BY IDOCK:   -0.78 KCAL/MOL
REMARK 927      BINDING AFFINITY PREDICTED BY RF-SCORE:    0.00 PKD
ROOT
HETATM    1  C   UNL     1     -11.942  14.530  68.742  1.00  0.00    -0.315 C  
HETATM    2  C   UNL     1     -10.945  13.414  68.468  1.00  0.00    -0.268 C  
ENDROOT
BRANCH   2   3
HETATM    3  N   UNL     1     -11.315  12.184  69.162  1.00  0.00    -0.262 N  
HETATM    4  C   UNL     1     -12.119  12.239  70.281  1.00  0.00    -0.295 C  
HETATM    5  C   UNL     1     -12.503  11.126  70.907  1.00  0.00    -0.509 C  
HETATM    6  C   UNL     1     -12.030   9.891  70.274  1.00  0.00    -0.138 C  
HETATM    7  N   UNL     1     -11.304   9.812  69.224  1.00  0.00    -0.441 N  
HETATM    8  O   UNL     1     -10.201  10.925  67.599  1.00  0.00    -0.174 OA 
HETATM    9  C   UNL     1     -10.902  10.965  68.608  1.00  0.00    -0.217 C  
HETATM   10  H   UNL     1     -11.029   8.903  68.851  1.00  0.00     0.000 HD 
BRANCH   6  11
HETATM   11  N   UNL     1     -12.444   8.731  70.935  1.00  0.00    -0.492 N  
HETATM   12  H   UNL     1     -13.335   8.760  71.429  1.00  0.00     0.000 HD 
BRANCH  11  13
HETATM   13  S   UNL     1     -11.582   7.296  70.973  1.00  0.00    -0.310 S  
HETATM   14  O   UNL     1     -12.409   6.390  71.745  1.00  0.00    -0.333 OA 
HETATM   15  O   UNL     1     -11.192   6.958  69.621  1.00  0.00    -0.273 OA 
BRANCH  13  16
HETATM   16  C   UNL     1     -10.142   7.667  71.934  1.00  0.00    -0.178 A  
HETATM   17  C   UNL     1     -10.162   7.491  73.318  1.00  0.00    -0.398 A  
HETATM   18  C   UNL     1      -9.013   7.774  74.062  1.00  0.00    -0.273 A  
HETATM   19  C   UNL     1      -7.860   8.268  73.442  1.00  0.00    -0.144 A  
HETATM   20  N   UNL     1      -6.685   8.452  74.180  1.00  0.00    -0.133 NA 
HETATM   21  C   UNL     1      -7.830   8.353  72.049  1.00  0.00    -0.171 A  
HETATM   22  C   UNL     1      -8.965   8.058  71.292  1.00  0.00    -0.166 A  
HETATM   23  H2  UNL     1      -6.451   7.570  74.636  1.00  0.00     0.000 HD 
HETATM   24  H1  UNL     1      -5.844   8.813  73.729  1.00  0.00     0.000 HD 
ENDBRANCH  13  16
ENDBRANCH  11  13
ENDBRANCH   6  11
ENDBRANCH   2   3
TORSDOF 4
ENDMDL
MODEL      144
REMARK 921   NORMALIZED FREE ENERGY PREDICTED BY IDOCK:   -4.42 KCAL/MOL
REMARK 922        TOTAL FREE ENERGY PREDICTED BY IDOCK:   -6.27 KCAL/MOL
REMARK 923 INTER-LIGAND FREE ENERGY PREDICTED BY IDOCK:   -5.87 KCAL/MOL
REMARK 924 INTRA-LIGAND FREE ENERGY PREDICTED BY IDOCK:   -0.40 KCAL/MOL
REMARK 927      BINDING AFFINITY PREDICTED BY RF-SCORE:    0.00 PKD
ROOT
HETATM    1  C   UNL     1      -6.079  15.588  69.453  1.00  0.00    -0.123 C  
HETATM    2  C   UNL     1      -5.896  15.474  67.947  1.00  0.00    -0.146 C  
ENDROOT
BRANCH   2   3
HETATM    3  N   UNL     1      -7.176  15.316  67.263  1.00  0.00    -0.201 N  
HETATM    4  C   UNL     1      -7.805  16.415  66.718  1.00  0.00    -0.266 C  
HETATM    5  C   UNL     1      -8.954  16.289  66.053  1.00  0.00    -0.325 C  
HETATM    6  C   UNL     1      -9.429  14.906  65.936  1.00  0.00    -0.254 C  
HETATM    7  N   UNL     1      -8.851  13.869  66.412  1.00  0.00    -0.461 N  
HETATM    8  O   UNL     1      -7.107  13.044  67.583  1.00  0.00    -0.127 OA 
HETATM    9  C   UNL     1      -7.685  14.020  67.109  1.00  0.00     0.022 C  
HETATM   10  H   UNL     1      -9.255  12.942  66.273  1.00  0.00     0.000 HD 
BRANCH   6  11
HETATM   11  N   UNL     1     -10.630  14.786  65.232  1.00  0.00    -0.365 N  
HETATM   12  H   UNL     1     -10.861  15.517  64.560  1.00  0.00     0.000 HD 
BRANCH  11  13
HETATM   13  S   UNL     1     -11.718  13.526  65.411  1.00  0.00    -0.349 S  
HETATM   14  O   UNL     1     -12.972  14.047  64.905  1.00  0.00    -0.707 OA 
HETATM   15  O   UNL     1     -11.137  12.332  64.836  1.00  0.00    -0.295 OA 
BRANCH  13  16
HETATM   16  C   UNL     1     -11.882  13.324  67.163  1.00  0.00    -0.374 A  
HETATM   17  C   UNL     1     -11.735  12.061  67.737  1.00  0.00    -0.379 A  
HETATM   18  C   UNL     1     -11.854  11.919  69.122  1.00  0.00    -0.371 A  
HETATM   19  C   UNL     1     -12.157  13.019  69.933  1.00  0.00    -0.277 A  
HETATM   20  N   UNL     1     -12.173  12.885  71.327  1.00  0.00    -0.283 NA 
HETATM   21  C   UNL     1     -12.211  14.287  69.352  1.00  0.00    -0.319 A  
HETATM   22  C   UNL     1     -12.078  14.445  67.972  1.00  0.00    -0.266 A  
HETATM   23  H2  UNL     1     -11.273  12.506  71.623  1.00  0.00     0.000 HD 
HETATM   24  H1  UNL     1     -12.393  13.687  71.918  1.00  0.00     0.000 HD 
ENDBRANCH  13  16
ENDBRANCH  11  13
ENDBRANCH   6  11
ENDBRANCH   2   3
TORSDOF 4
ENDMDL
MODEL      145
REMARK 921   NORMALIZED FREE ENERGY PREDICTED BY IDOCK:   -4.41 KCAL/MOL
REMARK 922        TOTAL FREE ENERGY PREDICTED BY IDOCK:   -6.26 KCAL/MOL
REMARK 923 INTER-LIGAND FREE ENERGY PREDICTED BY IDOCK:   -5.49 KCAL/MOL
REMARK 924 INTRA-LIGAND FREE ENERGY PREDICTED BY IDOCK:   -0.77 KCAL/MOL
REMARK 927      BINDING AFFINITY PREDICTED BY RF-SCORE:    0.00 PKD
ROOT
HETATM    1  C   UNL     1      -7.917   6.844  64.581  1.00  0.00    -0.112 C  
HETATM    2  C   UNL     1      -8.634   6.617  65.904  1.00  0.00    -0.148 C  
ENDROOT
BRANCH   2   3
HETATM    3  N   UNL     1      -9.006   7.880  66.534  1.00  0.00    -0.152 N  
HETATM    4  C   UNL     1      -8.096   8.914  66.595  1.00  0.00    -0.107 C  
HETATM    5  C   UNL     1      -8.427  10.090  67.130  1.00  0.00    -0.125 C  
HETATM    6  C   UNL     1      -9.818  10.168  67.587  1.00  0.00    -0.172 C  
HETATM    7  N   UNL     1     -10.687   9.232  67.520  1.00  0.00    -0.405 N  
HETATM    8  O   UNL     1     -11.134   7.105  66.913  1.00  0.00    -0.327 OA 
HETATM    9  C   UNL     1     -10.324   8.026  66.988  1.00  0.00    -0.344 C  
HETATM   10  H   UNL     1     -11.638   9.383  67.858  1.00  0.00     0.000 HD 
BRANCH   6  11
HETATM   11  N   UNL     1     -10.155  11.407  68.139  1.00  0.00    -0.183 N  
HETATM   12  H   UNL     1      -9.644  11.711  68.968  1.00  0.00     0.000 HD 
BRANCH  11  13
HETATM   13  S   UNL     1     -11.336  12.429  67.537  1.00  0.00    -0.337 S  
HETATM   14  O   UNL     1     -11.840  11.755  66.357  1.00  0.00    -0.534 OA 
HETATM   15  O   UNL     1     -12.232  12.783  68.616  1.00  0.00    -0.189 OA 
BRANCH  13  16
HETATM   16  C   UNL     1     -10.451  13.867  67.002  1.00  0.00    -0.278 A  
HETATM   17  C   UNL     1     -11.130  14.908  66.368  1.00  0.00    -0.342 A  
HETATM   18  C   UNL     1     -10.421  16.043  65.963  1.00  0.00    -0.356 A  
HETATM   19  C   UNL     1      -9.036  16.129  66.150  1.00  0.00    -0.347 A  
HETATM   20  N   UNL     1      -8.353  17.309  65.834  1.00  0.00    -0.542 NA 
HETATM   21  C   UNL     1      -8.391  15.118  66.865  1.00  0.00    -0.267 A  
HETATM   22  C   UNL     1      -9.090  13.987  67.289  1.00  0.00    -0.224 A  
HETATM   23  H2  UNL     1      -8.793  18.079  66.338  1.00  0.00     0.000 HD 
HETATM   24  H1  UNL     1      -7.344  17.372  65.970  1.00  0.00     0.000 HD 
ENDBRANCH  13  16
ENDBRANCH  11  13
ENDBRANCH   6  11
ENDBRANCH   2   3
TORSDOF 4
ENDMDL
MODEL      146
REMARK 921   NORMALIZED FREE ENERGY PREDICTED BY IDOCK:   -4.37 KCAL/MOL
REMARK 922        TOTAL FREE ENERGY PREDICTED BY IDOCK:   -6.21 KCAL/MOL
REMARK 923 INTER-LIGAND FREE ENERGY PREDICTED BY IDOCK:   -5.55 KCAL/MOL
REMARK 924 INTRA-LIGAND FREE ENERGY PREDICTED BY IDOCK:   -0.66 KCAL/MOL
REMARK 927      BINDING AFFINITY PREDICTED BY RF-SCORE:    0.00 PKD
ROOT
HETATM    1  C   UNL     1      -6.918   6.738  67.793  1.00  0.00    -0.083 C  
HETATM    2  C   UNL     1      -8.355   7.030  68.196  1.00  0.00    -0.123 C  
ENDROOT
BRANCH   2   3
HETATM    3  N   UNL     1      -8.855   8.242  67.554  1.00  0.00    -0.135 N  
HETATM    4  C   UNL     1      -9.235   8.213  66.229  1.00  0.00    -0.191 C  
HETATM    5  C   UNL     1      -9.733   9.297  65.633  1.00  0.00    -0.302 C  
HETATM    6  C   UNL     1      -9.864  10.459  66.519  1.00  0.00    -0.206 C  
HETATM    7  N   UNL     1      -9.541  10.504  67.756  1.00  0.00    -0.155 N  
HETATM    8  O   UNL     1      -8.689   9.399  69.530  1.00  0.00    -0.139 OA 
HETATM    9  C   UNL     1      -9.013   9.389  68.344  1.00  0.00    -0.128 C  
HETATM   10  H   UNL     1      -9.677  11.359  68.296  1.00  0.00     0.000 HD 
BRANCH   6  11
HETATM   11  N   UNL     1     -10.393  11.587  65.885  1.00  0.00    -0.239 N  
HETATM   12  H   UNL     1      -9.914  11.930  65.052  1.00  0.00     0.000 HD 
BRANCH  11  13
HETATM   13  S   UNL     1     -11.755  12.415  66.395  1.00  0.00    -0.357 S  
HETATM   14  O   UNL     1     -12.654  12.380  65.258  1.00  0.00    -0.636 OA 
HETATM   15  O   UNL     1     -12.170  11.875  67.672  1.00  0.00    -0.510 OA 
BRANCH  13  16
HETATM   16  C   UNL     1     -11.209  14.086  66.603  1.00  0.00    -0.323 A  
HETATM   17  C   UNL     1     -11.601  14.814  67.728  1.00  0.00    -0.378 A  
HETATM   18  C   UNL     1     -11.152  16.128  67.886  1.00  0.00    -0.293 A  
HETATM   19  C   UNL     1     -10.348  16.734  66.913  1.00  0.00    -0.294 A  
HETATM   20  N   UNL     1      -9.821  18.012  67.129  1.00  0.00    -0.304 NA 
HETATM   21  C   UNL     1      -9.894  15.962  65.841  1.00  0.00    -0.383 A  
HETATM   22  C   UNL     1     -10.323  14.644  65.680  1.00  0.00    -0.370 A  
HETATM   23  H2  UNL     1      -9.305  18.002  68.009  1.00  0.00     0.000 HD 
HETATM   24  H1  UNL     1      -9.235  18.454  66.420  1.00  0.00     0.000 HD 
ENDBRANCH  13  16
ENDBRANCH  11  13
ENDBRANCH   6  11
ENDBRANCH   2   3
TORSDOF 4
ENDMDL
MODEL      147
REMARK 921   NORMALIZED FREE ENERGY PREDICTED BY IDOCK:   -4.36 KCAL/MOL
REMARK 922        TOTAL FREE ENERGY PREDICTED BY IDOCK:   -6.20 KCAL/MOL
REMARK 923 INTER-LIGAND FREE ENERGY PREDICTED BY IDOCK:   -5.42 KCAL/MOL
REMARK 924 INTRA-LIGAND FREE ENERGY PREDICTED BY IDOCK:   -0.79 KCAL/MOL
REMARK 927      BINDING AFFINITY PREDICTED BY RF-SCORE:    0.00 PKD
ROOT
HETATM    1  C   UNL     1     -11.885  12.112  63.441  1.00  0.00    -0.553 C  
HETATM    2  C   UNL     1     -10.834  11.246  64.119  1.00  0.00    -0.337 C  
ENDROOT
BRANCH   2   3
HETATM    3  N   UNL     1     -10.253  11.919  65.278  1.00  0.00    -0.263 N  
HETATM    4  C   UNL     1     -10.934  12.950  65.888  1.00  0.00    -0.276 C  
HETATM    5  C   UNL     1     -10.441  13.552  66.972  1.00  0.00    -0.265 C  
HETATM    6  C   UNL     1      -9.172  12.988  67.443  1.00  0.00    -0.208 C  
HETATM    7  N   UNL     1      -8.534  12.018  66.909  1.00  0.00    -0.178 N  
HETATM    8  O   UNL     1      -8.452  10.494  65.245  1.00  0.00    -0.168 OA 
HETATM    9  C   UNL     1      -9.043  11.427  65.786  1.00  0.00    -0.184 C  
HETATM   10  H   UNL     1      -7.657  11.689  67.315  1.00  0.00     0.000 HD 
BRANCH   6  11
HETATM   11  N   UNL     1      -8.669  13.623  68.583  1.00  0.00    -0.348 N  
HETATM   12  H   UNL     1      -9.007  13.303  69.491  1.00  0.00     0.000 HD 
BRANCH  11  13
HETATM   13  S   UNL     1      -7.552  14.869  68.566  1.00  0.00    -0.129 S  
HETATM   14  O   UNL     1      -7.162  15.033  69.952  1.00  0.00    -0.187 OA 
HETATM   15  O   UNL     1      -6.557  14.580  67.556  1.00  0.00    -0.227 OA 
BRANCH  13  16
HETATM   16  C   UNL     1      -8.485  16.297  68.092  1.00  0.00    -0.174 A  
HETATM   17  C   UNL     1      -8.471  16.732  66.766  1.00  0.00    -0.268 A  
HETATM   18  C   UNL     1      -9.222  17.853  66.403  1.00  0.00    -0.258 A  
HETATM   19  C   UNL     1      -9.955  18.566  67.360  1.00  0.00    -0.330 A  
HETATM   20  N   UNL     1     -10.784  19.624  66.969  1.00  0.00    -0.480 NA 
HETATM   21  C   UNL     1     -10.028  18.065  68.661  1.00  0.00    -0.396 A  
HETATM   22  C   UNL     1      -9.295  16.937  69.032  1.00  0.00    -0.188 A  
HETATM   23  H2  UNL     1     -11.432  19.280  66.261  1.00  0.00     0.000 HD 
HETATM   24  H1  UNL     1     -11.317  20.144  67.666  1.00  0.00     0.000 HD 
ENDBRANCH  13  16
ENDBRANCH  11  13
ENDBRANCH   6  11
ENDBRANCH   2   3
TORSDOF 4
ENDMDL
MODEL      148
REMARK 921   NORMALIZED FREE ENERGY PREDICTED BY IDOCK:   -4.36 KCAL/MOL
REMARK 922        TOTAL FREE ENERGY PREDICTED BY IDOCK:   -6.20 KCAL/MOL
REMARK 923 INTER-LIGAND FREE ENERGY PREDICTED BY IDOCK:   -5.54 KCAL/MOL
REMARK 924 INTRA-LIGAND FREE ENERGY PREDICTED BY IDOCK:   -0.66 KCAL/MOL
REMARK 927      BINDING AFFINITY PREDICTED BY RF-SCORE:    0.00 PKD
ROOT
HETATM    1  C   UNL     1      -8.227   8.194  62.977  1.00  0.00    -0.103 C  
HETATM    2  C   UNL     1      -8.133   9.469  63.803  1.00  0.00    -0.152 C  
ENDROOT
BRANCH   2   3
HETATM    3  N   UNL     1      -8.999   9.410  64.977  1.00  0.00    -0.206 N  
HETATM    4  C   UNL     1      -9.076   8.251  65.719  1.00  0.00    -0.114 C  
HETATM    5  C   UNL     1      -9.828   8.188  66.818  1.00  0.00    -0.329 C  
HETATM    6  C   UNL     1     -10.500   9.447  67.156  1.00  0.00    -0.244 C  
HETATM    7  N   UNL     1     -10.426  10.541  66.497  1.00  0.00    -0.234 N  
HETATM    8  O   UNL     1      -9.577  11.616  64.703  1.00  0.00    -0.216 OA 
HETATM    9  C   UNL     1      -9.667  10.581  65.361  1.00  0.00    -0.257 C  
HETATM   10  H   UNL     1     -10.925  11.372  66.816  1.00  0.00     0.000 HD 
BRANCH   6  11
HETATM   11  N   UNL     1     -11.280   9.370  68.313  1.00  0.00    -0.490 N  
HETATM   12  H   UNL     1     -12.199   8.933  68.237  1.00  0.00     0.000 HD 
BRANCH  11  13
HETATM   13  S   UNL     1     -10.815   9.943  69.815  1.00  0.00    -0.285 S  
HETATM   14  O   UNL     1      -9.408  10.259  69.669  1.00  0.00    -0.205 OA 
HETATM   15  O   UNL     1     -11.755  10.962  70.230  1.00  0.00    -0.294 OA 
BRANCH  13  16
HETATM   16  C   UNL     1     -10.947   8.540  70.888  1.00  0.00    -0.251 A  
HETATM   17  C   UNL     1     -10.546   8.640  72.221  1.00  0.00    -0.375 A  
HETATM   18  C   UNL     1     -10.668   7.529  73.059  1.00  0.00    -0.438 A  
HETATM   19  C   UNL     1     -11.148   6.309  72.569  1.00  0.00    -0.272 A  
HETATM   20  N   UNL     1     -11.362   5.233  73.439  1.00  0.00    -0.486 NA 
HETATM   21  C   UNL     1     -11.627   6.253  71.258  1.00  0.00    -0.336 A  
HETATM   22  C   UNL     1     -11.526   7.361  70.415  1.00  0.00    -0.250 A  
HETATM   23  H2  UNL     1     -11.982   5.544  74.187  1.00  0.00     0.000 HD 
HETATM   24  H1  UNL     1     -11.712   4.344  73.082  1.00  0.00     0.000 HD 
ENDBRANCH  13  16
ENDBRANCH  11  13
ENDBRANCH   6  11
ENDBRANCH   2   3
TORSDOF 4
ENDMDL
MODEL      149
REMARK 921   NORMALIZED FREE ENERGY PREDICTED BY IDOCK:   -4.35 KCAL/MOL
REMARK 922        TOTAL FREE ENERGY PREDICTED BY IDOCK:   -6.19 KCAL/MOL
REMARK 923 INTER-LIGAND FREE ENERGY PREDICTED BY IDOCK:   -5.77 KCAL/MOL
REMARK 924 INTRA-LIGAND FREE ENERGY PREDICTED BY IDOCK:   -0.42 KCAL/MOL
REMARK 927      BINDING AFFINITY PREDICTED BY RF-SCORE:    0.00 PKD
ROOT
HETATM    1  C   UNL     1     -11.708  12.633  63.392  1.00  0.00    -0.571 C  
HETATM    2  C   UNL     1     -11.711  12.849  64.898  1.00  0.00    -0.348 C  
ENDROOT
BRANCH   2   3
HETATM    3  N   UNL     1     -11.066  11.742  65.598  1.00  0.00    -0.304 N  
HETATM    4  C   UNL     1     -10.163  10.940  64.934  1.00  0.00    -0.316 C  
HETATM    5  C   UNL     1      -9.531   9.949  65.564  1.00  0.00    -0.313 C  
HETATM    6  C   UNL     1      -9.859   9.842  66.989  1.00  0.00    -0.191 C  
HETATM    7  N   UNL     1     -10.674  10.589  67.633  1.00  0.00    -0.254 N  
HETATM    8  O   UNL     1     -12.122  12.318  67.554  1.00  0.00    -0.514 OA 
HETATM    9  C   UNL     1     -11.329  11.586  66.966  1.00  0.00    -0.269 C  
HETATM   10  H   UNL     1     -10.833  10.442  68.630  1.00  0.00     0.000 HD 
BRANCH   6  11
HETATM   11  N   UNL     1      -9.186   8.804  67.641  1.00  0.00    -0.133 N  
HETATM   12  H   UNL     1      -8.375   9.049  68.208  1.00  0.00     0.000 HD 
BRANCH  11  13
HETATM   13  S   UNL     1      -9.615   7.189  67.556  1.00  0.00    -0.137 S  
HETATM   14  O   UNL     1     -10.759   7.158  66.665  1.00  0.00    -0.245 OA 
HETATM   15  O   UNL     1      -8.432   6.414  67.253  1.00  0.00    -0.112 OA 
BRANCH  13  16
HETATM   16  C   UNL     1     -10.187   6.793  69.184  1.00  0.00    -0.181 A  
HETATM   17  C   UNL     1     -10.805   7.772  69.964  1.00  0.00    -0.243 A  
HETATM   18  C   UNL     1     -11.263   7.442  71.243  1.00  0.00    -0.275 A  
HETATM   19  C   UNL     1     -11.074   6.157  71.763  1.00  0.00    -0.274 A  
HETATM   20  N   UNL     1     -11.626   5.809  73.002  1.00  0.00    -0.519 NA 
HETATM   21  C   UNL     1     -10.535   5.169  70.936  1.00  0.00    -0.258 A  
HETATM   22  C   UNL     1     -10.088   5.482  69.652  1.00  0.00    -0.309 A  
HETATM   23  H2  UNL     1     -12.628   5.998  72.972  1.00  0.00     0.000 HD 
HETATM   24  H1  UNL     1     -11.488   4.872  73.382  1.00  0.00     0.000 HD 
ENDBRANCH  13  16
ENDBRANCH  11  13
ENDBRANCH   6  11
ENDBRANCH   2   3
TORSDOF 4
ENDMDL
MODEL      150
REMARK 921   NORMALIZED FREE ENERGY PREDICTED BY IDOCK:   -4.32 KCAL/MOL
REMARK 922        TOTAL FREE ENERGY PREDICTED BY IDOCK:   -6.15 KCAL/MOL
REMARK 923 INTER-LIGAND FREE ENERGY PREDICTED BY IDOCK:   -5.32 KCAL/MOL
REMARK 924 INTRA-LIGAND FREE ENERGY PREDICTED BY IDOCK:   -0.84 KCAL/MOL
REMARK 927      BINDING AFFINITY PREDICTED BY RF-SCORE:    0.00 PKD
ROOT
HETATM    1  C   UNL     1     -11.469  12.775  68.030  1.00  0.00    -0.364 C  
HETATM    2  C   UNL     1     -12.041  12.448  69.401  1.00  0.00    -0.180 C  
ENDROOT
BRANCH   2   3
HETATM    3  N   UNL     1     -11.472  11.215  69.938  1.00  0.00    -0.296 N  
HETATM    4  C   UNL     1     -10.311  10.702  69.401  1.00  0.00    -0.208 C  
HETATM    5  C   UNL     1      -9.751   9.600  69.902  1.00  0.00    -0.262 C  
HETATM    6  C   UNL     1     -10.456   9.046  71.063  1.00  0.00    -0.269 C  
HETATM    7  N   UNL     1     -11.520   9.517  71.594  1.00  0.00    -0.389 N  
HETATM    8  O   UNL     1     -13.117  11.111  71.537  1.00  0.00    -0.425 OA 
HETATM    9  C   UNL     1     -12.092  10.635  71.053  1.00  0.00    -0.368 C  
HETATM   10  H   UNL     1     -11.936   9.065  72.408  1.00  0.00     0.000 HD 
BRANCH   6  11
HETATM   11  N   UNL     1      -9.856   7.895  71.583  1.00  0.00    -0.162 N  
HETATM   12  H   UNL     1      -9.047   8.017  72.191  1.00  0.00     0.000 HD 
BRANCH  11  13
HETATM   13  S   UNL     1     -10.372   6.332  71.280  1.00  0.00    -0.218 S  
HETATM   14  O   UNL     1      -9.435   5.490  71.997  1.00  0.00    -0.150 OA 
HETATM   15  O   UNL     1     -11.789   6.253  71.560  1.00  0.00    -0.306 OA 
BRANCH  13  16
HETATM   16  C   UNL     1     -10.093   6.099  69.547  1.00  0.00    -0.185 A  
HETATM   17  C   UNL     1     -11.145   6.257  68.644  1.00  0.00    -0.409 A  
HETATM   18  C   UNL     1     -10.908   6.083  67.277  1.00  0.00    -0.403 A  
HETATM   19  C   UNL     1      -9.641   5.714  66.810  1.00  0.00    -0.146 A  
HETATM   20  N   UNL     1      -9.389   5.642  65.435  1.00  0.00    -0.362 NA 
HETATM   21  C   UNL     1      -8.583   5.649  67.718  1.00  0.00    -0.101 A  
HETATM   22  C   UNL     1      -8.803   5.836  69.084  1.00  0.00    -0.112 A  
HETATM   23  H2  UNL     1      -9.637   6.539  65.015  1.00  0.00     0.000 HD 
HETATM   24  H1  UNL     1      -8.466   5.374  65.094  1.00  0.00     0.000 HD 
ENDBRANCH  13  16
ENDBRANCH  11  13
ENDBRANCH   6  11
ENDBRANCH   2   3
TORSDOF 4
ENDMDL
MODEL      151
REMARK 921   NORMALIZED FREE ENERGY PREDICTED BY IDOCK:   -4.32 KCAL/MOL
REMARK 922        TOTAL FREE ENERGY PREDICTED BY IDOCK:   -6.15 KCAL/MOL
REMARK 923 INTER-LIGAND FREE ENERGY PREDICTED BY IDOCK:   -5.61 KCAL/MOL
REMARK 924 INTRA-LIGAND FREE ENERGY PREDICTED BY IDOCK:   -0.54 KCAL/MOL
REMARK 927      BINDING AFFINITY PREDICTED BY RF-SCORE:    0.00 PKD
ROOT
HETATM    1  C   UNL     1     -12.155  14.024  69.524  1.00  0.00    -0.397 C  
HETATM    2  C   UNL     1     -11.885  12.703  68.818  1.00  0.00    -0.300 C  
ENDROOT
BRANCH   2   3
HETATM    3  N   UNL     1     -11.689  11.617  69.774  1.00  0.00    -0.331 N  
HETATM    4  C   UNL     1     -12.649  11.357  70.728  1.00  0.00    -0.316 C  
HETATM    5  C   UNL     1     -12.511  10.344  71.584  1.00  0.00    -0.471 C  
HETATM    6  C   UNL     1     -11.296   9.549  71.377  1.00  0.00    -0.392 C  
HETATM    7  N   UNL     1     -10.403   9.755  70.485  1.00  0.00    -0.292 N  
HETATM    8  O   UNL     1      -9.709  11.039  68.764  1.00  0.00    -0.188 OA 
HETATM    9  C   UNL     1     -10.551  10.811  69.630  1.00  0.00    -0.175 C  
HETATM   10  H   UNL     1      -9.591   9.140  70.413  1.00  0.00     0.000 HD 
BRANCH   6  11
HETATM   11  N   UNL     1     -11.165   8.486  72.276  1.00  0.00    -0.362 N  
HETATM   12  H   UNL     1     -10.699   8.672  73.164  1.00  0.00     0.000 HD 
BRANCH  11  13
HETATM   13  S   UNL     1     -11.718   6.931  72.001  1.00  0.00    -0.304 S  
HETATM   14  O   UNL     1     -11.357   6.194  73.196  1.00  0.00    -0.180 OA 
HETATM   15  O   UNL     1     -13.100   7.003  71.575  1.00  0.00    -0.380 OA 
BRANCH  13  16
HETATM   16  C   UNL     1     -10.716   6.330  70.670  1.00  0.00    -0.264 A  
HETATM   17  C   UNL     1     -11.255   6.211  69.389  1.00  0.00    -0.466 A  
HETATM   18  C   UNL     1     -10.448   5.748  68.345  1.00  0.00    -0.283 A  
HETATM   19  C   UNL     1      -9.122   5.366  68.579  1.00  0.00    -0.108 A  
HETATM   20  N   UNL     1      -8.294   5.001  67.511  1.00  0.00    -0.106 NA 
HETATM   21  C   UNL     1      -8.575   5.576  69.846  1.00  0.00    -0.120 A  
HETATM   22  C   UNL     1      -9.366   6.053  70.893  1.00  0.00    -0.175 A  
HETATM   23  H2  UNL     1      -8.293   5.762  66.831  1.00  0.00     0.000 HD 
HETATM   24  H1  UNL     1      -7.327   4.723  67.681  1.00  0.00     0.000 HD 
ENDBRANCH  13  16
ENDBRANCH  11  13
ENDBRANCH   6  11
ENDBRANCH   2   3
TORSDOF 4
ENDMDL
MODEL      152
REMARK 921   NORMALIZED FREE ENERGY PREDICTED BY IDOCK:   -4.32 KCAL/MOL
REMARK 922        TOTAL FREE ENERGY PREDICTED BY IDOCK:   -6.15 KCAL/MOL
REMARK 923 INTER-LIGAND FREE ENERGY PREDICTED BY IDOCK:   -5.59 KCAL/MOL
REMARK 924 INTRA-LIGAND FREE ENERGY PREDICTED BY IDOCK:   -0.56 KCAL/MOL
REMARK 927      BINDING AFFINITY PREDICTED BY RF-SCORE:    0.00 PKD
ROOT
HETATM    1  C   UNL     1      -9.379  17.660  66.891  1.00  0.00    -0.268 C  
HETATM    2  C   UNL     1      -8.200  16.777  67.271  1.00  0.00    -0.176 C  
ENDROOT
BRANCH   2   3
HETATM    3  N   UNL     1      -8.644  15.499  67.821  1.00  0.00    -0.150 N  
HETATM    4  C   UNL     1      -9.913  15.379  68.345  1.00  0.00    -0.215 C  
HETATM    5  C   UNL     1     -10.355  14.212  68.816  1.00  0.00    -0.230 C  
HETATM    6  C   UNL     1      -9.395  13.111  68.679  1.00  0.00     0.012 C  
HETATM    7  N   UNL     1      -8.222  13.192  68.176  1.00  0.00    -0.153 N  
HETATM    8  O   UNL     1      -6.655  14.514  67.232  1.00  0.00    -0.288 OA 
HETATM    9  C   UNL     1      -7.779  14.401  67.718  1.00  0.00    -0.161 C  
HETATM   10  H   UNL     1      -7.627  12.365  68.116  1.00  0.00     0.000 HD 
BRANCH   6  11
HETATM   11  N   UNL     1      -9.872  11.892  69.169  1.00  0.00    -0.396 N  
HETATM   12  H   UNL     1      -9.389  11.482  69.968  1.00  0.00     0.000 HD 
BRANCH  11  13
HETATM   13  S   UNL     1     -11.179  11.057  68.540  1.00  0.00    -0.294 S  
HETATM   14  O   UNL     1     -11.003   9.695  69.002  1.00  0.00    -0.208 OA 
HETATM   15  O   UNL     1     -12.387  11.787  68.858  1.00  0.00    -0.293 OA 
BRANCH  13  16
HETATM   16  C   UNL     1     -10.916  11.072  66.789  1.00  0.00    -0.217 A  
HETATM   17  C   UNL     1     -10.065  10.135  66.203  1.00  0.00    -0.314 A  
HETATM   18  C   UNL     1      -9.877  10.150  64.817  1.00  0.00    -0.382 A  
HETATM   19  C   UNL     1     -10.500  11.117  64.019  1.00  0.00    -0.383 A  
HETATM   20  N   UNL     1     -10.387  11.061  62.625  1.00  0.00    -0.733 NA 
HETATM   21  C   UNL     1     -11.417  11.988  64.612  1.00  0.00    -0.371 A  
HETATM   22  C   UNL     1     -11.625  11.973  65.992  1.00  0.00    -0.371 A  
HETATM   23  H2  UNL     1     -10.698  10.140  62.315  1.00  0.00     0.000 HD 
HETATM   24  H1  UNL     1     -10.841  11.765  62.043  1.00  0.00     0.000 HD 
ENDBRANCH  13  16
ENDBRANCH  11  13
ENDBRANCH   6  11
ENDBRANCH   2   3
TORSDOF 4
ENDMDL
MODEL      153
REMARK 921   NORMALIZED FREE ENERGY PREDICTED BY IDOCK:   -4.30 KCAL/MOL
REMARK 922        TOTAL FREE ENERGY PREDICTED BY IDOCK:   -6.13 KCAL/MOL
REMARK 923 INTER-LIGAND FREE ENERGY PREDICTED BY IDOCK:   -5.70 KCAL/MOL
REMARK 924 INTRA-LIGAND FREE ENERGY PREDICTED BY IDOCK:   -0.42 KCAL/MOL
REMARK 927      BINDING AFFINITY PREDICTED BY RF-SCORE:    0.00 PKD
ROOT
HETATM    1  C   UNL     1     -13.182  10.508  71.966  1.00  0.00    -0.483 C  
HETATM    2  C   UNL     1     -12.224  10.330  70.798  1.00  0.00    -0.350 C  
ENDROOT
BRANCH   2   3
HETATM    3  N   UNL     1     -12.099  11.557  70.017  1.00  0.00    -0.330 N  
HETATM    4  C   UNL     1     -12.204  12.782  70.639  1.00  0.00    -0.288 C  
HETATM    5  C   UNL     1     -12.053  13.916  69.953  1.00  0.00    -0.406 C  
HETATM    6  C   UNL     1     -11.734  13.719  68.535  1.00  0.00    -0.356 C  
HETATM    7  N   UNL     1     -11.608  12.593  67.941  1.00  0.00    -0.328 N  
HETATM    8  O   UNL     1     -11.677  10.344  68.113  1.00  0.00    -0.363 OA 
HETATM    9  C   UNL     1     -11.788  11.442  68.655  1.00  0.00    -0.310 C  
HETATM   10  H   UNL     1     -11.376  12.556  66.948  1.00  0.00     0.000 HD 
BRANCH   6  11
HETATM   11  N   UNL     1     -11.571  14.914  67.828  1.00  0.00    -0.338 N  
HETATM   12  H   UNL     1     -12.193  15.689  68.058  1.00  0.00     0.000 HD 
BRANCH  11  13
HETATM   13  S   UNL     1     -10.428  15.164  66.631  1.00  0.00    -0.294 S  
HETATM   14  O   UNL     1     -10.162  13.844  66.094  1.00  0.00    -0.285 OA 
HETATM   15  O   UNL     1     -10.894  16.226  65.765  1.00  0.00    -0.271 OA 
BRANCH  13  16
HETATM   16  C   UNL     1      -8.981  15.697  67.501  1.00  0.00    -0.192 A  
HETATM   17  C   UNL     1      -8.909  15.556  68.888  1.00  0.00    -0.217 A  
HETATM   18  C   UNL     1      -7.755  15.968  69.560  1.00  0.00    -0.080 A  
HETATM   19  C   UNL     1      -6.691  16.555  68.866  1.00  0.00    -0.179 A  
HETATM   20  N   UNL     1      -5.501  16.871  69.533  1.00  0.00    -0.155 NA 
HETATM   21  C   UNL     1      -6.744  16.606  67.471  1.00  0.00    -0.181 A  
HETATM   22  C   UNL     1      -7.885  16.183  66.787  1.00  0.00    -0.296 A  
HETATM   23  H2  UNL     1      -5.157  16.027  69.992  1.00  0.00     0.000 HD 
HETATM   24  H1  UNL     1      -4.725  17.299  69.027  1.00  0.00     0.000 HD 
ENDBRANCH  13  16
ENDBRANCH  11  13
ENDBRANCH   6  11
ENDBRANCH   2   3
TORSDOF 4
ENDMDL
MODEL      154
REMARK 921   NORMALIZED FREE ENERGY PREDICTED BY IDOCK:   -4.30 KCAL/MOL
REMARK 922        TOTAL FREE ENERGY PREDICTED BY IDOCK:   -6.12 KCAL/MOL
REMARK 923 INTER-LIGAND FREE ENERGY PREDICTED BY IDOCK:   -5.47 KCAL/MOL
REMARK 924 INTRA-LIGAND FREE ENERGY PREDICTED BY IDOCK:   -0.65 KCAL/MOL
REMARK 927      BINDING AFFINITY PREDICTED BY RF-SCORE:    0.00 PKD
ROOT
HETATM    1  C   UNL     1      -9.024   3.766  70.246  1.00  0.00    -0.170 C  
HETATM    2  C   UNL     1      -8.607   5.225  70.364  1.00  0.00    -0.115 C  
ENDROOT
BRANCH   2   3
HETATM    3  N   UNL     1      -8.935   5.974  69.154  1.00  0.00    -0.124 N  
HETATM    4  C   UNL     1     -10.250   6.273  68.865  1.00  0.00    -0.181 C  
HETATM    5  C   UNL     1     -10.570   6.991  67.788  1.00  0.00    -0.298 C  
HETATM    6  C   UNL     1      -9.415   7.441  67.005  1.00  0.00    -0.158 C  
HETATM    7  N   UNL     1      -8.186   7.197  67.265  1.00  0.00    -0.118 N  
HETATM    8  O   UNL     1      -6.708   6.185  68.638  1.00  0.00    -0.056 OA 
HETATM    9  C   UNL     1      -7.878   6.441  68.361  1.00  0.00    -0.105 C  
HETATM   10  H   UNL     1      -7.448   7.561  66.663  1.00  0.00     0.000 HD 
BRANCH   6  11
HETATM   11  N   UNL     1      -9.763   8.198  65.882  1.00  0.00    -0.447 N  
HETATM   12  H   UNL     1     -10.586   7.911  65.354  1.00  0.00     0.000 HD 
BRANCH  11  13
HETATM   13  S   UNL     1      -8.925   9.544  65.344  1.00  0.00    -0.215 S  
HETATM   14  O   UNL     1      -8.024   9.876  66.430  1.00  0.00    -0.108 OA 
HETATM   15  O   UNL     1      -8.405   9.263  64.023  1.00  0.00    -0.158 OA 
BRANCH  13  16
HETATM   16  C   UNL     1     -10.148  10.820  65.244  1.00  0.00    -0.290 A  
HETATM   17  C   UNL     1     -10.613  11.433  66.409  1.00  0.00    -0.311 A  
HETATM   18  C   UNL     1     -11.569  12.448  66.314  1.00  0.00    -0.449 A  
HETATM   19  C   UNL     1     -12.092  12.829  65.073  1.00  0.00    -0.441 A  
HETATM   20  N   UNL     1     -12.971  13.915  64.980  1.00  0.00    -0.752 NA 
HETATM   21  C   UNL     1     -11.549  12.268  63.915  1.00  0.00    -0.525 A  
HETATM   22  C   UNL     1     -10.583  11.265  63.995  1.00  0.00    -0.450 A  
HETATM   23  H2  UNL     1     -12.522  14.728  65.402  1.00  0.00     0.000 HD 
HETATM   24  H1  UNL     1     -13.352  14.192  64.075  1.00  0.00     0.000 HD 
ENDBRANCH  13  16
ENDBRANCH  11  13
ENDBRANCH   6  11
ENDBRANCH   2   3
TORSDOF 4
ENDMDL
MODEL      155
REMARK 921   NORMALIZED FREE ENERGY PREDICTED BY IDOCK:   -4.29 KCAL/MOL
REMARK 922        TOTAL FREE ENERGY PREDICTED BY IDOCK:   -6.12 KCAL/MOL
REMARK 923 INTER-LIGAND FREE ENERGY PREDICTED BY IDOCK:   -5.24 KCAL/MOL
REMARK 924 INTRA-LIGAND FREE ENERGY PREDICTED BY IDOCK:   -0.88 KCAL/MOL
REMARK 927      BINDING AFFINITY PREDICTED BY RF-SCORE:    0.00 PKD
ROOT
HETATM    1  C   UNL     1      -6.698   8.422  68.917  1.00  0.00    -0.053 C  
HETATM    2  C   UNL     1      -6.244   9.251  67.725  1.00  0.00    -0.054 C  
ENDROOT
BRANCH   2   3
HETATM    3  N   UNL     1      -7.350   9.524  66.811  1.00  0.00    -0.090 N  
HETATM    4  C   UNL     1      -8.609   9.040  67.090  1.00  0.00    -0.116 C  
HETATM    5  C   UNL     1      -9.642   9.310  66.291  1.00  0.00    -0.313 C  
HETATM    6  C   UNL     1      -9.309  10.177  65.156  1.00  0.00    -0.235 C  
HETATM    7  N   UNL     1      -8.154  10.658  64.889  1.00  0.00    -0.333 N  
HETATM    8  O   UNL     1      -5.979  10.794  65.477  1.00  0.00    -0.129 OA 
HETATM    9  C   UNL     1      -7.103  10.352  65.707  1.00  0.00    -0.139 C  
HETATM   10  H   UNL     1      -8.020  11.261  64.077  1.00  0.00     0.000 HD 
BRANCH   6  11
HETATM   11  N   UNL     1     -10.401  10.459  64.330  1.00  0.00    -0.385 N  
HETATM   12  H   UNL     1     -10.816   9.684  63.814  1.00  0.00     0.000 HD 
BRANCH  11  13
HETATM   13  S   UNL     1     -11.075  11.977  64.127  1.00  0.00    -0.402 S  
HETATM   14  O   UNL     1     -10.115  12.702  63.318  1.00  0.00    -0.300 OA 
HETATM   15  O   UNL     1     -12.440  11.818  63.675  1.00  0.00    -0.472 OA 
BRANCH  13  16
HETATM   16  C   UNL     1     -11.064  12.690  65.748  1.00  0.00    -0.297 A  
HETATM   17  C   UNL     1     -11.866  12.149  66.754  1.00  0.00    -0.304 A  
HETATM   18  C   UNL     1     -11.837  12.714  68.032  1.00  0.00    -0.376 A  
HETATM   19  C   UNL     1     -11.046  13.836  68.304  1.00  0.00    -0.255 A  
HETATM   20  N   UNL     1     -10.946  14.330  69.609  1.00  0.00    -0.419 NA 
HETATM   21  C   UNL     1     -10.184  14.307  67.310  1.00  0.00    -0.252 A  
HETATM   22  C   UNL     1     -10.192  13.742  66.034  1.00  0.00    -0.315 A  
HETATM   23  H2  UNL     1     -10.642  13.570  70.218  1.00  0.00     0.000 HD 
HETATM   24  H1  UNL     1     -10.369  15.149  69.807  1.00  0.00     0.000 HD 
ENDBRANCH  13  16
ENDBRANCH  11  13
ENDBRANCH   6  11
ENDBRANCH   2   3
TORSDOF 4
ENDMDL
MODEL      156
REMARK 921   NORMALIZED FREE ENERGY PREDICTED BY IDOCK:   -4.29 KCAL/MOL
REMARK 922        TOTAL FREE ENERGY PREDICTED BY IDOCK:   -6.11 KCAL/MOL
REMARK 923 INTER-LIGAND FREE ENERGY PREDICTED BY IDOCK:   -5.51 KCAL/MOL
REMARK 924 INTRA-LIGAND FREE ENERGY PREDICTED BY IDOCK:   -0.60 KCAL/MOL
REMARK 927      BINDING AFFINITY PREDICTED BY RF-SCORE:    0.00 PKD
ROOT
HETATM    1  C   UNL     1     -11.883  14.100  69.798  1.00  0.00    -0.381 C  
HETATM    2  C   UNL     1     -11.769  12.880  68.896  1.00  0.00    -0.327 C  
ENDROOT
BRANCH   2   3
HETATM    3  N   UNL     1     -11.628  11.652  69.674  1.00  0.00    -0.313 N  
HETATM    4  C   UNL     1     -12.422  11.443  70.781  1.00  0.00    -0.365 C  
HETATM    5  C   UNL     1     -12.339  10.311  71.482  1.00  0.00    -0.488 C  
HETATM    6  C   UNL     1     -11.380   9.342  70.941  1.00  0.00    -0.319 C  
HETATM    7  N   UNL     1     -10.649   9.503  69.903  1.00  0.00    -0.225 N  
HETATM    8  O   UNL     1     -10.042  10.867  68.210  1.00  0.00    -0.164 OA 
HETATM    9  C   UNL     1     -10.733  10.678  69.210  1.00  0.00    -0.238 C  
HETATM   10  H   UNL     1     -10.014   8.766  69.598  1.00  0.00     0.000 HD 
BRANCH   6  11
HETATM   11  N   UNL     1     -11.306   8.158  71.680  1.00  0.00    -0.253 N  
HETATM   12  H   UNL     1     -10.884   8.204  72.607  1.00  0.00     0.000 HD 
BRANCH  11  13
HETATM   13  S   UNL     1     -11.863   6.670  71.153  1.00  0.00    -0.342 S  
HETATM   14  O   UNL     1     -13.242   6.615  71.595  1.00  0.00    -0.245 OA 
HETATM   15  O   UNL     1     -11.538   6.528  69.750  1.00  0.00    -0.394 OA 
BRANCH  13  16
HETATM   16  C   UNL     1     -10.943   5.490  72.100  1.00  0.00    -0.231 A  
HETATM   17  C   UNL     1     -11.251   5.283  73.446  1.00  0.00    -0.314 A  
HETATM   18  C   UNL     1     -10.526   4.338  74.177  1.00  0.00    -0.307 A  
HETATM   19  C   UNL     1      -9.473   3.628  73.589  1.00  0.00    -0.099 A  
HETATM   20  N   UNL     1      -8.821   2.613  74.300  1.00  0.00    -0.074 NA 
HETATM   21  C   UNL     1      -9.239   3.784  72.221  1.00  0.00    -0.163 A  
HETATM   22  C   UNL     1      -9.967   4.712  71.475  1.00  0.00    -0.265 A  
HETATM   23  H2  UNL     1      -9.522   1.943  74.617  1.00  0.00     0.000 HD 
HETATM   24  H1  UNL     1      -8.053   2.096  73.871  1.00  0.00     0.000 HD 
ENDBRANCH  13  16
ENDBRANCH  11  13
ENDBRANCH   6  11
ENDBRANCH   2   3
TORSDOF 4
ENDMDL
MODEL      157
REMARK 921   NORMALIZED FREE ENERGY PREDICTED BY IDOCK:   -4.26 KCAL/MOL
REMARK 922        TOTAL FREE ENERGY PREDICTED BY IDOCK:   -6.08 KCAL/MOL
REMARK 923 INTER-LIGAND FREE ENERGY PREDICTED BY IDOCK:   -5.48 KCAL/MOL
REMARK 924 INTRA-LIGAND FREE ENERGY PREDICTED BY IDOCK:   -0.60 KCAL/MOL
REMARK 927      BINDING AFFINITY PREDICTED BY RF-SCORE:    0.00 PKD
ROOT
HETATM    1  C   UNL     1     -10.481   5.611  67.361  1.00  0.00    -0.306 C  
HETATM    2  C   UNL     1      -9.206   6.381  67.670  1.00  0.00    -0.116 C  
ENDROOT
BRANCH   2   3
HETATM    3  N   UNL     1      -9.497   7.742  68.114  1.00  0.00    -0.145 N  
HETATM    4  C   UNL     1      -9.675   8.005  69.455  1.00  0.00    -0.170 C  
HETATM    5  C   UNL     1      -9.901   9.246  69.887  1.00  0.00    -0.219 C  
HETATM    6  C   UNL     1      -9.897  10.259  68.826  1.00  0.00    -0.180 C  
HETATM    7  N   UNL     1      -9.711  10.043  67.579  1.00  0.00    -0.156 N  
HETATM    8  O   UNL     1      -9.323   8.519  65.960  1.00  0.00    -0.212 OA 
HETATM    9  C   UNL     1      -9.502   8.761  67.152  1.00  0.00    -0.162 C  
HETATM   10  H   UNL     1      -9.718  10.816  66.913  1.00  0.00     0.000 HD 
BRANCH   6  11
HETATM   11  N   UNL     1     -10.129  11.556  69.291  1.00  0.00    -0.423 N  
HETATM   12  H   UNL     1      -9.342  12.059  69.703  1.00  0.00     0.000 HD 
BRANCH  11  13
HETATM   13  S   UNL     1     -11.604  12.344  69.222  1.00  0.00    -0.322 S  
HETATM   14  O   UNL     1     -12.240  11.830  68.025  1.00  0.00    -0.518 OA 
HETATM   15  O   UNL     1     -12.254  12.218  70.508  1.00  0.00    -0.360 OA 
BRANCH  13  16
HETATM   16  C   UNL     1     -11.189  14.041  68.928  1.00  0.00    -0.272 A  
HETATM   17  C   UNL     1     -10.740  14.441  67.669  1.00  0.00    -0.263 A  
HETATM   18  C   UNL     1     -10.430  15.786  67.447  1.00  0.00    -0.297 A  
HETATM   19  C   UNL     1     -10.526  16.725  68.481  1.00  0.00    -0.335 A  
HETATM   20  N   UNL     1     -10.311  18.084  68.223  1.00  0.00    -0.383 NA 
HETATM   21  C   UNL     1     -11.061  16.322  69.706  1.00  0.00    -0.337 A  
HETATM   22  C   UNL     1     -11.390  14.986  69.935  1.00  0.00    -0.307 A  
HETATM   23  H2  UNL     1     -10.938  18.370  67.470  1.00  0.00     0.000 HD 
HETATM   24  H1  UNL     1     -10.381  18.768  68.976  1.00  0.00     0.000 HD 
ENDBRANCH  13  16
ENDBRANCH  11  13
ENDBRANCH   6  11
ENDBRANCH   2   3
TORSDOF 4
ENDMDL
MODEL      158
REMARK 921   NORMALIZED FREE ENERGY PREDICTED BY IDOCK:   -4.26 KCAL/MOL
REMARK 922        TOTAL FREE ENERGY PREDICTED BY IDOCK:   -6.08 KCAL/MOL
REMARK 923 INTER-LIGAND FREE ENERGY PREDICTED BY IDOCK:   -5.40 KCAL/MOL
REMARK 924 INTRA-LIGAND FREE ENERGY PREDICTED BY IDOCK:   -0.68 KCAL/MOL
REMARK 927      BINDING AFFINITY PREDICTED BY RF-SCORE:    0.00 PKD
ROOT
HETATM    1  C   UNL     1      -5.446  13.561  70.825  1.00  0.00    -0.162 C  
HETATM    2  C   UNL     1      -5.395  14.218  69.454  1.00  0.00    -0.086 C  
ENDROOT
BRANCH   2   3
HETATM    3  N   UNL     1      -6.727  14.341  68.869  1.00  0.00    -0.094 N  
HETATM    4  C   UNL     1      -7.678  15.129  69.482  1.00  0.00    -0.197 C  
HETATM    5  C   UNL     1      -8.888  15.288  68.944  1.00  0.00    -0.209 C  
HETATM    6  C   UNL     1      -9.069  14.596  67.664  1.00  0.00    -0.193 C  
HETATM    7  N   UNL     1      -8.195  13.880  67.064  1.00  0.00    -0.381 N  
HETATM    8  O   UNL     1      -6.106  13.025  67.093  1.00  0.00    -0.307 OA 
HETATM    9  C   UNL     1      -6.967  13.710  67.641  1.00  0.00    -0.172 C  
HETATM   10  H   UNL     1      -8.411  13.442  66.168  1.00  0.00     0.000 HD 
BRANCH   6  11
HETATM   11  N   UNL     1     -10.338  14.776  67.107  1.00  0.00    -0.253 N  
HETATM   12  H   UNL     1     -10.895  15.563  67.441  1.00  0.00     0.000 HD 
BRANCH  11  13
HETATM   13  S   UNL     1     -11.010  13.794  65.930  1.00  0.00    -0.285 S  
HETATM   14  O   UNL     1     -12.403  14.192  65.869  1.00  0.00    -0.448 OA 
HETATM   15  O   UNL     1     -10.179  13.859  64.747  1.00  0.00    -0.412 OA 
BRANCH  13  16
HETATM   16  C   UNL     1     -10.942  12.164  66.617  1.00  0.00    -0.282 A  
HETATM   17  C   UNL     1     -11.504  11.910  67.869  1.00  0.00    -0.385 A  
HETATM   18  C   UNL     1     -11.455  10.615  68.394  1.00  0.00    -0.330 A  
HETATM   19  C   UNL     1     -10.815   9.583  67.698  1.00  0.00    -0.187 A  
HETATM   20  N   UNL     1     -10.860   8.271  68.183  1.00  0.00    -0.453 NA 
HETATM   21  C   UNL     1     -10.339   9.835  66.410  1.00  0.00    -0.247 A  
HETATM   22  C   UNL     1     -10.396  11.120  65.868  1.00  0.00    -0.314 A  
HETATM   23  H2  UNL     1     -11.838   8.011  68.315  1.00  0.00     0.000 HD 
HETATM   24  H1  UNL     1     -10.394   7.518  67.676  1.00  0.00     0.000 HD 
ENDBRANCH  13  16
ENDBRANCH  11  13
ENDBRANCH   6  11
ENDBRANCH   2   3
TORSDOF 4
ENDMDL
MODEL      159
REMARK 921   NORMALIZED FREE ENERGY PREDICTED BY IDOCK:   -4.26 KCAL/MOL
REMARK 922        TOTAL FREE ENERGY PREDICTED BY IDOCK:   -6.07 KCAL/MOL
REMARK 923 INTER-LIGAND FREE ENERGY PREDICTED BY IDOCK:   -5.59 KCAL/MOL
REMARK 924 INTRA-LIGAND FREE ENERGY PREDICTED BY IDOCK:   -0.49 KCAL/MOL
REMARK 927      BINDING AFFINITY PREDICTED BY RF-SCORE:    0.00 PKD
ROOT
HETATM    1  C   UNL     1      -9.477   9.600  69.978  1.00  0.00    -0.277 C  
HETATM    2  C   UNL     1      -8.544   9.668  68.779  1.00  0.00    -0.125 C  
ENDROOT
BRANCH   2   3
HETATM    3  N   UNL     1      -8.966  10.694  67.830  1.00  0.00    -0.139 N  
HETATM    4  C   UNL     1     -10.027  10.453  66.983  1.00  0.00    -0.206 C  
HETATM    5  C   UNL     1     -10.456  11.390  66.136  1.00  0.00    -0.303 C  
HETATM    6  C   UNL     1      -9.732  12.661  66.234  1.00  0.00    -0.259 C  
HETATM    7  N   UNL     1      -8.762  12.917  67.027  1.00  0.00    -0.256 N  
HETATM    8  O   UNL     1      -7.388  12.149  68.645  1.00  0.00    -0.104 OA 
HETATM    9  C   UNL     1      -8.321  11.937  67.873  1.00  0.00    -0.152 C  
HETATM   10  H   UNL     1      -8.323  13.838  67.029  1.00  0.00     0.000 HD 
BRANCH   6  11
HETATM   11  N   UNL     1     -10.195  13.637  65.347  1.00  0.00    -0.369 N  
HETATM   12  H   UNL     1      -9.716  13.729  64.451  1.00  0.00     0.000 HD 
BRANCH  11  13
HETATM   13  S   UNL     1     -11.480  14.666  65.648  1.00  0.00    -0.322 S  
HETATM   14  O   UNL     1     -11.847  15.189  64.347  1.00  0.00    -0.407 OA 
HETATM   15  O   UNL     1     -12.455  13.961  66.454  1.00  0.00    -0.441 OA 
BRANCH  13  16
HETATM   16  C   UNL     1     -10.779  15.993  66.588  1.00  0.00    -0.247 A  
HETATM   17  C   UNL     1     -10.047  16.992  65.945  1.00  0.00    -0.281 A  
HETATM   18  C   UNL     1      -9.510  18.041  66.697  1.00  0.00    -0.300 A  
HETATM   19  C   UNL     1      -9.664  18.079  68.087  1.00  0.00    -0.322 A  
HETATM   20  N   UNL     1      -9.211  19.184  68.818  1.00  0.00    -0.368 NA 
HETATM   21  C   UNL     1     -10.474  17.121  68.700  1.00  0.00    -0.366 A  
HETATM   22  C   UNL     1     -11.029  16.077  67.958  1.00  0.00    -0.341 A  
HETATM   23  H2  UNL     1      -9.636  20.024  68.425  1.00  0.00     0.000 HD 
HETATM   24  H1  UNL     1      -9.323  19.212  69.832  1.00  0.00     0.000 HD 
ENDBRANCH  13  16
ENDBRANCH  11  13
ENDBRANCH   6  11
ENDBRANCH   2   3
TORSDOF 4
ENDMDL
MODEL      160
REMARK 921   NORMALIZED FREE ENERGY PREDICTED BY IDOCK:   -4.25 KCAL/MOL
REMARK 922        TOTAL FREE ENERGY PREDICTED BY IDOCK:   -6.07 KCAL/MOL
REMARK 923 INTER-LIGAND FREE ENERGY PREDICTED BY IDOCK:   -5.52 KCAL/MOL
REMARK 924 INTRA-LIGAND FREE ENERGY PREDICTED BY IDOCK:   -0.54 KCAL/MOL
REMARK 927      BINDING AFFINITY PREDICTED BY RF-SCORE:    0.00 PKD
ROOT
HETATM    1  C   UNL     1      -9.767  20.583  67.361  1.00  0.00    -0.587 C  
HETATM    2  C   UNL     1     -10.498  19.723  66.341  1.00  0.00    -0.507 C  
ENDROOT
BRANCH   2   3
HETATM    3  N   UNL     1     -10.230  18.303  66.549  1.00  0.00    -0.375 N  
HETATM    4  C   UNL     1      -9.632  17.879  67.716  1.00  0.00    -0.277 C  
HETATM    5  C   UNL     1      -9.414  16.583  67.946  1.00  0.00    -0.220 C  
HETATM    6  C   UNL     1      -9.899  15.698  66.882  1.00  0.00    -0.238 C  
HETATM    7  N   UNL     1     -10.478  16.065  65.801  1.00  0.00    -0.358 N  
HETATM    8  O   UNL     1     -11.223  17.786  64.544  1.00  0.00    -0.692 OA 
HETATM    9  C   UNL     1     -10.673  17.399  65.574  1.00  0.00    -0.078 C  
HETATM   10  H   UNL     1     -10.789  15.373  65.120  1.00  0.00     0.000 HD 
BRANCH   6  11
HETATM   11  N   UNL     1      -9.672  14.343  67.136  1.00  0.00    -0.242 N  
HETATM   12  H   UNL     1      -8.715  14.053  67.339  1.00  0.00     0.000 HD 
BRANCH  11  13
HETATM   13  S   UNL     1     -10.857  13.161  67.132  1.00  0.00    -0.260 S  
HETATM   14  O   UNL     1     -11.907  13.689  67.980  1.00  0.00    -0.335 OA 
HETATM   15  O   UNL     1     -11.139  12.797  65.760  1.00  0.00    -0.275 OA 
BRANCH  13  16
HETATM   16  C   UNL     1     -10.120  11.788  67.973  1.00  0.00    -0.192 A  
HETATM   17  C   UNL     1     -10.562  11.432  69.248  1.00  0.00    -0.148 A  
HETATM   18  C   UNL     1      -9.980  10.338  69.895  1.00  0.00    -0.183 A  
HETATM   19  C   UNL     1      -8.936   9.622  69.298  1.00  0.00    -0.172 A  
HETATM   20  N   UNL     1      -8.431   8.468  69.908  1.00  0.00    -0.123 NA 
HETATM   21  C   UNL     1      -8.569   9.937  67.987  1.00  0.00    -0.121 A  
HETATM   22  C   UNL     1      -9.154  11.017  67.324  1.00  0.00    -0.142 A  
HETATM   23  H2  UNL     1      -9.207   7.826  70.073  1.00  0.00     0.000 HD 
HETATM   24  H1  UNL     1      -7.670   7.947  69.473  1.00  0.00     0.000 HD 
ENDBRANCH  13  16
ENDBRANCH  11  13
ENDBRANCH   6  11
ENDBRANCH   2   3
TORSDOF 4
ENDMDL
MODEL      161
REMARK 921   NORMALIZED FREE ENERGY PREDICTED BY IDOCK:   -4.24 KCAL/MOL
REMARK 922        TOTAL FREE ENERGY PREDICTED BY IDOCK:   -6.06 KCAL/MOL
REMARK 923 INTER-LIGAND FREE ENERGY PREDICTED BY IDOCK:   -5.29 KCAL/MOL
REMARK 924 INTRA-LIGAND FREE ENERGY PREDICTED BY IDOCK:   -0.77 KCAL/MOL
REMARK 927      BINDING AFFINITY PREDICTED BY RF-SCORE:    0.00 PKD
ROOT
HETATM    1  C   UNL     1     -10.349   3.609  64.323  1.00  0.00    -0.231 C  
HETATM    2  C   UNL     1      -9.335   4.090  65.351  1.00  0.00    -0.162 C  
ENDROOT
BRANCH   2   3
HETATM    3  N   UNL     1      -9.663   5.425  65.841  1.00  0.00    -0.113 N  
HETATM    4  C   UNL     1     -10.732   5.603  66.693  1.00  0.00    -0.268 C  
HETATM    5  C   UNL     1     -11.024   6.808  67.186  1.00  0.00    -0.458 C  
HETATM    6  C   UNL     1     -10.096   7.865  66.770  1.00  0.00    -0.281 C  
HETATM    7  N   UNL     1      -9.085   7.720  66.001  1.00  0.00    -0.310 N  
HETATM    8  O   UNL     1      -7.851   6.310  64.743  1.00  0.00    -0.098 OA 
HETATM    9  C   UNL     1      -8.813   6.483  65.488  1.00  0.00     0.007 C  
HETATM   10  H   UNL     1      -8.490   8.517  65.773  1.00  0.00     0.000 HD 
BRANCH   6  11
HETATM   11  N   UNL     1     -10.410   9.121  67.298  1.00  0.00    -0.255 N  
HETATM   12  H   UNL     1     -10.982   9.151  68.141  1.00  0.00     0.000 HD 
BRANCH  11  13
HETATM   13  S   UNL     1      -9.911  10.580  66.646  1.00  0.00    -0.207 S  
HETATM   14  O   UNL     1      -8.499  10.662  66.965  1.00  0.00    -0.127 OA 
HETATM   15  O   UNL     1     -10.354  10.643  65.270  1.00  0.00    -0.290 OA 
BRANCH  13  16
HETATM   16  C   UNL     1     -10.755  11.808  67.602  1.00  0.00    -0.214 A  
HETATM   17  C   UNL     1     -11.027  13.059  67.047  1.00  0.00    -0.289 A  
HETATM   18  C   UNL     1     -11.706  14.014  67.808  1.00  0.00    -0.403 A  
HETATM   19  C   UNL     1     -12.080  13.745  69.130  1.00  0.00    -0.333 A  
HETATM   20  N   UNL     1     -12.848  14.669  69.849  1.00  0.00    -0.566 NA 
HETATM   21  C   UNL     1     -11.879  12.459  69.637  1.00  0.00    -0.380 A  
HETATM   22  C   UNL     1     -11.216  11.491  68.881  1.00  0.00    -0.308 A  
HETATM   23  H2  UNL     1     -13.691  14.871  69.312  1.00  0.00     0.000 HD 
HETATM   24  H1  UNL     1     -13.120  14.473  70.812  1.00  0.00     0.000 HD 
ENDBRANCH  13  16
ENDBRANCH  11  13
ENDBRANCH   6  11
ENDBRANCH   2   3
TORSDOF 4
ENDMDL
MODEL      162
REMARK 921   NORMALIZED FREE ENERGY PREDICTED BY IDOCK:   -4.24 KCAL/MOL
REMARK 922        TOTAL FREE ENERGY PREDICTED BY IDOCK:   -6.05 KCAL/MOL
REMARK 923 INTER-LIGAND FREE ENERGY PREDICTED BY IDOCK:   -5.74 KCAL/MOL
REMARK 924 INTRA-LIGAND FREE ENERGY PREDICTED BY IDOCK:   -0.31 KCAL/MOL
REMARK 927      BINDING AFFINITY PREDICTED BY RF-SCORE:    0.00 PKD
ROOT
HETATM    1  C   UNL     1     -11.842  14.565  67.565  1.00  0.00    -0.404 C  
HETATM    2  C   UNL     1     -10.816  13.772  68.360  1.00  0.00    -0.252 C  
ENDROOT
BRANCH   2   3
HETATM    3  N   UNL     1     -11.438  12.665  69.081  1.00  0.00    -0.288 N  
HETATM    4  C   UNL     1     -11.931  12.862  70.353  1.00  0.00    -0.249 C  
HETATM    5  C   UNL     1     -12.539  11.877  71.015  1.00  0.00    -0.381 C  
HETATM    6  C   UNL     1     -12.656  10.629  70.253  1.00  0.00    -0.260 C  
HETATM    7  N   UNL     1     -12.229  10.429  69.064  1.00  0.00    -0.431 N  
HETATM    8  O   UNL     1     -11.162  11.284  67.268  1.00  0.00    -0.292 OA 
HETATM    9  C   UNL     1     -11.589  11.444  68.410  1.00  0.00    -0.315 C  
HETATM   10  H   UNL     1     -12.364   9.525  68.611  1.00  0.00     0.000 HD 
BRANCH   6  11
HETATM   11  N   UNL     1     -13.302   9.606  70.953  1.00  0.00    -0.596 N  
HETATM   12  H   UNL     1     -14.320   9.635  71.003  1.00  0.00     0.000 HD 
BRANCH  11  13
HETATM   13  S   UNL     1     -12.523   8.336  71.716  1.00  0.00    -0.347 S  
HETATM   14  O   UNL     1     -12.228   8.830  73.046  1.00  0.00    -0.123 OA 
HETATM   15  O   UNL     1     -13.316   7.138  71.541  1.00  0.00    -0.383 OA 
BRANCH  13  16
HETATM   16  C   UNL     1     -10.989   8.167  70.848  1.00  0.00    -0.242 A  
HETATM   17  C   UNL     1      -9.860   8.862  71.284  1.00  0.00    -0.361 A  
HETATM   18  C   UNL     1      -8.652   8.709  70.597  1.00  0.00    -0.183 A  
HETATM   19  C   UNL     1      -8.572   7.901  69.458  1.00  0.00    -0.137 A  
HETATM   20  N   UNL     1      -7.338   7.674  68.838  1.00  0.00    -0.088 NA 
HETATM   21  C   UNL     1      -9.688   7.145  69.090  1.00  0.00    -0.158 A  
HETATM   22  C   UNL     1     -10.895   7.276  69.777  1.00  0.00    -0.251 A  
HETATM   23  H2  UNL     1      -6.690   7.308  69.536  1.00  0.00     0.000 HD 
HETATM   24  H1  UNL     1      -7.279   7.085  68.007  1.00  0.00     0.000 HD 
ENDBRANCH  13  16
ENDBRANCH  11  13
ENDBRANCH   6  11
ENDBRANCH   2   3
TORSDOF 4
ENDMDL
MODEL      163
REMARK 921   NORMALIZED FREE ENERGY PREDICTED BY IDOCK:   -4.23 KCAL/MOL
REMARK 922        TOTAL FREE ENERGY PREDICTED BY IDOCK:   -6.03 KCAL/MOL
REMARK 923 INTER-LIGAND FREE ENERGY PREDICTED BY IDOCK:   -5.53 KCAL/MOL
REMARK 924 INTRA-LIGAND FREE ENERGY PREDICTED BY IDOCK:   -0.51 KCAL/MOL
REMARK 927      BINDING AFFINITY PREDICTED BY RF-SCORE:    0.00 PKD
ROOT
HETATM    1  C   UNL     1     -10.768  20.299  65.410  1.00  0.00     0.010 C  
HETATM    2  C   UNL     1     -10.086  19.974  66.731  1.00  0.00    -0.476 C  
ENDROOT
BRANCH   2   3
HETATM    3  N   UNL     1      -9.577  18.605  66.748  1.00  0.00    -0.305 N  
HETATM    4  C   UNL     1     -10.225  17.621  66.033  1.00  0.00    -0.297 C  
HETATM    5  C   UNL     1      -9.756  16.373  66.001  1.00  0.00    -0.356 C  
HETATM    6  C   UNL     1      -8.505  16.186  66.743  1.00  0.00    -0.254 C  
HETATM    7  N   UNL     1      -7.872  17.088  67.394  1.00  0.00    -0.167 N  
HETATM    8  O   UNL     1      -7.800  19.245  68.053  1.00  0.00    -0.279 OA 
HETATM    9  C   UNL     1      -8.381  18.356  67.434  1.00  0.00    -0.252 C  
HETATM   10  H   UNL     1      -7.001  16.864  67.876  1.00  0.00     0.000 HD 
BRANCH   6  11
HETATM   11  N   UNL     1      -8.019  14.876  66.697  1.00  0.00    -0.288 N  
HETATM   12  H   UNL     1      -7.473  14.603  65.880  1.00  0.00     0.000 HD 
BRANCH  11  13
HETATM   13  S   UNL     1      -8.267  13.725  67.886  1.00  0.00    -0.182 S  
HETATM   14  O   UNL     1      -8.524  12.496  67.161  1.00  0.00    -0.179 OA 
HETATM   15  O   UNL     1      -7.177  13.800  68.834  1.00  0.00    -0.109 OA 
BRANCH  13  16
HETATM   16  C   UNL     1      -9.776  14.215  68.672  1.00  0.00    -0.196 A  
HETATM   17  C   UNL     1     -10.969  13.562  68.361  1.00  0.00    -0.289 A  
HETATM   18  C   UNL     1     -12.150  13.950  69.000  1.00  0.00    -0.365 A  
HETATM   19  C   UNL     1     -12.157  15.009  69.915  1.00  0.00    -0.334 A  
HETATM   20  N   UNL     1     -13.323  15.322  70.624  1.00  0.00    -0.712 NA 
HETATM   21  C   UNL     1     -10.940  15.590  70.280  1.00  0.00    -0.352 A  
HETATM   22  C   UNL     1      -9.751  15.200  69.661  1.00  0.00    -0.145 A  
HETATM   23  H2  UNL     1     -13.642  14.481  71.105  1.00  0.00     0.000 HD 
HETATM   24  H1  UNL     1     -13.327  16.094  71.291  1.00  0.00     0.000 HD 
ENDBRANCH  13  16
ENDBRANCH  11  13
ENDBRANCH   6  11
ENDBRANCH   2   3
TORSDOF 4
ENDMDL
MODEL      164
REMARK 921   NORMALIZED FREE ENERGY PREDICTED BY IDOCK:   -4.21 KCAL/MOL
REMARK 922        TOTAL FREE ENERGY PREDICTED BY IDOCK:   -6.02 KCAL/MOL
REMARK 923 INTER-LIGAND FREE ENERGY PREDICTED BY IDOCK:   -5.24 KCAL/MOL
REMARK 924 INTRA-LIGAND FREE ENERGY PREDICTED BY IDOCK:   -0.77 KCAL/MOL
REMARK 927      BINDING AFFINITY PREDICTED BY RF-SCORE:    0.00 PKD
ROOT
HETATM    1  C   UNL     1     -12.499  12.210  63.578  1.00  0.00    -0.666 C  
HETATM    2  C   UNL     1     -12.230  13.052  64.816  1.00  0.00    -0.435 C  
ENDROOT
BRANCH   2   3
HETATM    3  N   UNL     1     -11.535  12.284  65.844  1.00  0.00    -0.361 N  
HETATM    4  C   UNL     1     -10.709  11.240  65.485  1.00  0.00    -0.220 C  
HETATM    5  C   UNL     1     -10.032  10.551  66.404  1.00  0.00    -0.271 C  
HETATM    6  C   UNL     1     -10.224  11.036  67.775  1.00  0.00    -0.183 C  
HETATM    7  N   UNL     1     -10.965  12.016  68.131  1.00  0.00    -0.217 N  
HETATM    8  O   UNL     1     -12.392  13.641  67.486  1.00  0.00    -0.279 OA 
HETATM    9  C   UNL     1     -11.668  12.697  67.177  1.00  0.00    -0.371 C  
HETATM   10  H   UNL     1     -11.030  12.285  69.113  1.00  0.00     0.000 HD 
BRANCH   6  11
HETATM   11  N   UNL     1      -9.505  10.310  68.729  1.00  0.00    -0.168 N  
HETATM   12  H   UNL     1      -8.487  10.334  68.673  1.00  0.00     0.000 HD 
BRANCH  11  13
HETATM   13  S   UNL     1     -10.194   9.407  69.958  1.00  0.00    -0.248 S  
HETATM   14  O   UNL     1      -9.309   9.590  71.091  1.00  0.00    -0.222 OA 
HETATM   15  O   UNL     1     -11.594   9.760  70.059  1.00  0.00    -0.218 OA 
BRANCH  13  16
HETATM   16  C   UNL     1     -10.041   7.728  69.417  1.00  0.00    -0.195 A  
HETATM   17  C   UNL     1      -9.285   7.426  68.283  1.00  0.00    -0.137 A  
HETATM   18  C   UNL     1      -9.161   6.095  67.876  1.00  0.00    -0.115 A  
HETATM   19  C   UNL     1      -9.818   5.069  68.565  1.00  0.00    -0.151 A  
HETATM   20  N   UNL     1      -9.606   3.732  68.211  1.00  0.00    -0.144 NA 
HETATM   21  C   UNL     1     -10.495   5.380  69.747  1.00  0.00    -0.378 A  
HETATM   22  C   UNL     1     -10.612   6.703  70.174  1.00  0.00    -0.264 A  
HETATM   23  H2  UNL     1      -8.603   3.547  68.240  1.00  0.00     0.000 HD 
HETATM   24  H1  UNL     1     -10.084   2.984  68.713  1.00  0.00     0.000 HD 
ENDBRANCH  13  16
ENDBRANCH  11  13
ENDBRANCH   6  11
ENDBRANCH   2   3
TORSDOF 4
ENDMDL
MODEL      165
REMARK 921   NORMALIZED FREE ENERGY PREDICTED BY IDOCK:   -4.20 KCAL/MOL
REMARK 922        TOTAL FREE ENERGY PREDICTED BY IDOCK:   -6.01 KCAL/MOL
REMARK 923 INTER-LIGAND FREE ENERGY PREDICTED BY IDOCK:   -5.60 KCAL/MOL
REMARK 924 INTRA-LIGAND FREE ENERGY PREDICTED BY IDOCK:   -0.40 KCAL/MOL
REMARK 927      BINDING AFFINITY PREDICTED BY RF-SCORE:    0.00 PKD
ROOT
HETATM    1  C   UNL     1      -6.706  17.619  66.176  1.00  0.00    -0.321 C  
HETATM    2  C   UNL     1      -6.232  17.058  67.509  1.00  0.00    -0.147 C  
ENDROOT
BRANCH   2   3
HETATM    3  N   UNL     1      -7.348  16.552  68.303  1.00  0.00    -0.163 N  
HETATM    4  C   UNL     1      -8.563  17.203  68.277  1.00  0.00    -0.241 C  
HETATM    5  C   UNL     1      -9.607  16.736  68.962  1.00  0.00    -0.230 C  
HETATM    6  C   UNL     1      -9.340  15.485  69.680  1.00  0.00    -0.223 C  
HETATM    7  N   UNL     1      -8.230  14.850  69.700  1.00  0.00    -0.428 N  
HETATM    8  O   UNL     1      -6.082  14.773  69.012  1.00  0.00    -0.090 OA 
HETATM    9  C   UNL     1      -7.164  15.356  69.010  1.00  0.00    -0.153 C  
HETATM   10  H   UNL     1      -8.141  13.979  70.225  1.00  0.00     0.000 HD 
BRANCH   6  11
HETATM   11  N   UNL     1     -10.443  15.001  70.389  1.00  0.00    -0.510 N  
HETATM   12  H   UNL     1     -10.325  14.823  71.386  1.00  0.00     0.000 HD 
BRANCH  11  13
HETATM   13  S   UNL     1     -11.946  14.694  69.719  1.00  0.00    -0.339 S  
HETATM   14  O   UNL     1     -12.657  13.945  70.737  1.00  0.00    -0.334 OA 
HETATM   15  O   UNL     1     -12.487  15.937  69.214  1.00  0.00    -0.089 OA 
BRANCH  13  16
HETATM   16  C   UNL     1     -11.617  13.596  68.370  1.00  0.00    -0.342 A  
HETATM   17  C   UNL     1     -11.939  13.975  67.066  1.00  0.00    -0.472 A  
HETATM   18  C   UNL     1     -11.661  13.104  66.009  1.00  0.00    -0.424 A  
HETATM   19  C   UNL     1     -11.102  11.843  66.247  1.00  0.00    -0.314 A  
HETATM   20  N   UNL     1     -10.734  11.020  65.175  1.00  0.00    -0.230 NA 
HETATM   21  C   UNL     1     -10.705  11.518  67.546  1.00  0.00    -0.267 A  
HETATM   22  C   UNL     1     -10.962  12.386  68.608  1.00  0.00    -0.283 A  
HETATM   23  H2  UNL     1     -10.099  11.544  64.572  1.00  0.00     0.000 HD 
HETATM   24  H1  UNL     1     -10.326  10.101  65.348  1.00  0.00     0.000 HD 
ENDBRANCH  13  16
ENDBRANCH  11  13
ENDBRANCH   6  11
ENDBRANCH   2   3
TORSDOF 4
ENDMDL
MODEL      166
REMARK 921   NORMALIZED FREE ENERGY PREDICTED BY IDOCK:   -4.19 KCAL/MOL
REMARK 922        TOTAL FREE ENERGY PREDICTED BY IDOCK:   -6.00 KCAL/MOL
REMARK 923 INTER-LIGAND FREE ENERGY PREDICTED BY IDOCK:   -5.96 KCAL/MOL
REMARK 924 INTRA-LIGAND FREE ENERGY PREDICTED BY IDOCK:   -0.03 KCAL/MOL
REMARK 927      BINDING AFFINITY PREDICTED BY RF-SCORE:    0.00 PKD
ROOT
HETATM    1  C   UNL     1      -8.373   6.436  70.464  1.00  0.00    -0.129 C  
HETATM    2  C   UNL     1      -7.796   7.802  70.806  1.00  0.00    -0.099 C  
ENDROOT
BRANCH   2   3
HETATM    3  N   UNL     1      -8.366   8.849  69.963  1.00  0.00    -0.123 N  
HETATM    4  C   UNL     1      -9.462   8.577  69.172  1.00  0.00    -0.154 C  
HETATM    5  C   UNL     1     -10.024   9.528  68.426  1.00  0.00    -0.184 C  
HETATM    6  C   UNL     1      -9.398  10.847  68.568  1.00  0.00    -0.181 C  
HETATM    7  N   UNL     1      -8.397  11.130  69.312  1.00  0.00    -0.379 N  
HETATM    8  O   UNL     1      -6.854  10.374  70.776  1.00  0.00    -0.337 OA 
HETATM    9  C   UNL     1      -7.820  10.137  70.053  1.00  0.00    -0.115 C  
HETATM   10  H   UNL     1      -8.034  12.083  69.351  1.00  0.00     0.000 HD 
BRANCH   6  11
HETATM   11  N   UNL     1     -10.000  11.837  67.786  1.00  0.00    -0.186 N  
HETATM   12  H   UNL     1      -9.412  12.335  67.117  1.00  0.00     0.000 HD 
BRANCH  11  13
HETATM   13  S   UNL     1     -11.616  12.264  67.867  1.00  0.00    -0.354 S  
HETATM   14  O   UNL     1     -11.898  12.882  66.586  1.00  0.00    -0.374 OA 
HETATM   15  O   UNL     1     -12.375  11.112  68.306  1.00  0.00    -0.532 OA 
BRANCH  13  16
HETATM   16  C   UNL     1     -11.682  13.528  69.105  1.00  0.00    -0.327 A  
HETATM   17  C   UNL     1     -11.223  14.813  68.815  1.00  0.00    -0.286 A  
HETATM   18  C   UNL     1     -11.293  15.805  69.798  1.00  0.00    -0.339 A  
HETATM   19  C   UNL     1     -11.780  15.514  71.077  1.00  0.00    -0.381 A  
HETATM   20  N   UNL     1     -11.942  16.536  72.021  1.00  0.00    -0.639 NA 
HETATM   21  C   UNL     1     -12.317  14.248  71.320  1.00  0.00    -0.439 A  
HETATM   22  C   UNL     1     -12.267  13.254  70.342  1.00  0.00    -0.404 A  
HETATM   23  H2  UNL     1     -12.530  17.261  71.611  1.00  0.00     0.000 HD 
HETATM   24  H1  UNL     1     -12.296  16.324  72.953  1.00  0.00     0.000 HD 
ENDBRANCH  13  16
ENDBRANCH  11  13
ENDBRANCH   6  11
ENDBRANCH   2   3
TORSDOF 4
ENDMDL
MODEL      167
REMARK 921   NORMALIZED FREE ENERGY PREDICTED BY IDOCK:   -4.19 KCAL/MOL
REMARK 922        TOTAL FREE ENERGY PREDICTED BY IDOCK:   -6.00 KCAL/MOL
REMARK 923 INTER-LIGAND FREE ENERGY PREDICTED BY IDOCK:   -5.26 KCAL/MOL
REMARK 924 INTRA-LIGAND FREE ENERGY PREDICTED BY IDOCK:   -0.74 KCAL/MOL
REMARK 927      BINDING AFFINITY PREDICTED BY RF-SCORE:    0.00 PKD
ROOT
HETATM    1  C   UNL     1      -8.046  17.445  68.202  1.00  0.00    -0.232 C  
HETATM    2  C   UNL     1      -7.086  16.294  67.942  1.00  0.00    -0.133 C  
ENDROOT
BRANCH   2   3
HETATM    3  N   UNL     1      -7.802  15.046  67.692  1.00  0.00    -0.152 N  
HETATM    4  C   UNL     1      -9.176  15.051  67.577  1.00  0.00    -0.188 C  
HETATM    5  C   UNL     1      -9.847  13.931  67.309  1.00  0.00    -0.244 C  
HETATM    6  C   UNL     1      -8.993  12.754  67.117  1.00  0.00    -0.214 C  
HETATM    7  N   UNL     1      -7.717  12.728  67.195  1.00  0.00    -0.343 N  
HETATM    8  O   UNL     1      -5.821  13.891  67.578  1.00  0.00    -0.334 OA 
HETATM    9  C   UNL     1      -7.047  13.882  67.492  1.00  0.00    -0.158 C  
HETATM   10  H   UNL     1      -7.206  11.859  67.037  1.00  0.00     0.000 HD 
BRANCH   6  11
HETATM   11  N   UNL     1      -9.707  11.587  66.830  1.00  0.00    -0.196 N  
HETATM   12  H   UNL     1     -10.412  11.632  66.094  1.00  0.00     0.000 HD 
BRANCH  11  13
HETATM   13  S   UNL     1      -9.488  10.120  67.606  1.00  0.00    -0.149 S  
HETATM   14  O   UNL     1     -10.053   9.137  66.702  1.00  0.00    -0.244 OA 
HETATM   15  O   UNL     1      -8.105  10.022  68.021  1.00  0.00    -0.110 OA 
BRANCH  13  16
HETATM   16  C   UNL     1     -10.534  10.210  69.032  1.00  0.00    -0.219 A  
HETATM   17  C   UNL     1     -11.554  11.161  69.090  1.00  0.00    -0.393 A  
HETATM   18  C   UNL     1     -12.381  11.211  70.216  1.00  0.00    -0.397 A  
HETATM   19  C   UNL     1     -12.173  10.348  71.299  1.00  0.00    -0.389 A  
HETATM   20  N   UNL     1     -13.067  10.337  72.375  1.00  0.00    -0.490 NA 
HETATM   21  C   UNL     1     -11.206   9.346  71.184  1.00  0.00    -0.427 A  
HETATM   22  C   UNL     1     -10.385   9.275  70.058  1.00  0.00    -0.245 A  
HETATM   23  H2  UNL     1     -14.006  10.174  72.011  1.00  0.00     0.000 HD 
HETATM   24  H1  UNL     1     -12.916   9.708  73.164  1.00  0.00     0.000 HD 
ENDBRANCH  13  16
ENDBRANCH  11  13
ENDBRANCH   6  11
ENDBRANCH   2   3
TORSDOF 4
ENDMDL
MODEL      168
REMARK 921   NORMALIZED FREE ENERGY PREDICTED BY IDOCK:   -4.19 KCAL/MOL
REMARK 922        TOTAL FREE ENERGY PREDICTED BY IDOCK:   -5.99 KCAL/MOL
REMARK 923 INTER-LIGAND FREE ENERGY PREDICTED BY IDOCK:   -5.43 KCAL/MOL
REMARK 924 INTRA-LIGAND FREE ENERGY PREDICTED BY IDOCK:   -0.56 KCAL/MOL
REMARK 927      BINDING AFFINITY PREDICTED BY RF-SCORE:    0.00 PKD
ROOT
HETATM    1  C   UNL     1     -10.108   6.191  71.979  1.00  0.00    -0.206 C  
HETATM    2  C   UNL     1     -10.377   7.592  72.509  1.00  0.00    -0.240 C  
ENDROOT
BRANCH   2   3
HETATM    3  N   UNL     1      -9.880   8.615  71.594  1.00  0.00    -0.252 N  
HETATM    4  C   UNL     1      -8.548   8.631  71.238  1.00  0.00    -0.187 C  
HETATM    5  C   UNL     1      -8.079   9.531  70.372  1.00  0.00    -0.209 C  
HETATM    6  C   UNL     1      -9.104  10.433  69.835  1.00  0.00     0.159 C  
HETATM    7  N   UNL     1     -10.348  10.422  70.131  1.00  0.00    -0.438 N  
HETATM    8  O   UNL     1     -11.995   9.472  71.346  1.00  0.00    -0.331 OA 
HETATM    9  C   UNL     1     -10.806   9.507  71.037  1.00  0.00    -0.353 C  
HETATM   10  H   UNL     1     -10.989  11.087  69.698  1.00  0.00     0.000 HD 
BRANCH   6  11
HETATM   11  N   UNL     1      -8.602  11.367  68.924  1.00  0.00    -0.354 N  
HETATM   12  H   UNL     1      -8.235  12.242  69.297  1.00  0.00     0.000 HD 
BRANCH  11  13
HETATM   13  S   UNL     1      -8.559  11.151  67.264  1.00  0.00    -0.143 S  
HETATM   14  O   UNL     1      -7.377  11.869  66.830  1.00  0.00    -0.138 OA 
HETATM   15  O   UNL     1      -8.704   9.740  66.980  1.00  0.00    -0.133 OA 
BRANCH  13  16
HETATM   16  C   UNL     1      -9.975  12.028  66.664  1.00  0.00    -0.201 A  
HETATM   17  C   UNL     1     -10.621  11.601  65.503  1.00  0.00    -0.329 A  
HETATM   18  C   UNL     1     -11.746  12.295  65.049  1.00  0.00    -0.405 A  
HETATM   19  C   UNL     1     -12.207  13.433  65.720  1.00  0.00    -0.458 A  
HETATM   20  N   UNL     1     -13.392  14.060  65.316  1.00  0.00    -0.580 NA 
HETATM   21  C   UNL     1     -11.603  13.792  66.927  1.00  0.00    -0.394 A  
HETATM   22  C   UNL     1     -10.489  13.098  67.400  1.00  0.00    -0.243 A  
HETATM   23  H2  UNL     1     -14.138  13.364  65.315  1.00  0.00     0.000 HD 
HETATM   24  H1  UNL     1     -13.728  14.890  65.805  1.00  0.00     0.000 HD 
ENDBRANCH  13  16
ENDBRANCH  11  13
ENDBRANCH   6  11
ENDBRANCH   2   3
TORSDOF 4
ENDMDL
MODEL      169
REMARK 921   NORMALIZED FREE ENERGY PREDICTED BY IDOCK:   -4.17 KCAL/MOL
REMARK 922        TOTAL FREE ENERGY PREDICTED BY IDOCK:   -5.97 KCAL/MOL
REMARK 923 INTER-LIGAND FREE ENERGY PREDICTED BY IDOCK:   -5.41 KCAL/MOL
REMARK 924 INTRA-LIGAND FREE ENERGY PREDICTED BY IDOCK:   -0.57 KCAL/MOL
REMARK 927      BINDING AFFINITY PREDICTED BY RF-SCORE:    0.00 PKD
ROOT
HETATM    1  C   UNL     1     -12.434  11.757  63.113  1.00  0.00    -0.274 C  
HETATM    2  C   UNL     1     -11.182  11.788  63.977  1.00  0.00    -0.385 C  
ENDROOT
BRANCH   2   3
HETATM    3  N   UNL     1     -11.339  12.689  65.115  1.00  0.00    -0.299 N  
HETATM    4  C   UNL     1     -11.654  14.014  64.905  1.00  0.00    -0.367 C  
HETATM    5  C   UNL     1     -11.842  14.846  65.930  1.00  0.00    -0.113 C  
HETATM    6  C   UNL     1     -11.724  14.210  67.246  1.00  0.00    -0.392 C  
HETATM    7  N   UNL     1     -11.457  12.978  67.466  1.00  0.00    -0.308 N  
HETATM    8  O   UNL     1     -10.983  10.957  66.580  1.00  0.00    -0.235 OA 
HETATM    9  C   UNL     1     -11.246  12.145  66.403  1.00  0.00    -0.331 C  
HETATM   10  H   UNL     1     -11.403  12.623  68.421  1.00  0.00     0.000 HD 
BRANCH   6  11
HETATM   11  N   UNL     1     -11.930  15.090  68.312  1.00  0.00    -0.541 N  
HETATM   12  H   UNL     1     -12.754  14.943  68.895  1.00  0.00     0.000 HD 
BRANCH  11  13
HETATM   13  S   UNL     1     -10.922  16.368  68.701  1.00  0.00    -0.341 S  
HETATM   14  O   UNL     1     -11.278  17.416  67.764  1.00  0.00    -0.135 OA 
HETATM   15  O   UNL     1     -11.005  16.602  70.126  1.00  0.00    -0.321 OA 
BRANCH  13  16
HETATM   16  C   UNL     1      -9.298  15.798  68.283  1.00  0.00    -0.193 A  
HETATM   17  C   UNL     1      -8.652  16.298  67.152  1.00  0.00    -0.207 A  
HETATM   18  C   UNL     1      -7.365  15.850  66.842  1.00  0.00    -0.207 A  
HETATM   19  C   UNL     1      -6.735  14.878  67.629  1.00  0.00    -0.177 A  
HETATM   20  N   UNL     1      -5.409  14.511  67.369  1.00  0.00    -0.301 NA 
HETATM   21  C   UNL     1      -7.360  14.457  68.804  1.00  0.00    -0.131 A  
HETATM   22  C   UNL     1      -8.638  14.909  69.134  1.00  0.00    -0.148 A  
HETATM   23  H2  UNL     1      -4.835  15.354  67.380  1.00  0.00     0.000 HD 
HETATM   24  H1  UNL     1      -4.950  13.803  67.942  1.00  0.00     0.000 HD 
ENDBRANCH  13  16
ENDBRANCH  11  13
ENDBRANCH   6  11
ENDBRANCH   2   3
TORSDOF 4
ENDMDL
MODEL      170
REMARK 921   NORMALIZED FREE ENERGY PREDICTED BY IDOCK:   -4.15 KCAL/MOL
REMARK 922        TOTAL FREE ENERGY PREDICTED BY IDOCK:   -5.95 KCAL/MOL
REMARK 923 INTER-LIGAND FREE ENERGY PREDICTED BY IDOCK:   -5.31 KCAL/MOL
REMARK 924 INTRA-LIGAND FREE ENERGY PREDICTED BY IDOCK:   -0.64 KCAL/MOL
REMARK 927      BINDING AFFINITY PREDICTED BY RF-SCORE:    0.00 PKD
ROOT
HETATM    1  C   UNL     1     -10.516   8.470  68.744  1.00  0.00    -0.208 C  
HETATM    2  C   UNL     1      -9.299   8.997  67.999  1.00  0.00    -0.141 C  
ENDROOT
BRANCH   2   3
HETATM    3  N   UNL     1      -9.370  10.443  67.813  1.00  0.00    -0.144 N  
HETATM    4  C   UNL     1     -10.268  10.978  66.915  1.00  0.00    -0.222 C  
HETATM    5  C   UNL     1     -10.380  12.298  66.758  1.00  0.00    -0.238 C  
HETATM    6  C   UNL     1      -9.508  13.080  67.641  1.00  0.00    -0.201 C  
HETATM    7  N   UNL     1      -8.685  12.608  68.498  1.00  0.00    -0.354 N  
HETATM    8  O   UNL     1      -7.784  10.766  69.442  1.00  0.00    -0.142 OA 
HETATM    9  C   UNL     1      -8.569  11.252  68.630  1.00  0.00    -0.139 C  
HETATM   10  H   UNL     1      -8.123  13.234  69.076  1.00  0.00     0.000 HD 
BRANCH   6  11
HETATM   11  N   UNL     1      -9.638  14.462  67.472  1.00  0.00    -0.212 N  
HETATM   12  H   UNL     1      -9.328  14.862  66.587  1.00  0.00     0.000 HD 
BRANCH  11  13
HETATM   13  S   UNL     1     -10.268  15.506  68.618  1.00  0.00    -0.222 S  
HETATM   14  O   UNL     1     -11.702  15.464  68.407  1.00  0.00    -0.352 OA 
HETATM   15  O   UNL     1      -9.709  15.164  69.909  1.00  0.00    -0.155 OA 
BRANCH  13  16
HETATM   16  C   UNL     1      -9.695  17.107  68.126  1.00  0.00    -0.276 A  
HETATM   17  C   UNL     1      -8.856  17.238  67.019  1.00  0.00    -0.243 A  
HETATM   18  C   UNL     1      -8.422  18.509  66.633  1.00  0.00    -0.288 A  
HETATM   19  C   UNL     1      -8.786  19.645  67.365  1.00  0.00    -0.316 A  
HETATM   20  N   UNL     1      -8.431  20.921  66.913  1.00  0.00    -0.562 NA 
HETATM   21  C   UNL     1      -9.698  19.504  68.414  1.00  0.00    -0.498 A  
HETATM   22  C   UNL     1     -10.151  18.242  68.799  1.00  0.00    -0.393 A  
HETATM   23  H2  UNL     1      -8.776  21.031  65.959  1.00  0.00     0.000 HD 
HETATM   24  H1  UNL     1      -8.697  21.749  67.446  1.00  0.00     0.000 HD 
ENDBRANCH  13  16
ENDBRANCH  11  13
ENDBRANCH   6  11
ENDBRANCH   2   3
TORSDOF 4
ENDMDL
MODEL      171
REMARK 921   NORMALIZED FREE ENERGY PREDICTED BY IDOCK:   -4.10 KCAL/MOL
REMARK 922        TOTAL FREE ENERGY PREDICTED BY IDOCK:   -5.88 KCAL/MOL
REMARK 923 INTER-LIGAND FREE ENERGY PREDICTED BY IDOCK:   -5.91 KCAL/MOL
REMARK 924 INTRA-LIGAND FREE ENERGY PREDICTED BY IDOCK:    0.03 KCAL/MOL
REMARK 927      BINDING AFFINITY PREDICTED BY RF-SCORE:    0.00 PKD
ROOT
HETATM    1  C   UNL     1     -12.579  10.694  71.747  1.00  0.00    -0.411 C  
HETATM    2  C   UNL     1     -13.100  10.995  70.349  1.00  0.00     0.090 C  
ENDROOT
BRANCH   2   3
HETATM    3  N   UNL     1     -12.361  12.088  69.726  1.00  0.00    -0.115 N  
HETATM    4  C   UNL     1     -12.406  13.352  70.276  1.00  0.00    -0.284 C  
HETATM    5  C   UNL     1     -11.706  14.356  69.748  1.00  0.00    -0.361 C  
HETATM    6  C   UNL     1     -10.887  13.972  68.593  1.00  0.00    -0.258 C  
HETATM    7  N   UNL     1     -10.809  12.803  68.080  1.00  0.00    -0.225 N  
HETATM    8  O   UNL     1     -11.502  10.656  68.150  1.00  0.00    -0.352 OA 
HETATM    9  C   UNL     1     -11.551  11.790  68.622  1.00  0.00    -0.309 C  
HETATM   10  H   UNL     1     -10.203  12.629  67.278  1.00  0.00     0.000 HD 
BRANCH   6  11
HETATM   11  N   UNL     1     -10.153  15.031  68.052  1.00  0.00    -0.222 N  
HETATM   12  H   UNL     1     -10.126  15.905  68.577  1.00  0.00     0.000 HD 
BRANCH  11  13
HETATM   13  S   UNL     1      -9.314  14.968  66.605  1.00  0.00    -0.283 S  
HETATM   14  O   UNL     1      -9.257  16.344  66.152  1.00  0.00    -0.297 OA 
HETATM   15  O   UNL     1      -8.096  14.216  66.812  1.00  0.00     0.002 OA 
BRANCH  13  16
HETATM   16  C   UNL     1     -10.384  14.081  65.508  1.00  0.00    -0.339 A  
HETATM   17  C   UNL     1      -9.971  12.865  64.963  1.00  0.00    -0.163 A  
HETATM   18  C   UNL     1     -10.832  12.168  64.109  1.00  0.00    -0.410 A  
HETATM   19  C   UNL     1     -12.082  12.695  63.764  1.00  0.00    -0.522 A  
HETATM   20  N   UNL     1     -12.975  11.944  62.992  1.00  0.00    -0.774 NA 
HETATM   21  C   UNL     1     -12.512  13.868  64.389  1.00  0.00    -0.321 A  
HETATM   22  C   UNL     1     -11.669  14.564  65.256  1.00  0.00    -0.361 A  
HETATM   23  H2  UNL     1     -13.122  11.046  63.453  1.00  0.00     0.000 HD 
HETATM   24  H1  UNL     1     -13.886  12.328  62.740  1.00  0.00     0.000 HD 
ENDBRANCH  13  16
ENDBRANCH  11  13
ENDBRANCH   6  11
ENDBRANCH   2   3
TORSDOF 4
ENDMDL
MODEL      172
REMARK 921   NORMALIZED FREE ENERGY PREDICTED BY IDOCK:   -4.09 KCAL/MOL
REMARK 922        TOTAL FREE ENERGY PREDICTED BY IDOCK:   -5.87 KCAL/MOL
REMARK 923 INTER-LIGAND FREE ENERGY PREDICTED BY IDOCK:   -5.70 KCAL/MOL
REMARK 924 INTRA-LIGAND FREE ENERGY PREDICTED BY IDOCK:   -0.17 KCAL/MOL
REMARK 927      BINDING AFFINITY PREDICTED BY RF-SCORE:    0.00 PKD
ROOT
HETATM    1  C   UNL     1      -9.491   9.898  64.637  1.00  0.00    -0.343 C  
HETATM    2  C   UNL     1      -9.584   9.634  66.133  1.00  0.00    -0.233 C  
ENDROOT
BRANCH   2   3
HETATM    3  N   UNL     1      -9.845  10.862  66.878  1.00  0.00    -0.184 N  
HETATM    4  C   UNL     1     -11.140  11.216  67.189  1.00  0.00    -0.287 C  
HETATM    5  C   UNL     1     -11.400  12.311  67.904  1.00  0.00    -0.356 C  
HETATM    6  C   UNL     1     -10.203  13.040  68.337  1.00  0.00    -0.245 C  
HETATM    7  N   UNL     1      -8.992  12.719  68.081  1.00  0.00    -0.197 N  
HETATM    8  O   UNL     1      -7.593  11.271  67.061  1.00  0.00    -0.128 OA 
HETATM    9  C   UNL     1      -8.746  11.605  67.329  1.00  0.00    -0.159 C  
HETATM   10  H   UNL     1      -8.220  13.287  68.433  1.00  0.00     0.000 HD 
BRANCH   6  11
HETATM   11  N   UNL     1     -10.488  14.183  69.091  1.00  0.00    -0.394 N  
HETATM   12  H   UNL     1     -10.164  14.205  70.057  1.00  0.00     0.000 HD 
BRANCH  11  13
HETATM   13  S   UNL     1     -11.321  15.517  68.520  1.00  0.00    -0.366 S  
HETATM   14  O   UNL     1     -11.635  15.194  67.142  1.00  0.00    -0.311 OA 
HETATM   15  O   UNL     1     -12.378  15.834  69.456  1.00  0.00    -0.281 OA 
BRANCH  13  16
HETATM   16  C   UNL     1     -10.123  16.821  68.511  1.00  0.00    -0.281 A  
HETATM   17  C   UNL     1      -8.775  16.531  68.726  1.00  0.00    -0.259 A  
HETATM   18  C   UNL     1      -7.838  17.568  68.702  1.00  0.00    -0.272 A  
HETATM   19  C   UNL     1      -8.240  18.894  68.506  1.00  0.00    -0.353 A  
HETATM   20  N   UNL     1      -7.286  19.911  68.382  1.00  0.00    -0.306 NA 
HETATM   21  C   UNL     1      -9.579  19.153  68.204  1.00  0.00    -0.411 A  
HETATM   22  C   UNL     1     -10.522  18.124  68.208  1.00  0.00    -0.333 A  
HETATM   23  H2  UNL     1      -6.641  19.657  67.633  1.00  0.00     0.000 HD 
HETATM   24  H1  UNL     1      -7.579  20.878  68.239  1.00  0.00     0.000 HD 
ENDBRANCH  13  16
ENDBRANCH  11  13
ENDBRANCH   6  11
ENDBRANCH   2   3
TORSDOF 4
ENDMDL
MODEL      173
REMARK 921   NORMALIZED FREE ENERGY PREDICTED BY IDOCK:   -4.09 KCAL/MOL
REMARK 922        TOTAL FREE ENERGY PREDICTED BY IDOCK:   -5.87 KCAL/MOL
REMARK 923 INTER-LIGAND FREE ENERGY PREDICTED BY IDOCK:   -5.43 KCAL/MOL
REMARK 924 INTRA-LIGAND FREE ENERGY PREDICTED BY IDOCK:   -0.43 KCAL/MOL
REMARK 927      BINDING AFFINITY PREDICTED BY RF-SCORE:    0.00 PKD
ROOT
HETATM    1  C   UNL     1      -9.095  14.790  66.973  1.00  0.00    -0.257 C  
HETATM    2  C   UNL     1      -9.933  15.030  68.220  1.00  0.00    -0.225 C  
ENDROOT
BRANCH   2   3
HETATM    3  N   UNL     1     -10.744  13.862  68.552  1.00  0.00    -0.251 N  
HETATM    4  C   UNL     1     -10.797  12.792  67.685  1.00  0.00    -0.228 C  
HETATM    5  C   UNL     1     -11.499  11.698  67.986  1.00  0.00    -0.385 C  
HETATM    6  C   UNL     1     -12.143  11.745  69.303  1.00  0.00    -0.229 C  
HETATM    7  N   UNL     1     -12.088  12.715  70.135  1.00  0.00    -0.363 N  
HETATM    8  O   UNL     1     -11.313  14.789  70.574  1.00  0.00    -0.248 OA 
HETATM    9  C   UNL     1     -11.382  13.837  69.799  1.00  0.00    -0.134 C  
HETATM   10  H   UNL     1     -12.565  12.653  71.034  1.00  0.00     0.000 HD 
BRANCH   6  11
HETATM   11  N   UNL     1     -12.869  10.591  69.610  1.00  0.00    -0.374 N  
HETATM   12  H   UNL     1     -13.322  10.098  68.841  1.00  0.00     0.000 HD 
BRANCH  11  13
HETATM   13  S   UNL     1     -13.048   9.959  71.150  1.00  0.00    -0.334 S  
HETATM   14  O   UNL     1     -13.067  11.117  72.023  1.00  0.00    -0.492 OA 
HETATM   15  O   UNL     1     -14.160   9.033  71.140  1.00  0.00    -0.236 OA 
BRANCH  13  16
HETATM   16  C   UNL     1     -11.541   9.080  71.449  1.00  0.00    -0.326 A  
HETATM   17  C   UNL     1     -11.362   8.390  72.649  1.00  0.00    -0.346 A  
HETATM   18  C   UNL     1     -10.173   7.688  72.866  1.00  0.00    -0.356 A  
HETATM   19  C   UNL     1      -9.147   7.703  71.914  1.00  0.00    -0.127 A  
HETATM   20  N   UNL     1      -8.004   6.916  72.096  1.00  0.00    -0.095 NA 
HETATM   21  C   UNL     1      -9.379   8.324  70.685  1.00  0.00    -0.172 A  
HETATM   22  C   UNL     1     -10.569   9.014  70.449  1.00  0.00    -0.258 A  
HETATM   23  H2  UNL     1      -8.298   5.950  72.235  1.00  0.00     0.000 HD 
HETATM   24  H1  UNL     1      -7.255   6.927  71.403  1.00  0.00     0.000 HD 
ENDBRANCH  13  16
ENDBRANCH  11  13
ENDBRANCH   6  11
ENDBRANCH   2   3
TORSDOF 4
ENDMDL
MODEL      174
REMARK 921   NORMALIZED FREE ENERGY PREDICTED BY IDOCK:   -4.09 KCAL/MOL
REMARK 922        TOTAL FREE ENERGY PREDICTED BY IDOCK:   -5.86 KCAL/MOL
REMARK 923 INTER-LIGAND FREE ENERGY PREDICTED BY IDOCK:   -4.96 KCAL/MOL
REMARK 924 INTRA-LIGAND FREE ENERGY PREDICTED BY IDOCK:   -0.90 KCAL/MOL
REMARK 927      BINDING AFFINITY PREDICTED BY RF-SCORE:    0.00 PKD
ROOT
HETATM    1  C   UNL     1     -12.141  12.608  65.515  1.00  0.00    -0.515 C  
HETATM    2  C   UNL     1     -11.039  13.313  66.290  1.00  0.00    -0.290 C  
ENDROOT
BRANCH   2   3
HETATM    3  N   UNL     1     -10.182  12.360  66.989  1.00  0.00    -0.219 N  
HETATM    4  C   UNL     1      -9.213  11.668  66.296  1.00  0.00    -0.217 C  
HETATM    5  C   UNL     1      -8.392  10.822  66.920  1.00  0.00    -0.132 C  
HETATM    6  C   UNL     1      -8.602  10.748  68.370  1.00  0.00    -0.141 C  
HETATM    7  N   UNL     1      -9.477  11.397  69.040  1.00  0.00    -0.406 N  
HETATM    8  O   UNL     1     -11.179  12.878  68.992  1.00  0.00    -0.257 OA 
HETATM    9  C   UNL     1     -10.324  12.243  68.379  1.00  0.00    -0.224 C  
HETATM   10  H   UNL     1      -9.543  11.285  70.052  1.00  0.00     0.000 HD 
BRANCH   6  11
HETATM   11  N   UNL     1      -7.732   9.864  69.015  1.00  0.00    -0.083 N  
HETATM   12  H   UNL     1      -6.732  10.055  68.954  1.00  0.00     0.000 HD 
BRANCH  11  13
HETATM   13  S   UNL     1      -8.213   8.515  69.881  1.00  0.00    -0.125 S  
HETATM   14  O   UNL     1      -6.982   7.814  70.186  1.00  0.00    -0.049 OA 
HETATM   15  O   UNL     1      -9.094   8.943  70.946  1.00  0.00    -0.188 OA 
BRANCH  13  16
HETATM   16  C   UNL     1      -9.119   7.537  68.715  1.00  0.00    -0.135 A  
HETATM   17  C   UNL     1     -10.449   7.200  68.971  1.00  0.00    -0.221 A  
HETATM   18  C   UNL     1     -11.156   6.439  68.036  1.00  0.00    -0.365 A  
HETATM   19  C   UNL     1     -10.536   5.979  66.869  1.00  0.00    -0.315 A  
HETATM   20  N   UNL     1     -11.280   5.306  65.893  1.00  0.00    -0.792 NA 
HETATM   21  C   UNL     1      -9.234   6.401  66.588  1.00  0.00    -0.167 A  
HETATM   22  C   UNL     1      -8.523   7.174  67.507  1.00  0.00    -0.123 A  
HETATM   23  H2  UNL     1     -12.068   5.896  65.625  1.00  0.00     0.000 HD 
HETATM   24  H1  UNL     1     -10.828   4.970  65.042  1.00  0.00     0.000 HD 
ENDBRANCH  13  16
ENDBRANCH  11  13
ENDBRANCH   6  11
ENDBRANCH   2   3
TORSDOF 4
ENDMDL
MODEL      175
REMARK 921   NORMALIZED FREE ENERGY PREDICTED BY IDOCK:   -4.09 KCAL/MOL
REMARK 922        TOTAL FREE ENERGY PREDICTED BY IDOCK:   -5.86 KCAL/MOL
REMARK 923 INTER-LIGAND FREE ENERGY PREDICTED BY IDOCK:   -5.22 KCAL/MOL
REMARK 924 INTRA-LIGAND FREE ENERGY PREDICTED BY IDOCK:   -0.64 KCAL/MOL
REMARK 927      BINDING AFFINITY PREDICTED BY RF-SCORE:    0.00 PKD
ROOT
HETATM    1  C   UNL     1      -7.908  15.500  67.001  1.00  0.00    -0.260 C  
HETATM    2  C   UNL     1      -9.173  15.018  67.695  1.00  0.00    -0.182 C  
ENDROOT
BRANCH   2   3
HETATM    3  N   UNL     1      -9.169  13.568  67.865  1.00  0.00    -0.202 N  
HETATM    4  C   UNL     1      -8.133  12.817  67.353  1.00  0.00    -0.185 C  
HETATM    5  C   UNL     1      -8.087  11.496  67.532  1.00  0.00    -0.137 C  
HETATM    6  C   UNL     1      -9.193  10.964  68.335  1.00  0.00    -0.168 C  
HETATM    7  N   UNL     1     -10.153  11.642  68.840  1.00  0.00    -0.373 N  
HETATM    8  O   UNL     1     -11.104  13.672  69.097  1.00  0.00    -0.253 OA 
HETATM    9  C   UNL     1     -10.194  12.992  68.628  1.00  0.00    -0.164 C  
HETATM   10  H   UNL     1     -10.876  11.182  69.393  1.00  0.00     0.000 HD 
BRANCH   6  11
HETATM   11  N   UNL     1      -9.132   9.579  68.521  1.00  0.00    -0.131 N  
HETATM   12  H   UNL     1      -9.293   8.985  67.708  1.00  0.00     0.000 HD 
BRANCH  11  13
HETATM   13  S   UNL     1      -8.812   8.828  69.982  1.00  0.00    -0.155 S  
HETATM   14  O   UNL     1      -8.096   7.619  69.625  1.00  0.00    -0.121 OA 
HETATM   15  O   UNL     1      -8.212   9.795  70.875  1.00  0.00    -0.234 OA 
BRANCH  13  16
HETATM   16  C   UNL     1     -10.403   8.354  70.597  1.00  0.00    -0.197 A  
HETATM   17  C   UNL     1     -10.946   7.116  70.248  1.00  0.00    -0.288 A  
HETATM   18  C   UNL     1     -12.197   6.749  70.752  1.00  0.00    -0.353 A  
HETATM   19  C   UNL     1     -12.926   7.622  71.568  1.00  0.00    -0.341 A  
HETATM   20  N   UNL     1     -14.129   7.206  72.149  1.00  0.00    -0.595 NA 
HETATM   21  C   UNL     1     -12.328   8.816  71.978  1.00  0.00    -0.444 A  
HETATM   22  C   UNL     1     -11.073   9.187  71.495  1.00  0.00    -0.436 A  
HETATM   23  H2  UNL     1     -13.953   6.349  72.674  1.00  0.00     0.000 HD 
HETATM   24  H1  UNL     1     -14.661   7.842  72.744  1.00  0.00     0.000 HD 
ENDBRANCH  13  16
ENDBRANCH  11  13
ENDBRANCH   6  11
ENDBRANCH   2   3
TORSDOF 4
ENDMDL
MODEL      176
REMARK 921   NORMALIZED FREE ENERGY PREDICTED BY IDOCK:   -4.08 KCAL/MOL
REMARK 922        TOTAL FREE ENERGY PREDICTED BY IDOCK:   -5.86 KCAL/MOL
REMARK 923 INTER-LIGAND FREE ENERGY PREDICTED BY IDOCK:   -4.97 KCAL/MOL
REMARK 924 INTRA-LIGAND FREE ENERGY PREDICTED BY IDOCK:   -0.88 KCAL/MOL
REMARK 927      BINDING AFFINITY PREDICTED BY RF-SCORE:    0.00 PKD
ROOT
HETATM    1  C   UNL     1      -7.808   2.603  72.242  1.00  0.00    -0.054 C  
HETATM    2  C   UNL     1      -8.780   2.759  73.402  1.00  0.00    -0.079 C  
ENDROOT
BRANCH   2   3
HETATM    3  N   UNL     1      -9.483   4.037  73.343  1.00  0.00    -0.110 N  
HETATM    4  C   UNL     1      -8.778   5.202  73.133  1.00  0.00    -0.116 C  
HETATM    5  C   UNL     1      -9.403   6.376  73.034  1.00  0.00    -0.141 C  
HETATM    6  C   UNL     1     -10.864   6.284  73.129  1.00  0.00    -0.254 C  
HETATM    7  N   UNL     1     -11.542   5.213  73.300  1.00  0.00    -0.516 N  
HETATM    8  O   UNL     1     -11.504   2.975  73.589  1.00  0.00    -0.217 OA 
HETATM    9  C   UNL     1     -10.882   4.022  73.420  1.00  0.00    -0.236 C  
HETATM   10  H   UNL     1     -12.561   5.248  73.346  1.00  0.00     0.000 HD 
BRANCH   6  11
HETATM   11  N   UNL     1     -11.509   7.519  73.018  1.00  0.00    -0.607 N  
HETATM   12  H   UNL     1     -11.419   8.172  73.796  1.00  0.00     0.000 HD 
BRANCH  11  13
HETATM   13  S   UNL     1     -12.417   8.004  71.698  1.00  0.00    -0.328 S  
HETATM   14  O   UNL     1     -13.556   7.107  71.686  1.00  0.00    -0.377 OA 
HETATM   15  O   UNL     1     -12.615   9.436  71.777  1.00  0.00    -0.335 OA 
BRANCH  13  16
HETATM   16  C   UNL     1     -11.408   7.618  70.295  1.00  0.00    -0.181 A  
HETATM   17  C   UNL     1     -10.441   8.525  69.861  1.00  0.00    -0.219 A  
HETATM   18  C   UNL     1      -9.642   8.201  68.760  1.00  0.00    -0.149 A  
HETATM   19  C   UNL     1      -9.828   7.000  68.067  1.00  0.00    -0.138 A  
HETATM   20  N   UNL     1      -8.958   6.640  67.032  1.00  0.00    -0.116 NA 
HETATM   21  C   UNL     1     -10.739   6.068  68.570  1.00  0.00    -0.354 A  
HETATM   22  C   UNL     1     -11.531   6.372  69.678  1.00  0.00    -0.446 A  
HETATM   23  H2  UNL     1      -8.004   6.657  67.394  1.00  0.00     0.000 HD 
HETATM   24  H1  UNL     1      -9.093   5.764  66.526  1.00  0.00     0.000 HD 
ENDBRANCH  13  16
ENDBRANCH  11  13
ENDBRANCH   6  11
ENDBRANCH   2   3
TORSDOF 4
ENDMDL
MODEL      177
REMARK 921   NORMALIZED FREE ENERGY PREDICTED BY IDOCK:   -4.08 KCAL/MOL
REMARK 922        TOTAL FREE ENERGY PREDICTED BY IDOCK:   -5.85 KCAL/MOL
REMARK 923 INTER-LIGAND FREE ENERGY PREDICTED BY IDOCK:   -4.91 KCAL/MOL
REMARK 924 INTRA-LIGAND FREE ENERGY PREDICTED BY IDOCK:   -0.95 KCAL/MOL
REMARK 927      BINDING AFFINITY PREDICTED BY RF-SCORE:    0.00 PKD
ROOT
HETATM    1  C   UNL     1     -12.227  14.284  64.035  1.00  0.00    -0.336 C  
HETATM    2  C   UNL     1     -11.198  14.919  64.958  1.00  0.00    -0.404 C  
ENDROOT
BRANCH   2   3
HETATM    3  N   UNL     1     -10.922  14.073  66.115  1.00  0.00    -0.293 N  
HETATM    4  C   UNL     1     -11.823  13.098  66.485  1.00  0.00    -0.400 C  
HETATM    5  C   UNL     1     -11.574  12.286  67.514  1.00  0.00    -0.422 C  
HETATM    6  C   UNL     1     -10.272  12.511  68.150  1.00  0.00    -0.231 C  
HETATM    7  N   UNL     1      -9.409  13.393  67.811  1.00  0.00    -0.203 N  
HETATM    8  O   UNL     1      -8.886  15.090  66.418  1.00  0.00    -0.273 OA 
HETATM    9  C   UNL     1      -9.692  14.230  66.768  1.00  0.00    -0.275 C  
HETATM   10  H   UNL     1      -8.523  13.470  68.311  1.00  0.00     0.000 HD 
BRANCH   6  11
HETATM   11  N   UNL     1     -10.018  11.651  69.222  1.00  0.00    -0.400 N  
HETATM   12  H   UNL     1     -10.659  11.681  70.015  1.00  0.00     0.000 HD 
BRANCH  11  13
HETATM   13  S   UNL     1      -8.740  10.573  69.298  1.00  0.00    -0.074 S  
HETATM   14  O   UNL     1      -7.563  11.408  69.445  1.00  0.00    -0.033 OA 
HETATM   15  O   UNL     1      -9.048   9.563  70.286  1.00  0.00    -0.225 OA 
BRANCH  13  16
HETATM   16  C   UNL     1      -8.682   9.836  67.689  1.00  0.00    -0.125 A  
HETATM   17  C   UNL     1      -9.665   8.923  67.304  1.00  0.00    -0.235 A  
HETATM   18  C   UNL     1      -9.615   8.359  66.026  1.00  0.00    -0.196 A  
HETATM   19  C   UNL     1      -8.572   8.668  65.146  1.00  0.00    -0.173 A  
HETATM   20  N   UNL     1      -8.586   8.178  63.835  1.00  0.00    -0.390 NA 
HETATM   21  C   UNL     1      -7.649   9.650  65.515  1.00  0.00    -0.109 A  
HETATM   22  C   UNL     1      -7.698  10.232  66.782  1.00  0.00    -0.111 A  
HETATM   23  H2  UNL     1      -9.466   8.454  63.398  1.00  0.00     0.000 HD 
HETATM   24  H1  UNL     1      -7.825   8.403  63.193  1.00  0.00     0.000 HD 
ENDBRANCH  13  16
ENDBRANCH  11  13
ENDBRANCH   6  11
ENDBRANCH   2   3
TORSDOF 4
ENDMDL
MODEL      178
REMARK 921   NORMALIZED FREE ENERGY PREDICTED BY IDOCK:   -4.07 KCAL/MOL
REMARK 922        TOTAL FREE ENERGY PREDICTED BY IDOCK:   -5.84 KCAL/MOL
REMARK 923 INTER-LIGAND FREE ENERGY PREDICTED BY IDOCK:   -5.20 KCAL/MOL
REMARK 924 INTRA-LIGAND FREE ENERGY PREDICTED BY IDOCK:   -0.64 KCAL/MOL
REMARK 927      BINDING AFFINITY PREDICTED BY RF-SCORE:    0.00 PKD
ROOT
HETATM    1  C   UNL     1      -7.994   7.432  62.383  1.00  0.00    -0.136 C  
HETATM    2  C   UNL     1      -7.124   8.577  62.879  1.00  0.00    -0.091 C  
ENDROOT
BRANCH   2   3
HETATM    3  N   UNL     1      -7.929   9.645  63.464  1.00  0.00    -0.131 N  
HETATM    4  C   UNL     1      -9.107  10.030  62.860  1.00  0.00    -0.286 C  
HETATM    5  C   UNL     1      -9.879  10.975  63.399  1.00  0.00    -0.404 C  
HETATM    6  C   UNL     1      -9.376  11.503  64.671  1.00  0.00    -0.022 C  
HETATM    7  N   UNL     1      -8.301  11.146  65.264  1.00  0.00    -0.377 N  
HETATM    8  O   UNL     1      -6.469   9.828  65.227  1.00  0.00    -0.078 OA 
HETATM    9  C   UNL     1      -7.511  10.191  64.685  1.00  0.00    -0.132 C  
HETATM   10  H   UNL     1      -8.036  11.567  66.154  1.00  0.00     0.000 HD 
BRANCH   6  11
HETATM   11  N   UNL     1     -10.197  12.488  65.230  1.00  0.00    -0.283 N  
HETATM   12  H   UNL     1     -10.444  13.286  64.645  1.00  0.00     0.000 HD 
BRANCH  11  13
HETATM   13  S   UNL     1     -10.804  12.450  66.789  1.00  0.00    -0.258 S  
HETATM   14  O   UNL     1     -12.205  12.113  66.630  1.00  0.00    -0.566 OA 
HETATM   15  O   UNL     1      -9.940  11.620  67.599  1.00  0.00    -0.184 OA 
BRANCH  13  16
HETATM   16  C   UNL     1     -10.711  14.129  67.345  1.00  0.00    -0.284 A  
HETATM   17  C   UNL     1     -11.613  14.599  68.300  1.00  0.00    -0.353 A  
HETATM   18  C   UNL     1     -11.519  15.922  68.739  1.00  0.00    -0.393 A  
HETATM   19  C   UNL     1     -10.560  16.790  68.205  1.00  0.00    -0.352 A  
HETATM   20  N   UNL     1     -10.408  18.081  68.724  1.00  0.00    -0.390 NA 
HETATM   21  C   UNL     1      -9.611  16.277  67.318  1.00  0.00    -0.231 A  
HETATM   22  C   UNL     1      -9.684  14.953  66.883  1.00  0.00    -0.248 A  
HETATM   23  H2  UNL     1     -10.248  18.006  69.729  1.00  0.00     0.000 HD 
HETATM   24  H1  UNL     1      -9.709  18.713  68.334  1.00  0.00     0.000 HD 
ENDBRANCH  13  16
ENDBRANCH  11  13
ENDBRANCH   6  11
ENDBRANCH   2   3
TORSDOF 4
ENDMDL
MODEL      179
REMARK 921   NORMALIZED FREE ENERGY PREDICTED BY IDOCK:   -3.99 KCAL/MOL
REMARK 922        TOTAL FREE ENERGY PREDICTED BY IDOCK:   -5.74 KCAL/MOL
REMARK 923 INTER-LIGAND FREE ENERGY PREDICTED BY IDOCK:   -4.98 KCAL/MOL
REMARK 924 INTRA-LIGAND FREE ENERGY PREDICTED BY IDOCK:   -0.76 KCAL/MOL
REMARK 927      BINDING AFFINITY PREDICTED BY RF-SCORE:    0.00 PKD
ROOT
HETATM    1  C   UNL     1     -10.729  15.581  65.193  1.00  0.00    -0.460 C  
HETATM    2  C   UNL     1     -11.845  14.548  65.154  1.00  0.00    -0.374 C  
ENDROOT
BRANCH   2   3
HETATM    3  N   UNL     1     -11.315  13.188  65.140  1.00  0.00    -0.292 N  
HETATM    4  C   UNL     1     -10.859  12.639  63.961  1.00  0.00    -0.415 C  
HETATM    5  C   UNL     1     -10.333  11.413  63.932  1.00  0.00    -0.434 C  
HETATM    6  C   UNL     1     -10.261  10.763  65.245  1.00  0.00    -0.285 C  
HETATM    7  N   UNL     1     -10.655  11.261  66.355  1.00  0.00    -0.258 N  
HETATM    8  O   UNL     1     -11.604  13.015  67.411  1.00  0.00    -0.314 OA 
HETATM    9  C   UNL     1     -11.211  12.510  66.362  1.00  0.00    -0.306 C  
HETATM   10  H   UNL     1     -10.556  10.733  67.223  1.00  0.00     0.000 HD 
BRANCH   6  11
HETATM   11  N   UNL     1      -9.702   9.482  65.203  1.00  0.00    -0.448 N  
HETATM   12  H   UNL     1      -9.399   9.127  64.296  1.00  0.00     0.000 HD 
BRANCH  11  13
HETATM   13  S   UNL     1      -9.494   8.490  66.535  1.00  0.00    -0.236 S  
HETATM   14  O   UNL     1      -8.370   9.064  67.249  1.00  0.00    -0.110 OA 
HETATM   15  O   UNL     1     -10.773   8.328  67.192  1.00  0.00    -0.302 OA 
BRANCH  13  16
HETATM   16  C   UNL     1      -8.971   6.940  65.858  1.00  0.00    -0.064 A  
HETATM   17  C   UNL     1      -9.464   5.746  66.386  1.00  0.00    -0.172 A  
HETATM   18  C   UNL     1      -9.053   4.530  65.833  1.00  0.00    -0.133 A  
HETATM   19  C   UNL     1      -8.125   4.494  64.786  1.00  0.00    -0.101 A  
HETATM   20  N   UNL     1      -7.798   3.279  64.173  1.00  0.00    -0.080 NA 
HETATM   21  C   UNL     1      -7.712   5.699  64.213  1.00  0.00    -0.098 A  
HETATM   22  C   UNL     1      -8.128   6.920  64.745  1.00  0.00    -0.095 A  
HETATM   23  H2  UNL     1      -8.661   2.839  63.851  1.00  0.00     0.000 HD 
HETATM   24  H1  UNL     1      -7.122   3.253  63.409  1.00  0.00     0.000 HD 
ENDBRANCH  13  16
ENDBRANCH  11  13
ENDBRANCH   6  11
ENDBRANCH   2   3
TORSDOF 4
ENDMDL
MODEL      180
REMARK 921   NORMALIZED FREE ENERGY PREDICTED BY IDOCK:   -3.98 KCAL/MOL
REMARK 922        TOTAL FREE ENERGY PREDICTED BY IDOCK:   -5.73 KCAL/MOL
REMARK 923 INTER-LIGAND FREE ENERGY PREDICTED BY IDOCK:   -5.22 KCAL/MOL
REMARK 924 INTRA-LIGAND FREE ENERGY PREDICTED BY IDOCK:   -0.51 KCAL/MOL
REMARK 927      BINDING AFFINITY PREDICTED BY RF-SCORE:    0.00 PKD
ROOT
HETATM    1  C   UNL     1     -11.113  15.488  64.523  1.00  0.00    -0.290 C  
HETATM    2  C   UNL     1     -12.153  14.378  64.489  1.00  0.00    -0.481 C  
ENDROOT
BRANCH   2   3
HETATM    3  N   UNL     1     -11.536  13.063  64.634  1.00  0.00    -0.331 N  
HETATM    4  C   UNL     1     -10.966  12.445  63.541  1.00  0.00    -0.450 C  
HETATM    5  C   UNL     1     -10.362  11.263  63.658  1.00  0.00    -0.464 C  
HETATM    6  C   UNL     1     -10.336  10.737  65.027  1.00  0.00    -0.287 C  
HETATM    7  N   UNL     1     -10.836  11.301  66.061  1.00  0.00    -0.248 N  
HETATM    8  O   UNL     1     -11.966  13.070  66.890  1.00  0.00    -0.382 OA 
HETATM    9  C   UNL     1     -11.471  12.503  65.918  1.00  0.00    -0.373 C  
HETATM   10  H   UNL     1     -10.762  10.861  66.978  1.00  0.00     0.000 HD 
BRANCH   6  11
HETATM   11  N   UNL     1      -9.694   9.500  65.138  1.00  0.00    -0.448 N  
HETATM   12  H   UNL     1     -10.276   8.663  65.140  1.00  0.00     0.000 HD 
BRANCH  11  13
HETATM   13  S   UNL     1      -8.038   9.295  65.269  1.00  0.00    -0.128 S  
HETATM   14  O   UNL     1      -7.860   7.876  65.503  1.00  0.00    -0.098 OA 
HETATM   15  O   UNL     1      -7.405   9.934  64.135  1.00  0.00    -0.125 OA 
BRANCH  13  16
HETATM   16  C   UNL     1      -7.599  10.149  66.757  1.00  0.00    -0.105 A  
HETATM   17  C   UNL     1      -8.142   9.747  67.978  1.00  0.00    -0.105 A  
HETATM   18  C   UNL     1      -7.775  10.421  69.146  1.00  0.00    -0.126 A  
HETATM   19  C   UNL     1      -6.904  11.516  69.100  1.00  0.00    -0.112 A  
HETATM   20  N   UNL     1      -6.465  12.119  70.285  1.00  0.00    -0.469 NA 
HETATM   21  C   UNL     1      -6.303  11.846  67.884  1.00  0.00    -0.064 A  
HETATM   22  C   UNL     1      -6.648  11.170  66.712  1.00  0.00    -0.133 A  
HETATM   23  H2  UNL     1      -6.045  11.400  70.874  1.00  0.00     0.000 HD 
HETATM   24  H1  UNL     1      -5.830  12.917  70.251  1.00  0.00     0.000 HD 
ENDBRANCH  13  16
ENDBRANCH  11  13
ENDBRANCH   6  11
ENDBRANCH   2   3
TORSDOF 4
ENDMDL
MODEL      181
REMARK 921   NORMALIZED FREE ENERGY PREDICTED BY IDOCK:   -3.97 KCAL/MOL
REMARK 922        TOTAL FREE ENERGY PREDICTED BY IDOCK:   -5.72 KCAL/MOL
REMARK 923 INTER-LIGAND FREE ENERGY PREDICTED BY IDOCK:   -4.96 KCAL/MOL
REMARK 924 INTRA-LIGAND FREE ENERGY PREDICTED BY IDOCK:   -0.76 KCAL/MOL
REMARK 927      BINDING AFFINITY PREDICTED BY RF-SCORE:    0.00 PKD
ROOT
HETATM    1  C   UNL     1      -7.359   6.068  64.933  1.00  0.00    -0.073 C  
HETATM    2  C   UNL     1      -8.051   5.259  66.020  1.00  0.00    -0.110 C  
ENDROOT
BRANCH   2   3
HETATM    3  N   UNL     1      -8.858   6.110  66.889  1.00  0.00    -0.116 N  
HETATM    4  C   UNL     1      -9.847   6.904  66.348  1.00  0.00    -0.034 C  
HETATM    5  C   UNL     1     -10.624   7.659  67.126  1.00  0.00    -0.410 C  
HETATM    6  C   UNL     1     -10.347   7.522  68.560  1.00  0.00    -0.199 C  
HETATM    7  N   UNL     1      -9.452   6.776  69.087  1.00  0.00    -0.141 N  
HETATM    8  O   UNL     1      -7.778   5.300  68.746  1.00  0.00    -0.081 OA 
HETATM    9  C   UNL     1      -8.651   6.026  68.272  1.00  0.00    -0.115 C  
HETATM   10  H   UNL     1      -9.338   6.741  70.100  1.00  0.00     0.000 HD 
BRANCH   6  11
HETATM   11  N   UNL     1     -11.172   8.313  69.366  1.00  0.00    -0.425 N  
HETATM   12  H   UNL     1     -12.164   8.082  69.398  1.00  0.00     0.000 HD 
BRANCH  11  13
HETATM   13  S   UNL     1     -10.646   9.611  70.282  1.00  0.00    -0.300 S  
HETATM   14  O   UNL     1     -11.439   9.551  71.494  1.00  0.00    -0.368 OA 
HETATM   15  O   UNL     1      -9.201   9.571  70.351  1.00  0.00    -0.242 OA 
BRANCH  13  16
HETATM   16  C   UNL     1     -11.160  11.039  69.369  1.00  0.00    -0.262 A  
HETATM   17  C   UNL     1     -11.875  12.054  70.006  1.00  0.00    -0.392 A  
HETATM   18  C   UNL     1     -12.263  13.182  69.276  1.00  0.00    -0.165 A  
HETATM   19  C   UNL     1     -11.978  13.285  67.910  1.00  0.00    -0.309 A  
HETATM   20  N   UNL     1     -12.280  14.461  67.213  1.00  0.00    -0.608 NA 
HETATM   21  C   UNL     1     -11.186  12.302  67.312  1.00  0.00    -0.358 A  
HETATM   22  C   UNL     1     -10.778  11.179  68.034  1.00  0.00    -0.254 A  
HETATM   23  H2  UNL     1     -11.834  15.242  67.693  1.00  0.00     0.000 HD 
HETATM   24  H1  UNL     1     -12.072  14.536  66.217  1.00  0.00     0.000 HD 
ENDBRANCH  13  16
ENDBRANCH  11  13
ENDBRANCH   6  11
ENDBRANCH   2   3
TORSDOF 4
ENDMDL
MODEL      182
REMARK 921   NORMALIZED FREE ENERGY PREDICTED BY IDOCK:   -3.97 KCAL/MOL
REMARK 922        TOTAL FREE ENERGY PREDICTED BY IDOCK:   -5.72 KCAL/MOL
REMARK 923 INTER-LIGAND FREE ENERGY PREDICTED BY IDOCK:   -5.69 KCAL/MOL
REMARK 924 INTRA-LIGAND FREE ENERGY PREDICTED BY IDOCK:   -0.03 KCAL/MOL
REMARK 927      BINDING AFFINITY PREDICTED BY RF-SCORE:    0.00 PKD
ROOT
HETATM    1  C   UNL     1     -11.693   7.254  72.276  1.00  0.00    -0.304 C  
HETATM    2  C   UNL     1     -11.805   6.946  70.791  1.00  0.00    -0.377 C  
ENDROOT
BRANCH   2   3
HETATM    3  N   UNL     1     -11.059   7.910  69.987  1.00  0.00    -0.211 N  
HETATM    4  C   UNL     1     -10.535   9.040  70.578  1.00  0.00    -0.223 C  
HETATM    5  C   UNL     1      -9.815   9.914  69.872  1.00  0.00    -0.285 C  
HETATM    6  C   UNL     1      -9.619   9.531  68.470  1.00  0.00    -0.142 C  
HETATM    7  N   UNL     1     -10.074   8.478  67.905  1.00  0.00    -0.196 N  
HETATM    8  O   UNL     1     -11.283   6.585  68.125  1.00  0.00    -0.275 OA 
HETATM    9  C   UNL     1     -10.827   7.605  68.639  1.00  0.00     0.028 C  
HETATM   10  H   UNL     1      -9.877   8.292  66.921  1.00  0.00     0.000 HD 
BRANCH   6  11
HETATM   11  N   UNL     1      -8.858  10.451  67.743  1.00  0.00    -0.128 N  
HETATM   12  H   UNL     1      -7.974  10.128  67.349  1.00  0.00     0.000 HD 
BRANCH  11  13
HETATM   13  S   UNL     1      -9.294  12.044  67.469  1.00  0.00    -0.184 S  
HETATM   14  O   UNL     1     -10.103  12.406  68.617  1.00  0.00    -0.210 OA 
HETATM   15  O   UNL     1      -8.102  12.798  67.148  1.00  0.00    -0.176 OA 
BRANCH  13  16
HETATM   16  C   UNL     1     -10.358  11.979  66.056  1.00  0.00    -0.238 A  
HETATM   17  C   UNL     1      -9.954  11.293  64.909  1.00  0.00    -0.323 A  
HETATM   18  C   UNL     1     -10.810  11.238  63.806  1.00  0.00    -0.424 A  
HETATM   19  C   UNL     1     -12.046  11.895  63.822  1.00  0.00    -0.443 A  
HETATM   20  N   UNL     1     -12.937  11.749  62.753  1.00  0.00    -0.641 NA 
HETATM   21  C   UNL     1     -12.470  12.499  65.008  1.00  0.00    -0.494 A  
HETATM   22  C   UNL     1     -11.631  12.547  66.122  1.00  0.00    -0.448 A  
HETATM   23  H2  UNL     1     -13.105  10.754  62.608  1.00  0.00     0.000 HD 
HETATM   24  H1  UNL     1     -13.838  12.228  62.765  1.00  0.00     0.000 HD 
ENDBRANCH  13  16
ENDBRANCH  11  13
ENDBRANCH   6  11
ENDBRANCH   2   3
TORSDOF 4
ENDMDL
MODEL      183
REMARK 921   NORMALIZED FREE ENERGY PREDICTED BY IDOCK:   -3.97 KCAL/MOL
REMARK 922        TOTAL FREE ENERGY PREDICTED BY IDOCK:   -5.72 KCAL/MOL
REMARK 923 INTER-LIGAND FREE ENERGY PREDICTED BY IDOCK:   -5.93 KCAL/MOL
REMARK 924 INTRA-LIGAND FREE ENERGY PREDICTED BY IDOCK:    0.21 KCAL/MOL
REMARK 927      BINDING AFFINITY PREDICTED BY RF-SCORE:    0.00 PKD
ROOT
HETATM    1  C   UNL     1     -14.374  15.265  71.544  1.00  0.00    -0.633 C  
HETATM    2  C   UNL     1     -12.904  14.884  71.623  1.00  0.00    -0.328 C  
ENDROOT
BRANCH   2   3
HETATM    3  N   UNL     1     -12.627  13.662  70.873  1.00  0.00    -0.353 N  
HETATM    4  C   UNL     1     -11.966  13.730  69.665  1.00  0.00    -0.342 C  
HETATM    5  C   UNL     1     -11.667  12.624  68.983  1.00  0.00    -0.367 C  
HETATM    6  C   UNL     1     -12.065  11.382  69.653  1.00  0.00    -0.305 C  
HETATM    7  N   UNL     1     -12.657  11.292  70.783  1.00  0.00    -0.345 N  
HETATM    8  O   UNL     1     -13.548  12.386  72.545  1.00  0.00    -0.399 OA 
HETATM    9  C   UNL     1     -12.975  12.437  71.458  1.00  0.00    -0.285 C  
HETATM   10  H   UNL     1     -12.889  10.378  71.175  1.00  0.00     0.000 HD 
BRANCH   6  11
HETATM   11  N   UNL     1     -11.740  10.229  68.932  1.00  0.00    -0.517 N  
HETATM   12  H   UNL     1     -12.500   9.597  68.682  1.00  0.00     0.000 HD 
BRANCH  11  13
HETATM   13  S   UNL     1     -10.193   9.814  68.447  1.00  0.00    -0.193 S  
HETATM   14  O   UNL     1     -10.368   8.626  67.634  1.00  0.00    -0.226 OA 
HETATM   15  O   UNL     1      -9.552  10.988  67.896  1.00  0.00    -0.166 OA 
BRANCH  13  16
HETATM   16  C   UNL     1      -9.372   9.331  69.940  1.00  0.00    -0.198 A  
HETATM   17  C   UNL     1      -7.980   9.389  70.021  1.00  0.00    -0.142 A  
HETATM   18  C   UNL     1      -7.346   9.018  71.210  1.00  0.00    -0.093 A  
HETATM   19  C   UNL     1      -8.087   8.554  72.304  1.00  0.00    -0.087 A  
HETATM   20  N   UNL     1      -7.453   8.283  73.522  1.00  0.00    -0.236 NA 
HETATM   21  C   UNL     1      -9.481   8.588  72.234  1.00  0.00    -0.365 A  
HETATM   22  C   UNL     1     -10.127   8.971  71.058  1.00  0.00    -0.352 A  
HETATM   23  H2  UNL     1      -6.943   9.118  73.811  1.00  0.00     0.000 HD 
HETATM   24  H1  UNL     1      -7.992   7.944  74.319  1.00  0.00     0.000 HD 
ENDBRANCH  13  16
ENDBRANCH  11  13
ENDBRANCH   6  11
ENDBRANCH   2   3
TORSDOF 4
ENDMDL
MODEL      184
REMARK 921   NORMALIZED FREE ENERGY PREDICTED BY IDOCK:   -3.96 KCAL/MOL
REMARK 922        TOTAL FREE ENERGY PREDICTED BY IDOCK:   -5.71 KCAL/MOL
REMARK 923 INTER-LIGAND FREE ENERGY PREDICTED BY IDOCK:   -5.19 KCAL/MOL
REMARK 924 INTRA-LIGAND FREE ENERGY PREDICTED BY IDOCK:   -0.52 KCAL/MOL
REMARK 927      BINDING AFFINITY PREDICTED BY RF-SCORE:    0.00 PKD
ROOT
HETATM    1  C   UNL     1      -8.884   5.400  64.532  1.00  0.00     0.032 C  
HETATM    2  C   UNL     1      -8.397   5.815  65.913  1.00  0.00    -0.130 C  
ENDROOT
BRANCH   2   3
HETATM    3  N   UNL     1      -9.150   6.957  66.424  1.00  0.00    -0.159 N  
HETATM    4  C   UNL     1      -8.779   8.238  66.075  1.00  0.00    -0.155 C  
HETATM    5  C   UNL     1      -9.476   9.294  66.497  1.00  0.00    -0.259 C  
HETATM    6  C   UNL     1     -10.653   8.950  67.302  1.00  0.00    -0.234 C  
HETATM    7  N   UNL     1     -11.031   7.770  67.619  1.00  0.00    -0.517 N  
HETATM    8  O   UNL     1     -10.625   5.554  67.486  1.00  0.00    -0.221 OA 
HETATM    9  C   UNL     1     -10.291   6.701  67.196  1.00  0.00    -0.252 C  
HETATM   10  H   UNL     1     -11.871   7.629  68.180  1.00  0.00     0.000 HD 
BRANCH   6  11
HETATM   11  N   UNL     1     -11.379  10.064  67.733  1.00  0.00    -0.445 N  
HETATM   12  H   UNL     1     -12.007  10.508  67.063  1.00  0.00     0.000 HD 
BRANCH  11  13
HETATM   13  S   UNL     1     -11.293  10.722  69.270  1.00  0.00    -0.310 S  
HETATM   14  O   UNL     1     -12.582  10.433  69.866  1.00  0.00    -0.187 OA 
HETATM   15  O   UNL     1     -10.075  10.259  69.900  1.00  0.00    -0.237 OA 
BRANCH  13  16
HETATM   16  C   UNL     1     -11.199  12.469  69.003  1.00  0.00    -0.268 A  
HETATM   17  C   UNL     1     -10.349  12.981  68.021  1.00  0.00    -0.237 A  
HETATM   18  C   UNL     1     -10.295  14.362  67.811  1.00  0.00    -0.238 A  
HETATM   19  C   UNL     1     -11.051  15.237  68.600  1.00  0.00    -0.279 A  
HETATM   20  N   UNL     1     -11.067  16.608  68.316  1.00  0.00    -0.346 NA 
HETATM   21  C   UNL     1     -11.960  14.703  69.515  1.00  0.00    -0.361 A  
HETATM   22  C   UNL     1     -12.036  13.324  69.722  1.00  0.00    -0.391 A  
HETATM   23  H2  UNL     1     -11.347  16.731  67.342  1.00  0.00     0.000 HD 
HETATM   24  H1  UNL     1     -11.618  17.246  68.890  1.00  0.00     0.000 HD 
ENDBRANCH  13  16
ENDBRANCH  11  13
ENDBRANCH   6  11
ENDBRANCH   2   3
TORSDOF 4
ENDMDL
MODEL      185
REMARK 921   NORMALIZED FREE ENERGY PREDICTED BY IDOCK:   -3.95 KCAL/MOL
REMARK 922        TOTAL FREE ENERGY PREDICTED BY IDOCK:   -5.70 KCAL/MOL
REMARK 923 INTER-LIGAND FREE ENERGY PREDICTED BY IDOCK:   -5.34 KCAL/MOL
REMARK 924 INTRA-LIGAND FREE ENERGY PREDICTED BY IDOCK:   -0.35 KCAL/MOL
REMARK 927      BINDING AFFINITY PREDICTED BY RF-SCORE:    0.00 PKD
ROOT
HETATM    1  C   UNL     1     -11.058   6.046  72.871  1.00  0.00    -0.290 C  
HETATM    2  C   UNL     1     -10.223   6.060  71.599  1.00  0.00    -0.201 C  
ENDROOT
BRANCH   2   3
HETATM    3  N   UNL     1     -10.558   7.201  70.753  1.00  0.00    -0.220 N  
HETATM    4  C   UNL     1     -11.217   8.287  71.289  1.00  0.00    -0.259 C  
HETATM    5  C   UNL     1     -11.497   9.357  70.544  1.00  0.00    -0.317 C  
HETATM    6  C   UNL     1     -11.008   9.269  69.164  1.00  0.00    -0.060 C  
HETATM    7  N   UNL     1     -10.374   8.284  68.650  1.00  0.00    -0.211 N  
HETATM    8  O   UNL     1      -9.512   6.222  68.959  1.00  0.00    -0.129 OA 
HETATM    9  C   UNL     1     -10.116   7.187  69.423  1.00  0.00    -0.176 C  
HETATM   10  H   UNL     1     -10.066   8.318  67.678  1.00  0.00     0.000 HD 
BRANCH   6  11
HETATM   11  N   UNL     1     -11.301  10.400  68.396  1.00  0.00    -0.462 N  
HETATM   12  H   UNL     1     -11.968  10.293  67.631  1.00  0.00     0.000 HD 
BRANCH  11  13
HETATM   13  S   UNL     1     -10.636  11.916  68.640  1.00  0.00    -0.224 S  
HETATM   14  O   UNL     1     -11.463  12.520  69.666  1.00  0.00    -0.250 OA 
HETATM   15  O   UNL     1      -9.212  11.767  68.843  1.00  0.00    -0.059 OA 
BRANCH  13  16
HETATM   16  C   UNL     1     -10.935  12.783  67.125  1.00  0.00    -0.263 A  
HETATM   17  C   UNL     1     -12.095  12.528  66.392  1.00  0.00    -0.279 A  
HETATM   18  C   UNL     1     -12.324  13.230  65.205  1.00  0.00    -0.516 A  
HETATM   19  C   UNL     1     -11.388  14.153  64.724  1.00  0.00    -0.371 A  
HETATM   20  N   UNL     1     -11.673  14.923  63.591  1.00  0.00    -0.405 NA 
HETATM   21  C   UNL     1     -10.279  14.459  65.516  1.00  0.00    -0.386 A  
HETATM   22  C   UNL     1     -10.046  13.777  66.711  1.00  0.00    -0.265 A  
HETATM   23  H2  UNL     1     -12.554  15.412  63.748  1.00  0.00     0.000 HD 
HETATM   24  H1  UNL     1     -10.991  15.596  63.240  1.00  0.00     0.000 HD 
ENDBRANCH  13  16
ENDBRANCH  11  13
ENDBRANCH   6  11
ENDBRANCH   2   3
TORSDOF 4
ENDMDL
MODEL      186
REMARK 921   NORMALIZED FREE ENERGY PREDICTED BY IDOCK:   -3.94 KCAL/MOL
REMARK 922        TOTAL FREE ENERGY PREDICTED BY IDOCK:   -5.68 KCAL/MOL
REMARK 923 INTER-LIGAND FREE ENERGY PREDICTED BY IDOCK:   -4.82 KCAL/MOL
REMARK 924 INTRA-LIGAND FREE ENERGY PREDICTED BY IDOCK:   -0.87 KCAL/MOL
REMARK 927      BINDING AFFINITY PREDICTED BY RF-SCORE:    0.00 PKD
ROOT
HETATM    1  C   UNL     1     -11.104  16.010  67.531  1.00  0.00    -0.207 C  
HETATM    2  C   UNL     1     -11.549  14.583  67.245  1.00  0.00    -0.385 C  
ENDROOT
BRANCH   2   3
HETATM    3  N   UNL     1     -10.410  13.673  67.171  1.00  0.00    -0.249 N  
HETATM    4  C   UNL     1      -9.743  13.310  68.322  1.00  0.00    -0.225 C  
HETATM    5  C   UNL     1      -8.726  12.448  68.284  1.00  0.00    -0.175 C  
HETATM    6  C   UNL     1      -8.439  11.922  66.945  1.00  0.00    -0.174 C  
HETATM    7  N   UNL     1      -9.058  12.224  65.867  1.00  0.00    -0.435 N  
HETATM    8  O   UNL     1     -10.696  13.442  64.905  1.00  0.00    -0.327 OA 
HETATM    9  C   UNL     1     -10.083  13.126  65.923  1.00  0.00    -0.290 C  
HETATM   10  H   UNL     1      -8.789  11.799  64.980  1.00  0.00     0.000 HD 
BRANCH   6  11
HETATM   11  N   UNL     1      -7.376  11.014  66.919  1.00  0.00    -0.126 N  
HETATM   12  H   UNL     1      -6.509  11.288  67.380  1.00  0.00     0.000 HD 
BRANCH  11  13
HETATM   13  S   UNL     1      -7.424   9.511  66.184  1.00  0.00    -0.101 S  
HETATM   14  O   UNL     1      -7.959   9.765  64.861  1.00  0.00    -0.120 OA 
HETATM   15  O   UNL     1      -6.131   8.880  66.341  1.00  0.00    -0.057 OA 
BRANCH  13  16
HETATM   16  C   UNL     1      -8.643   8.608  67.097  1.00  0.00    -0.121 A  
HETATM   17  C   UNL     1      -8.474   8.395  68.466  1.00  0.00    -0.132 A  
HETATM   18  C   UNL     1      -9.452   7.692  69.176  1.00  0.00    -0.154 A  
HETATM   19  C   UNL     1     -10.574   7.166  68.525  1.00  0.00    -0.187 A  
HETATM   20  N   UNL     1     -11.594   6.554  69.261  1.00  0.00    -0.643 NA 
HETATM   21  C   UNL     1     -10.769   7.466  67.175  1.00  0.00    -0.400 A  
HETATM   22  C   UNL     1      -9.809   8.181  66.458  1.00  0.00    -0.309 A  
HETATM   23  H2  UNL     1     -11.915   7.210  69.973  1.00  0.00     0.000 HD 
HETATM   24  H1  UNL     1     -12.412   6.170  68.787  1.00  0.00     0.000 HD 
ENDBRANCH  13  16
ENDBRANCH  11  13
ENDBRANCH   6  11
ENDBRANCH   2   3
TORSDOF 4
ENDMDL
MODEL      187
REMARK 921   NORMALIZED FREE ENERGY PREDICTED BY IDOCK:   -3.93 KCAL/MOL
REMARK 922        TOTAL FREE ENERGY PREDICTED BY IDOCK:   -5.67 KCAL/MOL
REMARK 923 INTER-LIGAND FREE ENERGY PREDICTED BY IDOCK:   -5.09 KCAL/MOL
REMARK 924 INTRA-LIGAND FREE ENERGY PREDICTED BY IDOCK:   -0.57 KCAL/MOL
REMARK 927      BINDING AFFINITY PREDICTED BY RF-SCORE:    0.00 PKD
ROOT
HETATM    1  C   UNL     1      -5.523  11.642  70.451  1.00  0.00    -0.135 C  
HETATM    2  C   UNL     1      -5.381  11.727  68.938  1.00  0.00    -0.050 C  
ENDROOT
BRANCH   2   3
HETATM    3  N   UNL     1      -6.522  12.407  68.332  1.00  0.00    -0.054 N  
HETATM    4  C   UNL     1      -6.501  13.776  68.171  1.00  0.00    -0.124 C  
HETATM    5  C   UNL     1      -7.514  14.414  67.583  1.00  0.00    -0.191 C  
HETATM    6  C   UNL     1      -8.584  13.529  67.110  1.00  0.00    -0.195 C  
HETATM    7  N   UNL     1      -8.615  12.255  67.225  1.00  0.00    -0.176 N  
HETATM    8  O   UNL     1      -7.578  10.399  67.982  1.00  0.00    -0.090 OA 
HETATM    9  C   UNL     1      -7.578  11.621  67.851  1.00  0.00    -0.115 C  
HETATM   10  H   UNL     1      -9.402  11.721  66.856  1.00  0.00     0.000 HD 
BRANCH   6  11
HETATM   11  N   UNL     1      -9.636  14.208  66.489  1.00  0.00    -0.286 N  
HETATM   12  H   UNL     1      -9.633  14.256  65.470  1.00  0.00     0.000 HD 
BRANCH  11  13
HETATM   13  S   UNL     1     -10.902  14.946  67.298  1.00  0.00    -0.314 S  
HETATM   14  O   UNL     1     -12.061  14.713  66.458  1.00  0.00    -0.340 OA 
HETATM   15  O   UNL     1     -10.894  14.496  68.673  1.00  0.00    -0.236 OA 
BRANCH  13  16
HETATM   16  C   UNL     1     -10.525  16.675  67.233  1.00  0.00    -0.313 A  
HETATM   17  C   UNL     1     -10.380  17.311  66.000  1.00  0.00    -0.312 A  
HETATM   18  C   UNL     1     -10.095  18.680  65.964  1.00  0.00    -0.326 A  
HETATM   19  C   UNL     1      -9.916  19.407  67.146  1.00  0.00    -0.360 A  
HETATM   20  N   UNL     1      -9.733  20.794  67.101  1.00  0.00    -0.652 NA 
HETATM   21  C   UNL     1     -10.154  18.773  68.368  1.00  0.00    -0.443 A  
HETATM   22  C   UNL     1     -10.454  17.411  68.417  1.00  0.00    -0.384 A  
HETATM   23  H2  UNL     1     -10.514  21.204  66.588  1.00  0.00     0.000 HD 
HETATM   24  H1  UNL     1      -9.603  21.324  67.963  1.00  0.00     0.000 HD 
ENDBRANCH  13  16
ENDBRANCH  11  13
ENDBRANCH   6  11
ENDBRANCH   2   3
TORSDOF 4
ENDMDL
MODEL      188
REMARK 921   NORMALIZED FREE ENERGY PREDICTED BY IDOCK:   -3.92 KCAL/MOL
REMARK 922        TOTAL FREE ENERGY PREDICTED BY IDOCK:   -5.66 KCAL/MOL
REMARK 923 INTER-LIGAND FREE ENERGY PREDICTED BY IDOCK:   -5.53 KCAL/MOL
REMARK 924 INTRA-LIGAND FREE ENERGY PREDICTED BY IDOCK:   -0.13 KCAL/MOL
REMARK 927      BINDING AFFINITY PREDICTED BY RF-SCORE:    0.00 PKD
ROOT
HETATM    1  C   UNL     1     -10.042  10.455  65.140  1.00  0.00    -0.379 C  
HETATM    2  C   UNL     1     -10.438  10.771  66.575  1.00  0.00    -0.240 C  
ENDROOT
BRANCH   2   3
HETATM    3  N   UNL     1     -10.055  12.129  66.949  1.00  0.00    -0.205 N  
HETATM    4  C   UNL     1     -10.984  13.145  66.897  1.00  0.00    -0.276 C  
HETATM    5  C   UNL     1     -10.668  14.385  67.273  1.00  0.00    -0.285 C  
HETATM    6  C   UNL     1      -9.293  14.528  67.765  1.00  0.00    -0.198 C  
HETATM    7  N   UNL     1      -8.421  13.597  67.845  1.00  0.00    -0.164 N  
HETATM    8  O   UNL     1      -7.940  11.419  67.495  1.00  0.00    -0.117 OA 
HETATM    9  C   UNL     1      -8.757  12.337  67.435  1.00  0.00    -0.180 C  
HETATM   10  H   UNL     1      -7.488  13.791  68.210  1.00  0.00     0.000 HD 
BRANCH   6  11
HETATM   11  N   UNL     1      -8.976  15.830  68.162  1.00  0.00    -0.178 N  
HETATM   12  H   UNL     1      -8.441  15.946  69.023  1.00  0.00     0.000 HD 
BRANCH  11  13
HETATM   13  S   UNL     1      -9.409  17.214  67.326  1.00  0.00    -0.246 S  
HETATM   14  O   UNL     1      -9.166  16.893  65.933  1.00  0.00    -0.500 OA 
HETATM   15  O   UNL     1     -10.726  17.622  67.764  1.00  0.00    -0.388 OA 
BRANCH  13  16
HETATM   16  C   UNL     1      -8.215  18.425  67.819  1.00  0.00    -0.254 A  
HETATM   17  C   UNL     1      -7.438  18.215  68.959  1.00  0.00    -0.177 A  
HETATM   18  C   UNL     1      -6.489  19.174  69.328  1.00  0.00    -0.332 A  
HETATM   19  C   UNL     1      -6.339  20.355  68.593  1.00  0.00    -0.304 A  
HETATM   20  N   UNL     1      -5.319  21.260  68.911  1.00  0.00    -0.445 NA 
HETATM   21  C   UNL     1      -7.061  20.506  67.407  1.00  0.00    -0.369 A  
HETATM   22  C   UNL     1      -8.000  19.549  67.019  1.00  0.00    -0.294 A  
HETATM   23  H2  UNL     1      -4.430  20.759  68.898  1.00  0.00     0.000 HD 
HETATM   24  H1  UNL     1      -5.209  22.121  68.376  1.00  0.00     0.000 HD 
ENDBRANCH  13  16
ENDBRANCH  11  13
ENDBRANCH   6  11
ENDBRANCH   2   3
TORSDOF 4
ENDMDL
MODEL      189
REMARK 921   NORMALIZED FREE ENERGY PREDICTED BY IDOCK:   -3.92 KCAL/MOL
REMARK 922        TOTAL FREE ENERGY PREDICTED BY IDOCK:   -5.65 KCAL/MOL
REMARK 923 INTER-LIGAND FREE ENERGY PREDICTED BY IDOCK:   -4.95 KCAL/MOL
REMARK 924 INTRA-LIGAND FREE ENERGY PREDICTED BY IDOCK:   -0.71 KCAL/MOL
REMARK 927      BINDING AFFINITY PREDICTED BY RF-SCORE:    0.00 PKD
ROOT
HETATM    1  C   UNL     1     -12.439  12.410  63.697  1.00  0.00    -0.610 C  
HETATM    2  C   UNL     1     -11.686  12.937  64.909  1.00  0.00    -0.348 C  
ENDROOT
BRANCH   2   3
HETATM    3  N   UNL     1     -11.057  11.855  65.660  1.00  0.00    -0.313 N  
HETATM    4  C   UNL     1     -10.440  10.820  64.990  1.00  0.00    -0.237 C  
HETATM    5  C   UNL     1      -9.823   9.842  65.654  1.00  0.00    -0.368 C  
HETATM    6  C   UNL     1      -9.839  10.007  67.111  1.00  0.00    -0.185 C  
HETATM    7  N   UNL     1     -10.383  10.969  67.755  1.00  0.00    -0.182 N  
HETATM    8  O   UNL     1     -11.566  12.888  67.646  1.00  0.00    -0.312 OA 
HETATM    9  C   UNL     1     -11.029  11.952  67.058  1.00  0.00    -0.278 C  
HETATM   10  H   UNL     1     -10.335  11.003  68.774  1.00  0.00     0.000 HD 
BRANCH   6  11
HETATM   11  N   UNL     1      -9.183   8.980  67.797  1.00  0.00    -0.140 N  
HETATM   12  H   UNL     1      -9.483   8.023  67.614  1.00  0.00     0.000 HD 
BRANCH  11  13
HETATM   13  S   UNL     1      -7.942   9.208  68.895  1.00  0.00    -0.100 S  
HETATM   14  O   UNL     1      -6.909   8.278  68.482  1.00  0.00    -0.061 OA 
HETATM   15  O   UNL     1      -7.658  10.625  68.981  1.00  0.00    -0.101 OA 
BRANCH  13  16
HETATM   16  C   UNL     1      -8.599   8.637  70.437  1.00  0.00    -0.153 A  
HETATM   17  C   UNL     1      -7.956   7.613  71.133  1.00  0.00    -0.091 A  
HETATM   18  C   UNL     1      -8.479   7.182  72.356  1.00  0.00    -0.124 A  
HETATM   19  C   UNL     1      -9.658   7.736  72.868  1.00  0.00    -0.242 A  
HETATM   20  N   UNL     1     -10.117   7.369  74.139  1.00  0.00    -0.389 NA 
HETATM   21  C   UNL     1     -10.237   8.818  72.202  1.00  0.00    -0.371 A  
HETATM   22  C   UNL     1      -9.715   9.269  70.988  1.00  0.00    -0.341 A  
HETATM   23  H2  UNL     1      -9.367   7.535  74.811  1.00  0.00     0.000 HD 
HETATM   24  H1  UNL     1     -10.976   7.773  74.512  1.00  0.00     0.000 HD 
ENDBRANCH  13  16
ENDBRANCH  11  13
ENDBRANCH   6  11
ENDBRANCH   2   3
TORSDOF 4
ENDMDL
MODEL      190
REMARK 921   NORMALIZED FREE ENERGY PREDICTED BY IDOCK:   -3.90 KCAL/MOL
REMARK 922        TOTAL FREE ENERGY PREDICTED BY IDOCK:   -5.63 KCAL/MOL
REMARK 923 INTER-LIGAND FREE ENERGY PREDICTED BY IDOCK:   -4.73 KCAL/MOL
REMARK 924 INTRA-LIGAND FREE ENERGY PREDICTED BY IDOCK:   -0.90 KCAL/MOL
REMARK 927      BINDING AFFINITY PREDICTED BY RF-SCORE:    0.00 PKD
ROOT
HETATM    1  C   UNL     1     -12.749  14.199  64.841  1.00  0.00    -0.284 C  
HETATM    2  C   UNL     1     -12.097  12.931  64.308  1.00  0.00    -0.419 C  
ENDROOT
BRANCH   2   3
HETATM    3  N   UNL     1     -10.907  12.578  65.078  1.00  0.00    -0.281 N  
HETATM    4  C   UNL     1     -10.681  13.165  66.304  1.00  0.00    -0.284 C  
HETATM    5  C   UNL     1      -9.623  12.827  67.043  1.00  0.00    -0.229 C  
HETATM    6  C   UNL     1      -8.788  11.779  66.447  1.00  0.00    -0.170 C  
HETATM    7  N   UNL     1      -8.990  11.203  65.322  1.00  0.00    -0.326 N  
HETATM    8  O   UNL     1     -10.288  11.046  63.483  1.00  0.00    -0.352 OA 
HETATM    9  C   UNL     1     -10.068  11.577  64.570  1.00  0.00    -0.278 C  
HETATM   10  H   UNL     1      -8.355  10.475  64.993  1.00  0.00     0.000 HD 
BRANCH   6  11
HETATM   11  N   UNL     1      -7.686  11.429  67.232  1.00  0.00    -0.137 N  
HETATM   12  H   UNL     1      -7.070  12.180  67.545  1.00  0.00     0.000 HD 
BRANCH  11  13
HETATM   13  S   UNL     1      -7.305   9.867  67.698  1.00  0.00    -0.090 S  
HETATM   14  O   UNL     1      -7.274   9.112  66.461  1.00  0.00    -0.083 OA 
HETATM   15  O   UNL     1      -6.140   9.914  68.555  1.00  0.00    -0.045 OA 
BRANCH  13  16
HETATM   16  C   UNL     1      -8.709   9.324  68.629  1.00  0.00    -0.132 A  
HETATM   17  C   UNL     1      -9.038   9.957  69.828  1.00  0.00    -0.249 A  
HETATM   18  C   UNL     1     -10.158   9.526  70.546  1.00  0.00    -0.347 A  
HETATM   19  C   UNL     1     -10.927   8.446  70.098  1.00  0.00    -0.215 A  
HETATM   20  N   UNL     1     -12.102   8.089  70.769  1.00  0.00    -0.495 NA 
HETATM   21  C   UNL     1     -10.635   7.885  68.853  1.00  0.00    -0.165 A  
HETATM   22  C   UNL     1      -9.529   8.316  68.118  1.00  0.00    -0.148 A  
HETATM   23  H2  UNL     1     -12.704   8.910  70.821  1.00  0.00     0.000 HD 
HETATM   24  H1  UNL     1     -12.662   7.301  70.442  1.00  0.00     0.000 HD 
ENDBRANCH  13  16
ENDBRANCH  11  13
ENDBRANCH   6  11
ENDBRANCH   2   3
TORSDOF 4
ENDMDL
MODEL      191
REMARK 921   NORMALIZED FREE ENERGY PREDICTED BY IDOCK:   -3.90 KCAL/MOL
REMARK 922        TOTAL FREE ENERGY PREDICTED BY IDOCK:   -5.63 KCAL/MOL
REMARK 923 INTER-LIGAND FREE ENERGY PREDICTED BY IDOCK:   -5.00 KCAL/MOL
REMARK 924 INTRA-LIGAND FREE ENERGY PREDICTED BY IDOCK:   -0.63 KCAL/MOL
REMARK 927      BINDING AFFINITY PREDICTED BY RF-SCORE:    0.00 PKD
ROOT
HETATM    1  C   UNL     1      -9.943  19.309  66.635  1.00  0.00    -0.461 C  
HETATM    2  C   UNL     1      -8.682  19.070  67.453  1.00  0.00    -0.278 C  
ENDROOT
BRANCH   2   3
HETATM    3  N   UNL     1      -8.537  17.663  67.814  1.00  0.00    -0.225 N  
HETATM    4  C   UNL     1      -9.361  17.110  68.771  1.00  0.00    -0.252 C  
HETATM    5  C   UNL     1      -9.275  15.818  69.088  1.00  0.00    -0.256 C  
HETATM    6  C   UNL     1      -8.277  15.077  68.309  1.00  0.00    -0.146 C  
HETATM    7  N   UNL     1      -7.518  15.562  67.401  1.00  0.00    -0.186 N  
HETATM    8  O   UNL     1      -6.888  17.392  66.240  1.00  0.00    -0.241 OA 
HETATM    9  C   UNL     1      -7.606  16.893  67.105  1.00  0.00    -0.179 C  
HETATM   10  H   UNL     1      -6.856  14.963  66.906  1.00  0.00     0.000 HD 
BRANCH   6  11
HETATM   11  N   UNL     1      -8.200  13.722  68.645  1.00  0.00    -0.280 N  
HETATM   12  H   UNL     1      -7.783  13.481  69.544  1.00  0.00     0.000 HD 
BRANCH  11  13
HETATM   13  S   UNL     1      -8.744  12.468  67.679  1.00  0.00    -0.189 S  
HETATM   14  O   UNL     1      -9.673  13.090  66.757  1.00  0.00    -0.234 OA 
HETATM   15  O   UNL     1      -7.597  11.740  67.182  1.00  0.00    -0.141 OA 
BRANCH  13  16
HETATM   16  C   UNL     1      -9.678  11.435  68.773  1.00  0.00    -0.145 A  
HETATM   17  C   UNL     1     -11.005  11.750  69.068  1.00  0.00    -0.276 A  
HETATM   18  C   UNL     1     -11.734  10.918  69.922  1.00  0.00    -0.418 A  
HETATM   19  C   UNL     1     -11.138   9.799  70.515  1.00  0.00    -0.321 A  
HETATM   20  N   UNL     1     -11.904   8.917  71.287  1.00  0.00    -0.297 NA 
HETATM   21  C   UNL     1      -9.839   9.451  70.139  1.00  0.00    -0.272 A  
HETATM   22  C   UNL     1      -9.106  10.264  69.274  1.00  0.00    -0.206 A  
HETATM   23  H2  UNL     1     -12.693   8.600  70.723  1.00  0.00     0.000 HD 
HETATM   24  H1  UNL     1     -11.470   8.101  71.719  1.00  0.00     0.000 HD 
ENDBRANCH  13  16
ENDBRANCH  11  13
ENDBRANCH   6  11
ENDBRANCH   2   3
TORSDOF 4
ENDMDL
MODEL      192
REMARK 921   NORMALIZED FREE ENERGY PREDICTED BY IDOCK:   -3.89 KCAL/MOL
REMARK 922        TOTAL FREE ENERGY PREDICTED BY IDOCK:   -5.61 KCAL/MOL
REMARK 923 INTER-LIGAND FREE ENERGY PREDICTED BY IDOCK:   -5.34 KCAL/MOL
REMARK 924 INTRA-LIGAND FREE ENERGY PREDICTED BY IDOCK:   -0.28 KCAL/MOL
REMARK 927      BINDING AFFINITY PREDICTED BY RF-SCORE:    0.00 PKD
ROOT
HETATM    1  C   UNL     1     -11.665  14.280  69.569  1.00  0.00    -0.366 C  
HETATM    2  C   UNL     1     -11.734  13.071  68.647  1.00  0.00    -0.323 C  
ENDROOT
BRANCH   2   3
HETATM    3  N   UNL     1     -11.175  11.882  69.283  1.00  0.00    -0.251 N  
HETATM    4  C   UNL     1     -11.976  11.081  70.069  1.00  0.00    -0.351 C  
HETATM    5  C   UNL     1     -11.498   9.967  70.626  1.00  0.00    -0.425 C  
HETATM    6  C   UNL     1     -10.100   9.683  70.289  1.00  0.00    -0.275 C  
HETATM    7  N   UNL     1      -9.344  10.397  69.544  1.00  0.00    -0.369 N  
HETATM    8  O   UNL     1      -9.143  12.257  68.282  1.00  0.00    -0.194 OA 
HETATM    9  C   UNL     1      -9.845  11.546  68.999  1.00  0.00     0.007 C  
HETATM   10  H   UNL     1      -8.381  10.113  69.360  1.00  0.00     0.000 HD 
BRANCH   6  11
HETATM   11  N   UNL     1      -9.612   8.511  70.873  1.00  0.00    -0.175 N  
HETATM   12  H   UNL     1      -9.984   8.246  71.786  1.00  0.00     0.000 HD 
BRANCH  11  13
HETATM   13  S   UNL     1      -8.463   7.509  70.183  1.00  0.00    -0.137 S  
HETATM   14  O   UNL     1      -7.469   8.411  69.635  1.00  0.00    -0.070 OA 
HETATM   15  O   UNL     1      -8.083   6.506  71.155  1.00  0.00    -0.113 OA 
BRANCH  13  16
HETATM   16  C   UNL     1      -9.300   6.737  68.827  1.00  0.00    -0.132 A  
HETATM   17  C   UNL     1      -9.201   5.358  68.639  1.00  0.00    -0.139 A  
HETATM   18  C   UNL     1      -9.878   4.761  67.572  1.00  0.00    -0.206 A  
HETATM   19  C   UNL     1     -10.619   5.533  66.670  1.00  0.00    -0.299 A  
HETATM   20  N   UNL     1     -11.376   4.915  65.667  1.00  0.00    -0.911 NA 
HETATM   21  C   UNL     1     -10.780   6.896  66.926  1.00  0.00    -0.386 A  
HETATM   22  C   UNL     1     -10.122   7.502  67.997  1.00  0.00    -0.221 A  
HETATM   23  H2  UNL     1     -12.005   4.244  66.107  1.00  0.00     0.000 HD 
HETATM   24  H1  UNL     1     -11.916   5.478  65.009  1.00  0.00     0.000 HD 
ENDBRANCH  13  16
ENDBRANCH  11  13
ENDBRANCH   6  11
ENDBRANCH   2   3
TORSDOF 4
ENDMDL
MODEL      193
REMARK 921   NORMALIZED FREE ENERGY PREDICTED BY IDOCK:   -3.88 KCAL/MOL
REMARK 922        TOTAL FREE ENERGY PREDICTED BY IDOCK:   -5.61 KCAL/MOL
REMARK 923 INTER-LIGAND FREE ENERGY PREDICTED BY IDOCK:   -5.09 KCAL/MOL
REMARK 924 INTRA-LIGAND FREE ENERGY PREDICTED BY IDOCK:   -0.52 KCAL/MOL
REMARK 927      BINDING AFFINITY PREDICTED BY RF-SCORE:    0.00 PKD
ROOT
HETATM    1  C   UNL     1     -10.370   7.260  73.629  1.00  0.00    -0.399 C  
HETATM    2  C   UNL     1      -9.741   7.181  72.246  1.00  0.00    -0.153 C  
ENDROOT
BRANCH   2   3
HETATM    3  N   UNL     1     -10.378   8.106  71.314  1.00  0.00    -0.195 N  
HETATM    4  C   UNL     1     -10.934   9.278  71.779  1.00  0.00    -0.313 C  
HETATM    5  C   UNL     1     -11.486  10.157  70.942  1.00  0.00    -0.444 C  
HETATM    6  C   UNL     1     -11.399   9.772  69.529  1.00  0.00    -0.083 C  
HETATM    7  N   UNL     1     -10.868   8.702  69.071  1.00  0.00    -0.429 N  
HETATM    8  O   UNL     1      -9.813   6.763  69.539  1.00  0.00    -0.156 OA 
HETATM    9  C   UNL     1     -10.327   7.803  69.947  1.00  0.00    -0.223 C  
HETATM   10  H   UNL     1     -10.849   8.523  68.067  1.00  0.00     0.000 HD 
BRANCH   6  11
HETATM   11  N   UNL     1     -11.975  10.704  68.660  1.00  0.00    -0.470 N  
HETATM   12  H   UNL     1     -12.958  10.583  68.420  1.00  0.00     0.000 HD 
BRANCH  11  13
HETATM   13  S   UNL     1     -11.165  12.004  67.987  1.00  0.00    -0.282 S  
HETATM   14  O   UNL     1     -12.105  12.574  67.042  1.00  0.00    -0.521 OA 
HETATM   15  O   UNL     1     -10.623  12.814  69.057  1.00  0.00    -0.169 OA 
BRANCH  13  16
HETATM   16  C   UNL     1      -9.842  11.276  67.062  1.00  0.00    -0.191 A  
HETATM   17  C   UNL     1      -8.520  11.469  67.465  1.00  0.00    -0.143 A  
HETATM   18  C   UNL     1      -7.487  10.876  66.733  1.00  0.00    -0.134 A  
HETATM   19  C   UNL     1      -7.759  10.128  65.583  1.00  0.00    -0.143 A  
HETATM   20  N   UNL     1      -6.728   9.455  64.916  1.00  0.00    -0.082 NA 
HETATM   21  C   UNL     1      -9.091   9.872  65.247  1.00  0.00    -0.256 A  
HETATM   22  C   UNL     1     -10.132  10.444  65.979  1.00  0.00    -0.307 A  
HETATM   23  H2  UNL     1      -6.254   8.851  65.587  1.00  0.00     0.000 HD 
HETATM   24  H1  UNL     1      -6.927   8.910  64.077  1.00  0.00     0.000 HD 
ENDBRANCH  13  16
ENDBRANCH  11  13
ENDBRANCH   6  11
ENDBRANCH   2   3
TORSDOF 4
ENDMDL
MODEL      194
REMARK 921   NORMALIZED FREE ENERGY PREDICTED BY IDOCK:   -3.87 KCAL/MOL
REMARK 922        TOTAL FREE ENERGY PREDICTED BY IDOCK:   -5.60 KCAL/MOL
REMARK 923 INTER-LIGAND FREE ENERGY PREDICTED BY IDOCK:   -5.13 KCAL/MOL
REMARK 924 INTRA-LIGAND FREE ENERGY PREDICTED BY IDOCK:   -0.47 KCAL/MOL
REMARK 927      BINDING AFFINITY PREDICTED BY RF-SCORE:    0.00 PKD
ROOT
HETATM    1  C   UNL     1      -8.329   4.339  68.240  1.00  0.00    -0.098 C  
HETATM    2  C   UNL     1      -9.813   4.603  68.031  1.00  0.00    -0.113 C  
ENDROOT
BRANCH   2   3
HETATM    3  N   UNL     1     -10.097   6.033  67.959  1.00  0.00    -0.146 N  
HETATM    4  C   UNL     1      -9.863   6.723  66.789  1.00  0.00    -0.178 C  
HETATM    5  C   UNL     1     -10.153   8.021  66.687  1.00  0.00    -0.329 C  
HETATM    6  C   UNL     1     -10.760   8.594  67.893  1.00  0.00    -0.093 C  
HETATM    7  N   UNL     1     -11.009   7.970  68.982  1.00  0.00    -0.428 N  
HETATM    8  O   UNL     1     -10.906   6.016  70.108  1.00  0.00    -0.280 OA 
HETATM    9  C   UNL     1     -10.685   6.645  69.075  1.00  0.00    -0.259 C  
HETATM   10  H   UNL     1     -11.442   8.453  69.769  1.00  0.00     0.000 HD 
BRANCH   6  11
HETATM   11  N   UNL     1     -11.066   9.953  67.773  1.00  0.00    -0.473 N  
HETATM   12  H   UNL     1     -12.051  10.217  67.757  1.00  0.00     0.000 HD 
BRANCH  11  13
HETATM   13  S   UNL     1      -9.931  11.177  67.653  1.00  0.00    -0.176 S  
HETATM   14  O   UNL     1      -8.814  10.724  68.457  1.00  0.00    -0.135 OA 
HETATM   15  O   UNL     1      -9.743  11.495  66.254  1.00  0.00    -0.203 OA 
BRANCH  13  16
HETATM   16  C   UNL     1     -10.672  12.555  68.483  1.00  0.00    -0.239 A  
HETATM   17  C   UNL     1     -10.292  13.856  68.151  1.00  0.00    -0.247 A  
HETATM   18  C   UNL     1     -10.895  14.934  68.805  1.00  0.00    -0.254 A  
HETATM   19  C   UNL     1     -11.843  14.724  69.812  1.00  0.00    -0.316 A  
HETATM   20  N   UNL     1     -12.515  15.809  70.388  1.00  0.00    -0.400 NA 
HETATM   21  C   UNL     1     -12.275  13.420  70.067  1.00  0.00    -0.367 A  
HETATM   22  C   UNL     1     -11.692  12.336  69.410  1.00  0.00    -0.392 A  
HETATM   23  H2  UNL     1     -12.955  16.347  69.642  1.00  0.00     0.000 HD 
HETATM   24  H1  UNL     1     -13.206  15.655  71.123  1.00  0.00     0.000 HD 
ENDBRANCH  13  16
ENDBRANCH  11  13
ENDBRANCH   6  11
ENDBRANCH   2   3
TORSDOF 4
ENDMDL
MODEL      195
REMARK 921   NORMALIZED FREE ENERGY PREDICTED BY IDOCK:   -3.86 KCAL/MOL
REMARK 922        TOTAL FREE ENERGY PREDICTED BY IDOCK:   -5.58 KCAL/MOL
REMARK 923 INTER-LIGAND FREE ENERGY PREDICTED BY IDOCK:   -4.95 KCAL/MOL
REMARK 924 INTRA-LIGAND FREE ENERGY PREDICTED BY IDOCK:   -0.63 KCAL/MOL
REMARK 927      BINDING AFFINITY PREDICTED BY RF-SCORE:    0.00 PKD
ROOT
HETATM    1  C   UNL     1     -11.139  14.747  69.556  1.00  0.00    -0.302 C  
HETATM    2  C   UNL     1     -12.274  13.735  69.511  1.00  0.00    -0.293 C  
ENDROOT
BRANCH   2   3
HETATM    3  N   UNL     1     -11.866  12.503  68.841  1.00  0.00    -0.311 N  
HETATM    4  C   UNL     1     -11.492  12.532  67.515  1.00  0.00    -0.336 C  
HETATM    5  C   UNL     1     -11.077  11.428  66.893  1.00  0.00    -0.356 C  
HETATM    6  C   UNL     1     -11.025  10.242  67.755  1.00  0.00    -0.300 C  
HETATM    7  N   UNL     1     -11.343  10.194  68.993  1.00  0.00    -0.428 N  
HETATM    8  O   UNL     1     -12.105  11.320  70.794  1.00  0.00    -0.356 OA 
HETATM    9  C   UNL     1     -11.787  11.332  69.607  1.00  0.00    -0.360 C  
HETATM   10  H   UNL     1     -11.267   9.321  69.514  1.00  0.00     0.000 HD 
BRANCH   6  11
HETATM   11  N   UNL     1     -10.582   9.092  67.095  1.00  0.00    -0.283 N  
HETATM   12  H   UNL     1     -11.270   8.554  66.567  1.00  0.00     0.000 HD 
BRANCH  11  13
HETATM   13  S   UNL     1      -9.004   8.534  67.107  1.00  0.00    -0.132 S  
HETATM   14  O   UNL     1      -8.510   8.797  65.770  1.00  0.00    -0.131 OA 
HETATM   15  O   UNL     1      -8.328   9.092  68.259  1.00  0.00    -0.119 OA 
BRANCH  13  16
HETATM   16  C   UNL     1      -9.152   6.780  67.294  1.00  0.00    -0.119 A  
HETATM   17  C   UNL     1      -9.809   6.249  68.406  1.00  0.00    -0.141 A  
HETATM   18  C   UNL     1      -9.930   4.863  68.534  1.00  0.00    -0.185 A  
HETATM   19  C   UNL     1      -9.368   4.002  67.584  1.00  0.00    -0.181 A  
HETATM   20  N   UNL     1      -9.583   2.621  67.667  1.00  0.00    -0.372 NA 
HETATM   21  C   UNL     1      -8.795   4.552  66.435  1.00  0.00    -0.113 A  
HETATM   22  C   UNL     1      -8.681   5.935  66.288  1.00  0.00    -0.136 A  
HETATM   23  H2  UNL     1     -10.589   2.454  67.696  1.00  0.00     0.000 HD 
HETATM   24  H1  UNL     1      -9.173   1.994  66.975  1.00  0.00     0.000 HD 
ENDBRANCH  13  16
ENDBRANCH  11  13
ENDBRANCH   6  11
ENDBRANCH   2   3
TORSDOF 4
ENDMDL
MODEL      196
REMARK 921   NORMALIZED FREE ENERGY PREDICTED BY IDOCK:   -3.85 KCAL/MOL
REMARK 922        TOTAL FREE ENERGY PREDICTED BY IDOCK:   -5.57 KCAL/MOL
REMARK 923 INTER-LIGAND FREE ENERGY PREDICTED BY IDOCK:   -5.48 KCAL/MOL
REMARK 924 INTRA-LIGAND FREE ENERGY PREDICTED BY IDOCK:   -0.09 KCAL/MOL
REMARK 927      BINDING AFFINITY PREDICTED BY RF-SCORE:    0.00 PKD
ROOT
HETATM    1  C   UNL     1      -7.464   8.915  63.564  1.00  0.00    -0.105 C  
HETATM    2  C   UNL     1      -6.610   9.553  64.649  1.00  0.00    -0.093 C  
ENDROOT
BRANCH   2   3
HETATM    3  N   UNL     1      -7.431  10.088  65.731  1.00  0.00    -0.114 N  
HETATM    4  C   UNL     1      -8.569  10.809  65.440  1.00  0.00    -0.157 C  
HETATM    5  C   UNL     1      -9.356  11.272  66.411  1.00  0.00    -0.210 C  
HETATM    6  C   UNL     1      -8.916  10.908  67.762  1.00  0.00    -0.139 C  
HETATM    7  N   UNL     1      -7.879  10.220  68.057  1.00  0.00    -0.099 N  
HETATM    8  O   UNL     1      -6.065   9.112  67.298  1.00  0.00    -0.055 OA 
HETATM    9  C   UNL     1      -7.072   9.772  67.049  1.00  0.00    -0.086 C  
HETATM   10  H   UNL     1      -7.657  10.010  69.030  1.00  0.00     0.000 HD 
BRANCH   6  11
HETATM   11  N   UNL     1      -9.753  11.393  68.772  1.00  0.00    -0.321 N  
HETATM   12  H   UNL     1      -9.384  12.121  69.383  1.00  0.00     0.000 HD 
BRANCH  11  13
HETATM   13  S   UNL     1     -11.317  10.866  69.048  1.00  0.00    -0.307 S  
HETATM   14  O   UNL     1     -11.982  10.999  67.767  1.00  0.00    -0.609 OA 
HETATM   15  O   UNL     1     -11.259   9.582  69.712  1.00  0.00    -0.223 OA 
BRANCH  13  16
HETATM   16  C   UNL     1     -12.007  12.073  70.144  1.00  0.00    -0.321 A  
HETATM   17  C   UNL     1     -11.833  13.433  69.884  1.00  0.00    -0.385 A  
HETATM   18  C   UNL     1     -12.395  14.375  70.750  1.00  0.00    -0.417 A  
HETATM   19  C   UNL     1     -13.094  13.972  71.894  1.00  0.00    -0.386 A  
HETATM   20  N   UNL     1     -13.738  14.919  72.698  1.00  0.00    -0.456 NA 
HETATM   21  C   UNL     1     -13.334  12.610  72.089  1.00  0.00    -0.570 A  
HETATM   22  C   UNL     1     -12.792  11.660  71.222  1.00  0.00    -0.430 A  
HETATM   23  H2  UNL     1     -14.371  15.462  72.111  1.00  0.00     0.000 HD 
HETATM   24  H1  UNL     1     -14.248  14.625  73.532  1.00  0.00     0.000 HD 
ENDBRANCH  13  16
ENDBRANCH  11  13
ENDBRANCH   6  11
ENDBRANCH   2   3
TORSDOF 4
ENDMDL
MODEL      197
REMARK 921   NORMALIZED FREE ENERGY PREDICTED BY IDOCK:   -3.83 KCAL/MOL
REMARK 922        TOTAL FREE ENERGY PREDICTED BY IDOCK:   -5.55 KCAL/MOL
REMARK 923 INTER-LIGAND FREE ENERGY PREDICTED BY IDOCK:   -4.95 KCAL/MOL
REMARK 924 INTRA-LIGAND FREE ENERGY PREDICTED BY IDOCK:   -0.61 KCAL/MOL
REMARK 927      BINDING AFFINITY PREDICTED BY RF-SCORE:    0.00 PKD
ROOT
HETATM    1  C   UNL     1      -6.707   9.772  70.248  1.00  0.00    -0.111 C  
HETATM    2  C   UNL     1      -7.561   9.823  68.991  1.00  0.00    -0.082 C  
ENDROOT
BRANCH   2   3
HETATM    3  N   UNL     1      -8.004  11.184  68.700  1.00  0.00    -0.138 N  
HETATM    4  C   UNL     1      -7.086  12.142  68.327  1.00  0.00    -0.084 C  
HETATM    5  C   UNL     1      -7.472  13.380  68.018  1.00  0.00    -0.139 C  
HETATM    6  C   UNL     1      -8.924  13.585  68.075  1.00  0.00    -0.189 C  
HETATM    7  N   UNL     1      -9.797  12.707  68.395  1.00  0.00    -0.289 N  
HETATM    8  O   UNL     1     -10.193  10.582  69.045  1.00  0.00    -0.194 OA 
HETATM    9  C   UNL     1      -9.380  11.449  68.730  1.00  0.00    -0.106 C  
HETATM   10  H   UNL     1     -10.790  12.942  68.399  1.00  0.00     0.000 HD 
BRANCH   6  11
HETATM   11  N   UNL     1      -9.317  14.885  67.742  1.00  0.00    -0.192 N  
HETATM   12  H   UNL     1      -9.014  15.255  66.842  1.00  0.00     0.000 HD 
BRANCH  11  13
HETATM   13  S   UNL     1     -10.251  15.876  68.715  1.00  0.00    -0.232 S  
HETATM   14  O   UNL     1     -11.597  15.742  68.193  1.00  0.00    -0.344 OA 
HETATM   15  O   UNL     1      -9.969  15.560  70.099  1.00  0.00    -0.275 OA 
BRANCH  13  16
HETATM   16  C   UNL     1      -9.690  17.515  68.352  1.00  0.00    -0.316 A  
HETATM   17  C   UNL     1      -8.327  17.811  68.392  1.00  0.00    -0.295 A  
HETATM   18  C   UNL     1      -7.897  19.106  68.089  1.00  0.00    -0.336 A  
HETATM   19  C   UNL     1      -8.818  20.116  67.786  1.00  0.00    -0.265 A  
HETATM   20  N   UNL     1      -8.372  21.381  67.385  1.00  0.00    -0.403 NA 
HETATM   21  C   UNL     1     -10.167  19.779  67.663  1.00  0.00    -0.569 A  
HETATM   22  C   UNL     1     -10.608  18.486  67.947  1.00  0.00    -0.385 A  
HETATM   23  H2  UNL     1      -7.750  21.264  66.585  1.00  0.00     0.000 HD 
HETATM   24  H1  UNL     1      -9.043  22.117  67.164  1.00  0.00     0.000 HD 
ENDBRANCH  13  16
ENDBRANCH  11  13
ENDBRANCH   6  11
ENDBRANCH   2   3
TORSDOF 4
ENDMDL
MODEL      198
REMARK 921   NORMALIZED FREE ENERGY PREDICTED BY IDOCK:   -3.83 KCAL/MOL
REMARK 922        TOTAL FREE ENERGY PREDICTED BY IDOCK:   -5.55 KCAL/MOL
REMARK 923 INTER-LIGAND FREE ENERGY PREDICTED BY IDOCK:   -5.25 KCAL/MOL
REMARK 924 INTRA-LIGAND FREE ENERGY PREDICTED BY IDOCK:   -0.31 KCAL/MOL
REMARK 927      BINDING AFFINITY PREDICTED BY RF-SCORE:    0.00 PKD
ROOT
HETATM    1  C   UNL     1      -5.442  13.408  70.897  1.00  0.00    -0.185 C  
HETATM    2  C   UNL     1      -5.364  13.889  69.455  1.00  0.00    -0.084 C  
ENDROOT
BRANCH   2   3
HETATM    3  N   UNL     1      -6.674  13.858  68.810  1.00  0.00    -0.095 N  
HETATM    4  C   UNL     1      -7.714  14.598  69.330  1.00  0.00    -0.091 C  
HETATM    5  C   UNL     1      -8.908  14.618  68.734  1.00  0.00    -0.166 C  
HETATM    6  C   UNL     1      -8.971  13.832  67.497  1.00  0.00    -0.201 C  
HETATM    7  N   UNL     1      -8.014  13.157  66.983  1.00  0.00    -0.391 N  
HETATM    8  O   UNL     1      -5.865  12.490  67.153  1.00  0.00    -0.262 OA 
HETATM    9  C   UNL     1      -6.804  13.132  67.619  1.00  0.00    -0.158 C  
HETATM   10  H   UNL     1      -8.152  12.646  66.111  1.00  0.00     0.000 HD 
BRANCH   6  11
HETATM   11  N   UNL     1     -10.224  13.865  66.879  1.00  0.00    -0.254 N  
HETATM   12  H   UNL     1     -10.356  14.522  66.110  1.00  0.00     0.000 HD 
BRANCH  11  13
HETATM   13  S   UNL     1     -11.525  12.904  67.309  1.00  0.00    -0.356 S  
HETATM   14  O   UNL     1     -12.584  13.286  66.395  1.00  0.00    -0.308 OA 
HETATM   15  O   UNL     1     -11.078  11.529  67.377  1.00  0.00    -0.247 OA 
BRANCH  13  16
HETATM   16  C   UNL     1     -11.978  13.464  68.927  1.00  0.00    -0.324 A  
HETATM   17  C   UNL     1     -12.092  12.550  69.975  1.00  0.00    -0.337 A  
HETATM   18  C   UNL     1     -12.437  13.008  71.250  1.00  0.00    -0.315 A  
HETATM   19  C   UNL     1     -12.707  14.363  71.477  1.00  0.00    -0.345 A  
HETATM   20  N   UNL     1     -12.952  14.826  72.775  1.00  0.00    -0.424 NA 
HETATM   21  C   UNL     1     -12.501  15.273  70.438  1.00  0.00    -0.426 A  
HETATM   22  C   UNL     1     -12.141  14.830  69.164  1.00  0.00    -0.278 A  
HETATM   23  H2  UNL     1     -12.167  14.552  73.367  1.00  0.00     0.000 HD 
HETATM   24  H1  UNL     1     -13.149  15.813  72.941  1.00  0.00     0.000 HD 
ENDBRANCH  13  16
ENDBRANCH  11  13
ENDBRANCH   6  11
ENDBRANCH   2   3
TORSDOF 4
ENDMDL
MODEL      199
REMARK 921   NORMALIZED FREE ENERGY PREDICTED BY IDOCK:   -3.83 KCAL/MOL
REMARK 922        TOTAL FREE ENERGY PREDICTED BY IDOCK:   -5.55 KCAL/MOL
REMARK 923 INTER-LIGAND FREE ENERGY PREDICTED BY IDOCK:   -5.42 KCAL/MOL
REMARK 924 INTRA-LIGAND FREE ENERGY PREDICTED BY IDOCK:   -0.13 KCAL/MOL
REMARK 927      BINDING AFFINITY PREDICTED BY RF-SCORE:    0.00 PKD
ROOT
HETATM    1  C   UNL     1      -8.714   8.361  62.540  1.00  0.00     0.017 C  
HETATM    2  C   UNL     1      -7.645   9.296  63.088  1.00  0.00    -0.108 C  
ENDROOT
BRANCH   2   3
HETATM    3  N   UNL     1      -8.219  10.302  63.977  1.00  0.00    -0.161 N  
HETATM    4  C   UNL     1      -9.385  10.947  63.624  1.00  0.00    -0.262 C  
HETATM    5  C   UNL     1      -9.949  11.840  64.439  1.00  0.00    -0.281 C  
HETATM    6  C   UNL     1      -9.243  12.017  65.712  1.00  0.00    -0.060 C  
HETATM    7  N   UNL     1      -8.174  11.414  66.072  1.00  0.00    -0.363 N  
HETATM    8  O   UNL     1      -6.569   9.924  65.528  1.00  0.00    -0.080 OA 
HETATM    9  C   UNL     1      -7.598  10.518  65.214  1.00  0.00    -0.074 C  
HETATM   10  H   UNL     1      -7.758  11.598  66.985  1.00  0.00     0.000 HD 
BRANCH   6  11
HETATM   11  N   UNL     1      -9.847  12.950  66.560  1.00  0.00    -0.249 N  
HETATM   12  H   UNL     1      -9.237  13.541  67.125  1.00  0.00     0.000 HD 
BRANCH  11  13
HETATM   13  S   UNL     1     -11.499  13.168  66.714  1.00  0.00    -0.362 S  
HETATM   14  O   UNL     1     -11.825  14.208  65.758  1.00  0.00    -0.355 OA 
HETATM   15  O   UNL     1     -12.143  11.874  66.635  1.00  0.00    -0.587 OA 
BRANCH  13  16
HETATM   16  C   UNL     1     -11.711  13.840  68.339  1.00  0.00    -0.358 A  
HETATM   17  C   UNL     1     -11.664  15.220  68.534  1.00  0.00    -0.352 A  
HETATM   18  C   UNL     1     -11.846  15.738  69.820  1.00  0.00    -0.352 A  
HETATM   19  C   UNL     1     -12.035  14.888  70.916  1.00  0.00    -0.316 A  
HETATM   20  N   UNL     1     -12.318  15.418  72.180  1.00  0.00    -0.345 NA 
HETATM   21  C   UNL     1     -12.168  13.516  70.687  1.00  0.00    -0.434 A  
HETATM   22  C   UNL     1     -12.004  12.989  69.406  1.00  0.00    -0.338 A  
HETATM   23  H2  UNL     1     -13.135  16.023  72.099  1.00  0.00     0.000 HD 
HETATM   24  H1  UNL     1     -12.455  14.798  72.979  1.00  0.00     0.000 HD 
ENDBRANCH  13  16
ENDBRANCH  11  13
ENDBRANCH   6  11
ENDBRANCH   2   3
TORSDOF 4
ENDMDL
MODEL      200
REMARK 921   NORMALIZED FREE ENERGY PREDICTED BY IDOCK:   -3.83 KCAL/MOL
REMARK 922        TOTAL FREE ENERGY PREDICTED BY IDOCK:   -5.54 KCAL/MOL
REMARK 923 INTER-LIGAND FREE ENERGY PREDICTED BY IDOCK:   -5.36 KCAL/MOL
REMARK 924 INTRA-LIGAND FREE ENERGY PREDICTED BY IDOCK:   -0.18 KCAL/MOL
REMARK 927      BINDING AFFINITY PREDICTED BY RF-SCORE:    0.00 PKD
ROOT
HETATM    1  C   UNL     1     -14.323  15.128  71.461  1.00  0.00    -0.660 C  
HETATM    2  C   UNL     1     -12.900  15.262  70.942  1.00  0.00    -0.449 C  
ENDROOT
BRANCH   2   3
HETATM    3  N   UNL     1     -12.519  14.116  70.121  1.00  0.00    -0.350 N  
HETATM    4  C   UNL     1     -12.103  14.307  68.821  1.00  0.00    -0.265 C  
HETATM    5  C   UNL     1     -11.712  13.279  68.066  1.00  0.00    -0.394 C  
HETATM    6  C   UNL     1     -11.734  11.987  68.759  1.00  0.00    -0.321 C  
HETATM    7  N   UNL     1     -12.093  11.787  69.971  1.00  0.00    -0.323 N  
HETATM    8  O   UNL     1     -12.866  12.691  71.888  1.00  0.00    -0.284 OA 
HETATM    9  C   UNL     1     -12.511  12.850  70.722  1.00  0.00    -0.286 C  
HETATM   10  H   UNL     1     -12.067  10.848  70.370  1.00  0.00     0.000 HD 
BRANCH   6  11
HETATM   11  N   UNL     1     -11.316  10.919  67.961  1.00  0.00    -0.310 N  
HETATM   12  H   UNL     1     -11.802  10.770  67.077  1.00  0.00     0.000 HD 
BRANCH  11  13
HETATM   13  S   UNL     1     -10.074   9.866  68.351  1.00  0.00    -0.175 S  
HETATM   14  O   UNL     1      -9.369  10.516  69.438  1.00  0.00    -0.190 OA 
HETATM   15  O   UNL     1     -10.631   8.543  68.528  1.00  0.00    -0.193 OA 
BRANCH  13  16
HETATM   16  C   UNL     1      -9.014   9.882  66.932  1.00  0.00    -0.138 A  
HETATM   17  C   UNL     1      -7.743  10.454  67.017  1.00  0.00    -0.105 A  
HETATM   18  C   UNL     1      -6.912  10.447  65.893  1.00  0.00    -0.131 A  
HETATM   19  C   UNL     1      -7.353   9.912  64.677  1.00  0.00    -0.140 A  
HETATM   20  N   UNL     1      -6.478   9.818  63.589  1.00  0.00    -0.112 NA 
HETATM   21  C   UNL     1      -8.591   9.266  64.637  1.00  0.00    -0.209 A  
HETATM   22  C   UNL     1      -9.424   9.251  65.756  1.00  0.00    -0.329 A  
HETATM   23  H2  UNL     1      -5.651   9.301  63.885  1.00  0.00     0.000 HD 
HETATM   24  H1  UNL     1      -6.799   9.428  62.702  1.00  0.00     0.000 HD 
ENDBRANCH  13  16
ENDBRANCH  11  13
ENDBRANCH   6  11
ENDBRANCH   2   3
TORSDOF 4
ENDMDL
MODEL      201
REMARK 921   NORMALIZED FREE ENERGY PREDICTED BY IDOCK:   -3.82 KCAL/MOL
REMARK 922        TOTAL FREE ENERGY PREDICTED BY IDOCK:   -5.54 KCAL/MOL
REMARK 923 INTER-LIGAND FREE ENERGY PREDICTED BY IDOCK:   -4.89 KCAL/MOL
REMARK 924 INTRA-LIGAND FREE ENERGY PREDICTED BY IDOCK:   -0.65 KCAL/MOL
REMARK 927      BINDING AFFINITY PREDICTED BY RF-SCORE:    0.00 PKD
ROOT
HETATM    1  C   UNL     1      -8.455  11.170  62.331  1.00  0.00    -0.282 C  
HETATM    2  C   UNL     1      -9.976  11.182  62.372  1.00  0.00     0.294 C  
ENDROOT
BRANCH   2   3
HETATM    3  N   UNL     1     -10.473  11.221  63.744  1.00  0.00    -0.372 N  
HETATM    4  C   UNL     1      -9.801  10.545  64.740  1.00  0.00    -0.323 C  
HETATM    5  C   UNL     1     -10.214  10.600  66.007  1.00  0.00    -0.309 C  
HETATM    6  C   UNL     1     -11.386  11.457  66.217  1.00  0.00    -0.068 C  
HETATM    7  N   UNL     1     -12.012  12.112  65.314  1.00  0.00    -0.322 N  
HETATM    8  O   UNL     1     -12.169  12.641  63.126  1.00  0.00    -0.482 OA 
HETATM    9  C   UNL     1     -11.587  12.026  64.018  1.00  0.00    -0.411 C  
HETATM   10  H   UNL     1     -12.816  12.691  65.559  1.00  0.00     0.000 HD 
BRANCH   6  11
HETATM   11  N   UNL     1     -11.805  11.512  67.549  1.00  0.00    -0.172 N  
HETATM   12  H   UNL     1     -12.562  10.891  67.834  1.00  0.00     0.000 HD 
BRANCH  11  13
HETATM   13  S   UNL     1     -11.154  12.525  68.712  1.00  0.00    -0.277 S  
HETATM   14  O   UNL     1     -12.298  13.019  69.453  1.00  0.00    -0.166 OA 
HETATM   15  O   UNL     1     -10.091  11.819  69.394  1.00  0.00     0.135 OA 
BRANCH  13  16
HETATM   16  C   UNL     1     -10.477  13.880  67.795  1.00  0.00    -0.243 A  
HETATM   17  C   UNL     1     -11.293  14.951  67.429  1.00  0.00    -0.354 A  
HETATM   18  C   UNL     1     -10.742  16.021  66.716  1.00  0.00    -0.259 A  
HETATM   19  C   UNL     1      -9.396  16.010  66.333  1.00  0.00    -0.298 A  
HETATM   20  N   UNL     1      -8.830  17.129  65.710  1.00  0.00    -0.498 NA 
HETATM   21  C   UNL     1      -8.576  14.973  66.785  1.00  0.00    -0.279 A  
HETATM   22  C   UNL     1      -9.111  13.908  67.510  1.00  0.00    -0.201 A  
HETATM   23  H2  UNL     1      -8.987  17.942  66.306  1.00  0.00     0.000 HD 
HETATM   24  H1  UNL     1      -7.849  17.121  65.430  1.00  0.00     0.000 HD 
ENDBRANCH  13  16
ENDBRANCH  11  13
ENDBRANCH   6  11
ENDBRANCH   2   3
TORSDOF 4
ENDMDL
MODEL      202
REMARK 921   NORMALIZED FREE ENERGY PREDICTED BY IDOCK:   -3.82 KCAL/MOL
REMARK 922        TOTAL FREE ENERGY PREDICTED BY IDOCK:   -5.53 KCAL/MOL
REMARK 923 INTER-LIGAND FREE ENERGY PREDICTED BY IDOCK:   -4.79 KCAL/MOL
REMARK 924 INTRA-LIGAND FREE ENERGY PREDICTED BY IDOCK:   -0.74 KCAL/MOL
REMARK 927      BINDING AFFINITY PREDICTED BY RF-SCORE:    0.00 PKD
ROOT
HETATM    1  C   UNL     1      -8.802  13.429  66.970  1.00  0.00    -0.217 C  
HETATM    2  C   UNL     1      -9.855  13.510  68.065  1.00  0.00    -0.238 C  
ENDROOT
BRANCH   2   3
HETATM    3  N   UNL     1     -10.296  12.182  68.482  1.00  0.00    -0.225 N  
HETATM    4  C   UNL     1      -9.432  11.111  68.397  1.00  0.00    -0.189 C  
HETATM    5  C   UNL     1      -9.799   9.898  68.810  1.00  0.00    -0.177 C  
HETATM    6  C   UNL     1     -11.150   9.844  69.379  1.00  0.00    -0.199 C  
HETATM    7  N   UNL     1     -11.961  10.827  69.491  1.00  0.00    -0.415 N  
HETATM    8  O   UNL     1     -12.331  13.024  69.132  1.00  0.00    -0.140 OA 
HETATM    9  C   UNL     1     -11.575  12.059  69.042  1.00  0.00    -0.313 C  
HETATM   10  H   UNL     1     -12.882  10.693  69.910  1.00  0.00     0.000 HD 
BRANCH   6  11
HETATM   11  N   UNL     1     -11.521   8.568  69.815  1.00  0.00    -0.432 N  
HETATM   12  H   UNL     1     -11.466   7.804  69.142  1.00  0.00     0.000 HD 
BRANCH  11  13
HETATM   13  S   UNL     1     -12.049   8.206  71.361  1.00  0.00    -0.295 S  
HETATM   14  O   UNL     1     -12.206   9.494  72.008  1.00  0.00    -0.358 OA 
HETATM   15  O   UNL     1     -13.170   7.296  71.263  1.00  0.00    -0.372 OA 
BRANCH  13  16
HETATM   16  C   UNL     1     -10.677   7.383  72.120  1.00  0.00    -0.225 A  
HETATM   17  C   UNL     1     -10.804   6.854  73.405  1.00  0.00    -0.303 A  
HETATM   18  C   UNL     1      -9.717   6.194  73.986  1.00  0.00    -0.205 A  
HETATM   19  C   UNL     1      -8.495   6.094  73.311  1.00  0.00    -0.116 A  
HETATM   20  N   UNL     1      -7.446   5.345  73.858  1.00  0.00    -0.090 NA 
HETATM   21  C   UNL     1      -8.415   6.550  71.994  1.00  0.00    -0.114 A  
HETATM   22  C   UNL     1      -9.498   7.196  71.396  1.00  0.00    -0.162 A  
HETATM   23  H2  UNL     1      -7.788   4.402  74.044  1.00  0.00     0.000 HD 
HETATM   24  H1  UNL     1      -6.555   5.271  73.367  1.00  0.00     0.000 HD 
ENDBRANCH  13  16
ENDBRANCH  11  13
ENDBRANCH   6  11
ENDBRANCH   2   3
TORSDOF 4
ENDMDL
MODEL      203
REMARK 921   NORMALIZED FREE ENERGY PREDICTED BY IDOCK:   -3.81 KCAL/MOL
REMARK 922        TOTAL FREE ENERGY PREDICTED BY IDOCK:   -5.52 KCAL/MOL
REMARK 923 INTER-LIGAND FREE ENERGY PREDICTED BY IDOCK:   -5.01 KCAL/MOL
REMARK 924 INTRA-LIGAND FREE ENERGY PREDICTED BY IDOCK:   -0.51 KCAL/MOL
REMARK 927      BINDING AFFINITY PREDICTED BY RF-SCORE:    0.00 PKD
ROOT
HETATM    1  C   UNL     1      -5.849  14.186  71.519  1.00  0.00    -0.169 C  
HETATM    2  C   UNL     1      -5.387  13.851  70.109  1.00  0.00    -0.100 C  
ENDROOT
BRANCH   2   3
HETATM    3  N   UNL     1      -6.441  14.094  69.129  1.00  0.00    -0.105 N  
HETATM    4  C   UNL     1      -6.733  15.383  68.736  1.00  0.00    -0.108 C  
HETATM    5  C   UNL     1      -7.663  15.625  67.812  1.00  0.00    -0.159 C  
HETATM    6  C   UNL     1      -8.283  14.417  67.257  1.00  0.00    -0.203 C  
HETATM    7  N   UNL     1      -8.013  13.212  67.587  1.00  0.00    -0.160 N  
HETATM    8  O   UNL     1      -6.792  11.837  68.895  1.00  0.00    -0.088 OA 
HETATM    9  C   UNL     1      -7.072  12.984  68.552  1.00  0.00    -0.105 C  
HETATM   10  H   UNL     1      -8.494  12.432  67.138  1.00  0.00     0.000 HD 
BRANCH   6  11
HETATM   11  N   UNL     1      -9.252  14.684  66.285  1.00  0.00    -0.453 N  
HETATM   12  H   UNL     1      -8.952  14.705  65.310  1.00  0.00     0.000 HD 
BRANCH  11  13
HETATM   13  S   UNL     1     -10.870  14.969  66.605  1.00  0.00    -0.319 S  
HETATM   14  O   UNL     1     -10.881  16.194  67.381  1.00  0.00    -0.322 OA 
HETATM   15  O   UNL     1     -11.607  14.884  65.363  1.00  0.00    -0.339 OA 
BRANCH  13  16
HETATM   16  C   UNL     1     -11.352  13.645  67.677  1.00  0.00    -0.300 A  
HETATM   17  C   UNL     1     -11.424  12.341  67.186  1.00  0.00    -0.419 A  
HETATM   18  C   UNL     1     -11.794  11.303  68.047  1.00  0.00    -0.244 A  
HETATM   19  C   UNL     1     -12.129  11.562  69.381  1.00  0.00    -0.279 A  
HETATM   20  N   UNL     1     -12.398  10.506  70.259  1.00  0.00    -0.406 NA 
HETATM   21  C   UNL     1     -11.964  12.858  69.876  1.00  0.00    -0.377 A  
HETATM   22  C   UNL     1     -11.581  13.900  69.030  1.00  0.00    -0.351 A  
HETATM   23  H2  UNL     1     -11.602   9.868  70.247  1.00  0.00     0.000 HD 
HETATM   24  H1  UNL     1     -12.643  10.695  71.232  1.00  0.00     0.000 HD 
ENDBRANCH  13  16
ENDBRANCH  11  13
ENDBRANCH   6  11
ENDBRANCH   2   3
TORSDOF 4
ENDMDL
MODEL      204
REMARK 921   NORMALIZED FREE ENERGY PREDICTED BY IDOCK:   -3.80 KCAL/MOL
REMARK 922        TOTAL FREE ENERGY PREDICTED BY IDOCK:   -5.51 KCAL/MOL
REMARK 923 INTER-LIGAND FREE ENERGY PREDICTED BY IDOCK:   -5.24 KCAL/MOL
REMARK 924 INTRA-LIGAND FREE ENERGY PREDICTED BY IDOCK:   -0.27 KCAL/MOL
REMARK 927      BINDING AFFINITY PREDICTED BY RF-SCORE:    0.00 PKD
ROOT
HETATM    1  C   UNL     1     -10.554   4.400  65.505  1.00  0.00    -0.193 C  
HETATM    2  C   UNL     1      -9.289   4.583  66.331  1.00  0.00    -0.151 C  
ENDROOT
BRANCH   2   3
HETATM    3  N   UNL     1      -9.550   5.345  67.548  1.00  0.00    -0.121 N  
HETATM    4  C   UNL     1      -9.744   4.687  68.744  1.00  0.00    -0.160 C  
HETATM    5  C   UNL     1      -9.943   5.363  69.876  1.00  0.00    -0.294 C  
HETATM    6  C   UNL     1      -9.893   6.821  69.718  1.00  0.00    -0.166 C  
HETATM    7  N   UNL     1      -9.692   7.454  68.625  1.00  0.00    -0.150 N  
HETATM    8  O   UNL     1      -9.319   7.322  66.403  1.00  0.00    -0.176 OA 
HETATM    9  C   UNL     1      -9.511   6.744  67.471  1.00  0.00    -0.127 C  
HETATM   10  H   UNL     1      -9.668   8.474  68.615  1.00  0.00     0.000 HD 
BRANCH   6  11
HETATM   11  N   UNL     1     -10.097   7.519  70.912  1.00  0.00    -0.192 N  
HETATM   12  H   UNL     1      -9.275   7.879  71.396  1.00  0.00     0.000 HD 
BRANCH  11  13
HETATM   13  S   UNL     1     -11.594   7.806  71.604  1.00  0.00    -0.279 S  
HETATM   14  O   UNL     1     -12.520   7.009  70.823  1.00  0.00    -0.338 OA 
HETATM   15  O   UNL     1     -11.485   7.610  73.033  1.00  0.00    -0.342 OA 
BRANCH  13  16
HETATM   16  C   UNL     1     -11.925   9.511  71.260  1.00  0.00    -0.365 A  
HETATM   17  C   UNL     1     -12.846  10.214  72.037  1.00  0.00    -0.472 A  
HETATM   18  C   UNL     1     -13.087  11.563  71.763  1.00  0.00    -0.503 A  
HETATM   19  C   UNL     1     -12.447  12.204  70.696  1.00  0.00    -0.242 A  
HETATM   20  N   UNL     1     -12.617  13.579  70.493  1.00  0.00    -0.279 NA 
HETATM   21  C   UNL     1     -11.464  11.510  69.987  1.00  0.00    -0.304 A  
HETATM   22  C   UNL     1     -11.202  10.167  70.262  1.00  0.00    -0.387 A  
HETATM   23  H2  UNL     1     -12.367  14.064  71.355  1.00  0.00     0.000 HD 
HETATM   24  H1  UNL     1     -12.151  14.046  69.715  1.00  0.00     0.000 HD 
ENDBRANCH  13  16
ENDBRANCH  11  13
ENDBRANCH   6  11
ENDBRANCH   2   3
TORSDOF 4
ENDMDL
MODEL      205
REMARK 921   NORMALIZED FREE ENERGY PREDICTED BY IDOCK:   -3.78 KCAL/MOL
REMARK 922        TOTAL FREE ENERGY PREDICTED BY IDOCK:   -5.48 KCAL/MOL
REMARK 923 INTER-LIGAND FREE ENERGY PREDICTED BY IDOCK:   -4.97 KCAL/MOL
REMARK 924 INTRA-LIGAND FREE ENERGY PREDICTED BY IDOCK:   -0.52 KCAL/MOL
REMARK 927      BINDING AFFINITY PREDICTED BY RF-SCORE:    0.00 PKD
ROOT
HETATM    1  C   UNL     1     -12.261  13.287  63.637  1.00  0.00    -0.522 C  
HETATM    2  C   UNL     1     -11.805  11.842  63.494  1.00  0.00    -0.460 C  
ENDROOT
BRANCH   2   3
HETATM    3  N   UNL     1     -10.706  11.536  64.404  1.00  0.00    -0.325 N  
HETATM    4  C   UNL     1     -10.789  11.898  65.732  1.00  0.00    -0.295 C  
HETATM    5  C   UNL     1      -9.815  11.592  66.590  1.00  0.00    -0.223 C  
HETATM    6  C   UNL     1      -8.714  10.826  65.996  1.00  0.00    -0.183 C  
HETATM    7  N   UNL     1      -8.625  10.459  64.774  1.00  0.00    -0.179 N  
HETATM    8  O   UNL     1      -9.566  10.466  62.723  1.00  0.00    -0.315 OA 
HETATM    9  C   UNL     1      -9.623  10.800  63.905  1.00  0.00    -0.293 C  
HETATM   10  H   UNL     1      -7.820   9.920  64.454  1.00  0.00     0.000 HD 
BRANCH   6  11
HETATM   11  N   UNL     1      -7.702  10.507  66.906  1.00  0.00    -0.110 N  
HETATM   12  H   UNL     1      -6.785  10.929  66.762  1.00  0.00     0.000 HD 
BRANCH  11  13
HETATM   13  S   UNL     1      -7.888   9.481  68.216  1.00  0.00    -0.086 S  
HETATM   14  O   UNL     1      -6.540   9.078  68.562  1.00  0.00    -0.054 OA 
HETATM   15  O   UNL     1      -8.731  10.134  69.195  1.00  0.00    -0.148 OA 
BRANCH  13  16
HETATM   16  C   UNL     1      -8.725   8.066  67.559  1.00  0.00    -0.125 A  
HETATM   17  C   UNL     1      -7.990   7.009  67.021  1.00  0.00    -0.116 A  
HETATM   18  C   UNL     1      -8.663   5.891  66.518  1.00  0.00    -0.126 A  
HETATM   19  C   UNL     1     -10.062   5.838  66.512  1.00  0.00    -0.171 A  
HETATM   20  N   UNL     1     -10.723   4.675  66.101  1.00  0.00    -0.532 NA 
HETATM   21  C   UNL     1     -10.776   6.864  67.136  1.00  0.00    -0.436 A  
HETATM   22  C   UNL     1     -10.115   7.978  67.656  1.00  0.00    -0.269 A  
HETATM   23  H2  UNL     1     -10.375   3.894  66.659  1.00  0.00     0.000 HD 
HETATM   24  H1  UNL     1     -11.742   4.636  66.097  1.00  0.00     0.000 HD 
ENDBRANCH  13  16
ENDBRANCH  11  13
ENDBRANCH   6  11
ENDBRANCH   2   3
TORSDOF 4
ENDMDL
MODEL      206
REMARK 921   NORMALIZED FREE ENERGY PREDICTED BY IDOCK:   -3.77 KCAL/MOL
REMARK 922        TOTAL FREE ENERGY PREDICTED BY IDOCK:   -5.47 KCAL/MOL
REMARK 923 INTER-LIGAND FREE ENERGY PREDICTED BY IDOCK:   -4.86 KCAL/MOL
REMARK 924 INTRA-LIGAND FREE ENERGY PREDICTED BY IDOCK:   -0.61 KCAL/MOL
REMARK 927      BINDING AFFINITY PREDICTED BY RF-SCORE:    0.00 PKD
ROOT
HETATM    1  C   UNL     1     -12.170  10.854  70.151  1.00  0.00    -0.423 C  
HETATM    2  C   UNL     1     -11.760  10.915  68.687  1.00  0.00    -0.263 C  
ENDROOT
BRANCH   2   3
HETATM    3  N   UNL     1     -10.826  12.009  68.438  1.00  0.00    -0.222 N  
HETATM    4  C   UNL     1     -11.151  13.292  68.822  1.00  0.00    -0.266 C  
HETATM    5  C   UNL     1     -10.296  14.300  68.642  1.00  0.00    -0.246 C  
HETATM    6  C   UNL     1      -9.014  13.898  68.054  1.00  0.00    -0.184 C  
HETATM    7  N   UNL     1      -8.681  12.712  67.711  1.00  0.00    -0.168 N  
HETATM    8  O   UNL     1      -9.290  10.544  67.561  1.00  0.00    -0.148 OA 
HETATM    9  C   UNL     1      -9.578  11.695  67.884  1.00  0.00    -0.180 C  
HETATM   10  H   UNL     1      -7.759  12.528  67.315  1.00  0.00     0.000 HD 
BRANCH   6  11
HETATM   11  N   UNL     1      -8.124  14.962  67.875  1.00  0.00    -0.133 N  
HETATM   12  H   UNL     1      -7.335  15.031  68.517  1.00  0.00     0.000 HD 
BRANCH  11  13
HETATM   13  S   UNL     1      -8.262  16.130  66.684  1.00  0.00    -0.300 S  
HETATM   14  O   UNL     1      -6.895  16.476  66.348  1.00  0.00    -0.186 OA 
HETATM   15  O   UNL     1      -9.164  15.641  65.663  1.00  0.00    -0.276 OA 
BRANCH  13  16
HETATM   16  C   UNL     1      -8.987  17.521  67.505  1.00  0.00    -0.230 A  
HETATM   17  C   UNL     1     -10.267  17.950  67.151  1.00  0.00    -0.355 A  
HETATM   18  C   UNL     1     -10.833  19.041  67.817  1.00  0.00    -0.374 A  
HETATM   19  C   UNL     1     -10.117  19.731  68.803  1.00  0.00    -0.421 A  
HETATM   20  N   UNL     1     -10.730  20.756  69.533  1.00  0.00    -0.008 NA 
HETATM   21  C   UNL     1      -8.876  19.232  69.204  1.00  0.00    -0.164 A  
HETATM   22  C   UNL     1      -8.307  18.133  68.558  1.00  0.00    -0.314 A  
HETATM   23  H2  UNL     1     -11.581  20.385  69.955  1.00  0.00     0.000 HD 
HETATM   24  H1  UNL     1     -10.208  21.259  70.251  1.00  0.00     0.000 HD 
ENDBRANCH  13  16
ENDBRANCH  11  13
ENDBRANCH   6  11
ENDBRANCH   2   3
TORSDOF 4
ENDMDL
MODEL      207
REMARK 921   NORMALIZED FREE ENERGY PREDICTED BY IDOCK:   -3.76 KCAL/MOL
REMARK 922        TOTAL FREE ENERGY PREDICTED BY IDOCK:   -5.46 KCAL/MOL
REMARK 923 INTER-LIGAND FREE ENERGY PREDICTED BY IDOCK:   -5.24 KCAL/MOL
REMARK 924 INTRA-LIGAND FREE ENERGY PREDICTED BY IDOCK:   -0.22 KCAL/MOL
REMARK 927      BINDING AFFINITY PREDICTED BY RF-SCORE:    0.00 PKD
ROOT
HETATM    1  C   UNL     1      -6.414  11.846  69.685  1.00  0.00    -0.101 C  
HETATM    2  C   UNL     1      -7.193  11.663  68.391  1.00  0.00    -0.088 C  
ENDROOT
BRANCH   2   3
HETATM    3  N   UNL     1      -7.586  12.947  67.818  1.00  0.00    -0.126 N  
HETATM    4  C   UNL     1      -6.903  14.094  68.164  1.00  0.00    -0.129 C  
HETATM    5  C   UNL     1      -7.218  15.271  67.622  1.00  0.00    -0.204 C  
HETATM    6  C   UNL     1      -8.296  15.203  66.630  1.00  0.00    -0.127 C  
HETATM    7  N   UNL     1      -8.927  14.149  66.274  1.00  0.00    -0.490 N  
HETATM    8  O   UNL     1      -9.196  11.924  66.540  1.00  0.00    -0.205 OA 
HETATM    9  C   UNL     1      -8.605  12.955  66.856  1.00  0.00    -0.127 C  
HETATM   10  H   UNL     1      -9.661  14.199  65.566  1.00  0.00     0.000 HD 
BRANCH   6  11
HETATM   11  N   UNL     1      -8.612  16.441  66.064  1.00  0.00    -0.296 N  
HETATM   12  H   UNL     1      -7.959  16.833  65.385  1.00  0.00     0.000 HD 
BRANCH  11  13
HETATM   13  S   UNL     1      -9.987  17.328  66.420  1.00  0.00    -0.312 S  
HETATM   14  O   UNL     1      -9.489  18.600  66.905  1.00  0.00    -0.283 OA 
HETATM   15  O   UNL     1     -10.875  17.277  65.278  1.00  0.00    -0.576 OA 
BRANCH  13  16
HETATM   16  C   UNL     1     -10.725  16.477  67.786  1.00  0.00    -0.329 A  
HETATM   17  C   UNL     1     -11.503  15.341  67.563  1.00  0.00    -0.271 A  
HETATM   18  C   UNL     1     -12.068  14.672  68.652  1.00  0.00    -0.237 A  
HETATM   19  C   UNL     1     -11.896  15.150  69.956  1.00  0.00    -0.325 A  
HETATM   20  N   UNL     1     -12.379  14.417  71.047  1.00  0.00    -0.334 NA 
HETATM   21  C   UNL     1     -11.041  16.234  70.167  1.00  0.00    -0.346 A  
HETATM   22  C   UNL     1     -10.458  16.901  69.089  1.00  0.00    -0.335 A  
HETATM   23  H2  UNL     1     -11.992  13.474  70.997  1.00  0.00     0.000 HD 
HETATM   24  H1  UNL     1     -12.254  14.765  71.997  1.00  0.00     0.000 HD 
ENDBRANCH  13  16
ENDBRANCH  11  13
ENDBRANCH   6  11
ENDBRANCH   2   3
TORSDOF 4
ENDMDL
MODEL      208
REMARK 921   NORMALIZED FREE ENERGY PREDICTED BY IDOCK:   -3.76 KCAL/MOL
REMARK 922        TOTAL FREE ENERGY PREDICTED BY IDOCK:   -5.46 KCAL/MOL
REMARK 923 INTER-LIGAND FREE ENERGY PREDICTED BY IDOCK:   -5.41 KCAL/MOL
REMARK 924 INTRA-LIGAND FREE ENERGY PREDICTED BY IDOCK:   -0.04 KCAL/MOL
REMARK 927      BINDING AFFINITY PREDICTED BY RF-SCORE:    0.00 PKD
ROOT
HETATM    1  C   UNL     1     -11.401  10.477  67.416  1.00  0.00    -0.120 C  
HETATM    2  C   UNL     1     -11.657  11.334  68.646  1.00  0.00    -0.318 C  
ENDROOT
BRANCH   2   3
HETATM    3  N   UNL     1     -10.659  12.391  68.778  1.00  0.00    -0.214 N  
HETATM    4  C   UNL     1      -9.346  12.146  68.437  1.00  0.00    -0.170 C  
HETATM    5  C   UNL     1      -8.425  13.108  68.510  1.00  0.00    -0.058 C  
HETATM    6  C   UNL     1      -8.953  14.408  68.936  1.00  0.00    -0.067 C  
HETATM    7  N   UNL     1     -10.169  14.667  69.236  1.00  0.00    -0.364 N  
HETATM    8  O   UNL     1     -12.271  13.877  69.460  1.00  0.00    -0.336 OA 
HETATM    9  C   UNL     1     -11.095  13.663  69.175  1.00  0.00    -0.231 C  
HETATM   10  H   UNL     1     -10.444  15.609  69.516  1.00  0.00     0.000 HD 
BRANCH   6  11
HETATM   11  N   UNL     1      -7.980  15.410  69.003  1.00  0.00    -0.183 N  
HETATM   12  H   UNL     1      -7.539  15.582  69.907  1.00  0.00     0.000 HD 
BRANCH  11  13
HETATM   13  S   UNL     1      -7.487  16.347  67.707  1.00  0.00    -0.149 S  
HETATM   14  O   UNL     1      -7.403  17.694  68.237  1.00  0.00    -0.216 OA 
HETATM   15  O   UNL     1      -6.327  15.725  67.105  1.00  0.00    -0.305 OA 
BRANCH  13  16
HETATM   16  C   UNL     1      -8.847  16.294  66.575  1.00  0.00    -0.283 A  
HETATM   17  C   UNL     1      -9.196  15.092  65.959  1.00  0.00    -0.245 A  
HETATM   18  C   UNL     1     -10.281  15.062  65.078  1.00  0.00    -0.349 A  
HETATM   19  C   UNL     1     -10.994  16.228  64.777  1.00  0.00    -0.272 A  
HETATM   20  N   UNL     1     -12.139  16.168  63.974  1.00  0.00    -1.159 NA 
HETATM   21  C   UNL     1     -10.687  17.401  65.470  1.00  0.00    -0.081 A  
HETATM   22  C   UNL     1      -9.616  17.440  66.365  1.00  0.00    -0.291 A  
HETATM   23  H2  UNL     1     -12.785  15.495  64.387  1.00  0.00     0.000 HD 
HETATM   24  H1  UNL     1     -12.659  17.019  63.755  1.00  0.00     0.000 HD 
ENDBRANCH  13  16
ENDBRANCH  11  13
ENDBRANCH   6  11
ENDBRANCH   2   3
TORSDOF 4
ENDMDL
MODEL      209
REMARK 921   NORMALIZED FREE ENERGY PREDICTED BY IDOCK:   -3.74 KCAL/MOL
REMARK 922        TOTAL FREE ENERGY PREDICTED BY IDOCK:   -5.43 KCAL/MOL
REMARK 923 INTER-LIGAND FREE ENERGY PREDICTED BY IDOCK:   -4.95 KCAL/MOL
REMARK 924 INTRA-LIGAND FREE ENERGY PREDICTED BY IDOCK:   -0.48 KCAL/MOL
REMARK 927      BINDING AFFINITY PREDICTED BY RF-SCORE:    0.00 PKD
ROOT
HETATM    1  C   UNL     1      -6.430   2.995  73.236  1.00  0.00    -0.021 C  
HETATM    2  C   UNL     1      -7.693   3.796  73.519  1.00  0.00    -0.075 C  
ENDROOT
BRANCH   2   3
HETATM    3  N   UNL     1      -7.850   4.898  72.575  1.00  0.00    -0.092 N  
HETATM    4  C   UNL     1      -7.537   4.715  71.245  1.00  0.00    -0.080 C  
HETATM    5  C   UNL     1      -7.711   5.695  70.357  1.00  0.00    -0.094 C  
HETATM    6  C   UNL     1      -8.287   6.919  70.923  1.00  0.00    -0.130 C  
HETATM    7  N   UNL     1      -8.609   7.104  72.147  1.00  0.00    -0.111 N  
HETATM    8  O   UNL     1      -8.697   6.243  74.231  1.00  0.00    -0.119 OA 
HETATM    9  C   UNL     1      -8.403   6.096  73.047  1.00  0.00    -0.115 C  
HETATM   10  H   UNL     1      -9.012   7.992  72.447  1.00  0.00     0.000 HD 
BRANCH   6  11
HETATM   11  N   UNL     1      -8.471   7.936  69.982  1.00  0.00    -0.132 N  
HETATM   12  H   UNL     1      -7.702   8.588  69.833  1.00  0.00     0.000 HD 
BRANCH  11  13
HETATM   13  S   UNL     1      -9.864   8.159  69.081  1.00  0.00    -0.187 S  
HETATM   14  O   UNL     1      -9.666   9.427  68.406  1.00  0.00    -0.145 OA 
HETATM   15  O   UNL     1     -10.116   6.956  68.317  1.00  0.00    -0.155 OA 
BRANCH  13  16
HETATM   16  C   UNL     1     -11.144   8.380  70.284  1.00  0.00    -0.213 A  
HETATM   17  C   UNL     1     -11.873   7.280  70.737  1.00  0.00    -0.324 A  
HETATM   18  C   UNL     1     -12.871   7.467  71.698  1.00  0.00    -0.392 A  
HETATM   19  C   UNL     1     -13.173   8.746  72.179  1.00  0.00    -0.414 A  
HETATM   20  N   UNL     1     -14.103   8.910  73.213  1.00  0.00    -1.248 NA 
HETATM   21  C   UNL     1     -12.374   9.820  71.782  1.00  0.00    -0.470 A  
HETATM   22  C   UNL     1     -11.364   9.644  70.835  1.00  0.00    -0.431 A  
HETATM   23  H2  UNL     1     -13.811   8.331  74.001  1.00  0.00     0.000 HD 
HETATM   24  H1  UNL     1     -14.323   9.842  73.565  1.00  0.00     0.000 HD 
ENDBRANCH  13  16
ENDBRANCH  11  13
ENDBRANCH   6  11
ENDBRANCH   2   3
TORSDOF 4
ENDMDL
MODEL      210
REMARK 921   NORMALIZED FREE ENERGY PREDICTED BY IDOCK:   -3.72 KCAL/MOL
REMARK 922        TOTAL FREE ENERGY PREDICTED BY IDOCK:   -5.41 KCAL/MOL
REMARK 923 INTER-LIGAND FREE ENERGY PREDICTED BY IDOCK:   -4.94 KCAL/MOL
REMARK 924 INTRA-LIGAND FREE ENERGY PREDICTED BY IDOCK:   -0.47 KCAL/MOL
REMARK 927      BINDING AFFINITY PREDICTED BY RF-SCORE:    0.00 PKD
ROOT
HETATM    1  C   UNL     1     -10.555  17.217  65.674  1.00  0.00    -0.173 C  
HETATM    2  C   UNL     1     -10.338  17.052  67.170  1.00  0.00    -0.305 C  
ENDROOT
BRANCH   2   3
HETATM    3  N   UNL     1     -10.287  15.643  67.551  1.00  0.00    -0.271 N  
HETATM    4  C   UNL     1      -9.603  14.742  66.763  1.00  0.00    -0.254 C  
HETATM    5  C   UNL     1      -9.508  13.458  67.112  1.00  0.00    -0.244 C  
HETATM    6  C   UNL     1     -10.149  13.138  68.392  1.00  0.00    -0.231 C  
HETATM    7  N   UNL     1     -10.769  13.960  69.151  1.00  0.00    -0.384 N  
HETATM    8  O   UNL     1     -11.465  16.082  69.471  1.00  0.00    -0.326 OA 
HETATM    9  C   UNL     1     -10.874  15.267  68.766  1.00  0.00    -0.254 C  
HETATM   10  H   UNL     1     -11.178  13.644  70.031  1.00  0.00     0.000 HD 
BRANCH   6  11
HETATM   11  N   UNL     1     -10.038  11.791  68.750  1.00  0.00    -0.352 N  
HETATM   12  H   UNL     1      -9.166  11.486  69.181  1.00  0.00     0.000 HD 
BRANCH  11  13
HETATM   13  S   UNL     1     -11.235  10.643  68.522  1.00  0.00    -0.281 S  
HETATM   14  O   UNL     1     -11.902  10.547  69.806  1.00  0.00    -0.265 OA 
HETATM   15  O   UNL     1     -11.983  10.988  67.333  1.00  0.00    -0.450 OA 
BRANCH  13  16
HETATM   16  C   UNL     1     -10.355   9.130  68.254  1.00  0.00    -0.214 A  
HETATM   17  C   UNL     1     -10.488   8.075  69.159  1.00  0.00    -0.217 A  
HETATM   18  C   UNL     1      -9.799   6.882  68.928  1.00  0.00    -0.147 A  
HETATM   19  C   UNL     1      -8.948   6.746  67.824  1.00  0.00    -0.116 A  
HETATM   20  N   UNL     1      -8.343   5.515  67.546  1.00  0.00    -0.101 NA 
HETATM   21  C   UNL     1      -8.898   7.778  66.884  1.00  0.00    -0.143 A  
HETATM   22  C   UNL     1      -9.594   8.969  67.095  1.00  0.00    -0.218 A  
HETATM   23  H2  UNL     1      -9.074   4.807  67.476  1.00  0.00     0.000 HD 
HETATM   24  H1  UNL     1      -7.723   5.416  66.742  1.00  0.00     0.000 HD 
ENDBRANCH  13  16
ENDBRANCH  11  13
ENDBRANCH   6  11
ENDBRANCH   2   3
TORSDOF 4
ENDMDL
MODEL      211
REMARK 921   NORMALIZED FREE ENERGY PREDICTED BY IDOCK:   -3.71 KCAL/MOL
REMARK 922        TOTAL FREE ENERGY PREDICTED BY IDOCK:   -5.39 KCAL/MOL
REMARK 923 INTER-LIGAND FREE ENERGY PREDICTED BY IDOCK:   -4.82 KCAL/MOL
REMARK 924 INTRA-LIGAND FREE ENERGY PREDICTED BY IDOCK:   -0.57 KCAL/MOL
REMARK 927      BINDING AFFINITY PREDICTED BY RF-SCORE:    0.00 PKD
ROOT
HETATM    1  C   UNL     1     -12.139  10.983  69.405  1.00  0.00    -0.389 C  
HETATM    2  C   UNL     1     -11.719  11.580  68.070  1.00  0.00    -0.273 C  
ENDROOT
BRANCH   2   3
HETATM    3  N   UNL     1     -10.796  12.697  68.251  1.00  0.00    -0.229 N  
HETATM    4  C   UNL     1     -11.286  13.972  68.435  1.00  0.00    -0.291 C  
HETATM    5  C   UNL     1     -10.464  15.001  68.643  1.00  0.00    -0.238 C  
HETATM    6  C   UNL     1      -9.045  14.631  68.692  1.00  0.00    -0.189 C  
HETATM    7  N   UNL     1      -8.568  13.454  68.547  1.00  0.00    -0.316 N  
HETATM    8  O   UNL     1      -8.999  11.271  68.166  1.00  0.00    -0.152 OA 
HETATM    9  C   UNL     1      -9.425  12.415  68.314  1.00  0.00    -0.203 C  
HETATM   10  H   UNL     1      -7.562  13.292  68.604  1.00  0.00     0.000 HD 
BRANCH   6  11
HETATM   11  N   UNL     1      -8.193  15.717  68.916  1.00  0.00    -0.186 N  
HETATM   12  H   UNL     1      -8.545  16.485  69.486  1.00  0.00     0.000 HD 
BRANCH  11  13
HETATM   13  S   UNL     1      -6.636  15.845  68.316  1.00  0.00    -0.126 S  
HETATM   14  O   UNL     1      -5.793  15.926  69.493  1.00  0.00    -0.121 OA 
HETATM   15  O   UNL     1      -6.430  14.796  67.341  1.00  0.00    -0.302 OA 
BRANCH  13  16
HETATM   16  C   UNL     1      -6.596  17.422  67.512  1.00  0.00    -0.144 A  
HETATM   17  C   UNL     1      -6.946  17.527  66.165  1.00  0.00    -0.323 A  
HETATM   18  C   UNL     1      -6.924  18.781  65.546  1.00  0.00    -0.208 A  
HETATM   19  C   UNL     1      -6.517  19.921  66.249  1.00  0.00    -0.205 A  
HETATM   20  N   UNL     1      -6.595  21.184  65.651  1.00  0.00    -0.497 NA 
HETATM   21  C   UNL     1      -6.257  19.810  67.617  1.00  0.00    -0.221 A  
HETATM   22  C   UNL     1      -6.292  18.567  68.250  1.00  0.00    -0.206 A  
HETATM   23  H2  UNL     1      -7.553  21.329  65.332  1.00  0.00     0.000 HD 
HETATM   24  H1  UNL     1      -6.299  22.015  66.164  1.00  0.00     0.000 HD 
ENDBRANCH  13  16
ENDBRANCH  11  13
ENDBRANCH   6  11
ENDBRANCH   2   3
TORSDOF 4
ENDMDL
MODEL      212
REMARK 921   NORMALIZED FREE ENERGY PREDICTED BY IDOCK:   -3.70 KCAL/MOL
REMARK 922        TOTAL FREE ENERGY PREDICTED BY IDOCK:   -5.39 KCAL/MOL
REMARK 923 INTER-LIGAND FREE ENERGY PREDICTED BY IDOCK:   -4.80 KCAL/MOL
REMARK 924 INTRA-LIGAND FREE ENERGY PREDICTED BY IDOCK:   -0.59 KCAL/MOL
REMARK 927      BINDING AFFINITY PREDICTED BY RF-SCORE:    0.00 PKD
ROOT
HETATM    1  C   UNL     1      -9.754  18.115  66.667  1.00  0.00    -0.334 C  
HETATM    2  C   UNL     1     -10.264  16.980  65.792  1.00  0.00    -0.245 C  
ENDROOT
BRANCH   2   3
HETATM    3  N   UNL     1      -9.666  15.703  66.169  1.00  0.00    -0.292 N  
HETATM    4  C   UNL     1      -8.713  15.656  67.165  1.00  0.00    -0.210 C  
HETATM    5  C   UNL     1      -8.183  14.496  67.554  1.00  0.00    -0.201 C  
HETATM    6  C   UNL     1      -8.734  13.325  66.864  1.00  0.00    -0.142 C  
HETATM    7  N   UNL     1      -9.634  13.341  65.955  1.00  0.00    -0.469 N  
HETATM    8  O   UNL     1     -11.014  14.591  64.679  1.00  0.00    -0.382 OA 
HETATM    9  C   UNL     1     -10.150  14.541  65.553  1.00  0.00    -0.366 C  
HETATM   10  H   UNL     1      -9.961  12.470  65.536  1.00  0.00     0.000 HD 
BRANCH   6  11
HETATM   11  N   UNL     1      -8.175  12.115  67.285  1.00  0.00    -0.172 N  
HETATM   12  H   UNL     1      -7.287  11.834  66.870  1.00  0.00     0.000 HD 
BRANCH  11  13
HETATM   13  S   UNL     1      -8.859  11.094  68.422  1.00  0.00    -0.161 S  
HETATM   14  O   UNL     1      -7.827  10.915  69.424  1.00  0.00    -0.126 OA 
HETATM   15  O   UNL     1     -10.154  11.622  68.793  1.00  0.00    -0.207 OA 
BRANCH  13  16
HETATM   16  C   UNL     1      -9.063   9.554  67.573  1.00  0.00    -0.130 A  
HETATM   17  C   UNL     1     -10.173   8.751  67.840  1.00  0.00    -0.272 A  
HETATM   18  C   UNL     1     -10.328   7.544  67.153  1.00  0.00    -0.384 A  
HETATM   19  C   UNL     1      -9.366   7.114  66.232  1.00  0.00    -0.104 A  
HETATM   20  N   UNL     1      -9.581   5.956  65.476  1.00  0.00    -0.354 NA 
HETATM   21  C   UNL     1      -8.310   7.971  65.913  1.00  0.00    -0.136 A  
HETATM   22  C   UNL     1      -8.153   9.186  66.580  1.00  0.00    -0.111 A  
HETATM   23  H2  UNL     1     -10.472   6.052  64.987  1.00  0.00     0.000 HD 
HETATM   24  H1  UNL     1      -8.880   5.642  64.804  1.00  0.00     0.000 HD 
ENDBRANCH  13  16
ENDBRANCH  11  13
ENDBRANCH   6  11
ENDBRANCH   2   3
TORSDOF 4
ENDMDL
MODEL      213
REMARK 921   NORMALIZED FREE ENERGY PREDICTED BY IDOCK:   -3.70 KCAL/MOL
REMARK 922        TOTAL FREE ENERGY PREDICTED BY IDOCK:   -5.38 KCAL/MOL
REMARK 923 INTER-LIGAND FREE ENERGY PREDICTED BY IDOCK:   -5.68 KCAL/MOL
REMARK 924 INTRA-LIGAND FREE ENERGY PREDICTED BY IDOCK:    0.30 KCAL/MOL
REMARK 927      BINDING AFFINITY PREDICTED BY RF-SCORE:    0.00 PKD
ROOT
HETATM    1  C   UNL     1      -7.648   7.484  65.433  1.00  0.00    -0.095 C  
HETATM    2  C   UNL     1      -7.183   8.933  65.405  1.00  0.00    -0.084 C  
ENDROOT
BRANCH   2   3
HETATM    3  N   UNL     1      -7.951   9.759  66.332  1.00  0.00    -0.108 N  
HETATM    4  C   UNL     1      -9.204  10.210  65.977  1.00  0.00    -0.158 C  
HETATM    5  C   UNL     1      -9.940  10.931  66.823  1.00  0.00    -0.245 C  
HETATM    6  C   UNL     1      -9.311  11.144  68.131  1.00  0.00    -0.176 C  
HETATM    7  N   UNL     1      -8.161  10.716  68.493  1.00  0.00    -0.118 N  
HETATM    8  O   UNL     1      -6.301   9.574  67.918  1.00  0.00    -0.053 OA 
HETATM    9  C   UNL     1      -7.412   9.997  67.604  1.00  0.00    -0.090 C  
HETATM   10  H   UNL     1      -7.808  10.909  69.431  1.00  0.00     0.000 HD 
BRANCH   6  11
HETATM   11  N   UNL     1     -10.094  11.895  69.012  1.00  0.00    -0.419 N  
HETATM   12  H   UNL     1      -9.669  12.718  69.440  1.00  0.00     0.000 HD 
BRANCH  11  13
HETATM   13  S   UNL     1     -11.680  11.543  69.414  1.00  0.00    -0.372 S  
HETATM   14  O   UNL     1     -12.163  12.733  70.087  1.00  0.00    -0.312 OA 
HETATM   15  O   UNL     1     -12.354  11.046  68.234  1.00  0.00    -0.479 OA 
BRANCH  13  16
HETATM   16  C   UNL     1     -11.558  10.251  70.619  1.00  0.00    -0.347 A  
HETATM   17  C   UNL     1     -12.671   9.904  71.386  1.00  0.00    -0.503 A  
HETATM   18  C   UNL     1     -12.564   8.873  72.323  1.00  0.00    -0.455 A  
HETATM   19  C   UNL     1     -11.347   8.214  72.530  1.00  0.00    -0.401 A  
HETATM   20  N   UNL     1     -11.276   7.118  73.397  1.00  0.00    -0.555 NA 
HETATM   21  C   UNL     1     -10.270   8.514  71.692  1.00  0.00    -0.336 A  
HETATM   22  C   UNL     1     -10.369   9.530  70.741  1.00  0.00    -0.377 A  
HETATM   23  H2  UNL     1     -11.967   6.428  73.100  1.00  0.00     0.000 HD 
HETATM   24  H1  UNL     1     -10.388   6.637  73.547  1.00  0.00     0.000 HD 
ENDBRANCH  13  16
ENDBRANCH  11  13
ENDBRANCH   6  11
ENDBRANCH   2   3
TORSDOF 4
ENDMDL
MODEL      214
REMARK 921   NORMALIZED FREE ENERGY PREDICTED BY IDOCK:   -3.69 KCAL/MOL
REMARK 922        TOTAL FREE ENERGY PREDICTED BY IDOCK:   -5.38 KCAL/MOL
REMARK 923 INTER-LIGAND FREE ENERGY PREDICTED BY IDOCK:   -4.60 KCAL/MOL
REMARK 924 INTRA-LIGAND FREE ENERGY PREDICTED BY IDOCK:   -0.78 KCAL/MOL
REMARK 927      BINDING AFFINITY PREDICTED BY RF-SCORE:    0.00 PKD
ROOT
HETATM    1  C   UNL     1      -8.987  13.772  67.871  1.00  0.00    -0.193 C  
HETATM    2  C   UNL     1     -10.161  12.845  68.148  1.00  0.00    -0.240 C  
ENDROOT
BRANCH   2   3
HETATM    3  N   UNL     1      -9.792  11.445  67.960  1.00  0.00    -0.179 N  
HETATM    4  C   UNL     1      -8.954  10.827  68.863  1.00  0.00    -0.153 C  
HETATM    5  C   UNL     1      -8.636   9.538  68.735  1.00  0.00    -0.123 C  
HETATM    6  C   UNL     1      -9.284   8.873  67.600  1.00  0.00    -0.136 C  
HETATM    7  N   UNL     1     -10.083   9.418  66.763  1.00  0.00    -0.240 N  
HETATM    8  O   UNL     1     -11.142  11.300  66.108  1.00  0.00    -0.248 OA 
HETATM    9  C   UNL     1     -10.380  10.745  66.898  1.00  0.00    -0.241 C  
HETATM   10  H   UNL     1     -10.493   8.869  66.006  1.00  0.00     0.000 HD 
BRANCH   6  11
HETATM   11  N   UNL     1      -8.949   7.521  67.480  1.00  0.00    -0.126 N  
HETATM   12  H   UNL     1      -7.960   7.283  67.408  1.00  0.00     0.000 HD 
BRANCH  11  13
HETATM   13  S   UNL     1     -10.054   6.264  67.447  1.00  0.00    -0.179 S  
HETATM   14  O   UNL     1     -11.224   6.821  66.797  1.00  0.00    -0.312 OA 
HETATM   15  O   UNL     1      -9.402   5.093  66.901  1.00  0.00    -0.121 OA 
BRANCH  13  16
HETATM   16  C   UNL     1     -10.461   5.983  69.147  1.00  0.00    -0.257 A  
HETATM   17  C   UNL     1     -11.537   6.655  69.727  1.00  0.00    -0.354 A  
HETATM   18  C   UNL     1     -11.855   6.413  71.067  1.00  0.00    -0.321 A  
HETATM   19  C   UNL     1     -11.085   5.538  71.841  1.00  0.00    -0.166 A  
HETATM   20  N   UNL     1     -11.471   5.225  73.149  1.00  0.00    -0.483 NA 
HETATM   21  C   UNL     1     -10.069   4.809  71.219  1.00  0.00    -0.258 A  
HETATM   22  C   UNL     1      -9.751   5.029  69.878  1.00  0.00    -0.266 A  
HETATM   23  H2  UNL     1     -12.429   4.874  73.125  1.00  0.00     0.000 HD 
HETATM   24  H1  UNL     1     -10.910   4.587  73.713  1.00  0.00     0.000 HD 
ENDBRANCH  13  16
ENDBRANCH  11  13
ENDBRANCH   6  11
ENDBRANCH   2   3
TORSDOF 4
ENDMDL
MODEL      215
REMARK 921   NORMALIZED FREE ENERGY PREDICTED BY IDOCK:   -3.69 KCAL/MOL
REMARK 922        TOTAL FREE ENERGY PREDICTED BY IDOCK:   -5.37 KCAL/MOL
REMARK 923 INTER-LIGAND FREE ENERGY PREDICTED BY IDOCK:   -4.74 KCAL/MOL
REMARK 924 INTRA-LIGAND FREE ENERGY PREDICTED BY IDOCK:   -0.63 KCAL/MOL
REMARK 927      BINDING AFFINITY PREDICTED BY RF-SCORE:    0.00 PKD
ROOT
HETATM    1  C   UNL     1      -9.520   3.806  69.277  1.00  0.00    -0.252 C  
HETATM    2  C   UNL     1      -8.483   4.885  69.006  1.00  0.00    -0.081 C  
ENDROOT
BRANCH   2   3
HETATM    3  N   UNL     1      -9.070   6.030  68.315  1.00  0.00    -0.112 N  
HETATM    4  C   UNL     1     -10.049   5.832  67.365  1.00  0.00    -0.175 C  
HETATM    5  C   UNL     1     -10.628   6.865  66.751  1.00  0.00    -0.304 C  
HETATM    6  C   UNL     1     -10.157   8.175  67.211  1.00  0.00    -0.241 C  
HETATM    7  N   UNL     1      -9.268   8.384  68.106  1.00  0.00    -0.138 N  
HETATM    8  O   UNL     1      -7.808   7.480  69.571  1.00  0.00    -0.114 OA 
HETATM    9  C   UNL     1      -8.669   7.314  68.710  1.00  0.00    -0.125 C  
HETATM   10  H   UNL     1      -9.009   9.337  68.366  1.00  0.00     0.000 HD 
BRANCH   6  11
HETATM   11  N   UNL     1     -10.776   9.249  66.565  1.00  0.00    -0.033 N  
HETATM   12  H   UNL     1     -11.795   9.281  66.570  1.00  0.00     0.000 HD 
BRANCH  11  13
HETATM   13  S   UNL     1      -9.964  10.487  65.784  1.00  0.00    -0.266 S  
HETATM   14  O   UNL     1      -8.574  10.307  66.154  1.00  0.00    -0.133 OA 
HETATM   15  O   UNL     1     -10.356  10.487  64.391  1.00  0.00    -0.341 OA 
BRANCH  13  16
HETATM   16  C   UNL     1     -10.545  11.965  66.567  1.00  0.00    -0.243 A  
HETATM   17  C   UNL     1     -11.806  12.472  66.251  1.00  0.00    -0.453 A  
HETATM   18  C   UNL     1     -12.258  13.633  66.887  1.00  0.00    -0.398 A  
HETATM   19  C   UNL     1     -11.446  14.311  67.803  1.00  0.00    -0.329 A  
HETATM   20  N   UNL     1     -11.946  15.412  68.509  1.00  0.00    -0.550 NA 
HETATM   21  C   UNL     1     -10.226  13.740  68.172  1.00  0.00    -0.253 A  
HETATM   22  C   UNL     1      -9.771  12.573  67.557  1.00  0.00    -0.196 A  
HETATM   23  H2  UNL     1     -12.800  15.126  68.988  1.00  0.00     0.000 HD 
HETATM   24  H1  UNL     1     -11.354  15.906  69.177  1.00  0.00     0.000 HD 
ENDBRANCH  13  16
ENDBRANCH  11  13
ENDBRANCH   6  11
ENDBRANCH   2   3
TORSDOF 4
ENDMDL
MODEL      216
REMARK 921   NORMALIZED FREE ENERGY PREDICTED BY IDOCK:   -3.67 KCAL/MOL
REMARK 922        TOTAL FREE ENERGY PREDICTED BY IDOCK:   -5.35 KCAL/MOL
REMARK 923 INTER-LIGAND FREE ENERGY PREDICTED BY IDOCK:   -4.80 KCAL/MOL
REMARK 924 INTRA-LIGAND FREE ENERGY PREDICTED BY IDOCK:   -0.56 KCAL/MOL
REMARK 927      BINDING AFFINITY PREDICTED BY RF-SCORE:    0.00 PKD
ROOT
HETATM    1  C   UNL     1      -6.859  11.441  67.897  1.00  0.00    -0.072 C  
HETATM    2  C   UNL     1      -6.264  10.058  68.118  1.00  0.00    -0.053 C  
ENDROOT
BRANCH   2   3
HETATM    3  N   UNL     1      -7.120   9.237  68.968  1.00  0.00    -0.066 N  
HETATM    4  C   UNL     1      -7.324   9.589  70.285  1.00  0.00    -0.133 C  
HETATM    5  C   UNL     1      -8.135   8.877  71.069  1.00  0.00    -0.205 C  
HETATM    6  C   UNL     1      -8.787   7.753  70.390  1.00  0.00    -0.146 C  
HETATM    7  N   UNL     1      -8.633   7.420  69.165  1.00  0.00    -0.136 N  
HETATM    8  O   UNL     1      -7.607   7.854  67.202  1.00  0.00    -0.096 OA 
HETATM    9  C   UNL     1      -7.781   8.149  68.382  1.00  0.00    -0.113 C  
HETATM   10  H   UNL     1      -9.137   6.622  68.778  1.00  0.00     0.000 HD 
BRANCH   6  11
HETATM   11  N   UNL     1      -9.639   7.018  71.220  1.00  0.00    -0.165 N  
HETATM   12  H   UNL     1      -9.223   6.531  72.014  1.00  0.00     0.000 HD 
BRANCH  11  13
HETATM   13  S   UNL     1     -11.293   6.880  71.005  1.00  0.00    -0.318 S  
HETATM   14  O   UNL     1     -11.457   6.564  69.600  1.00  0.00    -0.382 OA 
HETATM   15  O   UNL     1     -11.816   5.991  72.020  1.00  0.00    -0.303 OA 
BRANCH  13  16
HETATM   16  C   UNL     1     -11.915   8.517  71.268  1.00  0.00    -0.294 A  
HETATM   17  C   UNL     1     -11.477   9.567  70.460  1.00  0.00    -0.337 A  
HETATM   18  C   UNL     1     -11.987  10.852  70.670  1.00  0.00    -0.467 A  
HETATM   19  C   UNL     1     -12.897  11.103  71.703  1.00  0.00    -0.419 A  
HETATM   20  N   UNL     1     -13.478  12.370  71.840  1.00  0.00    -0.368 NA 
HETATM   21  C   UNL     1     -13.390  10.025  72.441  1.00  0.00    -0.261 A  
HETATM   22  C   UNL     1     -12.901   8.735  72.231  1.00  0.00    -0.465 A  
HETATM   23  H2  UNL     1     -13.921  12.617  70.955  1.00  0.00     0.000 HD 
HETATM   24  H1  UNL     1     -14.142  12.553  72.593  1.00  0.00     0.000 HD 
ENDBRANCH  13  16
ENDBRANCH  11  13
ENDBRANCH   6  11
ENDBRANCH   2   3
TORSDOF 4
ENDMDL
MODEL      217
REMARK 921   NORMALIZED FREE ENERGY PREDICTED BY IDOCK:   -3.65 KCAL/MOL
REMARK 922        TOTAL FREE ENERGY PREDICTED BY IDOCK:   -5.32 KCAL/MOL
REMARK 923 INTER-LIGAND FREE ENERGY PREDICTED BY IDOCK:   -5.27 KCAL/MOL
REMARK 924 INTRA-LIGAND FREE ENERGY PREDICTED BY IDOCK:   -0.05 KCAL/MOL
REMARK 927      BINDING AFFINITY PREDICTED BY RF-SCORE:    0.00 PKD
ROOT
HETATM    1  C   UNL     1     -14.411  14.746  71.854  1.00  0.00    -0.657 C  
HETATM    2  C   UNL     1     -12.894  14.646  71.911  1.00  0.00    -0.328 C  
ENDROOT
BRANCH   2   3
HETATM    3  N   UNL     1     -12.402  13.522  71.120  1.00  0.00    -0.340 N  
HETATM    4  C   UNL     1     -12.879  12.251  71.359  1.00  0.00    -0.271 C  
HETATM    5  C   UNL     1     -12.475  11.216  70.622  1.00  0.00    -0.448 C  
HETATM    6  C   UNL     1     -11.539  11.574  69.551  1.00  0.00    -0.333 C  
HETATM    7  N   UNL     1     -11.100  12.747  69.295  1.00  0.00    -0.425 N  
HETATM    8  O   UNL     1     -11.104  14.933  69.857  1.00  0.00    -0.258 OA 
HETATM    9  C   UNL     1     -11.509  13.793  70.074  1.00  0.00    -0.118 C  
HETATM   10  H   UNL     1     -10.454  12.900  68.520  1.00  0.00     0.000 HD 
BRANCH   6  11
HETATM   11  N   UNL     1     -11.128  10.481  68.782  1.00  0.00    -0.249 N  
HETATM   12  H   UNL     1     -10.991   9.591  69.259  1.00  0.00     0.000 HD 
BRANCH  11  13
HETATM   13  S   UNL     1     -10.844  10.530  67.133  1.00  0.00    -0.221 S  
HETATM   14  O   UNL     1     -10.910   9.146  66.707  1.00  0.00    -0.109 OA 
HETATM   15  O   UNL     1     -11.721  11.519  66.544  1.00  0.00    -0.455 OA 
BRANCH  13  16
HETATM   16  C   UNL     1      -9.162  11.063  66.986  1.00  0.00    -0.153 A  
HETATM   17  C   UNL     1      -8.325  10.475  66.036  1.00  0.00    -0.158 A  
HETATM   18  C   UNL     1      -7.003  10.915  65.921  1.00  0.00    -0.029 A  
HETATM   19  C   UNL     1      -6.499  11.906  66.772  1.00  0.00    -0.029 A  
HETATM   20  N   UNL     1      -5.207  12.410  66.582  1.00  0.00    -0.384 NA 
HETATM   21  C   UNL     1      -7.375  12.543  67.654  1.00  0.00    -0.134 A  
HETATM   22  C   UNL     1      -8.702  12.124  67.767  1.00  0.00    -0.171 A  
HETATM   23  H2  UNL     1      -5.131  12.744  65.621  1.00  0.00     0.000 HD 
HETATM   24  H1  UNL     1      -4.840  13.132  67.202  1.00  0.00     0.000 HD 
ENDBRANCH  13  16
ENDBRANCH  11  13
ENDBRANCH   6  11
ENDBRANCH   2   3
TORSDOF 4
ENDMDL
MODEL      218
REMARK 921   NORMALIZED FREE ENERGY PREDICTED BY IDOCK:   -3.61 KCAL/MOL
REMARK 922        TOTAL FREE ENERGY PREDICTED BY IDOCK:   -5.27 KCAL/MOL
REMARK 923 INTER-LIGAND FREE ENERGY PREDICTED BY IDOCK:   -4.55 KCAL/MOL
REMARK 924 INTRA-LIGAND FREE ENERGY PREDICTED BY IDOCK:   -0.72 KCAL/MOL
REMARK 927      BINDING AFFINITY PREDICTED BY RF-SCORE:    0.00 PKD
ROOT
HETATM    1  C   UNL     1     -10.017  20.291  66.664  1.00  0.00    -0.561 C  
HETATM    2  C   UNL     1      -9.946  19.391  67.889  1.00  0.00    -0.380 C  
ENDROOT
BRANCH   2   3
HETATM    3  N   UNL     1      -9.440  18.064  67.549  1.00  0.00    -0.260 N  
HETATM    4  C   UNL     1     -10.220  17.197  66.815  1.00  0.00    -0.311 C  
HETATM    5  C   UNL     1      -9.764  15.996  66.458  1.00  0.00    -0.284 C  
HETATM    6  C   UNL     1      -8.384  15.732  66.881  1.00  0.00    -0.248 C  
HETATM    7  N   UNL     1      -7.632  16.528  67.541  1.00  0.00    -0.141 N  
HETATM    8  O   UNL     1      -7.430  18.534  68.556  1.00  0.00    -0.279 OA 
HETATM    9  C   UNL     1      -8.125  17.747  67.917  1.00  0.00    -0.235 C  
HETATM   10  H   UNL     1      -6.679  16.258  67.785  1.00  0.00     0.000 HD 
BRANCH   6  11
HETATM   11  N   UNL     1      -7.914  14.473  66.496  1.00  0.00    -0.104 N  
HETATM   12  H   UNL     1      -8.007  14.213  65.514  1.00  0.00     0.000 HD 
BRANCH  11  13
HETATM   13  S   UNL     1      -7.210  13.361  67.531  1.00  0.00    -0.117 S  
HETATM   14  O   UNL     1      -6.031  12.897  66.826  1.00  0.00    -0.027 OA 
HETATM   15  O   UNL     1      -7.088  13.965  68.840  1.00  0.00    -0.106 OA 
BRANCH  13  16
HETATM   16  C   UNL     1      -8.364  12.020  67.597  1.00  0.00    -0.160 A  
HETATM   17  C   UNL     1      -8.001  10.763  67.113  1.00  0.00    -0.124 A  
HETATM   18  C   UNL     1      -8.918   9.710  67.185  1.00  0.00    -0.148 A  
HETATM   19  C   UNL     1     -10.204   9.911  67.697  1.00  0.00    -0.208 A  
HETATM   20  N   UNL     1     -11.078   8.829  67.858  1.00  0.00    -0.435 NA 
HETATM   21  C   UNL     1     -10.518  11.152  68.258  1.00  0.00    -0.215 A  
HETATM   22  C   UNL     1      -9.606  12.207  68.207  1.00  0.00    -0.210 A  
HETATM   23  H2  UNL     1     -10.613   8.123  68.429  1.00  0.00     0.000 HD 
HETATM   24  H1  UNL     1     -12.016   8.976  68.232  1.00  0.00     0.000 HD 
ENDBRANCH  13  16
ENDBRANCH  11  13
ENDBRANCH   6  11
ENDBRANCH   2   3
TORSDOF 4
ENDMDL
MODEL      219
REMARK 921   NORMALIZED FREE ENERGY PREDICTED BY IDOCK:   -3.60 KCAL/MOL
REMARK 922        TOTAL FREE ENERGY PREDICTED BY IDOCK:   -5.26 KCAL/MOL
REMARK 923 INTER-LIGAND FREE ENERGY PREDICTED BY IDOCK:   -4.81 KCAL/MOL
REMARK 924 INTRA-LIGAND FREE ENERGY PREDICTED BY IDOCK:   -0.46 KCAL/MOL
REMARK 927      BINDING AFFINITY PREDICTED BY RF-SCORE:    0.00 PKD
ROOT
HETATM    1  C   UNL     1     -11.073   4.178  73.347  1.00  0.00    -0.354 C  
HETATM    2  C   UNL     1     -11.035   5.670  73.056  1.00  0.00    -0.284 C  
ENDROOT
BRANCH   2   3
HETATM    3  N   UNL     1     -10.957   5.934  71.622  1.00  0.00    -0.267 N  
HETATM    4  C   UNL     1     -10.129   5.171  70.826  1.00  0.00    -0.233 C  
HETATM    5  C   UNL     1     -10.073   5.367  69.508  1.00  0.00    -0.310 C  
HETATM    6  C   UNL     1     -10.982   6.409  69.019  1.00  0.00    -0.348 C  
HETATM    7  N   UNL     1     -11.775   7.113  69.733  1.00  0.00    -0.548 N  
HETATM    8  O   UNL     1     -12.552   7.575  71.801  1.00  0.00    -0.317 OA 
HETATM    9  C   UNL     1     -11.804   6.913  71.085  1.00  0.00    -0.349 C  
HETATM   10  H   UNL     1     -12.378   7.813  69.301  1.00  0.00     0.000 HD 
BRANCH   6  11
HETATM   11  N   UNL     1     -10.918   6.601  67.635  1.00  0.00    -0.456 N  
HETATM   12  H   UNL     1     -11.464   5.973  67.045  1.00  0.00     0.000 HD 
BRANCH  11  13
HETATM   13  S   UNL     1     -10.012   7.787  66.878  1.00  0.00    -0.274 S  
HETATM   14  O   UNL     1      -9.160   7.065  65.953  1.00  0.00    -0.119 OA 
HETATM   15  O   UNL     1     -10.909   8.814  66.396  1.00  0.00     0.158 OA 
BRANCH  13  16
HETATM   16  C   UNL     1      -8.983   8.447  68.159  1.00  0.00    -0.139 A  
HETATM   17  C   UNL     1      -9.471   9.448  69.000  1.00  0.00    -0.160 A  
HETATM   18  C   UNL     1      -8.653   9.951  70.015  1.00  0.00    -0.196 A  
HETATM   19  C   UNL     1      -7.340   9.492  70.172  1.00  0.00    -0.124 A  
HETATM   20  N   UNL     1      -6.565   9.927  71.253  1.00  0.00    -0.326 NA 
HETATM   21  C   UNL     1      -6.900   8.429  69.380  1.00  0.00    -0.046 A  
HETATM   22  C   UNL     1      -7.714   7.907  68.373  1.00  0.00    -0.114 A  
HETATM   23  H2  UNL     1      -7.077   9.734  72.114  1.00  0.00     0.000 HD 
HETATM   24  H1  UNL     1      -5.608   9.593  71.368  1.00  0.00     0.000 HD 
ENDBRANCH  13  16
ENDBRANCH  11  13
ENDBRANCH   6  11
ENDBRANCH   2   3
TORSDOF 4
ENDMDL
MODEL      220
REMARK 921   NORMALIZED FREE ENERGY PREDICTED BY IDOCK:   -3.59 KCAL/MOL
REMARK 922        TOTAL FREE ENERGY PREDICTED BY IDOCK:   -5.26 KCAL/MOL
REMARK 923 INTER-LIGAND FREE ENERGY PREDICTED BY IDOCK:   -4.95 KCAL/MOL
REMARK 924 INTRA-LIGAND FREE ENERGY PREDICTED BY IDOCK:   -0.30 KCAL/MOL
REMARK 927      BINDING AFFINITY PREDICTED BY RF-SCORE:    0.00 PKD
ROOT
HETATM    1  C   UNL     1     -14.029  13.749  71.581  1.00  0.00    -0.257 C  
HETATM    2  C   UNL     1     -13.616  15.209  71.465  1.00  0.00    -0.477 C  
ENDROOT
BRANCH   2   3
HETATM    3  N   UNL     1     -12.439  15.365  70.616  1.00  0.00    -0.400 N  
HETATM    4  C   UNL     1     -12.586  15.730  69.295  1.00  0.00     0.373 C  
HETATM    5  C   UNL     1     -11.523  15.919  68.511  1.00  0.00    -0.377 C  
HETATM    6  C   UNL     1     -10.238  15.743  69.196  1.00  0.00    -0.231 C  
HETATM    7  N   UNL     1     -10.075  15.428  70.425  1.00  0.00    -0.402 N  
HETATM    8  O   UNL     1     -11.055  14.911  72.391  1.00  0.00    -0.006 OA 
HETATM    9  C   UNL     1     -11.177  15.218  71.207  1.00  0.00    -0.323 C  
HETATM   10  H   UNL     1      -9.137  15.336  70.816  1.00  0.00     0.000 HD 
BRANCH   6  11
HETATM   11  N   UNL     1      -9.132  15.950  68.367  1.00  0.00    -0.185 N  
HETATM   12  H   UNL     1      -8.506  16.722  68.595  1.00  0.00     0.000 HD 
BRANCH  11  13
HETATM   13  S   UNL     1      -8.759  15.019  67.026  1.00  0.00    -0.250 S  
HETATM   14  O   UNL     1      -9.380  15.711  65.914  1.00  0.00    -0.335 OA 
HETATM   15  O   UNL     1      -7.334  14.764  67.025  1.00  0.00    -0.097 OA 
BRANCH  13  16
HETATM   16  C   UNL     1      -9.636  13.502  67.278  1.00  0.00    -0.235 A  
HETATM   17  C   UNL     1     -10.710  13.171  66.451  1.00  0.00    -0.293 A  
HETATM   18  C   UNL     1     -11.384  11.964  66.653  1.00  0.00    -0.400 A  
HETATM   19  C   UNL     1     -11.022  11.105  67.697  1.00  0.00    -0.269 A  
HETATM   20  N   UNL     1     -11.636   9.853  67.827  1.00  0.00    -0.405 NA 
HETATM   21  C   UNL     1      -9.891  11.410  68.456  1.00  0.00    -0.200 A  
HETATM   22  C   UNL     1      -9.198  12.605  68.254  1.00  0.00    -0.184 A  
HETATM   23  H2  UNL     1     -11.529   9.350  66.946  1.00  0.00     0.000 HD 
HETATM   24  H1  UNL     1     -11.372   9.227  68.588  1.00  0.00     0.000 HD 
ENDBRANCH  13  16
ENDBRANCH  11  13
ENDBRANCH   6  11
ENDBRANCH   2   3
TORSDOF 4
ENDMDL
MODEL      221
REMARK 921   NORMALIZED FREE ENERGY PREDICTED BY IDOCK:   -3.58 KCAL/MOL
REMARK 922        TOTAL FREE ENERGY PREDICTED BY IDOCK:   -5.23 KCAL/MOL
REMARK 923 INTER-LIGAND FREE ENERGY PREDICTED BY IDOCK:   -4.98 KCAL/MOL
REMARK 924 INTRA-LIGAND FREE ENERGY PREDICTED BY IDOCK:   -0.26 KCAL/MOL
REMARK 927      BINDING AFFINITY PREDICTED BY RF-SCORE:    0.00 PKD
ROOT
HETATM    1  C   UNL     1     -10.673  19.612  66.953  1.00  0.00    -0.570 C  
HETATM    2  C   UNL     1     -10.785  18.528  65.892  1.00  0.00    -0.198 C  
ENDROOT
BRANCH   2   3
HETATM    3  N   UNL     1      -9.855  17.432  66.148  1.00  0.00    -0.272 N  
HETATM    4  C   UNL     1      -8.861  17.578  67.092  1.00  0.00    -0.238 C  
HETATM    5  C   UNL     1      -8.025  16.577  67.371  1.00  0.00    -0.175 C  
HETATM    6  C   UNL     1      -8.299  15.345  66.624  1.00  0.00    -0.220 C  
HETATM    7  N   UNL     1      -9.228  15.177  65.761  1.00  0.00    -0.452 N  
HETATM    8  O   UNL     1     -10.962  16.095  64.645  1.00  0.00    -0.642 OA 
HETATM    9  C   UNL     1     -10.061  16.221  65.472  1.00  0.00    -0.245 C  
HETATM   10  H   UNL     1      -9.345  14.277  65.295  1.00  0.00     0.000 HD 
BRANCH   6  11
HETATM   11  N   UNL     1      -7.421  14.301  66.929  1.00  0.00    -0.161 N  
HETATM   12  H   UNL     1      -6.781  13.990  66.198  1.00  0.00     0.000 HD 
BRANCH  11  13
HETATM   13  S   UNL     1      -7.344  13.523  68.410  1.00  0.00    -0.123 S  
HETATM   14  O   UNL     1      -6.354  12.480  68.227  1.00  0.00    -0.054 OA 
HETATM   15  O   UNL     1      -7.172  14.520  69.444  1.00  0.00    -0.145 OA 
BRANCH  13  16
HETATM   16  C   UNL     1      -8.924  12.745  68.588  1.00  0.00     0.051 A  
HETATM   17  C   UNL     1      -9.039  11.361  68.456  1.00  0.00    -0.169 A  
HETATM   18  C   UNL     1     -10.291  10.758  68.613  1.00  0.00    -0.208 A  
HETATM   19  C   UNL     1     -11.433  11.529  68.860  1.00  0.00    -0.289 A  
HETATM   20  N   UNL     1     -12.661  10.910  69.116  1.00  0.00    -0.519 NA 
HETATM   21  C   UNL     1     -11.284  12.901  69.076  1.00  0.00    -0.320 A  
HETATM   22  C   UNL     1     -10.037  13.512  68.939  1.00  0.00    -0.029 A  
HETATM   23  H2  UNL     1     -12.538  10.261  69.894  1.00  0.00     0.000 HD 
HETATM   24  H1  UNL     1     -13.494  11.471  69.295  1.00  0.00     0.000 HD 
ENDBRANCH  13  16
ENDBRANCH  11  13
ENDBRANCH   6  11
ENDBRANCH   2   3
TORSDOF 4
ENDMDL
MODEL      222
REMARK 921   NORMALIZED FREE ENERGY PREDICTED BY IDOCK:   -3.56 KCAL/MOL
REMARK 922        TOTAL FREE ENERGY PREDICTED BY IDOCK:   -5.22 KCAL/MOL
REMARK 923 INTER-LIGAND FREE ENERGY PREDICTED BY IDOCK:   -4.49 KCAL/MOL
REMARK 924 INTRA-LIGAND FREE ENERGY PREDICTED BY IDOCK:   -0.72 KCAL/MOL
REMARK 927      BINDING AFFINITY PREDICTED BY RF-SCORE:    0.00 PKD
ROOT
HETATM    1  C   UNL     1     -11.097  14.826  68.564  1.00  0.00    -0.275 C  
HETATM    2  C   UNL     1     -11.611  14.415  67.192  1.00  0.00    -0.386 C  
ENDROOT
BRANCH   2   3
HETATM    3  N   UNL     1     -11.083  13.114  66.791  1.00  0.00    -0.283 N  
HETATM    4  C   UNL     1     -11.687  11.959  67.238  1.00  0.00    -0.247 C  
HETATM    5  C   UNL     1     -11.248  10.760  66.852  1.00  0.00    -0.109 C  
HETATM    6  C   UNL     1     -10.127  10.811  65.907  1.00  0.00    -0.256 C  
HETATM    7  N   UNL     1      -9.566  11.869  65.459  1.00  0.00    -0.327 N  
HETATM    8  O   UNL     1      -9.496  14.125  65.475  1.00  0.00    -0.092 OA 
HETATM    9  C   UNL     1     -10.016  13.088  65.883  1.00  0.00    -0.267 C  
HETATM   10  H   UNL     1      -8.794  11.804  64.795  1.00  0.00     0.000 HD 
BRANCH   6  11
HETATM   11  N   UNL     1      -9.680   9.549  65.504  1.00  0.00    -0.352 N  
HETATM   12  H   UNL     1     -10.131   9.122  64.696  1.00  0.00     0.000 HD 
BRANCH  11  13
HETATM   13  S   UNL     1      -8.455   8.689  66.254  1.00  0.00    -0.132 S  
HETATM   14  O   UNL     1      -8.026   7.721  65.263  1.00  0.00    -0.112 OA 
HETATM   15  O   UNL     1      -7.509   9.629  66.815  1.00  0.00    -0.093 OA 
BRANCH  13  16
HETATM   16  C   UNL     1      -9.264   7.806  67.558  1.00  0.00    -0.132 A  
HETATM   17  C   UNL     1     -10.514   7.226  67.337  1.00  0.00    -0.359 A  
HETATM   18  C   UNL     1     -11.135   6.520  68.372  1.00  0.00    -0.340 A  
HETATM   19  C   UNL     1     -10.537   6.422  69.634  1.00  0.00    -0.254 A  
HETATM   20  N   UNL     1     -11.118   5.629  70.631  1.00  0.00    -0.203 NA 
HETATM   21  C   UNL     1      -9.249   6.932  69.809  1.00  0.00    -0.147 A  
HETATM   22  C   UNL     1      -8.611   7.625  68.779  1.00  0.00    -0.129 A  
HETATM   23  H2  UNL     1     -11.239   4.687  70.261  1.00  0.00     0.000 HD 
HETATM   24  H1  UNL     1     -10.682   5.559  71.551  1.00  0.00     0.000 HD 
ENDBRANCH  13  16
ENDBRANCH  11  13
ENDBRANCH   6  11
ENDBRANCH   2   3
TORSDOF 4
ENDMDL
MODEL      223
REMARK 921   NORMALIZED FREE ENERGY PREDICTED BY IDOCK:   -3.56 KCAL/MOL
REMARK 922        TOTAL FREE ENERGY PREDICTED BY IDOCK:   -5.22 KCAL/MOL
REMARK 923 INTER-LIGAND FREE ENERGY PREDICTED BY IDOCK:   -5.83 KCAL/MOL
REMARK 924 INTRA-LIGAND FREE ENERGY PREDICTED BY IDOCK:    0.61 KCAL/MOL
REMARK 927      BINDING AFFINITY PREDICTED BY RF-SCORE:    0.00 PKD
ROOT
HETATM    1  C   UNL     1      -5.192  19.313  70.802  1.00  0.00    -0.235 C  
HETATM    2  C   UNL     1      -5.472  20.578  70.004  1.00  0.00    -0.337 C  
ENDROOT
BRANCH   2   3
HETATM    3  N   UNL     1      -6.489  20.352  68.982  1.00  0.00    -0.278 N  
HETATM    4  C   UNL     1      -7.704  19.800  69.329  1.00  0.00    -0.074 C  
HETATM    5  C   UNL     1      -8.663  19.622  68.420  1.00  0.00    -0.357 C  
HETATM    6  C   UNL     1      -8.309  20.098  67.078  1.00  0.00    -0.328 C  
HETATM    7  N   UNL     1      -7.199  20.634  66.736  1.00  0.00    -0.410 N  
HETATM    8  O   UNL     1      -5.141  21.296  67.381  1.00  0.00    -0.224 OA 
HETATM    9  C   UNL     1      -6.220  20.788  67.678  1.00  0.00    -0.289 C  
HETATM   10  H   UNL     1      -7.047  20.941  65.775  1.00  0.00     0.000 HD 
BRANCH   6  11
HETATM   11  N   UNL     1      -9.324  19.912  66.135  1.00  0.00    -0.461 N  
HETATM   12  H   UNL     1      -9.267  20.444  65.267  1.00  0.00     0.000 HD 
BRANCH  11  13
HETATM   13  S   UNL     1     -10.626  18.878  66.327  1.00  0.00    -0.327 S  
HETATM   14  O   UNL     1     -11.463  19.520  67.322  1.00  0.00    -0.004 OA 
HETATM   15  O   UNL     1     -11.158  18.560  65.020  1.00  0.00    -0.528 OA 
BRANCH  13  16
HETATM   16  C   UNL     1      -9.935  17.422  67.060  1.00  0.00    -0.295 A  
HETATM   17  C   UNL     1     -10.370  16.999  68.317  1.00  0.00    -0.347 A  
HETATM   18  C   UNL     1      -9.825  15.840  68.878  1.00  0.00    -0.224 A  
HETATM   19  C   UNL     1      -8.823  15.124  68.213  1.00  0.00    -0.173 A  
HETATM   20  N   UNL     1      -8.357  13.912  68.735  1.00  0.00    -0.325 NA 
HETATM   21  C   UNL     1      -8.465  15.512  66.920  1.00  0.00    -0.289 A  
HETATM   22  C   UNL     1      -9.013  16.658  66.342  1.00  0.00    -0.326 A  
HETATM   23  H2  UNL     1      -9.157  13.293  68.871  1.00  0.00     0.000 HD 
HETATM   24  H1  UNL     1      -7.626  13.390  68.251  1.00  0.00     0.000 HD 
ENDBRANCH  13  16
ENDBRANCH  11  13
ENDBRANCH   6  11
ENDBRANCH   2   3
TORSDOF 4
ENDMDL
MODEL      224
REMARK 921   NORMALIZED FREE ENERGY PREDICTED BY IDOCK:   -3.53 KCAL/MOL
REMARK 922        TOTAL FREE ENERGY PREDICTED BY IDOCK:   -5.18 KCAL/MOL
REMARK 923 INTER-LIGAND FREE ENERGY PREDICTED BY IDOCK:   -4.67 KCAL/MOL
REMARK 924 INTRA-LIGAND FREE ENERGY PREDICTED BY IDOCK:   -0.51 KCAL/MOL
REMARK 927      BINDING AFFINITY PREDICTED BY RF-SCORE:    0.00 PKD
ROOT
HETATM    1  C   UNL     1     -11.476  13.103  67.699  1.00  0.00    -0.366 C  
HETATM    2  C   UNL     1     -12.123  12.886  69.059  1.00  0.00    -0.154 C  
ENDROOT
BRANCH   2   3
HETATM    3  N   UNL     1     -11.744  11.598  69.633  1.00  0.00    -0.323 N  
HETATM    4  C   UNL     1     -10.692  10.888  69.095  1.00  0.00    -0.226 C  
HETATM    5  C   UNL     1     -10.301   9.729  69.628  1.00  0.00    -0.259 C  
HETATM    6  C   UNL     1     -11.056   9.336  70.822  1.00  0.00    -0.285 C  
HETATM    7  N   UNL     1     -12.019   9.989  71.354  1.00  0.00    -0.384 N  
HETATM    8  O   UNL     1     -13.344  11.814  71.265  1.00  0.00    -0.107 OA 
HETATM    9  C   UNL     1     -12.420  11.164  70.781  1.00  0.00    -0.384 C  
HETATM   10  H   UNL     1     -12.481   9.638  72.193  1.00  0.00     0.000 HD 
BRANCH   6  11
HETATM   11  N   UNL     1     -10.633   8.124  71.376  1.00  0.00    -0.215 N  
HETATM   12  H   UNL     1      -9.773   8.128  71.923  1.00  0.00     0.000 HD 
BRANCH  11  13
HETATM   13  S   UNL     1     -11.439   6.667  71.205  1.00  0.00    -0.327 S  
HETATM   14  O   UNL     1     -12.518   6.727  72.171  1.00  0.00    -0.266 OA 
HETATM   15  O   UNL     1     -11.724   6.461  69.802  1.00  0.00    -0.414 OA 
BRANCH  13  16
HETATM   16  C   UNL     1     -10.281   5.449  71.763  1.00  0.00    -0.206 A  
HETATM   17  C   UNL     1      -9.365   4.895  70.868  1.00  0.00    -0.210 A  
HETATM   18  C   UNL     1      -8.447   3.945  71.325  1.00  0.00    -0.094 A  
HETATM   19  C   UNL     1      -8.463   3.515  72.657  1.00  0.00    -0.085 A  
HETATM   20  N   UNL     1      -7.476   2.641  73.128  1.00  0.00    -0.041 NA 
HETATM   21  C   UNL     1      -9.325   4.145  73.557  1.00  0.00    -0.113 A  
HETATM   22  C   UNL     1     -10.235   5.107  73.116  1.00  0.00    -0.214 A  
HETATM   23  H2  UNL     1      -6.563   3.053  72.935  1.00  0.00     0.000 HD 
HETATM   24  H1  UNL     1      -7.487   2.328  74.099  1.00  0.00     0.000 HD 
ENDBRANCH  13  16
ENDBRANCH  11  13
ENDBRANCH   6  11
ENDBRANCH   2   3
TORSDOF 4
ENDMDL
MODEL      225
REMARK 921   NORMALIZED FREE ENERGY PREDICTED BY IDOCK:   -3.53 KCAL/MOL
REMARK 922        TOTAL FREE ENERGY PREDICTED BY IDOCK:   -5.18 KCAL/MOL
REMARK 923 INTER-LIGAND FREE ENERGY PREDICTED BY IDOCK:   -4.87 KCAL/MOL
REMARK 924 INTRA-LIGAND FREE ENERGY PREDICTED BY IDOCK:   -0.31 KCAL/MOL
REMARK 927      BINDING AFFINITY PREDICTED BY RF-SCORE:    0.00 PKD
ROOT
HETATM    1  C   UNL     1      -8.761   9.288  63.310  1.00  0.00    -0.190 C  
HETATM    2  C   UNL     1      -7.835   9.170  64.511  1.00  0.00    -0.120 C  
ENDROOT
BRANCH   2   3
HETATM    3  N   UNL     1      -8.430   9.762  65.706  1.00  0.00    -0.130 N  
HETATM    4  C   UNL     1      -8.751  11.102  65.724  1.00  0.00    -0.150 C  
HETATM    5  C   UNL     1      -9.333  11.655  66.789  1.00  0.00    -0.193 C  
HETATM    6  C   UNL     1      -9.618  10.709  67.873  1.00  0.00    -0.162 C  
HETATM    7  N   UNL     1      -9.352   9.458  67.871  1.00  0.00    -0.129 N  
HETATM    8  O   UNL     1      -8.462   7.715  66.746  1.00  0.00    -0.120 OA 
HETATM    9  C   UNL     1      -8.735   8.913  66.779  1.00  0.00    -0.119 C  
HETATM   10  H   UNL     1      -9.596   8.875  68.672  1.00  0.00     0.000 HD 
BRANCH   6  11
HETATM   11  N   UNL     1     -10.233  11.299  68.981  1.00  0.00    -0.337 N  
HETATM   12  H   UNL     1      -9.721  11.299  69.863  1.00  0.00     0.000 HD 
BRANCH  11  13
HETATM   13  S   UNL     1     -11.751  12.005  68.964  1.00  0.00    -0.325 S  
HETATM   14  O   UNL     1     -12.286  11.697  67.652  1.00  0.00    -0.544 OA 
HETATM   15  O   UNL     1     -12.461  11.598  70.157  1.00  0.00    -0.221 OA 
BRANCH  13  16
HETATM   16  C   UNL     1     -11.433  13.746  69.024  1.00  0.00    -0.305 A  
HETATM   17  C   UNL     1     -11.242  14.461  67.841  1.00  0.00    -0.304 A  
HETATM   18  C   UNL     1     -11.005  15.838  67.903  1.00  0.00    -0.324 A  
HETATM   19  C   UNL     1     -10.919  16.497  69.134  1.00  0.00    -0.303 A  
HETATM   20  N   UNL     1     -10.784  17.889  69.182  1.00  0.00    -0.263 NA 
HETATM   21  C   UNL     1     -11.201  15.782  70.300  1.00  0.00    -0.377 A  
HETATM   22  C   UNL     1     -11.455  14.410  70.251  1.00  0.00    -0.255 A  
HETATM   23  H2  UNL     1     -11.548  18.304  68.650  1.00  0.00     0.000 HD 
HETATM   24  H1  UNL     1     -10.721  18.370  70.080  1.00  0.00     0.000 HD 
ENDBRANCH  13  16
ENDBRANCH  11  13
ENDBRANCH   6  11
ENDBRANCH   2   3
TORSDOF 4
ENDMDL
MODEL      226
REMARK 921   NORMALIZED FREE ENERGY PREDICTED BY IDOCK:   -3.51 KCAL/MOL
REMARK 922        TOTAL FREE ENERGY PREDICTED BY IDOCK:   -5.15 KCAL/MOL
REMARK 923 INTER-LIGAND FREE ENERGY PREDICTED BY IDOCK:   -4.69 KCAL/MOL
REMARK 924 INTRA-LIGAND FREE ENERGY PREDICTED BY IDOCK:   -0.46 KCAL/MOL
REMARK 927      BINDING AFFINITY PREDICTED BY RF-SCORE:    0.00 PKD
ROOT
HETATM    1  C   UNL     1     -10.820  16.323  65.200  1.00  0.00    -0.333 C  
HETATM    2  C   UNL     1     -11.059  15.654  66.545  1.00  0.00    -0.135 C  
ENDROOT
BRANCH   2   3
HETATM    3  N   UNL     1     -10.400  14.353  66.620  1.00  0.00    -0.271 N  
HETATM    4  C   UNL     1     -11.059  13.221  66.191  1.00  0.00    -0.285 C  
HETATM    5  C   UNL     1     -10.462  12.029  66.212  1.00  0.00    -0.273 C  
HETATM    6  C   UNL     1      -9.074  12.064  66.683  1.00  0.00    -0.205 C  
HETATM    7  N   UNL     1      -8.433  13.104  67.063  1.00  0.00    -0.350 N  
HETATM    8  O   UNL     1      -8.482  15.332  67.418  1.00  0.00    -0.156 OA 
HETATM    9  C   UNL     1      -9.068  14.314  67.055  1.00  0.00    -0.233 C  
HETATM   10  H   UNL     1      -7.462  13.030  67.368  1.00  0.00     0.000 HD 
BRANCH   6  11
HETATM   11  N   UNL     1      -8.456  10.810  66.694  1.00  0.00    -0.137 N  
HETATM   12  H   UNL     1      -7.942  10.528  65.860  1.00  0.00     0.000 HD 
BRANCH  11  13
HETATM   13  S   UNL     1      -8.501   9.738  67.979  1.00  0.00    -0.118 S  
HETATM   14  O   UNL     1      -7.109   9.464  68.278  1.00  0.00    -0.074 OA 
HETATM   15  O   UNL     1      -9.375  10.278  68.998  1.00  0.00    -0.169 OA 
BRANCH  13  16
HETATM   16  C   UNL     1      -9.211   8.263  67.305  1.00  0.00    -0.138 A  
HETATM   17  C   UNL     1     -10.510   7.891  67.653  1.00  0.00    -0.303 A  
HETATM   18  C   UNL     1     -11.063   6.731  67.103  1.00  0.00    -0.404 A  
HETATM   19  C   UNL     1     -10.316   5.920  66.241  1.00  0.00    -0.024 A  
HETATM   20  N   UNL     1     -10.912   4.818  65.616  1.00  0.00    -0.875 NA 
HETATM   21  C   UNL     1      -9.052   6.354  65.835  1.00  0.00    -0.074 A  
HETATM   22  C   UNL     1      -8.495   7.519  66.364  1.00  0.00    -0.131 A  
HETATM   23  H2  UNL     1     -11.739   5.141  65.115  1.00  0.00     0.000 HD 
HETATM   24  H1  UNL     1     -10.368   4.226  64.988  1.00  0.00     0.000 HD 
ENDBRANCH  13  16
ENDBRANCH  11  13
ENDBRANCH   6  11
ENDBRANCH   2   3
TORSDOF 4
ENDMDL
MODEL      227
REMARK 921   NORMALIZED FREE ENERGY PREDICTED BY IDOCK:   -3.51 KCAL/MOL
REMARK 922        TOTAL FREE ENERGY PREDICTED BY IDOCK:   -5.15 KCAL/MOL
REMARK 923 INTER-LIGAND FREE ENERGY PREDICTED BY IDOCK:   -4.51 KCAL/MOL
REMARK 924 INTRA-LIGAND FREE ENERGY PREDICTED BY IDOCK:   -0.64 KCAL/MOL
REMARK 927      BINDING AFFINITY PREDICTED BY RF-SCORE:    0.00 PKD
ROOT
HETATM    1  C   UNL     1     -11.893  14.384  70.908  1.00  0.00    -0.346 C  
HETATM    2  C   UNL     1     -12.902  13.382  70.366  1.00  0.00     0.041 C  
ENDROOT
BRANCH   2   3
HETATM    3  N   UNL     1     -12.285  12.083  70.116  1.00  0.00    -0.267 N  
HETATM    4  C   UNL     1     -12.123  11.187  71.151  1.00  0.00    -0.196 C  
HETATM    5  C   UNL     1     -11.599   9.979  70.939  1.00  0.00    -0.463 C  
HETATM    6  C   UNL     1     -11.270   9.709  69.535  1.00  0.00    -0.109 C  
HETATM    7  N   UNL     1     -11.432  10.514  68.555  1.00  0.00    -0.455 N  
HETATM    8  O   UNL     1     -12.116  12.555  67.875  1.00  0.00    -0.384 OA 
HETATM    9  C   UNL     1     -11.950  11.756  68.795  1.00  0.00    -0.257 C  
HETATM   10  H   UNL     1     -11.179  10.233  67.607  1.00  0.00     0.000 HD 
BRANCH   6  11
HETATM   11  N   UNL     1     -10.728   8.438  69.324  1.00  0.00    -0.366 N  
HETATM   12  H   UNL     1     -10.968   7.704  69.990  1.00  0.00     0.000 HD 
BRANCH  11  13
HETATM   13  S   UNL     1      -9.713   8.034  68.056  1.00  0.00    -0.166 S  
HETATM   14  O   UNL     1     -10.497   8.284  66.863  1.00  0.00    -0.319 OA 
HETATM   15  O   UNL     1      -8.444   8.702  68.251  1.00  0.00    -0.128 OA 
BRANCH  13  16
HETATM   16  C   UNL     1      -9.493   6.283  68.201  1.00  0.00    -0.113 A  
HETATM   17  C   UNL     1      -8.854   5.573  67.184  1.00  0.00    -0.106 A  
HETATM   18  C   UNL     1      -8.675   4.193  67.319  1.00  0.00    -0.113 A  
HETATM   19  C   UNL     1      -9.164   3.512  68.439  1.00  0.00    -0.168 A  
HETATM   20  N   UNL     1      -8.891   2.150  68.612  1.00  0.00    -0.089 NA 
HETATM   21  C   UNL     1      -9.720   4.251  69.486  1.00  0.00    -0.272 A  
HETATM   22  C   UNL     1      -9.890   5.631  69.371  1.00  0.00    -0.232 A  
HETATM   23  H2  UNL     1      -7.880   2.017  68.573  1.00  0.00     0.000 HD 
HETATM   24  H1  UNL     1      -9.247   1.653  69.429  1.00  0.00     0.000 HD 
ENDBRANCH  13  16
ENDBRANCH  11  13
ENDBRANCH   6  11
ENDBRANCH   2   3
TORSDOF 4
ENDMDL
MODEL      228
REMARK 921   NORMALIZED FREE ENERGY PREDICTED BY IDOCK:   -3.50 KCAL/MOL
REMARK 922        TOTAL FREE ENERGY PREDICTED BY IDOCK:   -5.14 KCAL/MOL
REMARK 923 INTER-LIGAND FREE ENERGY PREDICTED BY IDOCK:   -4.33 KCAL/MOL
REMARK 924 INTRA-LIGAND FREE ENERGY PREDICTED BY IDOCK:   -0.81 KCAL/MOL
REMARK 927      BINDING AFFINITY PREDICTED BY RF-SCORE:    0.00 PKD
ROOT
HETATM    1  C   UNL     1     -11.378  14.684  68.276  1.00  0.00    -0.317 C  
HETATM    2  C   UNL     1     -11.861  14.308  66.883  1.00  0.00    -0.433 C  
ENDROOT
BRANCH   2   3
HETATM    3  N   UNL     1     -11.287  13.041  66.442  1.00  0.00    -0.304 N  
HETATM    4  C   UNL     1     -11.339  11.937  67.266  1.00  0.00    -0.329 C  
HETATM    5  C   UNL     1     -10.858  10.759  66.868  1.00  0.00    -0.288 C  
HETATM    6  C   UNL     1     -10.330  10.760  65.500  1.00  0.00    -0.241 C  
HETATM    7  N   UNL     1     -10.292  11.764  64.708  1.00  0.00    -0.274 N  
HETATM    8  O   UNL     1     -10.745  13.954  64.406  1.00  0.00    -0.394 OA 
HETATM    9  C   UNL     1     -10.770  12.969  65.141  1.00  0.00    -0.306 C  
HETATM   10  H   UNL     1      -9.911  11.666  63.766  1.00  0.00     0.000 HD 
BRANCH   6  11
HETATM   11  N   UNL     1      -9.834   9.519  65.092  1.00  0.00    -0.437 N  
HETATM   12  H   UNL     1     -10.511   8.793  64.857  1.00  0.00     0.000 HD 
BRANCH  11  13
HETATM   13  S   UNL     1      -8.210   9.138  64.959  1.00  0.00    -0.159 S  
HETATM   14  O   UNL     1      -8.173   7.978  64.089  1.00  0.00    -0.139 OA 
HETATM   15  O   UNL     1      -7.483  10.339  64.607  1.00  0.00    -0.142 OA 
BRANCH  13  16
HETATM   16  C   UNL     1      -7.740   8.612  66.583  1.00  0.00    -0.096 A  
HETATM   17  C   UNL     1      -8.496   7.646  67.249  1.00  0.00    -0.121 A  
HETATM   18  C   UNL     1      -8.106   7.231  68.526  1.00  0.00    -0.125 A  
HETATM   19  C   UNL     1      -6.994   7.799  69.157  1.00  0.00    -0.065 A  
HETATM   20  N   UNL     1      -6.553   7.304  70.390  1.00  0.00    -0.046 NA 
HETATM   21  C   UNL     1      -6.200   8.697  68.440  1.00  0.00    -0.054 A  
HETATM   22  C   UNL     1      -6.569   9.108  67.158  1.00  0.00    -0.061 A  
HETATM   23  H2  UNL     1      -6.390   6.302  70.294  1.00  0.00     0.000 HD 
HETATM   24  H1  UNL     1      -5.742   7.718  70.850  1.00  0.00     0.000 HD 
ENDBRANCH  13  16
ENDBRANCH  11  13
ENDBRANCH   6  11
ENDBRANCH   2   3
TORSDOF 4
ENDMDL
MODEL      229
REMARK 921   NORMALIZED FREE ENERGY PREDICTED BY IDOCK:   -3.50 KCAL/MOL
REMARK 922        TOTAL FREE ENERGY PREDICTED BY IDOCK:   -5.14 KCAL/MOL
REMARK 923 INTER-LIGAND FREE ENERGY PREDICTED BY IDOCK:   -4.57 KCAL/MOL
REMARK 924 INTRA-LIGAND FREE ENERGY PREDICTED BY IDOCK:   -0.57 KCAL/MOL
REMARK 927      BINDING AFFINITY PREDICTED BY RF-SCORE:    0.00 PKD
ROOT
HETATM    1  C   UNL     1     -10.638   4.879  66.323  1.00  0.00    -0.307 C  
HETATM    2  C   UNL     1      -9.202   5.044  66.798  1.00  0.00    -0.120 C  
ENDROOT
BRANCH   2   3
HETATM    3  N   UNL     1      -9.116   5.034  68.256  1.00  0.00    -0.111 N  
HETATM    4  C   UNL     1      -9.551   3.934  68.964  1.00  0.00    -0.138 C  
HETATM    5  C   UNL     1      -9.446   3.886  70.292  1.00  0.00    -0.255 C  
HETATM    6  C   UNL     1      -8.804   5.066  70.883  1.00  0.00    -0.133 C  
HETATM    7  N   UNL     1      -8.371   6.087  70.246  1.00  0.00    -0.122 N  
HETATM    8  O   UNL     1      -8.106   7.096  68.245  1.00  0.00    -0.121 OA 
HETATM    9  C   UNL     1      -8.508   6.128  68.887  1.00  0.00    -0.118 C  
HETATM   10  H   UNL     1      -7.930   6.860  70.746  1.00  0.00     0.000 HD 
BRANCH   6  11
HETATM   11  N   UNL     1      -8.693   5.001  72.275  1.00  0.00    -0.124 N  
HETATM   12  H   UNL     1      -7.796   4.711  72.666  1.00  0.00     0.000 HD 
BRANCH  11  13
HETATM   13  S   UNL     1      -9.925   5.368  73.348  1.00  0.00    -0.183 S  
HETATM   14  O   UNL     1     -10.749   4.176  73.382  1.00  0.00    -0.180 OA 
HETATM   15  O   UNL     1      -9.336   5.886  74.564  1.00  0.00    -0.135 OA 
BRANCH  13  16
HETATM   16  C   UNL     1     -10.851   6.645  72.543  1.00  0.00    -0.238 A  
HETATM   17  C   UNL     1     -10.331   7.937  72.459  1.00  0.00    -0.349 A  
HETATM   18  C   UNL     1     -11.067   8.932  71.809  1.00  0.00    -0.433 A  
HETATM   19  C   UNL     1     -12.333   8.657  71.279  1.00  0.00    -0.263 A  
HETATM   20  N   UNL     1     -13.016   9.632  70.542  1.00  0.00    -0.537 NA 
HETATM   21  C   UNL     1     -12.796   7.340  71.294  1.00  0.00    -0.391 A  
HETATM   22  C   UNL     1     -12.064   6.334  71.926  1.00  0.00    -0.311 A  
HETATM   23  H2  UNL     1     -12.411   9.943  69.782  1.00  0.00     0.000 HD 
HETATM   24  H1  UNL     1     -13.939   9.432  70.156  1.00  0.00     0.000 HD 
ENDBRANCH  13  16
ENDBRANCH  11  13
ENDBRANCH   6  11
ENDBRANCH   2   3
TORSDOF 4
ENDMDL
MODEL      230
REMARK 921   NORMALIZED FREE ENERGY PREDICTED BY IDOCK:   -3.49 KCAL/MOL
REMARK 922        TOTAL FREE ENERGY PREDICTED BY IDOCK:   -5.12 KCAL/MOL
REMARK 923 INTER-LIGAND FREE ENERGY PREDICTED BY IDOCK:   -4.57 KCAL/MOL
REMARK 924 INTRA-LIGAND FREE ENERGY PREDICTED BY IDOCK:   -0.55 KCAL/MOL
REMARK 927      BINDING AFFINITY PREDICTED BY RF-SCORE:    0.00 PKD
ROOT
HETATM    1  C   UNL     1      -9.881  10.351  65.149  1.00  0.00    -0.378 C  
HETATM    2  C   UNL     1      -9.659  11.476  66.149  1.00  0.00    -0.225 C  
ENDROOT
BRANCH   2   3
HETATM    3  N   UNL     1     -10.061  11.080  67.496  1.00  0.00    -0.177 N  
HETATM    4  C   UNL     1     -11.392  10.872  67.784  1.00  0.00    -0.292 C  
HETATM    5  C   UNL     1     -11.778  10.471  68.996  1.00  0.00    -0.242 C  
HETATM    6  C   UNL     1     -10.672  10.246  69.932  1.00  0.00    -0.294 C  
HETATM    7  N   UNL     1      -9.428  10.410  69.681  1.00  0.00    -0.401 N  
HETATM    8  O   UNL     1      -7.866  11.013  68.168  1.00  0.00    -0.106 OA 
HETATM    9  C   UNL     1      -9.053  10.842  68.440  1.00  0.00    -0.164 C  
HETATM   10  H   UNL     1      -8.726  10.221  70.398  1.00  0.00     0.000 HD 
BRANCH   6  11
HETATM   11  N   UNL     1     -11.088   9.820  71.196  1.00  0.00    -0.360 N  
HETATM   12  H   UNL     1     -11.347  10.535  71.875  1.00  0.00     0.000 HD 
BRANCH  11  13
HETATM   13  S   UNL     1     -11.191   8.220  71.676  1.00  0.00    -0.290 S  
HETATM   14  O   UNL     1     -12.131   8.226  72.780  1.00  0.00    -0.353 OA 
HETATM   15  O   UNL     1     -11.443   7.405  70.507  1.00  0.00    -0.282 OA 
BRANCH  13  16
HETATM   16  C   UNL     1      -9.589   7.846  72.330  1.00  0.00    -0.210 A  
HETATM   17  C   UNL     1      -8.554   7.475  71.472  1.00  0.00    -0.123 A  
HETATM   18  C   UNL     1      -7.290   7.196  72.001  1.00  0.00    -0.081 A  
HETATM   19  C   UNL     1      -7.064   7.244  73.381  1.00  0.00    -0.072 A  
HETATM   20  N   UNL     1      -5.773   7.063  73.891  1.00  0.00    -0.054 NA 
HETATM   21  C   UNL     1      -8.086   7.703  74.214  1.00  0.00    -0.248 A  
HETATM   22  C   UNL     1      -9.348   8.000  73.697  1.00  0.00    -0.218 A  
HETATM   23  H2  UNL     1      -5.152   7.735  73.441  1.00  0.00     0.000 HD 
HETATM   24  H1  UNL     1      -5.608   7.098  74.898  1.00  0.00     0.000 HD 
ENDBRANCH  13  16
ENDBRANCH  11  13
ENDBRANCH   6  11
ENDBRANCH   2   3
TORSDOF 4
ENDMDL
MODEL      231
REMARK 921   NORMALIZED FREE ENERGY PREDICTED BY IDOCK:   -3.46 KCAL/MOL
REMARK 922        TOTAL FREE ENERGY PREDICTED BY IDOCK:   -5.09 KCAL/MOL
REMARK 923 INTER-LIGAND FREE ENERGY PREDICTED BY IDOCK:   -4.46 KCAL/MOL
REMARK 924 INTRA-LIGAND FREE ENERGY PREDICTED BY IDOCK:   -0.63 KCAL/MOL
REMARK 927      BINDING AFFINITY PREDICTED BY RF-SCORE:    0.00 PKD
ROOT
HETATM    1  C   UNL     1      -9.931   7.485  66.871  1.00  0.00    -0.318 C  
HETATM    2  C   UNL     1      -9.161   8.413  65.944  1.00  0.00    -0.171 C  
ENDROOT
BRANCH   2   3
HETATM    3  N   UNL     1      -9.163   9.787  66.440  1.00  0.00    -0.154 N  
HETATM    4  C   UNL     1      -9.699  10.071  67.677  1.00  0.00    -0.158 C  
HETATM    5  C   UNL     1      -9.676  11.311  68.168  1.00  0.00    -0.188 C  
HETATM    6  C   UNL     1      -9.008  12.285  67.298  1.00  0.00    -0.187 C  
HETATM    7  N   UNL     1      -8.483  12.041  66.157  1.00  0.00    -0.393 N  
HETATM    8  O   UNL     1      -8.044  10.502  64.567  1.00  0.00    -0.143 OA 
HETATM    9  C   UNL     1      -8.535  10.769  65.661  1.00  0.00    -0.163 C  
HETATM   10  H   UNL     1      -8.031  12.786  65.626  1.00  0.00     0.000 HD 
BRANCH   6  11
HETATM   11  N   UNL     1      -8.984  13.580  67.825  1.00  0.00    -0.190 N  
HETATM   12  H   UNL     1      -9.879  14.022  68.034  1.00  0.00     0.000 HD 
BRANCH  11  13
HETATM   13  S   UNL     1      -7.592  14.455  68.139  1.00  0.00    -0.144 S  
HETATM   14  O   UNL     1      -7.407  14.349  69.573  1.00  0.00    -0.107 OA 
HETATM   15  O   UNL     1      -6.555  14.010  67.234  1.00  0.00    -0.266 OA 
BRANCH  13  16
HETATM   16  C   UNL     1      -8.027  16.131  67.771  1.00  0.00    -0.142 A  
HETATM   17  C   UNL     1      -7.318  17.181  68.357  1.00  0.00    -0.220 A  
HETATM   18  C   UNL     1      -7.663  18.499  68.046  1.00  0.00    -0.281 A  
HETATM   19  C   UNL     1      -8.733  18.778  67.188  1.00  0.00    -0.277 A  
HETATM   20  N   UNL     1      -9.005  20.096  66.805  1.00  0.00    -0.429 NA 
HETATM   21  C   UNL     1      -9.371  17.717  66.543  1.00  0.00    -0.286 A  
HETATM   22  C   UNL     1      -9.026  16.396  66.832  1.00  0.00    -0.240 A  
HETATM   23  H2  UNL     1      -8.158  20.494  66.400  1.00  0.00     0.000 HD 
HETATM   24  H1  UNL     1      -9.785  20.300  66.179  1.00  0.00     0.000 HD 
ENDBRANCH  13  16
ENDBRANCH  11  13
ENDBRANCH   6  11
ENDBRANCH   2   3
TORSDOF 4
ENDMDL
MODEL      232
REMARK 921   NORMALIZED FREE ENERGY PREDICTED BY IDOCK:   -3.45 KCAL/MOL
REMARK 922        TOTAL FREE ENERGY PREDICTED BY IDOCK:   -5.07 KCAL/MOL
REMARK 923 INTER-LIGAND FREE ENERGY PREDICTED BY IDOCK:   -5.27 KCAL/MOL
REMARK 924 INTRA-LIGAND FREE ENERGY PREDICTED BY IDOCK:    0.20 KCAL/MOL
REMARK 927      BINDING AFFINITY PREDICTED BY RF-SCORE:    0.00 PKD
ROOT
HETATM    1  C   UNL     1     -12.694  13.929  71.431  1.00  0.00    -0.445 C  
HETATM    2  C   UNL     1     -12.708  14.630  70.080  1.00  0.00    -0.220 C  
ENDROOT
BRANCH   2   3
HETATM    3  N   UNL     1     -11.371  14.697  69.499  1.00  0.00    -0.268 N  
HETATM    4  C   UNL     1     -10.373  15.394  70.146  1.00  0.00    -0.239 C  
HETATM    5  C   UNL     1      -9.134  15.435  69.655  1.00  0.00    -0.171 C  
HETATM    6  C   UNL     1      -8.952  14.655  68.426  1.00  0.00    -0.180 C  
HETATM    7  N   UNL     1      -9.855  13.982  67.820  1.00  0.00    -0.227 N  
HETATM    8  O   UNL     1     -12.017  13.336  67.767  1.00  0.00    -0.349 OA 
HETATM    9  C   UNL     1     -11.124  13.969  68.327  1.00  0.00    -0.254 C  
HETATM   10  H   UNL     1      -9.631  13.463  66.971  1.00  0.00     0.000 HD 
BRANCH   6  11
HETATM   11  N   UNL     1      -7.648  14.701  67.925  1.00  0.00    -0.127 N  
HETATM   12  H   UNL     1      -7.322  13.902  67.380  1.00  0.00     0.000 HD 
BRANCH  11  13
HETATM   13  S   UNL     1      -6.583  15.971  68.153  1.00  0.00    -0.131 S  
HETATM   14  O   UNL     1      -6.375  16.025  69.587  1.00  0.00    -0.171 OA 
HETATM   15  O   UNL     1      -5.459  15.797  67.258  1.00  0.00    -0.326 OA 
BRANCH  13  16
HETATM   16  C   UNL     1      -7.500  17.412  67.685  1.00  0.00    -0.183 A  
HETATM   17  C   UNL     1      -7.934  17.565  66.367  1.00  0.00    -0.320 A  
HETATM   18  C   UNL     1      -8.669  18.700  66.015  1.00  0.00    -0.006 A  
HETATM   19  C   UNL     1      -8.939  19.701  66.955  1.00  0.00    -0.331 A  
HETATM   20  N   UNL     1      -9.760  20.783  66.618  1.00  0.00    -0.624 NA 
HETATM   21  C   UNL     1      -8.574  19.489  68.286  1.00  0.00    -0.380 A  
HETATM   22  C   UNL     1      -7.854  18.351  68.655  1.00  0.00    -0.320 A  
HETATM   23  H2  UNL     1     -10.649  20.417  66.276  1.00  0.00     0.000 HD 
HETATM   24  H1  UNL     1      -9.957  21.513  67.304  1.00  0.00     0.000 HD 
ENDBRANCH  13  16
ENDBRANCH  11  13
ENDBRANCH   6  11
ENDBRANCH   2   3
TORSDOF 4
ENDMDL
MODEL      233
REMARK 921   NORMALIZED FREE ENERGY PREDICTED BY IDOCK:   -3.42 KCAL/MOL
REMARK 922        TOTAL FREE ENERGY PREDICTED BY IDOCK:   -5.05 KCAL/MOL
REMARK 923 INTER-LIGAND FREE ENERGY PREDICTED BY IDOCK:   -4.51 KCAL/MOL
REMARK 924 INTRA-LIGAND FREE ENERGY PREDICTED BY IDOCK:   -0.53 KCAL/MOL
REMARK 927      BINDING AFFINITY PREDICTED BY RF-SCORE:    0.00 PKD
ROOT
HETATM    1  C   UNL     1      -9.550   4.184  65.348  1.00  0.00    -0.187 C  
HETATM    2  C   UNL     1      -8.658   5.067  66.208  1.00  0.00    -0.113 C  
ENDROOT
BRANCH   2   3
HETATM    3  N   UNL     1      -9.299   6.342  66.510  1.00  0.00    -0.154 N  
HETATM    4  C   UNL     1      -8.909   7.485  65.845  1.00  0.00    -0.126 C  
HETATM    5  C   UNL     1      -9.509   8.653  66.075  1.00  0.00    -0.278 C  
HETATM    6  C   UNL     1     -10.609   8.580  67.042  1.00  0.00    -0.235 C  
HETATM    7  N   UNL     1     -11.005   7.529  67.655  1.00  0.00    -0.518 N  
HETATM    8  O   UNL     1     -10.718   5.317  67.997  1.00  0.00    -0.084 OA 
HETATM    9  C   UNL     1     -10.364   6.344  67.422  1.00  0.00    -0.205 C  
HETATM   10  H   UNL     1     -11.788   7.574  68.307  1.00  0.00     0.000 HD 
BRANCH   6  11
HETATM   11  N   UNL     1     -11.235   9.809  67.271  1.00  0.00    -0.235 N  
HETATM   12  H   UNL     1     -11.844  10.173  66.539  1.00  0.00     0.000 HD 
BRANCH  11  13
HETATM   13  S   UNL     1     -11.055  10.725  68.660  1.00  0.00    -0.282 S  
HETATM   14  O   UNL     1     -12.360  11.317  68.882  1.00  0.00    -0.485 OA 
HETATM   15  O   UNL     1     -10.443   9.901  69.679  1.00  0.00    -0.214 OA 
BRANCH  13  16
HETATM   16  C   UNL     1      -9.943  12.024  68.197  1.00  0.00    -0.203 A  
HETATM   17  C   UNL     1     -10.419  13.325  68.035  1.00  0.00    -0.248 A  
HETATM   18  C   UNL     1      -9.528  14.343  67.683  1.00  0.00    -0.214 A  
HETATM   19  C   UNL     1      -8.176  14.065  67.452  1.00  0.00    -0.190 A  
HETATM   20  N   UNL     1      -7.274  15.105  67.200  1.00  0.00    -0.231 NA 
HETATM   21  C   UNL     1      -7.702  12.775  67.705  1.00  0.00    -0.152 A  
HETATM   22  C   UNL     1      -8.579  11.754  68.073  1.00  0.00    -0.158 A  
HETATM   23  H2  UNL     1      -7.336  15.777  67.965  1.00  0.00     0.000 HD 
HETATM   24  H1  UNL     1      -6.288  14.902  67.032  1.00  0.00     0.000 HD 
ENDBRANCH  13  16
ENDBRANCH  11  13
ENDBRANCH   6  11
ENDBRANCH   2   3
TORSDOF 4
ENDMDL
MODEL      234
REMARK 921   NORMALIZED FREE ENERGY PREDICTED BY IDOCK:   -3.42 KCAL/MOL
REMARK 922        TOTAL FREE ENERGY PREDICTED BY IDOCK:   -5.04 KCAL/MOL
REMARK 923 INTER-LIGAND FREE ENERGY PREDICTED BY IDOCK:   -5.33 KCAL/MOL
REMARK 924 INTRA-LIGAND FREE ENERGY PREDICTED BY IDOCK:    0.29 KCAL/MOL
REMARK 927      BINDING AFFINITY PREDICTED BY RF-SCORE:    0.00 PKD
ROOT
HETATM    1  C   UNL     1     -11.904  11.907  70.237  1.00  0.00    -0.368 C  
HETATM    2  C   UNL     1     -12.896  11.076  71.037  1.00  0.00    -0.346 C  
ENDROOT
BRANCH   2   3
HETATM    3  N   UNL     1     -12.277   9.860  71.558  1.00  0.00    -0.394 N  
HETATM    4  C   UNL     1     -10.915   9.679  71.446  1.00  0.00    -0.284 C  
HETATM    5  C   UNL     1     -10.322   8.595  71.951  1.00  0.00    -0.405 C  
HETATM    6  C   UNL     1     -11.237   7.682  72.643  1.00  0.00    -0.366 C  
HETATM    7  N   UNL     1     -12.499   7.840  72.781  1.00  0.00    -0.521 N  
HETATM    8  O   UNL     1     -14.303   9.125  72.349  1.00  0.00    -0.463 OA 
HETATM    9  C   UNL     1     -13.092   8.945  72.238  1.00  0.00    -0.436 C  
HETATM   10  H   UNL     1     -13.055   7.150  73.288  1.00  0.00     0.000 HD 
BRANCH   6  11
HETATM   11  N   UNL     1     -10.604   6.554  73.174  1.00  0.00    -0.247 N  
HETATM   12  H   UNL     1     -11.067   6.068  73.942  1.00  0.00     0.000 HD 
BRANCH  11  13
HETATM   13  S   UNL     1      -9.141   5.942  72.637  1.00  0.00    -0.129 S  
HETATM   14  O   UNL     1      -8.173   6.975  72.951  1.00  0.00    -0.106 OA 
HETATM   15  O   UNL     1      -8.980   4.605  73.166  1.00  0.00    -0.116 OA 
BRANCH  13  16
HETATM   16  C   UNL     1      -9.306   5.872  70.876  1.00  0.00    -0.161 A  
HETATM   17  C   UNL     1     -10.428   5.270  70.304  1.00  0.00    -0.332 A  
HETATM   18  C   UNL     1     -10.551   5.233  68.912  1.00  0.00    -0.128 A  
HETATM   19  C   UNL     1      -9.547   5.756  68.088  1.00  0.00    -0.116 A  
HETATM   20  N   UNL     1      -9.727   5.806  66.701  1.00  0.00    -0.151 NA 
HETATM   21  C   UNL     1      -8.478   6.432  68.678  1.00  0.00    -0.123 A  
HETATM   22  C   UNL     1      -8.351   6.490  70.067  1.00  0.00    -0.134 A  
HETATM   23  H2  UNL     1     -10.594   6.308  66.507  1.00  0.00     0.000 HD 
HETATM   24  H1  UNL     1      -8.996   6.186  66.100  1.00  0.00     0.000 HD 
ENDBRANCH  13  16
ENDBRANCH  11  13
ENDBRANCH   6  11
ENDBRANCH   2   3
TORSDOF 4
ENDMDL
MODEL      235
REMARK 921   NORMALIZED FREE ENERGY PREDICTED BY IDOCK:   -3.42 KCAL/MOL
REMARK 922        TOTAL FREE ENERGY PREDICTED BY IDOCK:   -5.03 KCAL/MOL
REMARK 923 INTER-LIGAND FREE ENERGY PREDICTED BY IDOCK:   -4.79 KCAL/MOL
REMARK 924 INTRA-LIGAND FREE ENERGY PREDICTED BY IDOCK:   -0.24 KCAL/MOL
REMARK 927      BINDING AFFINITY PREDICTED BY RF-SCORE:    0.00 PKD
ROOT
HETATM    1  C   UNL     1      -9.767  20.580  67.363  1.00  0.00    -0.587 C  
HETATM    2  C   UNL     1     -10.474  19.675  66.366  1.00  0.00    -0.513 C  
ENDROOT
BRANCH   2   3
HETATM    3  N   UNL     1     -10.204  18.267  66.636  1.00  0.00    -0.365 N  
HETATM    4  C   UNL     1      -9.641  17.892  67.838  1.00  0.00    -0.286 C  
HETATM    5  C   UNL     1      -9.422  16.608  68.123  1.00  0.00    -0.228 C  
HETATM    6  C   UNL     1      -9.868  15.679  67.079  1.00  0.00    -0.233 C  
HETATM    7  N   UNL     1     -10.413  16.000  65.967  1.00  0.00    -0.334 N  
HETATM    8  O   UNL     1     -11.128  17.666  64.622  1.00  0.00    -0.906 OA 
HETATM    9  C   UNL     1     -10.609  17.323  65.683  1.00  0.00    -0.166 C  
HETATM   10  H   UNL     1     -10.698  15.280  65.303  1.00  0.00     0.000 HD 
BRANCH   6  11
HETATM   11  N   UNL     1      -9.640  14.336  67.392  1.00  0.00    -0.210 N  
HETATM   12  H   UNL     1     -10.410  13.681  67.257  1.00  0.00     0.000 HD 
BRANCH  11  13
HETATM   13  S   UNL     1      -8.193  13.725  67.972  1.00  0.00    -0.177 S  
HETATM   14  O   UNL     1      -7.187  14.233  67.060  1.00  0.00    -0.032 OA 
HETATM   15  O   UNL     1      -8.107  14.012  69.388  1.00  0.00     0.194 OA 
BRANCH  13  16
HETATM   16  C   UNL     1      -8.316  11.976  67.724  1.00  0.00    -0.156 A  
HETATM   17  C   UNL     1      -7.537  11.354  66.748  1.00  0.00    -0.143 A  
HETATM   18  C   UNL     1      -7.634   9.970  66.572  1.00  0.00    -0.106 A  
HETATM   19  C   UNL     1      -8.530   9.211  67.334  1.00  0.00    -0.115 A  
HETATM   20  N   UNL     1      -8.547   7.816  67.221  1.00  0.00    -0.127 NA 
HETATM   21  C   UNL     1      -9.235   9.837  68.364  1.00  0.00    -0.130 A  
HETATM   22  C   UNL     1      -9.134  11.216  68.560  1.00  0.00    -0.175 A  
HETATM   23  H2  UNL     1      -7.603   7.469  67.396  1.00  0.00     0.000 HD 
HETATM   24  H1  UNL     1      -9.200   7.262  67.776  1.00  0.00     0.000 HD 
ENDBRANCH  13  16
ENDBRANCH  11  13
ENDBRANCH   6  11
ENDBRANCH   2   3
TORSDOF 4
ENDMDL
MODEL      236
REMARK 921   NORMALIZED FREE ENERGY PREDICTED BY IDOCK:   -3.37 KCAL/MOL
REMARK 922        TOTAL FREE ENERGY PREDICTED BY IDOCK:   -4.98 KCAL/MOL
REMARK 923 INTER-LIGAND FREE ENERGY PREDICTED BY IDOCK:   -4.27 KCAL/MOL
REMARK 924 INTRA-LIGAND FREE ENERGY PREDICTED BY IDOCK:   -0.71 KCAL/MOL
REMARK 927      BINDING AFFINITY PREDICTED BY RF-SCORE:    0.00 PKD
ROOT
HETATM    1  C   UNL     1      -9.027  10.318  62.345  1.00  0.00    -0.288 C  
HETATM    2  C   UNL     1      -9.415  10.726  63.759  1.00  0.00    -0.283 C  
ENDROOT
BRANCH   2   3
HETATM    3  N   UNL     1      -9.202   9.636  64.707  1.00  0.00    -0.244 N  
HETATM    4  C   UNL     1      -8.238   8.683  64.456  1.00  0.00    -0.164 C  
HETATM    5  C   UNL     1      -7.999   7.702  65.327  1.00  0.00    -0.129 C  
HETATM    6  C   UNL     1      -8.812   7.774  66.546  1.00  0.00    -0.153 C  
HETATM    7  N   UNL     1      -9.695   8.659  66.812  1.00  0.00    -0.210 N  
HETATM    8  O   UNL     1     -10.787  10.510  66.120  1.00  0.00    -0.100 OA 
HETATM    9  C   UNL     1      -9.942   9.645  65.897  1.00  0.00    -0.281 C  
HETATM   10  H   UNL     1     -10.208   8.631  67.693  1.00  0.00     0.000 HD 
BRANCH   6  11
HETATM   11  N   UNL     1      -8.548   6.744  67.454  1.00  0.00    -0.120 N  
HETATM   12  H   UNL     1      -7.688   6.803  67.999  1.00  0.00     0.000 HD 
BRANCH  11  13
HETATM   13  S   UNL     1      -9.542   5.423  67.712  1.00  0.00    -0.134 S  
HETATM   14  O   UNL     1     -10.738   5.706  66.943  1.00  0.00    -0.283 OA 
HETATM   15  O   UNL     1      -8.780   4.218  67.462  1.00  0.00    -0.103 OA 
BRANCH  13  16
HETATM   16  C   UNL     1      -9.967   5.513  69.428  1.00  0.00    -0.208 A  
HETATM   17  C   UNL     1     -10.394   6.722  69.979  1.00  0.00    -0.225 A  
HETATM   18  C   UNL     1     -10.740   6.776  71.332  1.00  0.00    -0.253 A  
HETATM   19  C   UNL     1     -10.625   5.644  72.148  1.00  0.00    -0.223 A  
HETATM   20  N   UNL     1     -11.070   5.682  73.474  1.00  0.00    -0.451 NA 
HETATM   21  C   UNL     1     -10.283   4.425  71.560  1.00  0.00    -0.167 A  
HETATM   22  C   UNL     1      -9.951   4.354  70.206  1.00  0.00    -0.248 A  
HETATM   23  H2  UNL     1     -12.045   5.982  73.478  1.00  0.00     0.000 HD 
HETATM   24  H1  UNL     1     -10.986   4.857  74.069  1.00  0.00     0.000 HD 
ENDBRANCH  13  16
ENDBRANCH  11  13
ENDBRANCH   6  11
ENDBRANCH   2   3
TORSDOF 4
ENDMDL
MODEL      237
REMARK 921   NORMALIZED FREE ENERGY PREDICTED BY IDOCK:   -3.36 KCAL/MOL
REMARK 922        TOTAL FREE ENERGY PREDICTED BY IDOCK:   -4.97 KCAL/MOL
REMARK 923 INTER-LIGAND FREE ENERGY PREDICTED BY IDOCK:   -4.29 KCAL/MOL
REMARK 924 INTRA-LIGAND FREE ENERGY PREDICTED BY IDOCK:   -0.69 KCAL/MOL
REMARK 927      BINDING AFFINITY PREDICTED BY RF-SCORE:    0.00 PKD
ROOT
HETATM    1  C   UNL     1     -10.676  13.869  65.401  1.00  0.00    -0.330 C  
HETATM    2  C   UNL     1      -9.781  13.937  66.630  1.00  0.00    -0.289 C  
ENDROOT
BRANCH   2   3
HETATM    3  N   UNL     1      -9.557  12.613  67.203  1.00  0.00    -0.202 N  
HETATM    4  C   UNL     1     -10.432  11.585  66.925  1.00  0.00    -0.235 C  
HETATM    5  C   UNL     1     -10.225  10.358  67.403  1.00  0.00    -0.259 C  
HETATM    6  C   UNL     1      -8.994  10.223  68.188  1.00  0.00    -0.130 C  
HETATM    7  N   UNL     1      -8.154  11.154  68.440  1.00  0.00    -0.133 N  
HETATM    8  O   UNL     1      -7.610  13.330  68.186  1.00  0.00    -0.116 OA 
HETATM    9  C   UNL     1      -8.395  12.411  67.959  1.00  0.00    -0.170 C  
HETATM   10  H   UNL     1      -7.318  10.962  68.992  1.00  0.00     0.000 HD 
BRANCH   6  11
HETATM   11  N   UNL     1      -8.784   8.931  68.679  1.00  0.00    -0.133 N  
HETATM   12  H   UNL     1      -9.029   8.148  68.073  1.00  0.00     0.000 HD 
BRANCH  11  13
HETATM   13  S   UNL     1      -8.159   8.576  70.191  1.00  0.00    -0.117 S  
HETATM   14  O   UNL     1      -7.050   7.678  69.929  1.00  0.00    -0.060 OA 
HETATM   15  O   UNL     1      -7.942   9.817  70.902  1.00  0.00    -0.279 OA 
BRANCH  13  16
HETATM   16  C   UNL     1      -9.432   7.643  70.992  1.00  0.00    -0.159 A  
HETATM   17  C   UNL     1      -9.208   7.101  72.259  1.00  0.00    -0.149 A  
HETATM   18  C   UNL     1     -10.228   6.378  72.886  1.00  0.00    -0.209 A  
HETATM   19  C   UNL     1     -11.452   6.160  72.244  1.00  0.00    -0.312 A  
HETATM   20  N   UNL     1     -12.500   5.524  72.920  1.00  0.00    -0.350 NA 
HETATM   21  C   UNL     1     -11.689   6.785  71.017  1.00  0.00    -0.406 A  
HETATM   22  C   UNL     1     -10.685   7.522  70.388  1.00  0.00    -0.248 A  
HETATM   23  H2  UNL     1     -12.679   6.032  73.786  1.00  0.00     0.000 HD 
HETATM   24  H1  UNL     1     -13.392   5.364  72.452  1.00  0.00     0.000 HD 
ENDBRANCH  13  16
ENDBRANCH  11  13
ENDBRANCH   6  11
ENDBRANCH   2   3
TORSDOF 4
ENDMDL
MODEL      238
REMARK 921   NORMALIZED FREE ENERGY PREDICTED BY IDOCK:   -3.33 KCAL/MOL
REMARK 922        TOTAL FREE ENERGY PREDICTED BY IDOCK:   -4.93 KCAL/MOL
REMARK 923 INTER-LIGAND FREE ENERGY PREDICTED BY IDOCK:   -4.47 KCAL/MOL
REMARK 924 INTRA-LIGAND FREE ENERGY PREDICTED BY IDOCK:   -0.47 KCAL/MOL
REMARK 927      BINDING AFFINITY PREDICTED BY RF-SCORE:    0.00 PKD
ROOT
HETATM    1  C   UNL     1      -8.353   6.268  66.004  1.00  0.00    -0.138 C  
HETATM    2  C   UNL     1      -8.785   5.304  67.099  1.00  0.00    -0.107 C  
ENDROOT
BRANCH   2   3
HETATM    3  N   UNL     1      -9.643   5.960  68.082  1.00  0.00    -0.118 N  
HETATM    4  C   UNL     1     -10.026   7.271  67.895  1.00  0.00    -0.158 C  
HETATM    5  C   UNL     1     -10.843   7.877  68.757  1.00  0.00     0.009 C  
HETATM    6  C   UNL     1     -11.299   7.017  69.854  1.00  0.00    -0.216 C  
HETATM    7  N   UNL     1     -10.976   5.793  70.036  1.00  0.00    -0.337 N  
HETATM    8  O   UNL     1      -9.789   4.020  69.302  1.00  0.00    -0.166 OA 
HETATM    9  C   UNL     1     -10.121   5.194  69.154  1.00  0.00    -0.204 C  
HETATM   10  H   UNL     1     -11.352   5.271  70.829  1.00  0.00     0.000 HD 
BRANCH   6  11
HETATM   11  N   UNL     1     -12.159   7.662  70.748  1.00  0.00    -0.484 N  
HETATM   12  H   UNL     1     -13.133   7.361  70.768  1.00  0.00     0.000 HD 
BRANCH  11  13
HETATM   13  S   UNL     1     -11.704   8.892  71.789  1.00  0.00    -0.385 S  
HETATM   14  O   UNL     1     -11.347   9.996  70.921  1.00  0.00    -0.322 OA 
HETATM   15  O   UNL     1     -12.737   9.053  72.790  1.00  0.00    -0.309 OA 
BRANCH  13  16
HETATM   16  C   UNL     1     -10.220   8.302  72.554  1.00  0.00    -0.316 A  
HETATM   17  C   UNL     1     -10.288   7.329  73.552  1.00  0.00    -0.412 A  
HETATM   18  C   UNL     1      -9.108   6.863  74.138  1.00  0.00    -0.238 A  
HETATM   19  C   UNL     1      -7.865   7.388  73.765  1.00  0.00    -0.115 A  
HETATM   20  N   UNL     1      -6.684   6.844  74.283  1.00  0.00    -0.082 NA 
HETATM   21  C   UNL     1      -7.810   8.295  72.704  1.00  0.00    -0.184 A  
HETATM   22  C   UNL     1      -8.981   8.756  72.099  1.00  0.00    -0.184 A  
HETATM   23  H2  UNL     1      -6.680   5.842  74.089  1.00  0.00     0.000 HD 
HETATM   24  H1  UNL     1      -5.778   7.227  74.011  1.00  0.00     0.000 HD 
ENDBRANCH  13  16
ENDBRANCH  11  13
ENDBRANCH   6  11
ENDBRANCH   2   3
TORSDOF 4
ENDMDL
MODEL      239
REMARK 921   NORMALIZED FREE ENERGY PREDICTED BY IDOCK:   -3.33 KCAL/MOL
REMARK 922        TOTAL FREE ENERGY PREDICTED BY IDOCK:   -4.93 KCAL/MOL
REMARK 923 INTER-LIGAND FREE ENERGY PREDICTED BY IDOCK:   -4.89 KCAL/MOL
REMARK 924 INTRA-LIGAND FREE ENERGY PREDICTED BY IDOCK:   -0.05 KCAL/MOL
REMARK 927      BINDING AFFINITY PREDICTED BY RF-SCORE:    0.00 PKD
ROOT
HETATM    1  C   UNL     1      -9.652  10.639  63.507  1.00  0.00    -0.366 C  
HETATM    2  C   UNL     1     -10.428  11.229  64.674  1.00  0.00    -0.325 C  
ENDROOT
BRANCH   2   3
HETATM    3  N   UNL     1     -10.463  10.313  65.811  1.00  0.00    -0.150 N  
HETATM    4  C   UNL     1      -9.761   9.128  65.762  1.00  0.00    -0.229 C  
HETATM    5  C   UNL     1      -9.745   8.295  66.803  1.00  0.00    -0.307 C  
HETATM    6  C   UNL     1     -10.492   8.782  67.968  1.00  0.00    -0.204 C  
HETATM    7  N   UNL     1     -11.131   9.887  68.047  1.00  0.00    -0.491 N  
HETATM    8  O   UNL     1     -11.762  11.785  67.002  1.00  0.00    -0.555 OA 
HETATM    9  C   UNL     1     -11.153  10.718  66.961  1.00  0.00    -0.174 C  
HETATM   10  H   UNL     1     -11.616  10.144  68.906  1.00  0.00     0.000 HD 
BRANCH   6  11
HETATM   11  N   UNL     1     -10.462   7.904  69.056  1.00  0.00    -0.246 N  
HETATM   12  H   UNL     1     -11.339   7.729  69.547  1.00  0.00     0.000 HD 
BRANCH  11  13
HETATM   13  S   UNL     1      -9.092   7.118  69.610  1.00  0.00    -0.139 S  
HETATM   14  O   UNL     1      -8.780   6.150  68.576  1.00  0.00    -0.113 OA 
HETATM   15  O   UNL     1      -8.117   8.113  69.998  1.00  0.00    -0.109 OA 
BRANCH  13  16
HETATM   16  C   UNL     1      -9.636   6.226  71.039  1.00  0.00    -0.175 A  
HETATM   17  C   UNL     1      -9.945   6.912  72.214  1.00  0.00    -0.176 A  
HETATM   18  C   UNL     1     -10.386   6.197  73.331  1.00  0.00    -0.253 A  
HETATM   19  C   UNL     1     -10.484   4.801  73.297  1.00  0.00    -0.202 A  
HETATM   20  N   UNL     1     -11.023   4.104  74.384  1.00  0.00    -0.184 NA 
HETATM   21  C   UNL     1     -10.258   4.141  72.087  1.00  0.00    -0.220 A  
HETATM   22  C   UNL     1      -9.832   4.846  70.960  1.00  0.00    -0.266 A  
HETATM   23  H2  UNL     1     -11.948   4.485  74.583  1.00  0.00     0.000 HD 
HETATM   24  H1  UNL     1     -11.094   3.086  74.359  1.00  0.00     0.000 HD 
ENDBRANCH  13  16
ENDBRANCH  11  13
ENDBRANCH   6  11
ENDBRANCH   2   3
TORSDOF 4
ENDMDL
MODEL      240
REMARK 921   NORMALIZED FREE ENERGY PREDICTED BY IDOCK:   -3.33 KCAL/MOL
REMARK 922        TOTAL FREE ENERGY PREDICTED BY IDOCK:   -4.92 KCAL/MOL
REMARK 923 INTER-LIGAND FREE ENERGY PREDICTED BY IDOCK:   -4.49 KCAL/MOL
REMARK 924 INTRA-LIGAND FREE ENERGY PREDICTED BY IDOCK:   -0.44 KCAL/MOL
REMARK 927      BINDING AFFINITY PREDICTED BY RF-SCORE:    0.00 PKD
ROOT
HETATM    1  C   UNL     1     -10.973  14.261  68.280  1.00  0.00    -0.261 C  
HETATM    2  C   UNL     1     -11.678  13.625  67.091  1.00  0.00    -0.383 C  
ENDROOT
BRANCH   2   3
HETATM    3  N   UNL     1     -11.194  12.270  66.844  1.00  0.00    -0.293 N  
HETATM    4  C   UNL     1     -11.502  11.258  67.728  1.00  0.00    -0.275 C  
HETATM    5  C   UNL     1     -11.105  10.005  67.502  1.00  0.00    -0.190 C  
HETATM    6  C   UNL     1     -10.374   9.827  66.244  1.00  0.00    -0.165 C  
HETATM    7  N   UNL     1     -10.097  10.745  65.397  1.00  0.00    -0.270 N  
HETATM    8  O   UNL     1     -10.239  12.933  64.864  1.00  0.00    -0.301 OA 
HETATM    9  C   UNL     1     -10.493  12.027  65.656  1.00  0.00    -0.256 C  
HETATM   10  H   UNL     1      -9.587  10.522  64.541  1.00  0.00     0.000 HD 
BRANCH   6  11
HETATM   11  N   UNL     1      -9.969   8.508  66.015  1.00  0.00    -0.465 N  
HETATM   12  H   UNL     1     -10.624   7.888  65.538  1.00  0.00     0.000 HD 
BRANCH  11  13
HETATM   13  S   UNL     1      -8.487   7.875  66.466  1.00  0.00    -0.140 S  
HETATM   14  O   UNL     1      -7.698   7.882  65.250  1.00  0.00    -0.085 OA 
HETATM   15  O   UNL     1      -8.024   8.580  67.642  1.00  0.00    -0.105 OA 
BRANCH  13  16
HETATM   16  C   UNL     1      -8.830   6.188  66.880  1.00  0.00    -0.117 A  
HETATM   17  C   UNL     1      -8.691   5.190  65.914  1.00  0.00    -0.135 A  
HETATM   18  C   UNL     1      -8.952   3.861  66.258  1.00  0.00    -0.132 A  
HETATM   19  C   UNL     1      -9.389   3.525  67.545  1.00  0.00    -0.206 A  
HETATM   20  N   UNL     1      -9.550   2.183  67.908  1.00  0.00    -0.380 NA 
HETATM   21  C   UNL     1      -9.437   4.524  68.520  1.00  0.00    -0.213 A  
HETATM   22  C   UNL     1      -9.163   5.852  68.193  1.00  0.00    -0.116 A  
HETATM   23  H2  UNL     1      -8.671   1.695  67.731  1.00  0.00     0.000 HD 
HETATM   24  H1  UNL     1      -9.868   1.938  68.846  1.00  0.00     0.000 HD 
ENDBRANCH  13  16
ENDBRANCH  11  13
ENDBRANCH   6  11
ENDBRANCH   2   3
TORSDOF 4
ENDMDL
MODEL      241
REMARK 921   NORMALIZED FREE ENERGY PREDICTED BY IDOCK:   -3.31 KCAL/MOL
REMARK 922        TOTAL FREE ENERGY PREDICTED BY IDOCK:   -4.90 KCAL/MOL
REMARK 923 INTER-LIGAND FREE ENERGY PREDICTED BY IDOCK:   -4.31 KCAL/MOL
REMARK 924 INTRA-LIGAND FREE ENERGY PREDICTED BY IDOCK:   -0.59 KCAL/MOL
REMARK 927      BINDING AFFINITY PREDICTED BY RF-SCORE:    0.00 PKD
ROOT
HETATM    1  C   UNL     1      -8.487   1.931  63.893  1.00  0.00    -0.081 C  
HETATM    2  C   UNL     1      -7.837   2.556  65.118  1.00  0.00    -0.078 C  
ENDROOT
BRANCH   2   3
HETATM    3  N   UNL     1      -8.478   3.817  65.480  1.00  0.00    -0.108 N  
HETATM    4  C   UNL     1      -9.492   3.831  66.414  1.00  0.00    -0.183 C  
HETATM    5  C   UNL     1     -10.065   4.976  66.789  1.00  0.00    -0.270 C  
HETATM    6  C   UNL     1      -9.490   6.167  66.155  1.00  0.00    -0.067 C  
HETATM    7  N   UNL     1      -8.535   6.182  65.305  1.00  0.00    -0.213 N  
HETATM    8  O   UNL     1      -7.058   4.977  64.097  1.00  0.00    -0.048 OA 
HETATM    9  C   UNL     1      -7.975   4.997  64.916  1.00  0.00    -0.099 C  
HETATM   10  H   UNL     1      -8.197   7.065  64.922  1.00  0.00     0.000 HD 
BRANCH   6  11
HETATM   11  N   UNL     1     -10.094   7.361  66.561  1.00  0.00    -0.454 N  
HETATM   12  H   UNL     1     -11.112   7.409  66.535  1.00  0.00     0.000 HD 
BRANCH  11  13
HETATM   13  S   UNL     1      -9.265   8.716  67.089  1.00  0.00    -0.150 S  
HETATM   14  O   UNL     1      -8.067   8.194  67.716  1.00  0.00    -0.124 OA 
HETATM   15  O   UNL     1      -9.167   9.652  65.990  1.00  0.00    -0.158 OA 
BRANCH  13  16
HETATM   16  C   UNL     1     -10.290   9.397  68.362  1.00  0.00    -0.205 A  
HETATM   17  C   UNL     1     -11.145  10.462  68.075  1.00  0.00    -0.359 A  
HETATM   18  C   UNL     1     -11.958  10.981  69.086  1.00  0.00    -0.394 A  
HETATM   19  C   UNL     1     -11.896  10.473  70.389  1.00  0.00    -0.340 A  
HETATM   20  N   UNL     1     -12.785  10.930  71.369  1.00  0.00    -0.420 NA 
HETATM   21  C   UNL     1     -11.102   9.351  70.636  1.00  0.00    -0.351 A  
HETATM   22  C   UNL     1     -10.297   8.813  69.630  1.00  0.00    -0.213 A  
HETATM   23  H2  UNL     1     -13.737  10.807  71.021  1.00  0.00     0.000 HD 
HETATM   24  H1  UNL     1     -12.740  10.560  72.318  1.00  0.00     0.000 HD 
ENDBRANCH  13  16
ENDBRANCH  11  13
ENDBRANCH   6  11
ENDBRANCH   2   3
TORSDOF 4
ENDMDL
MODEL      242
REMARK 921   NORMALIZED FREE ENERGY PREDICTED BY IDOCK:   -3.30 KCAL/MOL
REMARK 922        TOTAL FREE ENERGY PREDICTED BY IDOCK:   -4.89 KCAL/MOL
REMARK 923 INTER-LIGAND FREE ENERGY PREDICTED BY IDOCK:   -4.31 KCAL/MOL
REMARK 924 INTRA-LIGAND FREE ENERGY PREDICTED BY IDOCK:   -0.58 KCAL/MOL
REMARK 927      BINDING AFFINITY PREDICTED BY RF-SCORE:    0.00 PKD
ROOT
HETATM    1  C   UNL     1      -6.562   6.397  66.028  1.00  0.00    -0.048 C  
HETATM    2  C   UNL     1      -6.673   6.311  67.543  1.00  0.00    -0.061 C  
ENDROOT
BRANCH   2   3
HETATM    3  N   UNL     1      -7.426   7.436  68.089  1.00  0.00    -0.103 N  
HETATM    4  C   UNL     1      -6.795   8.639  68.321  1.00  0.00    -0.066 C  
HETATM    5  C   UNL     1      -7.471   9.692  68.781  1.00  0.00    -0.075 C  
HETATM    6  C   UNL     1      -8.906   9.448  68.963  1.00  0.00    -0.141 C  
HETATM    7  N   UNL     1      -9.519   8.350  68.732  1.00  0.00    -0.147 N  
HETATM    8  O   UNL     1      -9.363   6.203  68.053  1.00  0.00    -0.116 OA 
HETATM    9  C   UNL     1      -8.805   7.274  68.281  1.00  0.00    -0.127 C  
HETATM   10  H   UNL     1     -10.526   8.277  68.882  1.00  0.00     0.000 HD 
BRANCH   6  11
HETATM   11  N   UNL     1      -9.605  10.561  69.439  1.00  0.00    -0.357 N  
HETATM   12  H   UNL     1      -9.427  10.858  70.398  1.00  0.00     0.000 HD 
BRANCH  11  13
HETATM   13  S   UNL     1     -10.715  11.442  68.547  1.00  0.00    -0.214 S  
HETATM   14  O   UNL     1      -9.909  12.259  67.660  1.00  0.00    -0.190 OA 
HETATM   15  O   UNL     1     -11.699  10.530  68.007  1.00  0.00    -0.450 OA 
BRANCH  13  16
HETATM   16  C   UNL     1     -11.482  12.517  69.726  1.00  0.00    -0.141 A  
HETATM   17  C   UNL     1     -11.228  13.889  69.688  1.00  0.00    -0.196 A  
HETATM   18  C   UNL     1     -11.851  14.728  70.617  1.00  0.00    -0.364 A  
HETATM   19  C   UNL     1     -12.692  14.205  71.606  1.00  0.00    -0.349 A  
HETATM   20  N   UNL     1     -13.389  15.062  72.465  1.00  0.00    -0.384 NA 
HETATM   21  C   UNL     1     -13.003  12.844  71.572  1.00  0.00    -0.388 A  
HETATM   22  C   UNL     1     -12.400  11.998  70.640  1.00  0.00    -0.394 A  
HETATM   23  H2  UNL     1     -13.930  15.715  71.898  1.00  0.00     0.000 HD 
HETATM   24  H1  UNL     1     -14.002  14.681  73.186  1.00  0.00     0.000 HD 
ENDBRANCH  13  16
ENDBRANCH  11  13
ENDBRANCH   6  11
ENDBRANCH   2   3
TORSDOF 4
ENDMDL
MODEL      243
REMARK 921   NORMALIZED FREE ENERGY PREDICTED BY IDOCK:   -3.29 KCAL/MOL
REMARK 922        TOTAL FREE ENERGY PREDICTED BY IDOCK:   -4.88 KCAL/MOL
REMARK 923 INTER-LIGAND FREE ENERGY PREDICTED BY IDOCK:   -4.24 KCAL/MOL
REMARK 924 INTRA-LIGAND FREE ENERGY PREDICTED BY IDOCK:   -0.63 KCAL/MOL
REMARK 927      BINDING AFFINITY PREDICTED BY RF-SCORE:    0.00 PKD
ROOT
HETATM    1  C   UNL     1     -10.479   4.626  72.816  1.00  0.00    -0.261 C  
HETATM    2  C   UNL     1     -11.591   5.629  72.547  1.00  0.00    -0.246 C  
ENDROOT
BRANCH   2   3
HETATM    3  N   UNL     1     -11.414   6.291  71.258  1.00  0.00    -0.303 N  
HETATM    4  C   UNL     1     -10.833   5.611  70.209  1.00  0.00    -0.266 C  
HETATM    5  C   UNL     1     -10.699   6.182  69.011  1.00  0.00    -0.377 C  
HETATM    6  C   UNL     1     -11.252   7.538  68.930  1.00  0.00     0.309 C  
HETATM    7  N   UNL     1     -11.816   8.180  69.881  1.00  0.00    -0.180 N  
HETATM    8  O   UNL     1     -12.459   8.179  72.045  1.00  0.00    -0.311 OA 
HETATM    9  C   UNL     1     -11.925   7.587  71.108  1.00  0.00    -0.308 C  
HETATM   10  H   UNL     1     -12.178   9.121  69.726  1.00  0.00     0.000 HD 
BRANCH   6  11
HETATM   11  N   UNL     1     -11.111   8.123  67.668  1.00  0.00    -0.416 N  
HETATM   12  H   UNL     1     -11.614   7.698  66.890  1.00  0.00     0.000 HD 
BRANCH  11  13
HETATM   13  S   UNL     1     -10.175   9.473  67.343  1.00  0.00    -0.244 S  
HETATM   14  O   UNL     1     -11.131  10.515  67.025  1.00  0.00    -0.236 OA 
HETATM   15  O   UNL     1      -9.233   9.651  68.427  1.00  0.00    -0.133 OA 
BRANCH  13  16
HETATM   16  C   UNL     1      -9.304   9.064  65.857  1.00  0.00    -0.242 A  
HETATM   17  C   UNL     1      -9.523   9.804  64.694  1.00  0.00    -0.295 A  
HETATM   18  C   UNL     1      -8.818   9.479  63.531  1.00  0.00    -0.235 A  
HETATM   19  C   UNL     1      -7.929   8.399  63.509  1.00  0.00    -0.159 A  
HETATM   20  N   UNL     1      -7.153   8.145  62.372  1.00  0.00    -0.089 NA 
HETATM   21  C   UNL     1      -7.657   7.727  64.704  1.00  0.00    -0.113 A  
HETATM   22  C   UNL     1      -8.342   8.053  65.875  1.00  0.00    -0.136 A  
HETATM   23  H2  UNL     1      -6.634   8.992  62.142  1.00  0.00     0.000 HD 
HETATM   24  H1  UNL     1      -6.505   7.357  62.355  1.00  0.00     0.000 HD 
ENDBRANCH  13  16
ENDBRANCH  11  13
ENDBRANCH   6  11
ENDBRANCH   2   3
TORSDOF 4
ENDMDL
MODEL      244
REMARK 921   NORMALIZED FREE ENERGY PREDICTED BY IDOCK:   -3.28 KCAL/MOL
REMARK 922        TOTAL FREE ENERGY PREDICTED BY IDOCK:   -4.87 KCAL/MOL
REMARK 923 INTER-LIGAND FREE ENERGY PREDICTED BY IDOCK:   -4.29 KCAL/MOL
REMARK 924 INTRA-LIGAND FREE ENERGY PREDICTED BY IDOCK:   -0.58 KCAL/MOL
REMARK 927      BINDING AFFINITY PREDICTED BY RF-SCORE:    0.00 PKD
ROOT
HETATM    1  C   UNL     1     -11.969  12.716  63.427  1.00  0.00    -0.613 C  
HETATM    2  C   UNL     1     -10.735  13.004  64.268  1.00  0.00    -0.407 C  
ENDROOT
BRANCH   2   3
HETATM    3  N   UNL     1     -10.351  11.845  65.070  1.00  0.00    -0.277 N  
HETATM    4  C   UNL     1     -10.018  10.659  64.450  1.00  0.00    -0.350 C  
HETATM    5  C   UNL     1      -9.626   9.600  65.159  1.00  0.00    -0.324 C  
HETATM    6  C   UNL     1      -9.551   9.843  66.604  1.00  0.00    -0.184 C  
HETATM    7  N   UNL     1      -9.831  10.939  67.199  1.00  0.00    -0.181 N  
HETATM    8  O   UNL     1     -10.533  13.075  67.000  1.00  0.00    -0.245 OA 
HETATM    9  C   UNL     1     -10.253  12.008  66.458  1.00  0.00    -0.206 C  
HETATM   10  H   UNL     1      -9.741  11.015  68.213  1.00  0.00     0.000 HD 
BRANCH   6  11
HETATM   11  N   UNL     1      -9.132   8.728  67.336  1.00  0.00    -0.132 N  
HETATM   12  H   UNL     1      -8.137   8.506  67.332  1.00  0.00     0.000 HD 
BRANCH  11  13
HETATM   13  S   UNL     1     -10.147   7.732  68.219  1.00  0.00    -0.197 S  
HETATM   14  O   UNL     1     -10.726   8.598  69.227  1.00  0.00    -0.213 OA 
HETATM   15  O   UNL     1     -10.998   7.010  67.298  1.00  0.00    -0.325 OA 
BRANCH  13  16
HETATM   16  C   UNL     1      -9.059   6.600  69.037  1.00  0.00    -0.133 A  
HETATM   17  C   UNL     1      -8.806   6.738  70.403  1.00  0.00    -0.152 A  
HETATM   18  C   UNL     1      -7.956   5.829  71.039  1.00  0.00    -0.115 A  
HETATM   19  C   UNL     1      -7.326   4.809  70.316  1.00  0.00    -0.051 A  
HETATM   20  N   UNL     1      -6.558   3.844  70.979  1.00  0.00    -0.030 NA 
HETATM   21  C   UNL     1      -7.660   4.633  68.972  1.00  0.00    -0.060 A  
HETATM   22  C   UNL     1      -8.520   5.524  68.329  1.00  0.00    -0.097 A  
HETATM   23  H2  UNL     1      -7.137   3.415  71.701  1.00  0.00     0.000 HD 
HETATM   24  H1  UNL     1      -6.099   3.101  70.453  1.00  0.00     0.000 HD 
ENDBRANCH  13  16
ENDBRANCH  11  13
ENDBRANCH   6  11
ENDBRANCH   2   3
TORSDOF 4
ENDMDL
MODEL      245
REMARK 921   NORMALIZED FREE ENERGY PREDICTED BY IDOCK:   -3.27 KCAL/MOL
REMARK 922        TOTAL FREE ENERGY PREDICTED BY IDOCK:   -4.86 KCAL/MOL
REMARK 923 INTER-LIGAND FREE ENERGY PREDICTED BY IDOCK:   -3.95 KCAL/MOL
REMARK 924 INTRA-LIGAND FREE ENERGY PREDICTED BY IDOCK:   -0.91 KCAL/MOL
REMARK 927      BINDING AFFINITY PREDICTED BY RF-SCORE:    0.00 PKD
ROOT
HETATM    1  C   UNL     1     -13.232  10.149  71.623  1.00  0.00    -0.518 C  
HETATM    2  C   UNL     1     -11.768  10.109  71.214  1.00  0.00    -0.341 C  
ENDROOT
BRANCH   2   3
HETATM    3  N   UNL     1     -11.443   8.873  70.507  1.00  0.00    -0.238 N  
HETATM    4  C   UNL     1     -11.856   7.661  71.016  1.00  0.00    -0.285 C  
HETATM    5  C   UNL     1     -11.606   6.523  70.367  1.00  0.00    -0.470 C  
HETATM    6  C   UNL     1     -10.911   6.704  69.089  1.00  0.00    -0.287 C  
HETATM    7  N   UNL     1     -10.539   7.819  68.584  1.00  0.00    -0.342 N  
HETATM    8  O   UNL     1     -10.437  10.061  68.819  1.00  0.00    -0.190 OA 
HETATM    9  C   UNL     1     -10.784   8.973  69.274  1.00  0.00    -0.174 C  
HETATM   10  H   UNL     1     -10.066   7.846  67.681  1.00  0.00     0.000 HD 
BRANCH   6  11
HETATM   11  N   UNL     1     -10.661   5.505  68.415  1.00  0.00    -0.176 N  
HETATM   12  H   UNL     1     -11.465   4.962  68.101  1.00  0.00     0.000 HD 
BRANCH  11  13
HETATM   13  S   UNL     1      -9.136   4.897  68.086  1.00  0.00    -0.119 S  
HETATM   14  O   UNL     1      -9.343   3.478  67.872  1.00  0.00    -0.168 OA 
HETATM   15  O   UNL     1      -8.530   5.711  67.054  1.00  0.00    -0.111 OA 
BRANCH  13  16
HETATM   16  C   UNL     1      -8.242   5.092  69.601  1.00  0.00    -0.088 A  
HETATM   17  C   UNL     1      -7.307   6.120  69.733  1.00  0.00    -0.079 A  
HETATM   18  C   UNL     1      -6.618   6.270  70.940  1.00  0.00    -0.053 A  
HETATM   19  C   UNL     1      -6.825   5.380  72.000  1.00  0.00    -0.066 A  
HETATM   20  N   UNL     1      -6.208   5.599  73.237  1.00  0.00    -0.058 NA 
HETATM   21  C   UNL     1      -7.827   4.414  71.881  1.00  0.00    -0.085 A  
HETATM   22  C   UNL     1      -8.534   4.264  70.687  1.00  0.00    -0.096 A  
HETATM   23  H2  UNL     1      -6.450   6.537  73.555  1.00  0.00     0.000 HD 
HETATM   24  H1  UNL     1      -6.358   4.950  74.010  1.00  0.00     0.000 HD 
ENDBRANCH  13  16
ENDBRANCH  11  13
ENDBRANCH   6  11
ENDBRANCH   2   3
TORSDOF 4
ENDMDL
MODEL      246
REMARK 921   NORMALIZED FREE ENERGY PREDICTED BY IDOCK:   -3.27 KCAL/MOL
REMARK 922        TOTAL FREE ENERGY PREDICTED BY IDOCK:   -4.86 KCAL/MOL
REMARK 923 INTER-LIGAND FREE ENERGY PREDICTED BY IDOCK:   -4.48 KCAL/MOL
REMARK 924 INTRA-LIGAND FREE ENERGY PREDICTED BY IDOCK:   -0.37 KCAL/MOL
REMARK 927      BINDING AFFINITY PREDICTED BY RF-SCORE:    0.00 PKD
ROOT
HETATM    1  C   UNL     1     -12.002  13.742  67.979  1.00  0.00    -0.390 C  
HETATM    2  C   UNL     1     -11.546  12.364  67.525  1.00  0.00    -0.365 C  
ENDROOT
BRANCH   2   3
HETATM    3  N   UNL     1     -11.156  11.529  68.658  1.00  0.00    -0.218 N  
HETATM    4  C   UNL     1     -12.095  11.164  69.599  1.00  0.00    -0.336 C  
HETATM    5  C   UNL     1     -11.771  10.370  70.620  1.00  0.00    -0.444 C  
HETATM    6  C   UNL     1     -10.377   9.915  70.604  1.00  0.00    -0.187 C  
HETATM    7  N   UNL     1      -9.494  10.220  69.730  1.00  0.00    -0.393 N  
HETATM    8  O   UNL     1      -9.013  11.369  67.848  1.00  0.00    -0.143 OA 
HETATM    9  C   UNL     1      -9.839  11.053  68.703  1.00  0.00    -0.193 C  
HETATM   10  H   UNL     1      -8.547   9.847  69.799  1.00  0.00     0.000 HD 
BRANCH   6  11
HETATM   11  N   UNL     1     -10.051   9.077  71.675  1.00  0.00    -0.338 N  
HETATM   12  H   UNL     1      -9.440   9.452  72.401  1.00  0.00     0.000 HD 
BRANCH  11  13
HETATM   13  S   UNL     1     -10.592   7.504  71.853  1.00  0.00    -0.216 S  
HETATM   14  O   UNL     1     -11.197   7.468  73.170  1.00  0.00    -0.369 OA 
HETATM   15  O   UNL     1     -11.367   7.149  70.683  1.00  0.00    -0.272 OA 
BRANCH  13  16
HETATM   16  C   UNL     1      -9.116   6.528  71.908  1.00  0.00    -0.148 A  
HETATM   17  C   UNL     1      -8.466   6.314  73.124  1.00  0.00    -0.116 A  
HETATM   18  C   UNL     1      -7.309   5.530  73.154  1.00  0.00    -0.095 A  
HETATM   19  C   UNL     1      -6.775   4.992  71.978  1.00  0.00    -0.048 A  
HETATM   20  N   UNL     1      -5.676   4.126  72.032  1.00  0.00    -0.008 NA 
HETATM   21  C   UNL     1      -7.488   5.142  70.786  1.00  0.00    -0.074 A  
HETATM   22  C   UNL     1      -8.653   5.909  70.745  1.00  0.00    -0.130 A  
HETATM   23  H2  UNL     1      -5.905   3.357  72.661  1.00  0.00     0.000 HD 
HETATM   24  H1  UNL     1      -5.287   3.734  71.174  1.00  0.00     0.000 HD 
ENDBRANCH  13  16
ENDBRANCH  11  13
ENDBRANCH   6  11
ENDBRANCH   2   3
TORSDOF 4
ENDMDL
MODEL      247
REMARK 921   NORMALIZED FREE ENERGY PREDICTED BY IDOCK:   -3.26 KCAL/MOL
REMARK 922        TOTAL FREE ENERGY PREDICTED BY IDOCK:   -4.84 KCAL/MOL
REMARK 923 INTER-LIGAND FREE ENERGY PREDICTED BY IDOCK:   -3.97 KCAL/MOL
REMARK 924 INTRA-LIGAND FREE ENERGY PREDICTED BY IDOCK:   -0.87 KCAL/MOL
REMARK 927      BINDING AFFINITY PREDICTED BY RF-SCORE:    0.00 PKD
ROOT
HETATM    1  C   UNL     1      -7.348   5.506  65.572  1.00  0.00    -0.073 C  
HETATM    2  C   UNL     1      -8.107   4.652  66.577  1.00  0.00    -0.103 C  
ENDROOT
BRANCH   2   3
HETATM    3  N   UNL     1      -8.991   5.462  67.409  1.00  0.00    -0.109 N  
HETATM    4  C   UNL     1      -9.796   6.420  66.829  1.00  0.00    -0.162 C  
HETATM    5  C   UNL     1     -10.641   7.144  67.564  1.00  0.00    -0.348 C  
HETATM    6  C   UNL     1     -10.648   6.791  68.987  1.00  0.00    -0.230 C  
HETATM    7  N   UNL     1      -9.929   5.892  69.545  1.00  0.00    -0.173 N  
HETATM    8  O   UNL     1      -8.345   4.306  69.284  1.00  0.00    -0.072 OA 
HETATM    9  C   UNL     1      -9.053   5.175  68.779  1.00  0.00    -0.114 C  
HETATM   10  H   UNL     1     -10.009   5.712  70.546  1.00  0.00     0.000 HD 
BRANCH   6  11
HETATM   11  N   UNL     1     -11.542   7.552  69.746  1.00  0.00    -0.466 N  
HETATM   12  H   UNL     1     -12.539   7.374  69.622  1.00  0.00     0.000 HD 
BRANCH  11  13
HETATM   13  S   UNL     1     -11.095   8.733  70.845  1.00  0.00    -0.282 S  
HETATM   14  O   UNL     1     -12.286   9.540  71.023  1.00  0.00    -0.300 OA 
HETATM   15  O   UNL     1     -10.470   8.091  71.981  1.00  0.00    -0.215 OA 
BRANCH  13  16
HETATM   16  C   UNL     1      -9.901   9.715  69.982  1.00  0.00    -0.246 A  
HETATM   17  C   UNL     1     -10.322  10.701  69.089  1.00  0.00    -0.242 A  
HETATM   18  C   UNL     1      -9.368  11.478  68.425  1.00  0.00    -0.194 A  
HETATM   19  C   UNL     1      -8.000  11.252  68.616  1.00  0.00    -0.145 A  
HETATM   20  N   UNL     1      -7.055  12.101  68.026  1.00  0.00    -0.087 NA 
HETATM   21  C   UNL     1      -7.599  10.324  69.579  1.00  0.00    -0.150 A  
HETATM   22  C   UNL     1      -8.542   9.553  70.260  1.00  0.00    -0.258 A  
HETATM   23  H2  UNL     1      -7.264  13.059  68.308  1.00  0.00     0.000 HD 
HETATM   24  H1  UNL     1      -6.058  11.937  68.165  1.00  0.00     0.000 HD 
ENDBRANCH  13  16
ENDBRANCH  11  13
ENDBRANCH   6  11
ENDBRANCH   2   3
TORSDOF 4
ENDMDL
MODEL      248
REMARK 921   NORMALIZED FREE ENERGY PREDICTED BY IDOCK:   -3.25 KCAL/MOL
REMARK 922        TOTAL FREE ENERGY PREDICTED BY IDOCK:   -4.83 KCAL/MOL
REMARK 923 INTER-LIGAND FREE ENERGY PREDICTED BY IDOCK:   -4.20 KCAL/MOL
REMARK 924 INTRA-LIGAND FREE ENERGY PREDICTED BY IDOCK:   -0.63 KCAL/MOL
REMARK 927      BINDING AFFINITY PREDICTED BY RF-SCORE:    0.00 PKD
ROOT
HETATM    1  C   UNL     1      -7.352  12.987  68.422  1.00  0.00    -0.116 C  
HETATM    2  C   UNL     1      -6.480  11.893  67.824  1.00  0.00    -0.084 C  
ENDROOT
BRANCH   2   3
HETATM    3  N   UNL     1      -6.811  10.583  68.376  1.00  0.00    -0.063 N  
HETATM    4  C   UNL     1      -6.858  10.403  69.742  1.00  0.00    -0.130 C  
HETATM    5  C   UNL     1      -7.198   9.226  70.269  1.00  0.00    -0.087 C  
HETATM    6  C   UNL     1      -7.542   8.204  69.276  1.00  0.00    -0.095 C  
HETATM    7  N   UNL     1      -7.529   8.352  68.005  1.00  0.00    -0.096 N  
HETATM    8  O   UNL     1      -7.131   9.735  66.266  1.00  0.00    -0.090 OA 
HETATM    9  C   UNL     1      -7.157   9.560  67.483  1.00  0.00    -0.085 C  
HETATM   10  H   UNL     1      -7.793   7.581  67.391  1.00  0.00     0.000 HD 
BRANCH   6  11
HETATM   11  N   UNL     1      -7.903   6.977  69.840  1.00  0.00    -0.112 N  
HETATM   12  H   UNL     1      -7.249   6.545  70.492  1.00  0.00     0.000 HD 
BRANCH  11  13
HETATM   13  S   UNL     1      -9.333   6.166  69.522  1.00  0.00    -0.137 S  
HETATM   14  O   UNL     1      -9.667   6.529  68.159  1.00  0.00    -0.126 OA 
HETATM   15  O   UNL     1      -9.164   4.776  69.888  1.00  0.00    -0.108 OA 
BRANCH  13  16
HETATM   16  C   UNL     1     -10.523   6.923  70.592  1.00  0.00    -0.210 A  
HETATM   17  C   UNL     1     -10.101   7.787  71.604  1.00  0.00    -0.224 A  
HETATM   18  C   UNL     1     -11.053   8.389  72.432  1.00  0.00    -0.431 A  
HETATM   19  C   UNL     1     -12.415   8.105  72.285  1.00  0.00    -0.301 A  
HETATM   20  N   UNL     1     -13.366   8.789  73.052  1.00  0.00    -0.903 NA 
HETATM   21  C   UNL     1     -12.824   7.309  71.213  1.00  0.00    -0.391 A  
HETATM   22  C   UNL     1     -11.885   6.715  70.368  1.00  0.00    -0.407 A  
HETATM   23  H2  UNL     1     -13.231   9.790  72.912  1.00  0.00     0.000 HD 
HETATM   24  H1  UNL     1     -14.359   8.582  72.945  1.00  0.00     0.000 HD 
ENDBRANCH  13  16
ENDBRANCH  11  13
ENDBRANCH   6  11
ENDBRANCH   2   3
TORSDOF 4
ENDMDL
MODEL      249
REMARK 921   NORMALIZED FREE ENERGY PREDICTED BY IDOCK:   -3.21 KCAL/MOL
REMARK 922        TOTAL FREE ENERGY PREDICTED BY IDOCK:   -4.79 KCAL/MOL
REMARK 923 INTER-LIGAND FREE ENERGY PREDICTED BY IDOCK:   -4.62 KCAL/MOL
REMARK 924 INTRA-LIGAND FREE ENERGY PREDICTED BY IDOCK:   -0.17 KCAL/MOL
REMARK 927      BINDING AFFINITY PREDICTED BY RF-SCORE:    0.00 PKD
ROOT
HETATM    1  C   UNL     1      -5.561  14.280  72.805  1.00  0.00    -0.079 C  
HETATM    2  C   UNL     1      -5.129  13.932  71.388  1.00  0.00    -0.150 C  
ENDROOT
BRANCH   2   3
HETATM    3  N   UNL     1      -6.247  14.018  70.453  1.00  0.00    -0.156 N  
HETATM    4  C   UNL     1      -6.700  15.250  70.033  1.00  0.00    -0.104 C  
HETATM    5  C   UNL     1      -7.692  15.352  69.147  1.00  0.00    -0.207 C  
HETATM    6  C   UNL     1      -8.194  14.062  68.662  1.00  0.00    -0.103 C  
HETATM    7  N   UNL     1      -7.775  12.908  69.018  1.00  0.00    -0.328 N  
HETATM    8  O   UNL     1      -6.348  11.729  70.309  1.00  0.00    -0.167 OA 
HETATM    9  C   UNL     1      -6.772  12.823  69.943  1.00  0.00     0.250 C  
HETATM   10  H   UNL     1      -8.183  12.063  68.618  1.00  0.00     0.000 HD 
BRANCH   6  11
HETATM   11  N   UNL     1      -9.229  14.182  67.730  1.00  0.00    -0.186 N  
HETATM   12  H   UNL     1      -9.191  13.589  66.901  1.00  0.00     0.000 HD 
BRANCH  11  13
HETATM   13  S   UNL     1     -10.528  15.228  67.876  1.00  0.00    -0.258 S  
HETATM   14  O   UNL     1      -9.932  16.549  67.931  1.00  0.00    -0.237 OA 
HETATM   15  O   UNL     1     -11.497  14.905  66.851  1.00  0.00    -0.351 OA 
BRANCH  13  16
HETATM   16  C   UNL     1     -11.207  14.874  69.473  1.00  0.00    -0.277 A  
HETATM   17  C   UNL     1     -11.159  15.837  70.481  1.00  0.00    -0.383 A  
HETATM   18  C   UNL     1     -11.711  15.549  71.732  1.00  0.00    -0.509 A  
HETATM   19  C   UNL     1     -12.275  14.296  71.996  1.00  0.00    -0.121 A  
HETATM   20  N   UNL     1     -12.916  14.052  73.217  1.00  0.00    -0.421 NA 
HETATM   21  C   UNL     1     -12.395  13.378  70.950  1.00  0.00    -0.436 A  
HETATM   22  C   UNL     1     -11.861  13.660  69.691  1.00  0.00    -0.396 A  
HETATM   23  H2  UNL     1     -13.637  14.762  73.348  1.00  0.00     0.000 HD 
HETATM   24  H1  UNL     1     -13.327  13.139  73.410  1.00  0.00     0.000 HD 
ENDBRANCH  13  16
ENDBRANCH  11  13
ENDBRANCH   6  11
ENDBRANCH   2   3
TORSDOF 4
ENDMDL
MODEL      250
REMARK 921   NORMALIZED FREE ENERGY PREDICTED BY IDOCK:   -3.20 KCAL/MOL
REMARK 922        TOTAL FREE ENERGY PREDICTED BY IDOCK:   -4.77 KCAL/MOL
REMARK 923 INTER-LIGAND FREE ENERGY PREDICTED BY IDOCK:   -4.51 KCAL/MOL
REMARK 924 INTRA-LIGAND FREE ENERGY PREDICTED BY IDOCK:   -0.26 KCAL/MOL
REMARK 927      BINDING AFFINITY PREDICTED BY RF-SCORE:    0.00 PKD
ROOT
HETATM    1  C   UNL     1     -11.639  11.826  69.168  1.00  0.00    -0.372 C  
HETATM    2  C   UNL     1     -12.203  10.771  70.108  1.00  0.00    -0.346 C  
ENDROOT
BRANCH   2   3
HETATM    3  N   UNL     1     -11.166   9.848  70.560  1.00  0.00    -0.305 N  
HETATM    4  C   UNL     1      -9.860  10.030  70.160  1.00  0.00    -0.150 C  
HETATM    5  C   UNL     1      -8.889   9.224  70.592  1.00  0.00    -0.287 C  
HETATM    6  C   UNL     1      -9.343   8.194  71.532  1.00  0.00    -0.160 C  
HETATM    7  N   UNL     1     -10.544   8.019  71.936  1.00  0.00    -0.231 N  
HETATM    8  O   UNL     1     -12.694   8.698  71.831  1.00  0.00    -0.325 OA 
HETATM    9  C   UNL     1     -11.529   8.842  71.465  1.00  0.00    -0.305 C  
HETATM   10  H   UNL     1     -10.763   7.276  72.600  1.00  0.00     0.000 HD 
BRANCH   6  11
HETATM   11  N   UNL     1      -8.317   7.359  71.983  1.00  0.00    -0.105 N  
HETATM   12  H   UNL     1      -7.938   7.534  72.914  1.00  0.00     0.000 HD 
BRANCH  11  13
HETATM   13  S   UNL     1      -7.664   6.092  71.106  1.00  0.00    -0.111 S  
HETATM   14  O   UNL     1      -6.337   6.544  70.736  1.00  0.00    -0.041 OA 
HETATM   15  O   UNL     1      -7.835   4.871  71.864  1.00  0.00    -0.102 OA 
BRANCH  13  16
HETATM   16  C   UNL     1      -8.642   6.020  69.631  1.00  0.00    -0.126 A  
HETATM   17  C   UNL     1      -8.054   6.270  68.391  1.00  0.00    -0.112 A  
HETATM   18  C   UNL     1      -8.835   6.196  67.234  1.00  0.00    -0.107 A  
HETATM   19  C   UNL     1     -10.204   5.915  67.309  1.00  0.00    -0.200 A  
HETATM   20  N   UNL     1     -10.955   5.743  66.140  1.00  0.00    -0.703 NA 
HETATM   21  C   UNL     1     -10.755   5.580  68.548  1.00  0.00    -0.161 A  
HETATM   22  C   UNL     1      -9.982   5.634  69.709  1.00  0.00    -0.264 A  
HETATM   23  H2  UNL     1     -10.509   5.019  65.576  1.00  0.00     0.000 HD 
HETATM   24  H1  UNL     1     -11.953   5.538  66.195  1.00  0.00     0.000 HD 
ENDBRANCH  13  16
ENDBRANCH  11  13
ENDBRANCH   6  11
ENDBRANCH   2   3
TORSDOF 4
ENDMDL
MODEL      251
REMARK 921   NORMALIZED FREE ENERGY PREDICTED BY IDOCK:   -3.19 KCAL/MOL
REMARK 922        TOTAL FREE ENERGY PREDICTED BY IDOCK:   -4.76 KCAL/MOL
REMARK 923 INTER-LIGAND FREE ENERGY PREDICTED BY IDOCK:   -4.67 KCAL/MOL
REMARK 924 INTRA-LIGAND FREE ENERGY PREDICTED BY IDOCK:   -0.09 KCAL/MOL
REMARK 927      BINDING AFFINITY PREDICTED BY RF-SCORE:    0.00 PKD
ROOT
HETATM    1  C   UNL     1     -10.668   4.508  73.403  1.00  0.00    -0.320 C  
HETATM    2  C   UNL     1      -9.677   5.595  73.791  1.00  0.00    -0.157 C  
ENDROOT
BRANCH   2   3
HETATM    3  N   UNL     1      -9.776   6.750  72.903  1.00  0.00    -0.152 N  
HETATM    4  C   UNL     1     -10.839   7.620  73.021  1.00  0.00    -0.400 C  
HETATM    5  C   UNL     1     -10.929   8.704  72.249  1.00  0.00    -0.392 C  
HETATM    6  C   UNL     1      -9.798   8.879  71.330  1.00  0.00    -0.306 C  
HETATM    7  N   UNL     1      -8.790   8.099  71.219  1.00  0.00    -0.137 N  
HETATM    8  O   UNL     1      -7.773   6.210  71.919  1.00  0.00    -0.095 OA 
HETATM    9  C   UNL     1      -8.726   6.982  72.004  1.00  0.00    -0.123 C  
HETATM   10  H   UNL     1      -8.046   8.308  70.554  1.00  0.00     0.000 HD 
BRANCH   6  11
HETATM   11  N   UNL     1      -9.900  10.021  70.531  1.00  0.00    -0.361 N  
HETATM   12  H   UNL     1      -9.074  10.611  70.440  1.00  0.00     0.000 HD 
BRANCH  11  13
HETATM   13  S   UNL     1     -11.282  10.489  69.710  1.00  0.00    -0.318 S  
HETATM   14  O   UNL     1     -12.082   9.283  69.618  1.00  0.00     0.484 OA 
HETATM   15  O   UNL     1     -11.816  11.673  70.347  1.00  0.00    -0.343 OA 
BRANCH  13  16
HETATM   16  C   UNL     1     -10.718  10.891  68.081  1.00  0.00    -0.214 A  
HETATM   17  C   UNL     1     -10.520   9.879  67.141  1.00  0.00    -0.305 A  
HETATM   18  C   UNL     1     -10.088  10.213  65.854  1.00  0.00    -0.325 A  
HETATM   19  C   UNL     1      -9.814  11.542  65.511  1.00  0.00    -0.234 A  
HETATM   20  N   UNL     1      -9.481  11.876  64.193  1.00  0.00    -0.474 NA 
HETATM   21  C   UNL     1     -10.103  12.548  66.435  1.00  0.00    -0.255 A  
HETATM   22  C   UNL     1     -10.551  12.229  67.718  1.00  0.00    -0.241 A  
HETATM   23  H2  UNL     1     -10.218  11.532  63.578  1.00  0.00     0.000 HD 
HETATM   24  H1  UNL     1      -9.281  12.845  63.943  1.00  0.00     0.000 HD 
ENDBRANCH  13  16
ENDBRANCH  11  13
ENDBRANCH   6  11
ENDBRANCH   2   3
TORSDOF 4
ENDMDL
MODEL      252
REMARK 921   NORMALIZED FREE ENERGY PREDICTED BY IDOCK:   -3.16 KCAL/MOL
REMARK 922        TOTAL FREE ENERGY PREDICTED BY IDOCK:   -4.72 KCAL/MOL
REMARK 923 INTER-LIGAND FREE ENERGY PREDICTED BY IDOCK:   -4.10 KCAL/MOL
REMARK 924 INTRA-LIGAND FREE ENERGY PREDICTED BY IDOCK:   -0.62 KCAL/MOL
REMARK 927      BINDING AFFINITY PREDICTED BY RF-SCORE:    0.00 PKD
ROOT
HETATM    1  C   UNL     1     -11.919  14.420  70.931  1.00  0.00    -0.393 C  
HETATM    2  C   UNL     1     -12.971  13.341  70.721  1.00  0.00    -0.026 C  
ENDROOT
BRANCH   2   3
HETATM    3  N   UNL     1     -12.359  12.035  70.494  1.00  0.00    -0.319 N  
HETATM    4  C   UNL     1     -11.455  11.868  69.467  1.00  0.00    -0.288 C  
HETATM    5  C   UNL     1     -10.853  10.695  69.266  1.00  0.00    -0.282 C  
HETATM    6  C   UNL     1     -11.214   9.663  70.243  1.00  0.00    -0.271 C  
HETATM    7  N   UNL     1     -12.031   9.800  71.218  1.00  0.00    -0.357 N  
HETATM    8  O   UNL     1     -13.448  11.168  72.320  1.00  0.00    -0.337 OA 
HETATM    9  C   UNL     1     -12.655  11.003  71.395  1.00  0.00    -0.393 C  
HETATM   10  H   UNL     1     -12.214   9.023  71.853  1.00  0.00     0.000 HD 
BRANCH   6  11
HETATM   11  N   UNL     1     -10.572   8.440  70.026  1.00  0.00    -0.232 N  
HETATM   12  H   UNL     1      -9.683   8.454  69.526  1.00  0.00     0.000 HD 
BRANCH  11  13
HETATM   13  S   UNL     1     -11.156   6.954  70.530  1.00  0.00    -0.307 S  
HETATM   14  O   UNL     1     -11.236   7.060  71.973  1.00  0.00    -0.240 OA 
HETATM   15  O   UNL     1     -12.336   6.638  69.754  1.00  0.00     0.131 OA 
BRANCH  13  16
HETATM   16  C   UNL     1      -9.862   5.811  70.141  1.00  0.00    -0.184 A  
HETATM   17  C   UNL     1      -9.323   5.778  68.854  1.00  0.00    -0.141 A  
HETATM   18  C   UNL     1      -8.292   4.880  68.564  1.00  0.00    -0.083 A  
HETATM   19  C   UNL     1      -7.823   3.988  69.536  1.00  0.00    -0.052 A  
HETATM   20  N   UNL     1      -6.724   3.164  69.267  1.00  0.00    -0.034 NA 
HETATM   21  C   UNL     1      -8.312   4.096  70.840  1.00  0.00    -0.092 A  
HETATM   22  C   UNL     1      -9.330   5.000  71.146  1.00  0.00    -0.199 A  
HETATM   23  H2  UNL     1      -5.946   3.753  68.971  1.00  0.00     0.000 HD 
HETATM   24  H1  UNL     1      -6.383   2.513  69.975  1.00  0.00     0.000 HD 
ENDBRANCH  13  16
ENDBRANCH  11  13
ENDBRANCH   6  11
ENDBRANCH   2   3
TORSDOF 4
ENDMDL
MODEL      253
REMARK 921   NORMALIZED FREE ENERGY PREDICTED BY IDOCK:   -3.14 KCAL/MOL
REMARK 922        TOTAL FREE ENERGY PREDICTED BY IDOCK:   -4.70 KCAL/MOL
REMARK 923 INTER-LIGAND FREE ENERGY PREDICTED BY IDOCK:   -4.18 KCAL/MOL
REMARK 924 INTRA-LIGAND FREE ENERGY PREDICTED BY IDOCK:   -0.52 KCAL/MOL
REMARK 927      BINDING AFFINITY PREDICTED BY RF-SCORE:    0.00 PKD
ROOT
HETATM    1  C   UNL     1      -7.308   5.332  72.771  1.00  0.00    -0.095 C  
HETATM    2  C   UNL     1      -6.233   6.316  72.334  1.00  0.00    -0.049 C  
ENDROOT
BRANCH   2   3
HETATM    3  N   UNL     1      -6.704   7.178  71.253  1.00  0.00    -0.051 N  
HETATM    4  C   UNL     1      -6.832   6.673  69.977  1.00  0.00    -0.054 C  
HETATM    5  C   UNL     1      -7.299   7.430  68.982  1.00  0.00    -0.091 C  
HETATM    6  C   UNL     1      -7.683   8.784  69.392  1.00  0.00    -0.093 C  
HETATM    7  N   UNL     1      -7.597   9.268  70.573  1.00  0.00    -0.124 N  
HETATM    8  O   UNL     1      -6.996   8.919  72.721  1.00  0.00    -0.325 OA 
HETATM    9  C   UNL     1      -7.095   8.484  71.575  1.00  0.00    -0.092 C  
HETATM   10  H   UNL     1      -7.897  10.224  70.765  1.00  0.00     0.000 HD 
BRANCH   6  11
HETATM   11  N   UNL     1      -8.177   9.566  68.344  1.00  0.00    -0.112 N  
HETATM   12  H   UNL     1      -7.519  10.172  67.854  1.00  0.00     0.000 HD 
BRANCH  11  13
HETATM   13  S   UNL     1      -9.771   9.577  67.833  1.00  0.00    -0.151 S  
HETATM   14  O   UNL     1     -10.019  10.948  67.430  1.00  0.00    -0.180 OA 
HETATM   15  O   UNL     1      -9.961   8.493  66.894  1.00  0.00    -0.212 OA 
BRANCH  13  16
HETATM   16  C   UNL     1     -10.712   9.266  69.301  1.00  0.00    -0.196 A  
HETATM   17  C   UNL     1     -10.908   7.956  69.740  1.00  0.00    -0.202 A  
HETATM   18  C   UNL     1     -11.640   7.726  70.907  1.00  0.00    -0.289 A  
HETATM   19  C   UNL     1     -12.212   8.789  71.617  1.00  0.00    -0.339 A  
HETATM   20  N   UNL     1     -12.856   8.557  72.838  1.00  0.00    -0.677 NA 
HETATM   21  C   UNL     1     -11.930  10.095  71.213  1.00  0.00    -0.473 A  
HETATM   22  C   UNL     1     -11.186  10.339  70.058  1.00  0.00    -0.376 A  
HETATM   23  H2  UNL     1     -12.207   8.071  73.457  1.00  0.00     0.000 HD 
HETATM   24  H1  UNL     1     -13.273   9.331  73.355  1.00  0.00     0.000 HD 
ENDBRANCH  13  16
ENDBRANCH  11  13
ENDBRANCH   6  11
ENDBRANCH   2   3
TORSDOF 4
ENDMDL
MODEL      254
REMARK 921   NORMALIZED FREE ENERGY PREDICTED BY IDOCK:   -3.11 KCAL/MOL
REMARK 922        TOTAL FREE ENERGY PREDICTED BY IDOCK:   -4.66 KCAL/MOL
REMARK 923 INTER-LIGAND FREE ENERGY PREDICTED BY IDOCK:   -4.15 KCAL/MOL
REMARK 924 INTRA-LIGAND FREE ENERGY PREDICTED BY IDOCK:   -0.51 KCAL/MOL
REMARK 927      BINDING AFFINITY PREDICTED BY RF-SCORE:    0.00 PKD
ROOT
HETATM    1  C   UNL     1      -8.342   3.163  70.628  1.00  0.00    -0.085 C  
HETATM    2  C   UNL     1      -9.130   3.325  69.336  1.00  0.00    -0.134 C  
ENDROOT
BRANCH   2   3
HETATM    3  N   UNL     1      -9.440   4.727  69.072  1.00  0.00    -0.136 N  
HETATM    4  C   UNL     1     -10.689   5.225  69.378  1.00  0.00    -0.036 C  
HETATM    5  C   UNL     1     -10.982   6.511  69.184  1.00  0.00    -0.380 C  
HETATM    6  C   UNL     1      -9.863   7.308  68.670  1.00  0.00    -0.161 C  
HETATM    7  N   UNL     1      -8.690   6.875  68.401  1.00  0.00    -0.125 N  
HETATM    8  O   UNL     1      -7.298   5.099  68.334  1.00  0.00    -0.069 OA 
HETATM    9  C   UNL     1      -8.415   5.549  68.586  1.00  0.00    -0.104 C  
HETATM   10  H   UNL     1      -7.971   7.510  68.053  1.00  0.00     0.000 HD 
BRANCH   6  11
HETATM   11  N   UNL     1     -10.180   8.656  68.477  1.00  0.00    -0.192 N  
HETATM   12  H   UNL     1     -11.110   8.969  68.757  1.00  0.00     0.000 HD 
BRANCH  11  13
HETATM   13  S   UNL     1      -9.144   9.794  67.818  1.00  0.00    -0.130 S  
HETATM   14  O   UNL     1      -8.320  10.227  68.930  1.00  0.00    -0.118 OA 
HETATM   15  O   UNL     1      -8.535   9.230  66.633  1.00  0.00    -0.124 OA 
BRANCH  13  16
HETATM   16  C   UNL     1     -10.195  11.144  67.364  1.00  0.00    -0.190 A  
HETATM   17  C   UNL     1     -10.633  11.274  66.045  1.00  0.00    -0.314 A  
HETATM   18  C   UNL     1     -11.473  12.338  65.704  1.00  0.00    -0.416 A  
HETATM   19  C   UNL     1     -11.847  13.293  66.657  1.00  0.00    -0.395 A  
HETATM   20  N   UNL     1     -12.768  14.294  66.329  1.00  0.00    -0.462 NA 
HETATM   21  C   UNL     1     -11.472  13.096  67.987  1.00  0.00    -0.346 A  
HETATM   22  C   UNL     1     -10.646  12.029  68.345  1.00  0.00    -0.236 A  
HETATM   23  H2  UNL     1     -13.614  13.848  65.974  1.00  0.00     0.000 HD 
HETATM   24  H1  UNL     1     -13.040  14.990  67.024  1.00  0.00     0.000 HD 
ENDBRANCH  13  16
ENDBRANCH  11  13
ENDBRANCH   6  11
ENDBRANCH   2   3
TORSDOF 4
ENDMDL
MODEL      255
REMARK 921   NORMALIZED FREE ENERGY PREDICTED BY IDOCK:   -3.11 KCAL/MOL
REMARK 922        TOTAL FREE ENERGY PREDICTED BY IDOCK:   -4.66 KCAL/MOL
REMARK 923 INTER-LIGAND FREE ENERGY PREDICTED BY IDOCK:   -4.11 KCAL/MOL
REMARK 924 INTRA-LIGAND FREE ENERGY PREDICTED BY IDOCK:   -0.54 KCAL/MOL
REMARK 927      BINDING AFFINITY PREDICTED BY RF-SCORE:    0.00 PKD
ROOT
HETATM    1  C   UNL     1      -8.411   1.869  63.782  1.00  0.00    -0.081 C  
HETATM    2  C   UNL     1      -7.683   2.581  64.912  1.00  0.00    -0.073 C  
ENDROOT
BRANCH   2   3
HETATM    3  N   UNL     1      -8.279   3.884  65.194  1.00  0.00    -0.100 N  
HETATM    4  C   UNL     1      -9.250   4.001  66.166  1.00  0.00    -0.155 C  
HETATM    5  C   UNL     1      -9.779   5.187  66.469  1.00  0.00    -0.184 C  
HETATM    6  C   UNL     1      -9.206   6.307  65.715  1.00  0.00     0.042 C  
HETATM    7  N   UNL     1      -8.290   6.227  64.826  1.00  0.00    -0.283 N  
HETATM    8  O   UNL     1      -6.896   4.888  63.661  1.00  0.00    -0.041 OA 
HETATM    9  C   UNL     1      -7.775   5.000  64.513  1.00  0.00    -0.085 C  
HETATM   10  H   UNL     1      -7.949   7.067  64.357  1.00  0.00     0.000 HD 
BRANCH   6  11
HETATM   11  N   UNL     1      -9.764   7.546  66.046  1.00  0.00    -0.425 N  
HETATM   12  H   UNL     1     -10.780   7.627  66.028  1.00  0.00     0.000 HD 
BRANCH  11  13
HETATM   13  S   UNL     1      -8.883   8.904  66.470  1.00  0.00    -0.144 S  
HETATM   14  O   UNL     1      -8.705   8.795  67.904  1.00  0.00    -0.135 OA 
HETATM   15  O   UNL     1      -7.733   8.998  65.595  1.00  0.00    -0.089 OA 
BRANCH  13  16
HETATM   16  C   UNL     1      -9.979  10.260  66.162  1.00  0.00    -0.238 A  
HETATM   17  C   UNL     1      -9.977  10.891  64.917  1.00  0.00    -0.361 A  
HETATM   18  C   UNL     1     -10.857  11.951  64.683  1.00  0.00    -0.363 A  
HETATM   19  C   UNL     1     -11.709  12.413  65.693  1.00  0.00    -0.414 A  
HETATM   20  N   UNL     1     -12.656  13.406  65.419  1.00  0.00    -0.522 NA 
HETATM   21  C   UNL     1     -11.760  11.713  66.901  1.00  0.00    -0.133 A  
HETATM   22  C   UNL     1     -10.898  10.642  67.141  1.00  0.00    -0.328 A  
HETATM   23  H2  UNL     1     -13.229  13.095  64.633  1.00  0.00     0.000 HD 
HETATM   24  H1  UNL     1     -13.277  13.742  66.155  1.00  0.00     0.000 HD 
ENDBRANCH  13  16
ENDBRANCH  11  13
ENDBRANCH   6  11
ENDBRANCH   2   3
TORSDOF 4
ENDMDL
MODEL      256
REMARK 921   NORMALIZED FREE ENERGY PREDICTED BY IDOCK:   -3.11 KCAL/MOL
REMARK 922        TOTAL FREE ENERGY PREDICTED BY IDOCK:   -4.65 KCAL/MOL
REMARK 923 INTER-LIGAND FREE ENERGY PREDICTED BY IDOCK:   -4.18 KCAL/MOL
REMARK 924 INTRA-LIGAND FREE ENERGY PREDICTED BY IDOCK:   -0.48 KCAL/MOL
REMARK 927      BINDING AFFINITY PREDICTED BY RF-SCORE:    0.00 PKD
ROOT
HETATM    1  C   UNL     1      -6.792  12.169  67.361  1.00  0.00    -0.147 C  
HETATM    2  C   UNL     1      -6.689  10.690  67.701  1.00  0.00    -0.072 C  
ENDROOT
BRANCH   2   3
HETATM    3  N   UNL     1      -7.934  10.185  68.272  1.00  0.00    -0.100 N  
HETATM    4  C   UNL     1      -8.919   9.688  67.445  1.00  0.00    -0.131 C  
HETATM    5  C   UNL     1     -10.047   9.184  67.946  1.00  0.00    -0.246 C  
HETATM    6  C   UNL     1     -10.100   9.179  69.412  1.00  0.00    -0.197 C  
HETATM    7  N   UNL     1      -9.191   9.612  70.201  1.00  0.00    -0.241 N  
HETATM    8  O   UNL     1      -7.158  10.573  70.398  1.00  0.00    -0.273 OA 
HETATM    9  C   UNL     1      -8.050  10.145  69.668  1.00  0.00    -0.168 C  
HETATM   10  H   UNL     1      -9.315   9.560  71.212  1.00  0.00     0.000 HD 
BRANCH   6  11
HETATM   11  N   UNL     1     -11.284   8.642  69.926  1.00  0.00    -0.440 N  
HETATM   12  H   UNL     1     -12.072   9.276  70.061  1.00  0.00     0.000 HD 
BRANCH  11  13
HETATM   13  S   UNL     1     -11.502   7.034  70.335  1.00  0.00    -0.293 S  
HETATM   14  O   UNL     1     -12.767   7.002  71.043  1.00  0.00    -0.367 OA 
HETATM   15  O   UNL     1     -11.308   6.227  69.149  1.00  0.00    -0.395 OA 
BRANCH  13  16
HETATM   16  C   UNL     1     -10.218   6.693  71.505  1.00  0.00    -0.197 A  
HETATM   17  C   UNL     1     -10.423   6.951  72.861  1.00  0.00    -0.271 A  
HETATM   18  C   UNL     1      -9.406   6.665  73.776  1.00  0.00    -0.187 A  
HETATM   19  C   UNL     1      -8.173   6.161  73.344  1.00  0.00    -0.112 A  
HETATM   20  N   UNL     1      -7.199   5.782  74.275  1.00  0.00    -0.085 NA 
HETATM   21  C   UNL     1      -8.019   5.826  71.997  1.00  0.00    -0.107 A  
HETATM   22  C   UNL     1      -9.034   6.092  71.076  1.00  0.00    -0.144 A  
HETATM   23  H2  UNL     1      -7.615   5.106  74.917  1.00  0.00     0.000 HD 
HETATM   24  H1  UNL     1      -6.301   5.415  73.960  1.00  0.00     0.000 HD 
ENDBRANCH  13  16
ENDBRANCH  11  13
ENDBRANCH   6  11
ENDBRANCH   2   3
TORSDOF 4
ENDMDL
MODEL      257
REMARK 921   NORMALIZED FREE ENERGY PREDICTED BY IDOCK:   -3.08 KCAL/MOL
REMARK 922        TOTAL FREE ENERGY PREDICTED BY IDOCK:   -4.62 KCAL/MOL
REMARK 923 INTER-LIGAND FREE ENERGY PREDICTED BY IDOCK:   -4.24 KCAL/MOL
REMARK 924 INTRA-LIGAND FREE ENERGY PREDICTED BY IDOCK:   -0.38 KCAL/MOL
REMARK 927      BINDING AFFINITY PREDICTED BY RF-SCORE:    0.00 PKD
ROOT
HETATM    1  C   UNL     1      -7.161   7.406  62.626  1.00  0.00    -0.084 C  
HETATM    2  C   UNL     1      -6.585   8.791  62.881  1.00  0.00    -0.091 C  
ENDROOT
BRANCH   2   3
HETATM    3  N   UNL     1      -7.549   9.655  63.556  1.00  0.00    -0.117 N  
HETATM    4  C   UNL     1      -8.844   9.737  63.092  1.00  0.00    -0.246 C  
HETATM    5  C   UNL     1      -9.752  10.488  63.717  1.00  0.00    -0.385 C  
HETATM    6  C   UNL     1      -9.249  11.152  64.923  1.00  0.00    -0.155 C  
HETATM    7  N   UNL     1      -8.060  11.074  65.388  1.00  0.00    -0.364 N  
HETATM    8  O   UNL     1      -5.985  10.222  65.138  1.00  0.00    -0.108 OA 
HETATM    9  C   UNL     1      -7.137  10.316  64.721  1.00  0.00    -0.092 C  
HETATM   10  H   UNL     1      -7.804  11.568  66.242  1.00  0.00     0.000 HD 
BRANCH   6  11
HETATM   11  N   UNL     1     -10.212  11.931  65.574  1.00  0.00    -0.245 N  
HETATM   12  H   UNL     1     -10.729  12.608  65.014  1.00  0.00     0.000 HD 
BRANCH  11  13
HETATM   13  S   UNL     1     -10.575  11.830  67.204  1.00  0.00    -0.242 S  
HETATM   14  O   UNL     1      -9.579  12.658  67.855  1.00  0.00    -0.197 OA 
HETATM   15  O   UNL     1     -11.985  12.109  67.379  1.00  0.00    -0.563 OA 
BRANCH  13  16
HETATM   16  C   UNL     1     -10.243  10.145  67.632  1.00  0.00    -0.203 A  
HETATM   17  C   UNL     1      -9.518   9.848  68.787  1.00  0.00    -0.157 A  
HETATM   18  C   UNL     1      -9.274   8.512  69.120  1.00  0.00    -0.150 A  
HETATM   19  C   UNL     1      -9.714   7.474  68.291  1.00  0.00    -0.155 A  
HETATM   20  N   UNL     1      -9.555   6.140  68.684  1.00  0.00    -0.126 NA 
HETATM   21  C   UNL     1     -10.514   7.787  67.189  1.00  0.00    -0.413 A  
HETATM   22  C   UNL     1     -10.777   9.116  66.855  1.00  0.00    -0.149 A  
HETATM   23  H2  UNL     1      -9.986   6.022  69.601  1.00  0.00     0.000 HD 
HETATM   24  H1  UNL     1      -9.875   5.384  68.079  1.00  0.00     0.000 HD 
ENDBRANCH  13  16
ENDBRANCH  11  13
ENDBRANCH   6  11
ENDBRANCH   2   3
TORSDOF 4
ENDMDL
MODEL      258
REMARK 921   NORMALIZED FREE ENERGY PREDICTED BY IDOCK:   -3.02 KCAL/MOL
REMARK 922        TOTAL FREE ENERGY PREDICTED BY IDOCK:   -4.55 KCAL/MOL
REMARK 923 INTER-LIGAND FREE ENERGY PREDICTED BY IDOCK:   -3.97 KCAL/MOL
REMARK 924 INTRA-LIGAND FREE ENERGY PREDICTED BY IDOCK:   -0.58 KCAL/MOL
REMARK 927      BINDING AFFINITY PREDICTED BY RF-SCORE:    0.00 PKD
ROOT
HETATM    1  C   UNL     1     -11.966  14.255  69.439  1.00  0.00    -0.381 C  
HETATM    2  C   UNL     1     -12.271  12.926  68.764  1.00  0.00     0.017 C  
ENDROOT
BRANCH   2   3
HETATM    3  N   UNL     1     -11.560  11.825  69.406  1.00  0.00    -0.297 N  
HETATM    4  C   UNL     1     -12.173  11.099  70.406  1.00  0.00    -0.369 C  
HETATM    5  C   UNL     1     -11.558  10.064  70.978  1.00  0.00    -0.476 C  
HETATM    6  C   UNL     1     -10.234   9.771  70.420  1.00  0.00    -0.281 C  
HETATM    7  N   UNL     1      -9.655  10.414  69.478  1.00  0.00    -0.363 N  
HETATM    8  O   UNL     1      -9.761  12.127  68.012  1.00  0.00    -0.191 OA 
HETATM    9  C   UNL     1     -10.291  11.486  68.917  1.00  0.00    -0.169 C  
HETATM   10  H   UNL     1      -8.731  10.130  69.149  1.00  0.00     0.000 HD 
BRANCH   6  11
HETATM   11  N   UNL     1      -9.603   8.680  71.023  1.00  0.00    -0.191 N  
HETATM   12  H   UNL     1      -9.820   8.488  72.001  1.00  0.00     0.000 HD 
BRANCH  11  13
HETATM   13  S   UNL     1      -8.515   7.665  70.256  1.00  0.00    -0.135 S  
HETATM   14  O   UNL     1      -9.001   7.567  68.894  1.00  0.00    -0.135 OA 
HETATM   15  O   UNL     1      -7.175   8.141  70.522  1.00  0.00    -0.047 OA 
BRANCH  13  16
HETATM   16  C   UNL     1      -8.752   6.090  71.030  1.00  0.00    -0.132 A  
HETATM   17  C   UNL     1      -9.237   5.013  70.287  1.00  0.00    -0.190 A  
HETATM   18  C   UNL     1      -9.407   3.772  70.907  1.00  0.00    -0.215 A  
HETATM   19  C   UNL     1      -9.135   3.608  72.270  1.00  0.00    -0.109 A  
HETATM   20  N   UNL     1      -9.211   2.340  72.858  1.00  0.00    -0.076 NA 
HETATM   21  C   UNL     1      -8.567   4.672  72.975  1.00  0.00    -0.113 A  
HETATM   22  C   UNL     1      -8.378   5.911  72.363  1.00  0.00    -0.117 A  
HETATM   23  H2  UNL     1      -8.608   1.706  72.333  1.00  0.00     0.000 HD 
HETATM   24  H1  UNL     1      -9.013   2.220  73.852  1.00  0.00     0.000 HD 
ENDBRANCH  13  16
ENDBRANCH  11  13
ENDBRANCH   6  11
ENDBRANCH   2   3
TORSDOF 4
ENDMDL
MODEL      259
REMARK 921   NORMALIZED FREE ENERGY PREDICTED BY IDOCK:   -2.99 KCAL/MOL
REMARK 922        TOTAL FREE ENERGY PREDICTED BY IDOCK:   -4.51 KCAL/MOL
REMARK 923 INTER-LIGAND FREE ENERGY PREDICTED BY IDOCK:   -3.80 KCAL/MOL
REMARK 924 INTRA-LIGAND FREE ENERGY PREDICTED BY IDOCK:   -0.71 KCAL/MOL
REMARK 927      BINDING AFFINITY PREDICTED BY RF-SCORE:    0.00 PKD
ROOT
HETATM    1  C   UNL     1      -6.750   8.570  62.536  1.00  0.00    -0.095 C  
HETATM    2  C   UNL     1      -6.421   9.759  63.427  1.00  0.00    -0.115 C  
ENDROOT
BRANCH   2   3
HETATM    3  N   UNL     1      -6.668   9.458  64.834  1.00  0.00    -0.082 N  
HETATM    4  C   UNL     1      -5.728   8.763  65.565  1.00  0.00    -0.047 C  
HETATM    5  C   UNL     1      -5.913   8.512  66.861  1.00  0.00    -0.053 C  
HETATM    6  C   UNL     1      -7.155   9.070  67.406  1.00  0.00    -0.079 C  
HETATM    7  N   UNL     1      -8.031   9.738  66.755  1.00  0.00    -0.105 N  
HETATM    8  O   UNL     1      -8.658  10.601  64.766  1.00  0.00    -0.177 OA 
HETATM    9  C   UNL     1      -7.834   9.966  65.422  1.00  0.00    -0.132 C  
HETATM   10  H   UNL     1      -8.864  10.094  67.224  1.00  0.00     0.000 HD 
BRANCH   6  11
HETATM   11  N   UNL     1      -7.336   8.806  68.767  1.00  0.00    -0.081 N  
HETATM   12  H   UNL     1      -7.258   7.837  69.076  1.00  0.00     0.000 HD 
BRANCH  11  13
HETATM   13  S   UNL     1      -7.670   9.966  69.926  1.00  0.00    -0.178 S  
HETATM   14  O   UNL     1      -6.936   9.536  71.100  1.00  0.00    -0.270 OA 
HETATM   15  O   UNL     1      -7.430  11.273  69.352  1.00  0.00    -0.085 OA 
BRANCH  13  16
HETATM   16  C   UNL     1      -9.397   9.773  70.266  1.00  0.00    -0.182 A  
HETATM   17  C   UNL     1      -9.816   8.908  71.278  1.00  0.00    -0.361 A  
HETATM   18  C   UNL     1     -11.182   8.776  71.544  1.00  0.00    -0.377 A  
HETATM   19  C   UNL     1     -12.132   9.467  70.784  1.00  0.00    -0.232 A  
HETATM   20  N   UNL     1     -13.489   9.407  71.124  1.00  0.00    -0.553 NA 
HETATM   21  C   UNL     1     -11.690  10.394  69.837  1.00  0.00    -0.341 A  
HETATM   22  C   UNL     1     -10.329  10.548  69.573  1.00  0.00    -0.251 A  
HETATM   23  H2  UNL     1     -13.589   9.692  72.098  1.00  0.00     0.000 HD 
HETATM   24  H1  UNL     1     -14.182   9.911  70.570  1.00  0.00     0.000 HD 
ENDBRANCH  13  16
ENDBRANCH  11  13
ENDBRANCH   6  11
ENDBRANCH   2   3
TORSDOF 4
ENDMDL
MODEL      260
REMARK 921   NORMALIZED FREE ENERGY PREDICTED BY IDOCK:   -2.99 KCAL/MOL
REMARK 922        TOTAL FREE ENERGY PREDICTED BY IDOCK:   -4.51 KCAL/MOL
REMARK 923 INTER-LIGAND FREE ENERGY PREDICTED BY IDOCK:   -3.81 KCAL/MOL
REMARK 924 INTRA-LIGAND FREE ENERGY PREDICTED BY IDOCK:   -0.70 KCAL/MOL
REMARK 927      BINDING AFFINITY PREDICTED BY RF-SCORE:    0.00 PKD
ROOT
HETATM    1  C   UNL     1     -10.111   3.258  64.072  1.00  0.00    -0.188 C  
HETATM    2  C   UNL     1      -8.990   3.953  64.830  1.00  0.00    -0.131 C  
ENDROOT
BRANCH   2   3
HETATM    3  N   UNL     1      -9.472   5.142  65.526  1.00  0.00    -0.125 N  
HETATM    4  C   UNL     1     -10.491   5.034  66.448  1.00  0.00    -0.300 C  
HETATM    5  C   UNL     1     -10.920   6.100  67.125  1.00  0.00    -0.420 C  
HETATM    6  C   UNL     1     -10.188   7.334  66.823  1.00  0.00    -0.235 C  
HETATM    7  N   UNL     1      -9.225   7.455  65.991  1.00  0.00    -0.364 N  
HETATM    8  O   UNL     1      -7.892   6.439  64.479  1.00  0.00    -0.105 OA 
HETATM    9  C   UNL     1      -8.813   6.356  65.289  1.00  0.00     0.102 C  
HETATM   10  H   UNL     1      -8.770   8.358  65.852  1.00  0.00     0.000 HD 
BRANCH   6  11
HETATM   11  N   UNL     1     -10.642   8.443  67.544  1.00  0.00    -0.417 N  
HETATM   12  H   UNL     1     -11.034   8.277  68.471  1.00  0.00     0.000 HD 
BRANCH  11  13
HETATM   13  S   UNL     1     -10.588  10.023  66.996  1.00  0.00    -0.178 S  
HETATM   14  O   UNL     1     -10.498   9.910  65.553  1.00  0.00    -0.126 OA 
HETATM   15  O   UNL     1     -11.676  10.759  67.604  1.00  0.00    -0.538 OA 
BRANCH  13  16
HETATM   16  C   UNL     1      -9.041  10.648  67.588  1.00  0.00    -0.142 A  
HETATM   17  C   UNL     1      -8.726  10.560  68.945  1.00  0.00    -0.154 A  
HETATM   18  C   UNL     1      -7.496  11.045  69.396  1.00  0.00    -0.074 A  
HETATM   19  C   UNL     1      -6.596  11.653  68.513  1.00  0.00    -0.061 A  
HETATM   20  N   UNL     1      -5.326  12.042  68.955  1.00  0.00    -0.051 NA 
HETATM   21  C   UNL     1      -6.890  11.651  67.147  1.00  0.00    -0.143 A  
HETATM   22  C   UNL     1      -8.108  11.155  66.682  1.00  0.00    -0.159 A  
HETATM   23  H2  UNL     1      -4.868  11.232  69.372  1.00  0.00     0.000 HD 
HETATM   24  H1  UNL     1      -4.670  12.485  68.312  1.00  0.00     0.000 HD 
ENDBRANCH  13  16
ENDBRANCH  11  13
ENDBRANCH   6  11
ENDBRANCH   2   3
TORSDOF 4
ENDMDL
MODEL      261
REMARK 921   NORMALIZED FREE ENERGY PREDICTED BY IDOCK:   -2.96 KCAL/MOL
REMARK 922        TOTAL FREE ENERGY PREDICTED BY IDOCK:   -4.47 KCAL/MOL
REMARK 923 INTER-LIGAND FREE ENERGY PREDICTED BY IDOCK:   -3.88 KCAL/MOL
REMARK 924 INTRA-LIGAND FREE ENERGY PREDICTED BY IDOCK:   -0.59 KCAL/MOL
REMARK 927      BINDING AFFINITY PREDICTED BY RF-SCORE:    0.00 PKD
ROOT
HETATM    1  C   UNL     1     -11.595  13.813  65.109  1.00  0.00    -0.341 C  
HETATM    2  C   UNL     1     -10.645  14.000  66.282  1.00  0.00    -0.281 C  
ENDROOT
BRANCH   2   3
HETATM    3  N   UNL     1     -10.470  12.760  67.033  1.00  0.00    -0.236 N  
HETATM    4  C   UNL     1     -10.915  11.567  66.504  1.00  0.00    -0.293 C  
HETATM    5  C   UNL     1     -10.730  10.417  67.153  1.00  0.00    -0.316 C  
HETATM    6  C   UNL     1      -9.995  10.554  68.415  1.00  0.00    -0.164 C  
HETATM    7  N   UNL     1      -9.553  11.645  68.914  1.00  0.00    -0.404 N  
HETATM    8  O   UNL     1      -9.362  13.884  68.700  1.00  0.00    -0.187 OA 
HETATM    9  C   UNL     1      -9.771  12.817  68.246  1.00  0.00    -0.216 C  
HETATM   10  H   UNL     1      -9.044  11.640  69.799  1.00  0.00     0.000 HD 
BRANCH   6  11
HETATM   11  N   UNL     1      -9.802   9.341  69.082  1.00  0.00    -0.162 N  
HETATM   12  H   UNL     1     -10.576   8.978  69.638  1.00  0.00     0.000 HD 
BRANCH  11  13
HETATM   13  S   UNL     1      -8.391   8.442  69.034  1.00  0.00    -0.119 S  
HETATM   14  O   UNL     1      -8.602   7.482  67.969  1.00  0.00    -0.123 OA 
HETATM   15  O   UNL     1      -7.267   9.353  68.987  1.00  0.00    -0.069 OA 
BRANCH  13  16
HETATM   16  C   UNL     1      -8.375   7.555  70.567  1.00  0.00    -0.131 A  
HETATM   17  C   UNL     1      -8.256   8.248  71.773  1.00  0.00    -0.186 A  
HETATM   18  C   UNL     1      -8.258   7.536  72.976  1.00  0.00    -0.150 A  
HETATM   19  C   UNL     1      -8.338   6.139  72.983  1.00  0.00    -0.115 A  
HETATM   20  N   UNL     1      -8.442   5.443  74.193  1.00  0.00    -0.114 NA 
HETATM   21  C   UNL     1      -8.546   5.471  71.774  1.00  0.00    -0.135 A  
HETATM   22  C   UNL     1      -8.561   6.172  70.567  1.00  0.00    -0.138 A  
HETATM   23  H2  UNL     1      -9.242   5.812  74.707  1.00  0.00     0.000 HD 
HETATM   24  H1  UNL     1      -8.500   4.425  74.198  1.00  0.00     0.000 HD 
ENDBRANCH  13  16
ENDBRANCH  11  13
ENDBRANCH   6  11
ENDBRANCH   2   3
TORSDOF 4
ENDMDL
MODEL      262
REMARK 921   NORMALIZED FREE ENERGY PREDICTED BY IDOCK:   -2.94 KCAL/MOL
REMARK 922        TOTAL FREE ENERGY PREDICTED BY IDOCK:   -4.45 KCAL/MOL
REMARK 923 INTER-LIGAND FREE ENERGY PREDICTED BY IDOCK:   -4.42 KCAL/MOL
REMARK 924 INTRA-LIGAND FREE ENERGY PREDICTED BY IDOCK:   -0.03 KCAL/MOL
REMARK 927      BINDING AFFINITY PREDICTED BY RF-SCORE:    0.00 PKD
ROOT
HETATM    1  C   UNL     1     -10.925   4.380  73.509  1.00  0.00    -0.379 C  
HETATM    2  C   UNL     1     -10.708   5.847  73.170  1.00  0.00    -0.261 C  
ENDROOT
BRANCH   2   3
HETATM    3  N   UNL     1     -10.227   6.014  71.801  1.00  0.00    -0.198 N  
HETATM    4  C   UNL     1     -11.117   5.986  70.750  1.00  0.00    -0.286 C  
HETATM    5  C   UNL     1     -10.706   6.177  69.496  1.00  0.00    -0.386 C  
HETATM    6  C   UNL     1      -9.270   6.449  69.373  1.00  0.00    -0.143 C  
HETATM    7  N   UNL     1      -8.428   6.503  70.334  1.00  0.00    -0.130 N  
HETATM    8  O   UNL     1      -8.081   6.325  72.557  1.00  0.00    -0.103 OA 
HETATM    9  C   UNL     1      -8.865   6.284  71.611  1.00  0.00    -0.138 C  
HETATM   10  H   UNL     1      -7.446   6.707  70.150  1.00  0.00     0.000 HD 
BRANCH   6  11
HETATM   11  N   UNL     1      -8.852   6.654  68.054  1.00  0.00    -0.116 N  
HETATM   12  H   UNL     1      -7.932   6.302  67.789  1.00  0.00     0.000 HD 
BRANCH  11  13
HETATM   13  S   UNL     1      -9.754   7.434  66.879  1.00  0.00    -0.218 S  
HETATM   14  O   UNL     1      -8.943   7.353  65.680  1.00  0.00    -0.089 OA 
HETATM   15  O   UNL     1     -11.095   6.892  66.893  1.00  0.00    -0.379 OA 
BRANCH  13  16
HETATM   16  C   UNL     1      -9.790   9.127  67.396  1.00  0.00    -0.184 A  
HETATM   17  C   UNL     1     -11.001   9.724  67.745  1.00  0.00    -0.242 A  
HETATM   18  C   UNL     1     -11.013  11.058  68.164  1.00  0.00    -0.301 A  
HETATM   19  C   UNL     1      -9.833  11.810  68.199  1.00  0.00    -0.190 A  
HETATM   20  N   UNL     1      -9.840  13.111  68.716  1.00  0.00    -0.420 NA 
HETATM   21  C   UNL     1      -8.621  11.170  67.932  1.00  0.00    -0.135 A  
HETATM   22  C   UNL     1      -8.594   9.835  67.528  1.00  0.00    -0.125 A  
HETATM   23  H2  UNL     1     -10.228  13.080  69.659  1.00  0.00     0.000 HD 
HETATM   24  H1  UNL     1      -8.980  13.659  68.741  1.00  0.00     0.000 HD 
ENDBRANCH  13  16
ENDBRANCH  11  13
ENDBRANCH   6  11
ENDBRANCH   2   3
TORSDOF 4
ENDMDL
MODEL      263
REMARK 921   NORMALIZED FREE ENERGY PREDICTED BY IDOCK:   -2.92 KCAL/MOL
REMARK 922        TOTAL FREE ENERGY PREDICTED BY IDOCK:   -4.42 KCAL/MOL
REMARK 923 INTER-LIGAND FREE ENERGY PREDICTED BY IDOCK:   -3.65 KCAL/MOL
REMARK 924 INTRA-LIGAND FREE ENERGY PREDICTED BY IDOCK:   -0.77 KCAL/MOL
REMARK 927      BINDING AFFINITY PREDICTED BY RF-SCORE:    0.00 PKD
ROOT
HETATM    1  C   UNL     1     -12.649  10.395  70.572  1.00  0.00    -0.384 C  
HETATM    2  C   UNL     1     -11.135  10.310  70.446  1.00  0.00    -0.319 C  
ENDROOT
BRANCH   2   3
HETATM    3  N   UNL     1     -10.728  10.020  69.075  1.00  0.00    -0.212 N  
HETATM    4  C   UNL     1     -10.726   8.719  68.617  1.00  0.00    -0.068 C  
HETATM    5  C   UNL     1     -10.397   8.435  67.356  1.00  0.00    -0.355 C  
HETATM    6  C   UNL     1     -10.092   9.613  66.538  1.00  0.00    -0.244 C  
HETATM    7  N   UNL     1     -10.109  10.830  66.932  1.00  0.00    -0.204 N  
HETATM    8  O   UNL     1     -10.451  12.258  68.646  1.00  0.00    -0.227 OA 
HETATM    9  C   UNL     1     -10.428  11.100  68.234  1.00  0.00    -0.191 C  
HETATM   10  H   UNL     1      -9.889  11.587  66.285  1.00  0.00     0.000 HD 
BRANCH   6  11
HETATM   11  N   UNL     1      -9.755   9.303  65.217  1.00  0.00    -0.454 N  
HETATM   12  H   UNL     1     -10.517   9.172  64.552  1.00  0.00     0.000 HD 
BRANCH  11  13
HETATM   13  S   UNL     1      -8.190   9.133  64.648  1.00  0.00    -0.161 S  
HETATM   14  O   UNL     1      -8.339   8.902  63.225  1.00  0.00    -0.184 OA 
HETATM   15  O   UNL     1      -7.402  10.246  65.130  1.00  0.00    -0.139 OA 
BRANCH  13  16
HETATM   16  C   UNL     1      -7.610   7.629  65.382  1.00  0.00    -0.094 A  
HETATM   17  C   UNL     1      -6.691   7.674  66.432  1.00  0.00    -0.058 A  
HETATM   18  C   UNL     1      -6.252   6.480  67.011  1.00  0.00    -0.040 A  
HETATM   19  C   UNL     1      -6.691   5.243  66.525  1.00  0.00    -0.057 A  
HETATM   20  N   UNL     1      -6.326   4.059  67.176  1.00  0.00    -0.039 NA 
HETATM   21  C   UNL     1      -7.677   5.221  65.536  1.00  0.00    -0.087 A  
HETATM   22  C   UNL     1      -8.135   6.407  64.961  1.00  0.00    -0.135 A  
HETATM   23  H2  UNL     1      -6.599   4.134  68.156  1.00  0.00     0.000 HD 
HETATM   24  H1  UNL     1      -6.646   3.157  66.823  1.00  0.00     0.000 HD 
ENDBRANCH  13  16
ENDBRANCH  11  13
ENDBRANCH   6  11
ENDBRANCH   2   3
TORSDOF 4
ENDMDL
MODEL      264
REMARK 921   NORMALIZED FREE ENERGY PREDICTED BY IDOCK:   -2.87 KCAL/MOL
REMARK 922        TOTAL FREE ENERGY PREDICTED BY IDOCK:   -4.36 KCAL/MOL
REMARK 923 INTER-LIGAND FREE ENERGY PREDICTED BY IDOCK:   -3.58 KCAL/MOL
REMARK 924 INTRA-LIGAND FREE ENERGY PREDICTED BY IDOCK:   -0.78 KCAL/MOL
REMARK 927      BINDING AFFINITY PREDICTED BY RF-SCORE:    0.00 PKD
ROOT
HETATM    1  C   UNL     1     -11.884  14.599  71.406  1.00  0.00    -0.362 C  
HETATM    2  C   UNL     1     -12.742  13.890  70.368  1.00  0.00    -0.220 C  
ENDROOT
BRANCH   2   3
HETATM    3  N   UNL     1     -11.942  13.004  69.528  1.00  0.00    -0.308 N  
HETATM    4  C   UNL     1     -11.689  11.712  69.937  1.00  0.00    -0.337 C  
HETATM    5  C   UNL     1     -10.995  10.871  69.168  1.00  0.00    -0.290 C  
HETATM    6  C   UNL     1     -10.587  11.440  67.879  1.00  0.00    -0.189 C  
HETATM    7  N   UNL     1     -10.830  12.626  67.467  1.00  0.00    -0.234 N  
HETATM    8  O   UNL     1     -11.771  14.628  67.915  1.00  0.00    -0.339 OA 
HETATM    9  C   UNL     1     -11.524  13.480  68.279  1.00  0.00    -0.310 C  
HETATM   10  H   UNL     1     -10.510  12.931  66.547  1.00  0.00     0.000 HD 
BRANCH   6  11
HETATM   11  N   UNL     1      -9.867  10.548  67.079  1.00  0.00    -0.177 N  
HETATM   12  H   UNL     1      -9.888   9.560  67.333  1.00  0.00     0.000 HD 
BRANCH  11  13
HETATM   13  S   UNL     1      -8.972  10.984  65.733  1.00  0.00    -0.187 S  
HETATM   14  O   UNL     1      -9.958  11.219  64.696  1.00  0.00    -0.246 OA 
HETATM   15  O   UNL     1      -8.049  12.031  66.114  1.00  0.00     0.154 OA 
BRANCH  13  16
HETATM   16  C   UNL     1      -8.072   9.522  65.302  1.00  0.00    -0.124 A  
HETATM   17  C   UNL     1      -7.507   9.399  64.032  1.00  0.00    -0.113 A  
HETATM   18  C   UNL     1      -6.787   8.245  63.711  1.00  0.00    -0.076 A  
HETATM   19  C   UNL     1      -6.661   7.197  64.631  1.00  0.00    -0.040 A  
HETATM   20  N   UNL     1      -5.854   6.092  64.337  1.00  0.00    -0.022 NA 
HETATM   21  C   UNL     1      -7.156   7.376  65.924  1.00  0.00    -0.065 A  
HETATM   22  C   UNL     1      -7.863   8.531  66.263  1.00  0.00    -0.098 A  
HETATM   23  H2  UNL     1      -4.920   6.429  64.105  1.00  0.00     0.000 HD 
HETATM   24  H1  UNL     1      -5.762   5.329  65.007  1.00  0.00     0.000 HD 
ENDBRANCH  13  16
ENDBRANCH  11  13
ENDBRANCH   6  11
ENDBRANCH   2   3
TORSDOF 4
ENDMDL
MODEL      265
REMARK 921   NORMALIZED FREE ENERGY PREDICTED BY IDOCK:   -2.85 KCAL/MOL
REMARK 922        TOTAL FREE ENERGY PREDICTED BY IDOCK:   -4.33 KCAL/MOL
REMARK 923 INTER-LIGAND FREE ENERGY PREDICTED BY IDOCK:   -3.97 KCAL/MOL
REMARK 924 INTRA-LIGAND FREE ENERGY PREDICTED BY IDOCK:   -0.36 KCAL/MOL
REMARK 927      BINDING AFFINITY PREDICTED BY RF-SCORE:    0.00 PKD
ROOT
HETATM    1  C   UNL     1      -7.471   7.448  62.714  1.00  0.00    -0.105 C  
HETATM    2  C   UNL     1      -7.455   8.865  63.266  1.00  0.00    -0.101 C  
ENDROOT
BRANCH   2   3
HETATM    3  N   UNL     1      -8.367   9.010  64.397  1.00  0.00    -0.169 N  
HETATM    4  C   UNL     1      -8.268   8.157  65.475  1.00  0.00    -0.144 C  
HETATM    5  C   UNL     1      -9.063   8.295  66.536  1.00  0.00    -0.219 C  
HETATM    6  C   UNL     1      -9.985   9.433  66.448  1.00  0.00    -0.276 C  
HETATM    7  N   UNL     1     -10.080  10.251  65.469  1.00  0.00    -0.293 N  
HETATM    8  O   UNL     1      -9.339  10.847  63.422  1.00  0.00    -0.234 OA 
HETATM    9  C   UNL     1      -9.271  10.080  64.381  1.00  0.00    -0.266 C  
HETATM   10  H   UNL     1     -10.750  11.021  65.501  1.00  0.00     0.000 HD 
BRANCH   6  11
HETATM   11  N   UNL     1     -10.809   9.572  67.568  1.00  0.00    -0.415 N  
HETATM   12  H   UNL     1     -11.567   8.900  67.685  1.00  0.00     0.000 HD 
BRANCH  11  13
HETATM   13  S   UNL     1     -10.641  10.763  68.733  1.00  0.00    -0.215 S  
HETATM   14  O   UNL     1     -11.638  11.757  68.389  1.00  0.00    -0.272 OA 
HETATM   15  O   UNL     1     -10.652  10.135  70.037  1.00  0.00    -0.262 OA 
BRANCH  13  16
HETATM   16  C   UNL     1      -9.046  11.466  68.424  1.00  0.00    -0.179 A  
HETATM   17  C   UNL     1      -8.937  12.797  68.018  1.00  0.00    -0.196 A  
HETATM   18  C   UNL     1      -7.670  13.343  67.790  1.00  0.00    -0.161 A  
HETATM   19  C   UNL     1      -6.517  12.562  67.926  1.00  0.00    -0.105 A  
HETATM   20  N   UNL     1      -5.250  13.144  67.796  1.00  0.00    -0.182 NA 
HETATM   21  C   UNL     1      -6.640  11.261  68.419  1.00  0.00    -0.059 A  
HETATM   22  C   UNL     1      -7.898  10.709  68.665  1.00  0.00    -0.121 A  
HETATM   23  H2  UNL     1      -5.187  13.925  68.449  1.00  0.00     0.000 HD 
HETATM   24  H1  UNL     1      -4.409  12.575  67.895  1.00  0.00     0.000 HD 
ENDBRANCH  13  16
ENDBRANCH  11  13
ENDBRANCH   6  11
ENDBRANCH   2   3
TORSDOF 4
ENDMDL
MODEL      266
REMARK 921   NORMALIZED FREE ENERGY PREDICTED BY IDOCK:   -2.84 KCAL/MOL
REMARK 922        TOTAL FREE ENERGY PREDICTED BY IDOCK:   -4.33 KCAL/MOL
REMARK 923 INTER-LIGAND FREE ENERGY PREDICTED BY IDOCK:   -3.64 KCAL/MOL
REMARK 924 INTRA-LIGAND FREE ENERGY PREDICTED BY IDOCK:   -0.69 KCAL/MOL
REMARK 927      BINDING AFFINITY PREDICTED BY RF-SCORE:    0.00 PKD
ROOT
HETATM    1  C   UNL     1      -5.779   5.407  72.027  1.00  0.00    -0.017 C  
HETATM    2  C   UNL     1      -7.012   6.213  72.407  1.00  0.00    -0.079 C  
ENDROOT
BRANCH   2   3
HETATM    3  N   UNL     1      -7.649   6.802  71.233  1.00  0.00    -0.091 N  
HETATM    4  C   UNL     1      -7.697   6.097  70.050  1.00  0.00    -0.097 C  
HETATM    5  C   UNL     1      -8.309   6.598  68.976  1.00  0.00    -0.120 C  
HETATM    6  C   UNL     1      -8.934   7.906  69.200  1.00  0.00    -0.145 C  
HETATM    7  N   UNL     1      -8.923   8.569  70.294  1.00  0.00    -0.144 N  
HETATM    8  O   UNL     1      -8.240   8.662  72.443  1.00  0.00    -0.332 OA 
HETATM    9  C   UNL     1      -8.272   8.049  71.378  1.00  0.00    -0.112 C  
HETATM   10  H   UNL     1      -9.394   9.472  70.357  1.00  0.00     0.000 HD 
BRANCH   6  11
HETATM   11  N   UNL     1      -9.578   8.418  68.070  1.00  0.00    -0.147 N  
HETATM   12  H   UNL     1     -10.448   7.974  67.779  1.00  0.00     0.000 HD 
BRANCH  11  13
HETATM   13  S   UNL     1      -9.023   9.709  67.160  1.00  0.00    -0.135 S  
HETATM   14  O   UNL     1      -7.664   9.925  67.617  1.00  0.00    -0.091 OA 
HETATM   15  O   UNL     1      -9.291   9.437  65.764  1.00  0.00    -0.202 OA 
BRANCH  13  16
HETATM   16  C   UNL     1     -10.000  11.085  67.697  1.00  0.00    -0.173 A  
HETATM   17  C   UNL     1     -11.369  10.927  67.913  1.00  0.00    -0.380 A  
HETATM   18  C   UNL     1     -12.126  12.018  68.350  1.00  0.00    -0.090 A  
HETATM   19  C   UNL     1     -11.534  13.274  68.534  1.00  0.00    -0.312 A  
HETATM   20  N   UNL     1     -12.278  14.333  69.068  1.00  0.00    -0.533 NA 
HETATM   21  C   UNL     1     -10.149  13.390  68.400  1.00  0.00    -0.244 A  
HETATM   22  C   UNL     1      -9.380  12.304  67.979  1.00  0.00    -0.195 A  
HETATM   23  H2  UNL     1     -12.673  14.030  69.959  1.00  0.00     0.000 HD 
HETATM   24  H1  UNL     1     -11.847  15.248  69.203  1.00  0.00     0.000 HD 
ENDBRANCH  13  16
ENDBRANCH  11  13
ENDBRANCH   6  11
ENDBRANCH   2   3
TORSDOF 4
ENDMDL
MODEL      267
REMARK 921   NORMALIZED FREE ENERGY PREDICTED BY IDOCK:   -2.84 KCAL/MOL
REMARK 922        TOTAL FREE ENERGY PREDICTED BY IDOCK:   -4.33 KCAL/MOL
REMARK 923 INTER-LIGAND FREE ENERGY PREDICTED BY IDOCK:   -3.90 KCAL/MOL
REMARK 924 INTRA-LIGAND FREE ENERGY PREDICTED BY IDOCK:   -0.43 KCAL/MOL
REMARK 927      BINDING AFFINITY PREDICTED BY RF-SCORE:    0.00 PKD
ROOT
HETATM    1  C   UNL     1     -12.582   6.719  72.020  1.00  0.00    -0.259 C  
HETATM    2  C   UNL     1     -11.684   7.869  71.590  1.00  0.00    -0.281 C  
ENDROOT
BRANCH   2   3
HETATM    3  N   UNL     1     -11.232   7.707  70.211  1.00  0.00    -0.250 N  
HETATM    4  C   UNL     1     -11.202   6.453  69.639  1.00  0.00    -0.418 C  
HETATM    5  C   UNL     1     -10.831   6.286  68.369  1.00  0.00    -0.394 C  
HETATM    6  C   UNL     1     -10.514   7.536  67.670  1.00  0.00    -0.250 C  
HETATM    7  N   UNL     1     -10.557   8.712  68.171  1.00  0.00    -0.393 N  
HETATM    8  O   UNL     1     -10.966   9.978  69.995  1.00  0.00    -0.256 OA 
HETATM    9  C   UNL     1     -10.918   8.861  69.481  1.00  0.00    -0.084 C  
HETATM   10  H   UNL     1     -10.324   9.526  67.602  1.00  0.00     0.000 HD 
BRANCH   6  11
HETATM   11  N   UNL     1     -10.133   7.349  66.338  1.00  0.00    -0.471 N  
HETATM   12  H   UNL     1     -10.852   7.448  65.622  1.00  0.00     0.000 HD 
BRANCH  11  13
HETATM   13  S   UNL     1      -8.581   6.975  65.835  1.00  0.00    -0.125 S  
HETATM   14  O   UNL     1      -8.644   5.579  65.451  1.00  0.00    -0.144 OA 
HETATM   15  O   UNL     1      -8.153   7.977  64.882  1.00  0.00    -0.138 OA 
BRANCH  13  16
HETATM   16  C   UNL     1      -7.596   7.089  67.302  1.00  0.00    -0.108 A  
HETATM   17  C   UNL     1      -7.039   8.313  67.675  1.00  0.00    -0.083 A  
HETATM   18  C   UNL     1      -6.275   8.392  68.843  1.00  0.00    -0.044 A  
HETATM   19  C   UNL     1      -6.031   7.252  69.618  1.00  0.00    -0.024 A  
HETATM   20  N   UNL     1      -5.351   7.361  70.838  1.00  0.00    -0.027 NA 
HETATM   21  C   UNL     1      -6.669   6.058  69.278  1.00  0.00    -0.060 A  
HETATM   22  C   UNL     1      -7.448   5.970  68.123  1.00  0.00    -0.089 A  
HETATM   23  H2  UNL     1      -5.839   8.044  71.417  1.00  0.00     0.000 HD 
HETATM   24  H1  UNL     1      -5.173   6.530  71.403  1.00  0.00     0.000 HD 
ENDBRANCH  13  16
ENDBRANCH  11  13
ENDBRANCH   6  11
ENDBRANCH   2   3
TORSDOF 4
ENDMDL
MODEL      268
REMARK 921   NORMALIZED FREE ENERGY PREDICTED BY IDOCK:   -2.82 KCAL/MOL
REMARK 922        TOTAL FREE ENERGY PREDICTED BY IDOCK:   -4.30 KCAL/MOL
REMARK 923 INTER-LIGAND FREE ENERGY PREDICTED BY IDOCK:   -4.24 KCAL/MOL
REMARK 924 INTRA-LIGAND FREE ENERGY PREDICTED BY IDOCK:   -0.07 KCAL/MOL
REMARK 927      BINDING AFFINITY PREDICTED BY RF-SCORE:    0.00 PKD
ROOT
HETATM    1  C   UNL     1      -9.506  12.811  66.894  1.00  0.00    -0.235 C  
HETATM    2  C   UNL     1      -8.471  12.712  68.005  1.00  0.00    -0.177 C  
ENDROOT
BRANCH   2   3
HETATM    3  N   UNL     1      -8.660  11.506  68.806  1.00  0.00    -0.104 N  
HETATM    4  C   UNL     1      -7.582  10.699  69.101  1.00  0.00    -0.131 C  
HETATM    5  C   UNL     1      -7.724   9.615  69.865  1.00  0.00    -0.146 C  
HETATM    6  C   UNL     1      -9.087   9.412  70.367  1.00  0.00    -0.256 C  
HETATM    7  N   UNL     1     -10.098  10.159  70.127  1.00  0.00    -0.409 N  
HETATM    8  O   UNL     1     -10.889  11.990  69.071  1.00  0.00    -0.221 OA 
HETATM    9  C   UNL     1      -9.938  11.254  69.324  1.00  0.00     0.049 C  
HETATM   10  H   UNL     1     -11.010   9.940  70.529  1.00  0.00     0.000 HD 
BRANCH   6  11
HETATM   11  N   UNL     1      -9.223   8.277  71.171  1.00  0.00    -0.152 N  
HETATM   12  H   UNL     1      -8.444   8.036  71.785  1.00  0.00     0.000 HD 
BRANCH  11  13
HETATM   13  S   UNL     1     -10.571   7.285  71.201  1.00  0.00    -0.223 S  
HETATM   14  O   UNL     1     -10.368   6.422  72.348  1.00  0.00    -0.186 OA 
HETATM   15  O   UNL     1     -11.753   8.114  71.109  1.00  0.00    -0.280 OA 
BRANCH  13  16
HETATM   16  C   UNL     1     -10.425   6.291  69.743  1.00  0.00    -0.232 A  
HETATM   17  C   UNL     1     -11.013   6.712  68.549  1.00  0.00    -0.314 A  
HETATM   18  C   UNL     1     -10.878   5.924  67.403  1.00  0.00    -0.341 A  
HETATM   19  C   UNL     1     -10.197   4.703  67.447  1.00  0.00    -0.039 A  
HETATM   20  N   UNL     1      -9.980   3.971  66.273  1.00  0.00    -0.387 NA 
HETATM   21  C   UNL     1      -9.540   4.342  68.626  1.00  0.00    -0.210 A  
HETATM   22  C   UNL     1      -9.653   5.128  69.774  1.00  0.00    -0.242 A  
HETATM   23  H2  UNL     1      -9.509   4.577  65.600  1.00  0.00     0.000 HD 
HETATM   24  H1  UNL     1      -9.484   3.081  66.306  1.00  0.00     0.000 HD 
ENDBRANCH  13  16
ENDBRANCH  11  13
ENDBRANCH   6  11
ENDBRANCH   2   3
TORSDOF 4
ENDMDL
MODEL      269
REMARK 921   NORMALIZED FREE ENERGY PREDICTED BY IDOCK:   -2.82 KCAL/MOL
REMARK 922        TOTAL FREE ENERGY PREDICTED BY IDOCK:   -4.30 KCAL/MOL
REMARK 923 INTER-LIGAND FREE ENERGY PREDICTED BY IDOCK:   -4.89 KCAL/MOL
REMARK 924 INTRA-LIGAND FREE ENERGY PREDICTED BY IDOCK:    0.59 KCAL/MOL
REMARK 927      BINDING AFFINITY PREDICTED BY RF-SCORE:    0.00 PKD
ROOT
HETATM    1  C   UNL     1      -9.332  11.146  62.475  1.00  0.00    -0.271 C  
HETATM    2  C   UNL     1     -10.248  12.055  63.282  1.00  0.00    -0.361 C  
ENDROOT
BRANCH   2   3
HETATM    3  N   UNL     1     -10.578  11.469  64.577  1.00  0.00    -0.309 N  
HETATM    4  C   UNL     1      -9.873  10.377  65.039  1.00  0.00    -0.319 C  
HETATM    5  C   UNL     1     -10.130   9.850  66.236  1.00  0.00    -0.311 C  
HETATM    6  C   UNL     1     -11.171  10.557  66.990  1.00  0.00     0.011 C  
HETATM    7  N   UNL     1     -11.822  11.585  66.594  1.00  0.00     0.123 N  
HETATM    8  O   UNL     1     -12.170  13.082  64.942  1.00  0.00    -0.389 OA 
HETATM    9  C   UNL     1     -11.560  12.098  65.354  1.00  0.00    -0.330 C  
HETATM   10  H   UNL     1     -12.526  12.014  67.194  1.00  0.00     0.000 HD 
BRANCH   6  11
HETATM   11  N   UNL     1     -11.426  10.000  68.246  1.00  0.00    -0.529 N  
HETATM   12  H   UNL     1     -11.547   8.988  68.300  1.00  0.00     0.000 HD 
BRANCH  11  13
HETATM   13  S   UNL     1     -11.548  10.873  69.669  1.00  0.00    -0.352 S  
HETATM   14  O   UNL     1     -12.969  10.923  69.950  1.00  0.00    -0.098 OA 
HETATM   15  O   UNL     1     -10.631  10.307  70.635  1.00  0.00    -0.214 OA 
BRANCH  13  16
HETATM   16  C   UNL     1     -11.023  12.507  69.236  1.00  0.00    -0.080 A  
HETATM   17  C   UNL     1      -9.794  12.701  68.604  1.00  0.00    -0.077 A  
HETATM   18  C   UNL     1      -9.399  13.996  68.255  1.00  0.00    -0.208 A  
HETATM   19  C   UNL     1     -10.201  15.100  68.567  1.00  0.00    -0.231 A  
HETATM   20  N   UNL     1      -9.845  16.379  68.124  1.00  0.00    -0.234 NA 
HETATM   21  C   UNL     1     -11.465  14.878  69.118  1.00  0.00    -0.324 A  
HETATM   22  C   UNL     1     -11.878  13.589  69.456  1.00  0.00    -0.392 A  
HETATM   23  H2  UNL     1      -9.725  16.346  67.111  1.00  0.00     0.000 HD 
HETATM   24  H1  UNL     1     -10.429  17.184  68.352  1.00  0.00     0.000 HD 
ENDBRANCH  13  16
ENDBRANCH  11  13
ENDBRANCH   6  11
ENDBRANCH   2   3
TORSDOF 4
ENDMDL
MODEL      270
REMARK 921   NORMALIZED FREE ENERGY PREDICTED BY IDOCK:   -2.82 KCAL/MOL
REMARK 922        TOTAL FREE ENERGY PREDICTED BY IDOCK:   -4.29 KCAL/MOL
REMARK 923 INTER-LIGAND FREE ENERGY PREDICTED BY IDOCK:   -3.85 KCAL/MOL
REMARK 924 INTRA-LIGAND FREE ENERGY PREDICTED BY IDOCK:   -0.45 KCAL/MOL
REMARK 927      BINDING AFFINITY PREDICTED BY RF-SCORE:    0.00 PKD
ROOT
HETATM    1  C   UNL     1     -10.686  15.159  64.747  1.00  0.00    -0.344 C  
HETATM    2  C   UNL     1     -10.680  15.283  66.263  1.00  0.00    -0.315 C  
ENDROOT
BRANCH   2   3
HETATM    3  N   UNL     1     -10.248  14.042  66.899  1.00  0.00    -0.257 N  
HETATM    4  C   UNL     1      -8.976  13.943  67.422  1.00  0.00    -0.210 C  
HETATM    5  C   UNL     1      -8.573  12.834  68.044  1.00  0.00    -0.186 C  
HETATM    6  C   UNL     1      -9.605  11.796  68.141  1.00  0.00    -0.193 C  
HETATM    7  N   UNL     1     -10.797  11.873  67.686  1.00  0.00    -0.217 N  
HETATM    8  O   UNL     1     -12.323  13.114  66.579  1.00  0.00    -0.348 OA 
HETATM    9  C   UNL     1     -11.185  13.009  67.032  1.00  0.00    -0.289 C  
HETATM   10  H   UNL     1     -11.449  11.098  67.808  1.00  0.00     0.000 HD 
BRANCH   6  11
HETATM   11  N   UNL     1      -9.173  10.641  68.800  1.00  0.00    -0.173 N  
HETATM   12  H   UNL     1      -9.071  10.685  69.814  1.00  0.00     0.000 HD 
BRANCH  11  13
HETATM   13  S   UNL     1      -8.813   9.191  68.046  1.00  0.00    -0.128 S  
HETATM   14  O   UNL     1      -9.999   8.873  67.275  1.00  0.00    -0.182 OA 
HETATM   15  O   UNL     1      -7.529   9.320  67.391  1.00  0.00    -0.087 OA 
BRANCH  13  16
HETATM   16  C   UNL     1      -8.695   8.018  69.366  1.00  0.00    -0.137 A  
HETATM   17  C   UNL     1      -9.811   7.264  69.733  1.00  0.00    -0.177 A  
HETATM   18  C   UNL     1      -9.699   6.332  70.768  1.00  0.00    -0.202 A  
HETATM   19  C   UNL     1      -8.496   6.175  71.466  1.00  0.00    -0.127 A  
HETATM   20  N   UNL     1      -8.365   5.169  72.431  1.00  0.00    -0.120 NA 
HETATM   21  C   UNL     1      -7.368   6.872  71.027  1.00  0.00    -0.078 A  
HETATM   22  C   UNL     1      -7.462   7.794  69.984  1.00  0.00    -0.080 A  
HETATM   23  H2  UNL     1      -8.604   4.277  71.999  1.00  0.00     0.000 HD 
HETATM   24  H1  UNL     1      -7.489   5.055  72.940  1.00  0.00     0.000 HD 
ENDBRANCH  13  16
ENDBRANCH  11  13
ENDBRANCH   6  11
ENDBRANCH   2   3
TORSDOF 4
ENDMDL
MODEL      271
REMARK 921   NORMALIZED FREE ENERGY PREDICTED BY IDOCK:   -2.77 KCAL/MOL
REMARK 922        TOTAL FREE ENERGY PREDICTED BY IDOCK:   -4.24 KCAL/MOL
REMARK 923 INTER-LIGAND FREE ENERGY PREDICTED BY IDOCK:   -3.72 KCAL/MOL
REMARK 924 INTRA-LIGAND FREE ENERGY PREDICTED BY IDOCK:   -0.51 KCAL/MOL
REMARK 927      BINDING AFFINITY PREDICTED BY RF-SCORE:    0.00 PKD
ROOT
HETATM    1  C   UNL     1      -9.587  11.374  62.950  1.00  0.00    -0.366 C  
HETATM    2  C   UNL     1     -10.073  12.282  64.071  1.00  0.00    -0.325 C  
ENDROOT
BRANCH   2   3
HETATM    3  N   UNL     1     -10.038  11.603  65.363  1.00  0.00    -0.248 N  
HETATM    4  C   UNL     1     -10.340  10.260  65.443  1.00  0.00    -0.163 C  
HETATM    5  C   UNL     1     -10.275   9.610  66.605  1.00  0.00    -0.302 C  
HETATM    6  C   UNL     1      -9.826  10.438  67.729  1.00  0.00    -0.168 C  
HETATM    7  N   UNL     1      -9.517  11.678  67.676  1.00  0.00    -0.174 N  
HETATM    8  O   UNL     1      -9.325  13.526  66.394  1.00  0.00    -0.248 OA 
HETATM    9  C   UNL     1      -9.610  12.333  66.480  1.00  0.00    -0.238 C  
HETATM   10  H   UNL     1      -9.206  12.171  68.513  1.00  0.00     0.000 HD 
BRANCH   6  11
HETATM   11  N   UNL     1      -9.756   9.744  68.941  1.00  0.00    -0.165 N  
HETATM   12  H   UNL     1     -10.632   9.538  69.420  1.00  0.00     0.000 HD 
BRANCH  11  13
HETATM   13  S   UNL     1      -8.336   9.225  69.661  1.00  0.00    -0.155 S  
HETATM   14  O   UNL     1      -7.384   9.131  68.572  1.00  0.00    -0.075 OA 
HETATM   15  O   UNL     1      -8.062  10.074  70.800  1.00  0.00    -0.105 OA 
BRANCH  13  16
HETATM   16  C   UNL     1      -8.692   7.581  70.213  1.00  0.00    -0.145 A  
HETATM   17  C   UNL     1      -8.036   6.493  69.635  1.00  0.00    -0.120 A  
HETATM   18  C   UNL     1      -8.316   5.202  70.091  1.00  0.00    -0.093 A  
HETATM   19  C   UNL     1      -9.273   4.985  71.089  1.00  0.00    -0.145 A  
HETATM   20  N   UNL     1      -9.473   3.701  71.609  1.00  0.00    -0.134 NA 
HETATM   21  C   UNL     1      -9.853   6.090  71.716  1.00  0.00    -0.189 A  
HETATM   22  C   UNL     1      -9.569   7.386  71.282  1.00  0.00    -0.166 A  
HETATM   23  H2  UNL     1      -8.576   3.346  71.942  1.00  0.00     0.000 HD 
HETATM   24  H1  UNL     1     -10.170   3.542  72.336  1.00  0.00     0.000 HD 
ENDBRANCH  13  16
ENDBRANCH  11  13
ENDBRANCH   6  11
ENDBRANCH   2   3
TORSDOF 4
ENDMDL
MODEL      272
REMARK 921   NORMALIZED FREE ENERGY PREDICTED BY IDOCK:   -2.76 KCAL/MOL
REMARK 922        TOTAL FREE ENERGY PREDICTED BY IDOCK:   -4.23 KCAL/MOL
REMARK 923 INTER-LIGAND FREE ENERGY PREDICTED BY IDOCK:   -3.70 KCAL/MOL
REMARK 924 INTRA-LIGAND FREE ENERGY PREDICTED BY IDOCK:   -0.53 KCAL/MOL
REMARK 927      BINDING AFFINITY PREDICTED BY RF-SCORE:    0.00 PKD
ROOT
HETATM    1  C   UNL     1      -8.541   6.765  70.381  1.00  0.00    -0.146 C  
HETATM    2  C   UNL     1      -9.989   7.221  70.283  1.00  0.00    -0.187 C  
ENDROOT
BRANCH   2   3
HETATM    3  N   UNL     1     -10.179   8.164  69.184  1.00  0.00    -0.210 N  
HETATM    4  C   UNL     1     -10.223   7.706  67.885  1.00  0.00    -0.198 C  
HETATM    5  C   UNL     1     -10.437   8.543  66.868  1.00  0.00    -0.345 C  
HETATM    6  C   UNL     1     -10.651   9.935  67.276  1.00  0.00    -0.252 C  
HETATM    7  N   UNL     1     -10.638  10.380  68.475  1.00  0.00    -0.196 N  
HETATM    8  O   UNL     1     -10.373   9.907  70.666  1.00  0.00    -0.286 OA 
HETATM    9  C   UNL     1     -10.396   9.511  69.502  1.00  0.00    -0.217 C  
HETATM   10  H   UNL     1     -10.806  11.369  68.662  1.00  0.00     0.000 HD 
BRANCH   6  11
HETATM   11  N   UNL     1     -10.880  10.802  66.203  1.00  0.00    -0.119 N  
HETATM   12  H   UNL     1     -11.846  10.944  65.907  1.00  0.00     0.000 HD 
BRANCH  11  13
HETATM   13  S   UNL     1      -9.684  11.624  65.370  1.00  0.00    -0.210 S  
HETATM   14  O   UNL     1     -10.353  12.167  64.205  1.00  0.00    -0.305 OA 
HETATM   15  O   UNL     1      -8.999  12.501  66.295  1.00  0.00    -0.138 OA 
BRANCH  13  16
HETATM   16  C   UNL     1      -8.575  10.359  64.817  1.00  0.00    -0.182 A  
HETATM   17  C   UNL     1      -8.751   9.778  63.561  1.00  0.00    -0.234 A  
HETATM   18  C   UNL     1      -7.860   8.790  63.132  1.00  0.00    -0.149 A  
HETATM   19  C   UNL     1      -6.822   8.349  63.961  1.00  0.00    -0.075 A  
HETATM   20  N   UNL     1      -5.876   7.434  63.484  1.00  0.00    -0.044 NA 
HETATM   21  C   UNL     1      -6.609   9.004  65.176  1.00  0.00    -0.072 A  
HETATM   22  C   UNL     1      -7.482  10.004  65.609  1.00  0.00    -0.137 A  
HETATM   23  H2  UNL     1      -5.466   7.813  62.630  1.00  0.00     0.000 HD 
HETATM   24  H1  UNL     1      -5.120   7.113  64.088  1.00  0.00     0.000 HD 
ENDBRANCH  13  16
ENDBRANCH  11  13
ENDBRANCH   6  11
ENDBRANCH   2   3
TORSDOF 4
ENDMDL
MODEL      273
REMARK 921   NORMALIZED FREE ENERGY PREDICTED BY IDOCK:   -2.65 KCAL/MOL
REMARK 922        TOTAL FREE ENERGY PREDICTED BY IDOCK:   -4.09 KCAL/MOL
REMARK 923 INTER-LIGAND FREE ENERGY PREDICTED BY IDOCK:   -3.25 KCAL/MOL
REMARK 924 INTRA-LIGAND FREE ENERGY PREDICTED BY IDOCK:   -0.85 KCAL/MOL
REMARK 927      BINDING AFFINITY PREDICTED BY RF-SCORE:    0.00 PKD
ROOT
HETATM    1  C   UNL     1     -10.394   3.869  64.898  1.00  0.00    -0.152 C  
HETATM    2  C   UNL     1      -8.973   4.282  65.252  1.00  0.00    -0.137 C  
ENDROOT
BRANCH   2   3
HETATM    3  N   UNL     1      -8.958   5.375  66.219  1.00  0.00    -0.132 N  
HETATM    4  C   UNL     1     -10.084   5.646  66.968  1.00  0.00    -0.188 C  
HETATM    5  C   UNL     1     -10.081   6.613  67.887  1.00  0.00    -0.177 C  
HETATM    6  C   UNL     1      -8.791   7.295  68.032  1.00  0.00    -0.129 C  
HETATM    7  N   UNL     1      -7.727   7.046  67.367  1.00  0.00    -0.108 N  
HETATM    8  O   UNL     1      -6.751   5.805  65.755  1.00  0.00    -0.049 OA 
HETATM    9  C   UNL     1      -7.755   6.066  66.415  1.00  0.00    -0.102 C  
HETATM   10  H   UNL     1      -6.871   7.572  67.545  1.00  0.00     0.000 HD 
BRANCH   6  11
HETATM   11  N   UNL     1      -8.798   8.302  69.003  1.00  0.00    -0.143 N  
HETATM   12  H   UNL     1      -9.225   9.194  68.755  1.00  0.00     0.000 HD 
BRANCH  11  13
HETATM   13  S   UNL     1      -8.159   8.146  70.542  1.00  0.00    -0.108 S  
HETATM   14  O   UNL     1      -6.971   7.334  70.366  1.00  0.00    -0.055 OA 
HETATM   15  O   UNL     1      -8.063   9.463  71.135  1.00  0.00    -0.322 OA 
BRANCH  13  16
HETATM   16  C   UNL     1      -9.351   7.180  71.425  1.00  0.00    -0.154 A  
HETATM   17  C   UNL     1      -9.125   5.820  71.639  1.00  0.00    -0.152 A  
HETATM   18  C   UNL     1     -10.068   5.072  72.350  1.00  0.00    -0.238 A  
HETATM   19  C   UNL     1     -11.251   5.661  72.812  1.00  0.00    -0.299 A  
HETATM   20  N   UNL     1     -12.139   4.929  73.609  1.00  0.00    -0.075 NA 
HETATM   21  C   UNL     1     -11.417   7.040  72.666  1.00  0.00    -0.250 A  
HETATM   22  C   UNL     1     -10.475   7.801  71.972  1.00  0.00    -0.277 A  
HETATM   23  H2  UNL     1     -11.626   4.567  74.413  1.00  0.00     0.000 HD 
HETATM   24  H1  UNL     1     -13.002   5.359  73.946  1.00  0.00     0.000 HD 
ENDBRANCH  13  16
ENDBRANCH  11  13
ENDBRANCH   6  11
ENDBRANCH   2   3
TORSDOF 4
ENDMDL
MODEL      274
REMARK 921   NORMALIZED FREE ENERGY PREDICTED BY IDOCK:   -2.64 KCAL/MOL
REMARK 922        TOTAL FREE ENERGY PREDICTED BY IDOCK:   -4.08 KCAL/MOL
REMARK 923 INTER-LIGAND FREE ENERGY PREDICTED BY IDOCK:   -3.56 KCAL/MOL
REMARK 924 INTRA-LIGAND FREE ENERGY PREDICTED BY IDOCK:   -0.53 KCAL/MOL
REMARK 927      BINDING AFFINITY PREDICTED BY RF-SCORE:    0.00 PKD
ROOT
HETATM    1  C   UNL     1      -9.973   3.129  63.673  1.00  0.00    -0.157 C  
HETATM    2  C   UNL     1      -9.010   3.267  64.842  1.00  0.00    -0.135 C  
ENDROOT
BRANCH   2   3
HETATM    3  N   UNL     1      -8.783   4.668  65.185  1.00  0.00    -0.134 N  
HETATM    4  C   UNL     1      -7.692   5.335  64.669  1.00  0.00    -0.088 C  
HETATM    5  C   UNL     1      -7.487   6.625  64.936  1.00  0.00    -0.093 C  
HETATM    6  C   UNL     1      -8.528   7.236  65.768  1.00  0.00    -0.143 C  
HETATM    7  N   UNL     1      -9.560   6.646  66.239  1.00  0.00    -0.357 N  
HETATM    8  O   UNL     1     -10.722   4.719  66.413  1.00  0.00    -0.253 OA 
HETATM    9  C   UNL     1      -9.743   5.317  65.973  1.00  0.00    -0.139 C  
HETATM   10  H   UNL     1     -10.237   7.158  66.804  1.00  0.00     0.000 HD 
BRANCH   6  11
HETATM   11  N   UNL     1      -8.306   8.591  66.035  1.00  0.00    -0.123 N  
HETATM   12  H   UNL     1      -7.348   8.885  66.223  1.00  0.00     0.000 HD 
BRANCH  11  13
HETATM   13  S   UNL     1      -9.499   9.764  66.068  1.00  0.00    -0.231 S  
HETATM   14  O   UNL     1      -9.797  10.025  64.673  1.00  0.00    -0.318 OA 
HETATM   15  O   UNL     1     -10.544   9.332  66.970  1.00  0.00    -0.246 OA 
BRANCH  13  16
HETATM   16  C   UNL     1      -8.696  11.198  66.727  1.00  0.00    -0.157 A  
HETATM   17  C   UNL     1      -7.325  11.173  66.986  1.00  0.00    -0.128 A  
HETATM   18  C   UNL     1      -6.702  12.317  67.494  1.00  0.00    -0.138 A  
HETATM   19  C   UNL     1      -7.443  13.469  67.782  1.00  0.00    -0.166 A  
HETATM   20  N   UNL     1      -6.795  14.640  68.193  1.00  0.00    -0.110 NA 
HETATM   21  C   UNL     1      -8.795  13.505  67.433  1.00  0.00    -0.221 A  
HETATM   22  C   UNL     1      -9.425  12.374  66.910  1.00  0.00    -0.219 A  
HETATM   23  H2  UNL     1      -6.090  14.879  67.496  1.00  0.00     0.000 HD 
HETATM   24  H1  UNL     1      -7.334  15.480  68.404  1.00  0.00     0.000 HD 
ENDBRANCH  13  16
ENDBRANCH  11  13
ENDBRANCH   6  11
ENDBRANCH   2   3
TORSDOF 4
ENDMDL
MODEL      275
REMARK 921   NORMALIZED FREE ENERGY PREDICTED BY IDOCK:   -2.61 KCAL/MOL
REMARK 922        TOTAL FREE ENERGY PREDICTED BY IDOCK:   -4.05 KCAL/MOL
REMARK 923 INTER-LIGAND FREE ENERGY PREDICTED BY IDOCK:   -4.81 KCAL/MOL
REMARK 924 INTRA-LIGAND FREE ENERGY PREDICTED BY IDOCK:    0.77 KCAL/MOL
REMARK 927      BINDING AFFINITY PREDICTED BY RF-SCORE:    0.00 PKD
ROOT
HETATM    1  C   UNL     1     -11.034  12.524  66.820  1.00  0.00    -0.304 C  
HETATM    2  C   UNL     1     -12.046  13.656  66.738  1.00  0.00    -0.399 C  
ENDROOT
BRANCH   2   3
HETATM    3  N   UNL     1     -11.590  14.835  67.469  1.00  0.00    -0.358 N  
HETATM    4  C   UNL     1     -10.941  15.851  66.801  1.00  0.00    -0.151 C  
HETATM    5  C   UNL     1     -10.552  16.955  67.440  1.00  0.00    -0.294 C  
HETATM    6  C   UNL     1     -10.915  16.982  68.861  1.00  0.00    -0.141 C  
HETATM    7  N   UNL     1     -11.538  16.063  69.497  1.00  0.00    -0.326 N  
HETATM    8  O   UNL     1     -12.506  14.026  69.413  1.00  0.00    -0.283 OA 
HETATM    9  C   UNL     1     -11.909  14.930  68.830  1.00  0.00    -0.301 C  
HETATM   10  H   UNL     1     -11.754  16.176  70.488  1.00  0.00     0.000 HD 
BRANCH   6  11
HETATM   11  N   UNL     1     -10.508  18.146  69.519  1.00  0.00    -0.205 N  
HETATM   12  H   UNL     1     -10.623  18.182  70.532  1.00  0.00     0.000 HD 
BRANCH  11  13
HETATM   13  S   UNL     1      -9.845  19.485  68.764  1.00  0.00    -0.437 S  
HETATM   14  O   UNL     1     -10.829  19.873  67.772  1.00  0.00    -0.318 OA 
HETATM   15  O   UNL     1      -9.422  20.424  69.781  1.00  0.00     0.509 OA 
BRANCH  13  16
HETATM   16  C   UNL     1      -8.429  18.857  67.906  1.00  0.00    -0.290 A  
HETATM   17  C   UNL     1      -7.571  17.958  68.540  1.00  0.00    -0.290 A  
HETATM   18  C   UNL     1      -6.465  17.460  67.845  1.00  0.00    -0.164 A  
HETATM   19  C   UNL     1      -6.187  17.882  66.540  1.00  0.00    -0.181 A  
HETATM   20  N   UNL     1      -5.137  17.302  65.819  1.00  0.00    -0.278 NA 
HETATM   21  C   UNL     1      -7.104  18.712  65.893  1.00  0.00    -0.290 A  
HETATM   22  C   UNL     1      -8.222  19.203  66.569  1.00  0.00    -0.315 A  
HETATM   23  H2  UNL     1      -5.276  16.291  65.806  1.00  0.00     0.000 HD 
HETATM   24  H1  UNL     1      -4.934  17.610  64.867  1.00  0.00     0.000 HD 
ENDBRANCH  13  16
ENDBRANCH  11  13
ENDBRANCH   6  11
ENDBRANCH   2   3
TORSDOF 4
ENDMDL
MODEL      276
REMARK 921   NORMALIZED FREE ENERGY PREDICTED BY IDOCK:   -2.59 KCAL/MOL
REMARK 922        TOTAL FREE ENERGY PREDICTED BY IDOCK:   -4.01 KCAL/MOL
REMARK 923 INTER-LIGAND FREE ENERGY PREDICTED BY IDOCK:   -3.30 KCAL/MOL
REMARK 924 INTRA-LIGAND FREE ENERGY PREDICTED BY IDOCK:   -0.71 KCAL/MOL
REMARK 927      BINDING AFFINITY PREDICTED BY RF-SCORE:    0.00 PKD
ROOT
HETATM    1  C   UNL     1      -9.400   4.867  73.692  1.00  0.00    -0.126 C  
HETATM    2  C   UNL     1      -9.747   6.301  73.322  1.00  0.00    -0.162 C  
ENDROOT
BRANCH   2   3
HETATM    3  N   UNL     1      -9.890   6.462  71.878  1.00  0.00    -0.159 N  
HETATM    4  C   UNL     1     -11.065   6.097  71.258  1.00  0.00    -0.291 C  
HETATM    5  C   UNL     1     -11.233   6.273  69.946  1.00  0.00    -0.498 C  
HETATM    6  C   UNL     1     -10.093   6.908  69.278  1.00  0.00    -0.170 C  
HETATM    7  N   UNL     1      -9.002   7.277  69.835  1.00  0.00    -0.142 N  
HETATM    8  O   UNL     1      -7.802   7.408  71.742  1.00  0.00    -0.088 OA 
HETATM    9  C   UNL     1      -8.840   7.069  71.176  1.00  0.00    -0.141 C  
HETATM   10  H   UNL     1      -8.264   7.719  69.286  1.00  0.00     0.000 HD 
BRANCH   6  11
HETATM   11  N   UNL     1     -10.283   7.093  67.905  1.00  0.00    -0.176 N  
HETATM   12  H   UNL     1     -11.003   7.752  67.612  1.00  0.00     0.000 HD 
BRANCH  11  13
HETATM   13  S   UNL     1      -9.412   6.310  66.709  1.00  0.00    -0.147 S  
HETATM   14  O   UNL     1      -8.298   5.698  67.405  1.00  0.00    -0.102 OA 
HETATM   15  O   UNL     1     -10.324   5.498  65.933  1.00  0.00    -0.047 OA 
BRANCH  13  16
HETATM   16  C   UNL     1      -8.770   7.615  65.699  1.00  0.00    -0.092 A  
HETATM   17  C   UNL     1      -8.212   7.323  64.454  1.00  0.00     0.007 A  
HETATM   18  C   UNL     1      -7.721   8.365  63.661  1.00  0.00    -0.144 A  
HETATM   19  C   UNL     1      -7.745   9.687  64.118  1.00  0.00    -0.129 A  
HETATM   20  N   UNL     1      -7.345  10.733  63.277  1.00  0.00    -0.346 NA 
HETATM   21  C   UNL     1      -8.387   9.969  65.326  1.00  0.00    -0.157 A  
HETATM   22  C   UNL     1      -8.896   8.940  66.119  1.00  0.00    -0.193 A  
HETATM   23  H2  UNL     1      -7.892  10.680  62.418  1.00  0.00     0.000 HD 
HETATM   24  H1  UNL     1      -7.363  11.697  63.610  1.00  0.00     0.000 HD 
ENDBRANCH  13  16
ENDBRANCH  11  13
ENDBRANCH   6  11
ENDBRANCH   2   3
TORSDOF 4
ENDMDL
MODEL      277
REMARK 921   NORMALIZED FREE ENERGY PREDICTED BY IDOCK:   -2.57 KCAL/MOL
REMARK 922        TOTAL FREE ENERGY PREDICTED BY IDOCK:   -4.00 KCAL/MOL
REMARK 923 INTER-LIGAND FREE ENERGY PREDICTED BY IDOCK:   -3.36 KCAL/MOL
REMARK 924 INTRA-LIGAND FREE ENERGY PREDICTED BY IDOCK:   -0.64 KCAL/MOL
REMARK 927      BINDING AFFINITY PREDICTED BY RF-SCORE:    0.00 PKD
ROOT
HETATM    1  C   UNL     1      -6.597  10.573  69.768  1.00  0.00    -0.112 C  
HETATM    2  C   UNL     1      -5.592   9.565  70.306  1.00  0.00    -0.033 C  
ENDROOT
BRANCH   2   3
HETATM    3  N   UNL     1      -6.087   8.197  70.180  1.00  0.00    -0.032 N  
HETATM    4  C   UNL     1      -6.610   7.550  71.280  1.00  0.00    -0.042 C  
HETATM    5  C   UNL     1      -7.105   6.316  71.180  1.00  0.00    -0.074 C  
HETATM    6  C   UNL     1      -7.071   5.767  69.820  1.00  0.00    -0.068 C  
HETATM    7  N   UNL     1      -6.614   6.356  68.781  1.00  0.00    -0.049 N  
HETATM    8  O   UNL     1      -5.639   8.204  67.929  1.00  0.00    -0.033 OA 
HETATM    9  C   UNL     1      -6.090   7.612  68.907  1.00  0.00    -0.035 C  
HETATM   10  H   UNL     1      -6.639   5.894  67.871  1.00  0.00     0.000 HD 
BRANCH   6  11
HETATM   11  N   UNL     1      -7.598   4.476  69.727  1.00  0.00    -0.054 N  
HETATM   12  H   UNL     1      -7.014   3.702  70.041  1.00  0.00     0.000 HD 
BRANCH  11  13
HETATM   13  S   UNL     1      -9.121   4.110  69.137  1.00  0.00    -0.145 S  
HETATM   14  O   UNL     1      -9.122   4.617  67.778  1.00  0.00    -0.110 OA 
HETATM   15  O   UNL     1      -9.391   2.712  69.395  1.00  0.00    -0.132 OA 
BRANCH  13  16
HETATM   16  C   UNL     1     -10.223   5.116  70.091  1.00  0.00    -0.278 A  
HETATM   17  C   UNL     1     -10.989   6.099  69.464  1.00  0.00    -0.463 A  
HETATM   18  C   UNL     1     -11.865   6.877  70.227  1.00  0.00    -0.311 A  
HETATM   19  C   UNL     1     -11.952   6.708  71.614  1.00  0.00    -0.347 A  
HETATM   20  N   UNL     1     -12.904   7.419  72.354  1.00  0.00    -0.493 NA 
HETATM   21  C   UNL     1     -11.245   5.660  72.209  1.00  0.00    -0.317 A  
HETATM   22  C   UNL     1     -10.380   4.866  71.455  1.00  0.00    -0.228 A  
HETATM   23  H2  UNL     1     -13.823   7.240  71.950  1.00  0.00     0.000 HD 
HETATM   24  H1  UNL     1     -12.967   7.296  73.364  1.00  0.00     0.000 HD 
ENDBRANCH  13  16
ENDBRANCH  11  13
ENDBRANCH   6  11
ENDBRANCH   2   3
TORSDOF 4
ENDMDL
MODEL      278
REMARK 921   NORMALIZED FREE ENERGY PREDICTED BY IDOCK:   -2.52 KCAL/MOL
REMARK 922        TOTAL FREE ENERGY PREDICTED BY IDOCK:   -3.93 KCAL/MOL
REMARK 923 INTER-LIGAND FREE ENERGY PREDICTED BY IDOCK:   -5.06 KCAL/MOL
REMARK 924 INTRA-LIGAND FREE ENERGY PREDICTED BY IDOCK:    1.13 KCAL/MOL
REMARK 927      BINDING AFFINITY PREDICTED BY RF-SCORE:    0.00 PKD
ROOT
HETATM    1  C   UNL     1     -12.368   6.358  72.153  1.00  0.00    -0.231 C  
HETATM    2  C   UNL     1     -11.635   7.675  72.362  1.00  0.00    -0.336 C  
ENDROOT
BRANCH   2   3
HETATM    3  N   UNL     1     -10.771   7.992  71.228  1.00  0.00    -0.226 N  
HETATM    4  C   UNL     1      -9.858   9.020  71.324  1.00  0.00    -0.306 C  
HETATM    5  C   UNL     1      -9.031   9.301  70.316  1.00  0.00    -0.261 C  
HETATM    6  C   UNL     1      -9.169   8.405  69.163  1.00  0.00    -0.150 C  
HETATM    7  N   UNL     1      -9.991   7.431  69.059  1.00  0.00    -0.171 N  
HETATM    8  O   UNL     1     -11.650   6.245  70.025  1.00  0.00    -0.425 OA 
HETATM    9  C   UNL     1     -10.846   7.172  70.094  1.00  0.00    -0.257 C  
HETATM   10  H   UNL     1     -10.008   6.856  68.217  1.00  0.00     0.000 HD 
BRANCH   6  11
HETATM   11  N   UNL     1      -8.292   8.705  68.116  1.00  0.00    -0.126 N  
HETATM   12  H   UNL     1      -7.356   8.303  68.152  1.00  0.00     0.000 HD 
BRANCH  11  13
HETATM   13  S   UNL     1      -8.670   9.677  66.806  1.00  0.00    -0.135 S  
HETATM   14  O   UNL     1      -7.412  10.287  66.425  1.00  0.00    -0.103 OA 
HETATM   15  O   UNL     1      -9.420   8.889  65.851  1.00  0.00    -0.237 OA 
BRANCH  13  16
HETATM   16  C   UNL     1      -9.707  10.946  67.477  1.00  0.00    -0.167 A  
HETATM   17  C   UNL     1      -9.185  12.217  67.719  1.00  0.00    -0.191 A  
HETATM   18  C   UNL     1     -10.018  13.214  68.235  1.00  0.00    -0.236 A  
HETATM   19  C   UNL     1     -11.355  12.941  68.549  1.00  0.00    -0.289 A  
HETATM   20  N   UNL     1     -12.206  13.969  68.969  1.00  0.00    -0.494 NA 
HETATM   21  C   UNL     1     -11.881  11.690  68.217  1.00  0.00    -0.335 A  
HETATM   22  C   UNL     1     -11.063  10.692  67.685  1.00  0.00    -0.385 A  
HETATM   23  H2  UNL     1     -12.186  14.709  68.267  1.00  0.00     0.000 HD 
HETATM   24  H1  UNL     1     -13.180  13.770  69.198  1.00  0.00     0.000 HD 
ENDBRANCH  13  16
ENDBRANCH  11  13
ENDBRANCH   6  11
ENDBRANCH   2   3
TORSDOF 4
ENDMDL
MODEL      279
REMARK 921   NORMALIZED FREE ENERGY PREDICTED BY IDOCK:   -2.49 KCAL/MOL
REMARK 922        TOTAL FREE ENERGY PREDICTED BY IDOCK:   -3.89 KCAL/MOL
REMARK 923 INTER-LIGAND FREE ENERGY PREDICTED BY IDOCK:   -3.97 KCAL/MOL
REMARK 924 INTRA-LIGAND FREE ENERGY PREDICTED BY IDOCK:    0.08 KCAL/MOL
REMARK 927      BINDING AFFINITY PREDICTED BY RF-SCORE:    0.00 PKD
ROOT
HETATM    1  C   UNL     1     -11.196  15.898  64.483  1.00  0.00    -0.324 C  
HETATM    2  C   UNL     1     -10.932  15.573  65.946  1.00  0.00    -0.264 C  
ENDROOT
BRANCH   2   3
HETATM    3  N   UNL     1     -10.716  14.143  66.145  1.00  0.00    -0.293 N  
HETATM    4  C   UNL     1      -9.441  13.661  66.353  1.00  0.00    -0.234 C  
HETATM    5  C   UNL     1      -9.224  12.365  66.578  1.00  0.00    -0.215 C  
HETATM    6  C   UNL     1     -10.445  11.553  66.620  1.00  0.00    -0.238 C  
HETATM    7  N   UNL     1     -11.640  11.980  66.453  1.00  0.00    -0.355 N  
HETATM    8  O   UNL     1     -12.976  13.750  66.034  1.00  0.00    -0.345 OA 
HETATM    9  C   UNL     1     -11.841  13.308  66.202  1.00  0.00    -0.390 C  
HETATM   10  H   UNL     1     -12.431  11.337  66.508  1.00  0.00     0.000 HD 
BRANCH   6  11
HETATM   11  N   UNL     1     -10.206  10.198  66.863  1.00  0.00    -0.225 N  
HETATM   12  H   UNL     1     -10.344   9.546  66.090  1.00  0.00     0.000 HD 
BRANCH  11  13
HETATM   13  S   UNL     1      -9.708   9.566  68.331  1.00  0.00    -0.158 S  
HETATM   14  O   UNL     1      -8.964  10.640  68.960  1.00  0.00    -0.167 OA 
HETATM   15  O   UNL     1     -10.855   8.985  68.994  1.00  0.00    -0.179 OA 
BRANCH  13  16
HETATM   16  C   UNL     1      -8.558   8.290  67.900  1.00  0.00    -0.132 A  
HETATM   17  C   UNL     1      -7.235   8.368  68.336  1.00  0.00    -0.085 A  
HETATM   18  C   UNL     1      -6.341   7.347  68.000  1.00  0.00    -0.048 A  
HETATM   19  C   UNL     1      -6.747   6.271  67.202  1.00  0.00    -0.060 A  
HETATM   20  N   UNL     1      -5.875   5.205  66.957  1.00  0.00    -0.021 NA 
HETATM   21  C   UNL     1      -8.095   6.166  66.852  1.00  0.00    -0.109 A  
HETATM   22  C   UNL     1      -9.001   7.171  67.194  1.00  0.00    -0.129 A  
HETATM   23  H2  UNL     1      -5.558   4.836  67.854  1.00  0.00     0.000 HD 
HETATM   24  H1  UNL     1      -6.170   4.421  66.375  1.00  0.00     0.000 HD 
ENDBRANCH  13  16
ENDBRANCH  11  13
ENDBRANCH   6  11
ENDBRANCH   2   3
TORSDOF 4
ENDMDL
MODEL      280
REMARK 921   NORMALIZED FREE ENERGY PREDICTED BY IDOCK:   -2.48 KCAL/MOL
REMARK 922        TOTAL FREE ENERGY PREDICTED BY IDOCK:   -3.88 KCAL/MOL
REMARK 923 INTER-LIGAND FREE ENERGY PREDICTED BY IDOCK:   -3.37 KCAL/MOL
REMARK 924 INTRA-LIGAND FREE ENERGY PREDICTED BY IDOCK:   -0.51 KCAL/MOL
REMARK 927      BINDING AFFINITY PREDICTED BY RF-SCORE:    0.00 PKD
ROOT
HETATM    1  C   UNL     1     -12.557  10.703  71.747  1.00  0.00    -0.411 C  
HETATM    2  C   UNL     1     -13.026  11.018  70.335  1.00  0.00    -0.053 C  
ENDROOT
BRANCH   2   3
HETATM    3  N   UNL     1     -12.128  11.958  69.671  1.00  0.00    -0.270 N  
HETATM    4  C   UNL     1     -11.935  13.216  70.200  1.00  0.00    -0.310 C  
HETATM    5  C   UNL     1     -11.089  14.077  69.633  1.00  0.00    -0.154 C  
HETATM    6  C   UNL     1     -10.388  13.543  68.461  1.00  0.00    -0.240 C  
HETATM    7  N   UNL     1     -10.533  12.373  67.965  1.00  0.00    -0.211 N  
HETATM    8  O   UNL     1     -11.586  10.381  68.093  1.00  0.00    -0.355 OA 
HETATM    9  C   UNL     1     -11.420  11.511  68.547  1.00  0.00    -0.292 C  
HETATM   10  H   UNL     1      -9.993  12.087  67.148  1.00  0.00     0.000 HD 
BRANCH   6  11
HETATM   11  N   UNL     1      -9.500  14.452  67.880  1.00  0.00    -0.209 N  
HETATM   12  H   UNL     1      -9.845  15.026  67.110  1.00  0.00     0.000 HD 
BRANCH  11  13
HETATM   13  S   UNL     1      -7.910  14.668  68.356  1.00  0.00    -0.140 S  
HETATM   14  O   UNL     1      -7.336  15.533  67.344  1.00  0.00    -0.173 OA 
HETATM   15  O   UNL     1      -7.896  15.062  69.748  1.00  0.00    -0.172 OA 
BRANCH  13  16
HETATM   16  C   UNL     1      -7.171  13.068  68.183  1.00  0.00    -0.116 A  
HETATM   17  C   UNL     1      -6.638  12.420  69.298  1.00  0.00    -0.093 A  
HETATM   18  C   UNL     1      -6.071  11.152  69.149  1.00  0.00    -0.047 A  
HETATM   19  C   UNL     1      -5.995  10.542  67.891  1.00  0.00    -0.043 A  
HETATM   20  N   UNL     1      -5.519   9.232  67.769  1.00  0.00    -0.037 NA 
HETATM   21  C   UNL     1      -6.613  11.166  66.804  1.00  0.00    -0.133 A  
HETATM   22  C   UNL     1      -7.197  12.425  66.943  1.00  0.00     0.087 A  
HETATM   23  H2  UNL     1      -6.069   8.631  68.383  1.00  0.00     0.000 HD 
HETATM   24  H1  UNL     1      -5.463   8.788  66.852  1.00  0.00     0.000 HD 
ENDBRANCH  13  16
ENDBRANCH  11  13
ENDBRANCH   6  11
ENDBRANCH   2   3
TORSDOF 4
ENDMDL
MODEL      281
REMARK 921   NORMALIZED FREE ENERGY PREDICTED BY IDOCK:   -2.40 KCAL/MOL
REMARK 922        TOTAL FREE ENERGY PREDICTED BY IDOCK:   -3.78 KCAL/MOL
REMARK 923 INTER-LIGAND FREE ENERGY PREDICTED BY IDOCK:   -3.19 KCAL/MOL
REMARK 924 INTRA-LIGAND FREE ENERGY PREDICTED BY IDOCK:   -0.60 KCAL/MOL
REMARK 927      BINDING AFFINITY PREDICTED BY RF-SCORE:    0.00 PKD
ROOT
HETATM    1  C   UNL     1      -8.071   1.682  64.416  1.00  0.00    -0.069 C  
HETATM    2  C   UNL     1      -8.275   2.051  65.878  1.00  0.00    -0.089 C  
ENDROOT
BRANCH   2   3
HETATM    3  N   UNL     1      -8.605   3.465  66.032  1.00  0.00    -0.114 N  
HETATM    4  C   UNL     1      -9.902   3.893  65.846  1.00  0.00    -0.128 C  
HETATM    5  C   UNL     1     -10.234   5.173  66.021  1.00  0.00    -0.215 C  
HETATM    6  C   UNL     1      -9.122   6.025  66.455  1.00  0.00    -0.146 C  
HETATM    7  N   UNL     1      -7.917   5.647  66.657  1.00  0.00    -0.101 N  
HETATM    8  O   UNL     1      -6.440   3.941  66.633  1.00  0.00    -0.039 OA 
HETATM    9  C   UNL     1      -7.590   4.336  66.452  1.00  0.00    -0.089 C  
HETATM   10  H   UNL     1      -7.211   6.315  66.967  1.00  0.00     0.000 HD 
BRANCH   6  11
HETATM   11  N   UNL     1      -9.484   7.363  66.642  1.00  0.00    -0.181 N  
HETATM   12  H   UNL     1      -9.711   7.912  65.813  1.00  0.00     0.000 HD 
BRANCH  11  13
HETATM   13  S   UNL     1      -9.574   8.127  68.128  1.00  0.00    -0.153 S  
HETATM   14  O   UNL     1     -10.844   7.703  68.684  1.00  0.00    -0.113 OA 
HETATM   15  O   UNL     1      -8.343   7.881  68.847  1.00  0.00    -0.125 OA 
BRANCH  13  16
HETATM   16  C   UNL     1      -9.702   9.849  67.737  1.00  0.00    -0.150 A  
HETATM   17  C   UNL     1      -8.549  10.602  67.517  1.00  0.00    -0.122 A  
HETATM   18  C   UNL     1      -8.665  11.958  67.195  1.00  0.00    -0.176 A  
HETATM   19  C   UNL     1      -9.920  12.575  67.131  1.00  0.00    -0.216 A  
HETATM   20  N   UNL     1     -10.032  13.905  66.710  1.00  0.00    -0.263 NA 
HETATM   21  C   UNL     1     -11.064  11.786  67.267  1.00  0.00    -0.342 A  
HETATM   22  C   UNL     1     -10.962  10.428  67.572  1.00  0.00    -0.358 A  
HETATM   23  H2  UNL     1      -9.586  13.991  65.796  1.00  0.00     0.000 HD 
HETATM   24  H1  UNL     1     -10.946  14.355  66.663  1.00  0.00     0.000 HD 
ENDBRANCH  13  16
ENDBRANCH  11  13
ENDBRANCH   6  11
ENDBRANCH   2   3
TORSDOF 4
ENDMDL
MODEL      282
REMARK 921   NORMALIZED FREE ENERGY PREDICTED BY IDOCK:   -2.35 KCAL/MOL
REMARK 922        TOTAL FREE ENERGY PREDICTED BY IDOCK:   -3.72 KCAL/MOL
REMARK 923 INTER-LIGAND FREE ENERGY PREDICTED BY IDOCK:   -3.18 KCAL/MOL
REMARK 924 INTRA-LIGAND FREE ENERGY PREDICTED BY IDOCK:   -0.54 KCAL/MOL
REMARK 927      BINDING AFFINITY PREDICTED BY RF-SCORE:    0.00 PKD
ROOT
HETATM    1  C   UNL     1      -6.763  12.182  67.366  1.00  0.00    -0.143 C  
HETATM    2  C   UNL     1      -6.494  10.747  67.793  1.00  0.00    -0.059 C  
ENDROOT
BRANCH   2   3
HETATM    3  N   UNL     1      -7.595  10.210  68.588  1.00  0.00    -0.083 N  
HETATM    4  C   UNL     1      -8.644   9.569  67.967  1.00  0.00    -0.120 C  
HETATM    5  C   UNL     1      -9.640   9.035  68.675  1.00  0.00    -0.158 C  
HETATM    6  C   UNL     1      -9.477   9.166  70.127  1.00  0.00    -0.208 C  
HETATM    7  N   UNL     1      -8.502   9.735  70.728  1.00  0.00    -0.116 N  
HETATM    8  O   UNL     1      -6.551  10.853  70.530  1.00  0.00    -0.309 OA 
HETATM    9  C   UNL     1      -7.501  10.295  69.984  1.00  0.00    -0.132 C  
HETATM   10  H   UNL     1      -8.472   9.770  71.747  1.00  0.00     0.000 HD 
BRANCH   6  11
HETATM   11  N   UNL     1     -10.523   8.597  70.859  1.00  0.00    -0.204 N  
HETATM   12  H   UNL     1     -11.352   9.168  71.023  1.00  0.00     0.000 HD 
BRANCH  11  13
HETATM   13  S   UNL     1     -10.514   7.044  71.485  1.00  0.00    -0.203 S  
HETATM   14  O   UNL     1      -9.797   7.158  72.740  1.00  0.00    -0.165 OA 
HETATM   15  O   UNL     1     -11.867   6.530  71.460  1.00  0.00    -0.314 OA 
BRANCH  13  16
HETATM   16  C   UNL     1      -9.503   6.118  70.365  1.00  0.00    -0.161 A  
HETATM   17  C   UNL     1      -8.124   6.046  70.566  1.00  0.00    -0.112 A  
HETATM   18  C   UNL     1      -7.340   5.300  69.682  1.00  0.00    -0.064 A  
HETATM   19  C   UNL     1      -7.915   4.659  68.579  1.00  0.00    -0.080 A  
HETATM   20  N   UNL     1      -7.138   3.832  67.759  1.00  0.00    -0.055 NA 
HETATM   21  C   UNL     1      -9.305   4.667  68.445  1.00  0.00    -0.186 A  
HETATM   22  C   UNL     1     -10.101   5.396  69.331  1.00  0.00    -0.304 A  
HETATM   23  H2  UNL     1      -6.694   3.124  68.345  1.00  0.00     0.000 HD 
HETATM   24  H1  UNL     1      -7.557   3.364  66.954  1.00  0.00     0.000 HD 
ENDBRANCH  13  16
ENDBRANCH  11  13
ENDBRANCH   6  11
ENDBRANCH   2   3
TORSDOF 4
ENDMDL
MODEL      283
REMARK 921   NORMALIZED FREE ENERGY PREDICTED BY IDOCK:   -2.29 KCAL/MOL
REMARK 922        TOTAL FREE ENERGY PREDICTED BY IDOCK:   -3.65 KCAL/MOL
REMARK 923 INTER-LIGAND FREE ENERGY PREDICTED BY IDOCK:   -2.98 KCAL/MOL
REMARK 924 INTRA-LIGAND FREE ENERGY PREDICTED BY IDOCK:   -0.67 KCAL/MOL
REMARK 927      BINDING AFFINITY PREDICTED BY RF-SCORE:    0.00 PKD
ROOT
HETATM    1  C   UNL     1      -5.613   5.475  72.114  1.00  0.00    -0.018 C  
HETATM    2  C   UNL     1      -6.730   6.503  72.211  1.00  0.00    -0.067 C  
ENDROOT
BRANCH   2   3
HETATM    3  N   UNL     1      -7.123   6.991  70.892  1.00  0.00    -0.069 N  
HETATM    4  C   UNL     1      -7.103   6.139  69.809  1.00  0.00    -0.072 C  
HETATM    5  C   UNL     1      -7.497   6.552  68.603  1.00  0.00    -0.088 C  
HETATM    6  C   UNL     1      -7.972   7.939  68.572  1.00  0.00    -0.121 C  
HETATM    7  N   UNL     1      -8.022   8.741  69.567  1.00  0.00    -0.094 N  
HETATM    8  O   UNL     1      -7.625   9.054  71.767  1.00  0.00    -0.321 OA 
HETATM    9  C   UNL     1      -7.594   8.307  70.790  1.00  0.00    -0.073 C  
HETATM   10  H   UNL     1      -8.376   9.691  69.449  1.00  0.00     0.000 HD 
BRANCH   6  11
HETATM   11  N   UNL     1      -8.388   8.358  67.305  1.00  0.00    -0.122 N  
HETATM   12  H   UNL     1      -9.172   7.865  66.877  1.00  0.00     0.000 HD 
BRANCH  11  13
HETATM   13  S   UNL     1      -7.693   9.611  66.440  1.00  0.00    -0.102 S  
HETATM   14  O   UNL     1      -6.686  10.157  67.328  1.00  0.00    -0.072 OA 
HETATM   15  O   UNL     1      -7.323   9.117  65.131  1.00  0.00    -0.093 OA 
BRANCH  13  16
HETATM   16  C   UNL     1      -8.983  10.813  66.280  1.00  0.00    -0.170 A  
HETATM   17  C   UNL     1      -8.713  12.162  66.509  1.00  0.00    -0.114 A  
HETATM   18  C   UNL     1      -9.738  13.102  66.366  1.00  0.00    -0.269 A  
HETATM   19  C   UNL     1     -11.038  12.701  66.036  1.00  0.00    -0.287 A  
HETATM   20  N   UNL     1     -12.032  13.656  65.796  1.00  0.00    -0.371 NA 
HETATM   21  C   UNL     1     -11.269  11.359  65.724  1.00  0.00    -0.157 A  
HETATM   22  C   UNL     1     -10.249  10.414  65.848  1.00  0.00    -0.302 A  
HETATM   23  H2  UNL     1     -11.699  14.291  65.070  1.00  0.00     0.000 HD 
HETATM   24  H1  UNL     1     -12.980  13.364  65.556  1.00  0.00     0.000 HD 
ENDBRANCH  13  16
ENDBRANCH  11  13
ENDBRANCH   6  11
ENDBRANCH   2   3
TORSDOF 4
ENDMDL
MODEL      284
REMARK 921   NORMALIZED FREE ENERGY PREDICTED BY IDOCK:   -1.63 KCAL/MOL
REMARK 922        TOTAL FREE ENERGY PREDICTED BY IDOCK:   -2.83 KCAL/MOL
REMARK 923 INTER-LIGAND FREE ENERGY PREDICTED BY IDOCK:   -3.46 KCAL/MOL
REMARK 924 INTRA-LIGAND FREE ENERGY PREDICTED BY IDOCK:    0.64 KCAL/MOL
REMARK 927      BINDING AFFINITY PREDICTED BY RF-SCORE:    0.00 PKD
ROOT
HETATM    1  C   UNL     1     -10.780  18.683  65.357  1.00  0.00     0.217 C  
HETATM    2  C   UNL     1      -9.990  19.049  66.604  1.00  0.00    -0.374 C  
ENDROOT
BRANCH   2   3
HETATM    3  N   UNL     1      -8.968  18.050  66.903  1.00  0.00    -0.255 N  
HETATM    4  C   UNL     1      -7.998  17.756  65.968  1.00  0.00    -0.129 C  
HETATM    5  C   UNL     1      -7.031  16.877  66.234  1.00  0.00    -0.131 C  
HETATM    6  C   UNL     1      -7.089  16.316  67.587  1.00  0.00    -0.141 C  
HETATM    7  N   UNL     1      -7.964  16.590  68.480  1.00  0.00    -0.204 N  
HETATM    8  O   UNL     1      -9.818  17.759  69.015  1.00  0.00    -0.298 OA 
HETATM    9  C   UNL     1      -8.960  17.477  68.182  1.00  0.00    -0.266 C  
HETATM   10  H   UNL     1      -7.918  16.152  69.401  1.00  0.00     0.000 HD 
BRANCH   6  11
HETATM   11  N   UNL     1      -6.067  15.401  67.857  1.00  0.00    -0.140 N  
HETATM   12  H   UNL     1      -5.128  15.631  67.531  1.00  0.00     0.000 HD 
BRANCH  11  13
HETATM   13  S   UNL     1      -6.273  13.956  68.676  1.00  0.00    -0.097 S  
HETATM   14  O   UNL     1      -5.145  13.140  68.273  1.00  0.00    -0.072 OA 
HETATM   15  O   UNL     1      -6.502  14.249  70.074  1.00  0.00    -0.148 OA 
BRANCH  13  16
HETATM   16  C   UNL     1      -7.733  13.247  67.969  1.00  0.00    -0.147 A  
HETATM   17  C   UNL     1      -8.158  11.980  68.370  1.00  0.00    -0.154 A  
HETATM   18  C   UNL     1      -9.321  11.438  67.813  1.00  0.00    -0.162 A  
HETATM   19  C   UNL     1     -10.038  12.132  66.832  1.00  0.00    -0.206 A  
HETATM   20  N   UNL     1     -11.253  11.627  66.356  1.00  0.00    -0.311 NA 
HETATM   21  C   UNL     1      -9.648  13.434  66.510  1.00  0.00    -0.277 A  
HETATM   22  C   UNL     1      -8.499  13.993  67.070  1.00  0.00    -0.168 A  
HETATM   23  H2  UNL     1     -11.870  11.470  67.153  1.00  0.00     0.000 HD 
HETATM   24  H1  UNL     1     -11.777  12.133  65.641  1.00  0.00     0.000 HD 
ENDBRANCH  13  16
ENDBRANCH  11  13
ENDBRANCH   6  11
ENDBRANCH   2   3
TORSDOF 4
ENDMDL
MODEL      285
REMARK 921   NORMALIZED FREE ENERGY PREDICTED BY IDOCK:    0.03 KCAL/MOL
REMARK 922        TOTAL FREE ENERGY PREDICTED BY IDOCK:   -0.78 KCAL/MOL
REMARK 923 INTER-LIGAND FREE ENERGY PREDICTED BY IDOCK:   -0.81 KCAL/MOL
REMARK 924 INTRA-LIGAND FREE ENERGY PREDICTED BY IDOCK:    0.03 KCAL/MOL
REMARK 927      BINDING AFFINITY PREDICTED BY RF-SCORE:    0.00 PKD
ROOT
HETATM    1  C   UNL     1     -13.292  15.322  70.602  1.00  0.00    -0.320 C  
HETATM    2  C   UNL     1     -12.274  16.268  71.220  1.00  0.00    -0.012 C  
ENDROOT
BRANCH   2   3
HETATM    3  N   UNL     1     -11.174  16.545  70.301  1.00  0.00    -0.255 N  
HETATM    4  C   UNL     1     -11.130  17.743  69.620  1.00  0.00     1.425 C  
HETATM    5  C   UNL     1     -10.114  18.034  68.807  1.00  0.00    -0.388 C  
HETATM    6  C   UNL     1      -9.075  16.999  68.755  1.00  0.00    -0.252 C  
HETATM    7  N   UNL     1      -9.082  15.891  69.394  1.00  0.00    -0.250 N  
HETATM    8  O   UNL     1     -10.181  14.543  70.832  1.00  0.00     0.922 OA 
HETATM    9  C   UNL     1     -10.142  15.601  70.206  1.00  0.00    -0.004 C  
HETATM   10  H   UNL     1      -8.307  15.234  69.299  1.00  0.00     0.000 HD 
BRANCH   6  11
HETATM   11  N   UNL     1      -8.012  17.318  67.904  1.00  0.00    -0.200 N  
HETATM   12  H   UNL     1      -7.688  18.285  67.894  1.00  0.00     0.000 HD 
BRANCH  11  13
HETATM   13  S   UNL     1      -7.233  16.227  66.903  1.00  0.00    -0.197 S  
HETATM   14  O   UNL     1      -8.287  15.660  66.085  1.00  0.00    -0.196 OA 
HETATM   15  O   UNL     1      -6.106  16.893  66.286  1.00  0.00    -0.278 OA 
BRANCH  13  16
HETATM   16  C   UNL     1      -6.652  14.958  67.993  1.00  0.00    -0.148 A  
HETATM   17  C   UNL     1      -7.131  13.653  67.863  1.00  0.00    -0.151 A  
HETATM   18  C   UNL     1      -6.653  12.659  68.721  1.00  0.00    -0.089 A  
HETATM   19  C   UNL     1      -5.734  12.963  69.732  1.00  0.00    -0.112 A  
HETATM   20  N   UNL     1      -5.186  11.944  70.519  1.00  0.00    -0.112 NA 
HETATM   21  C   UNL     1      -5.201  14.253  69.789  1.00  0.00    -0.092 A  
HETATM   22  C   UNL     1      -5.657  15.251  68.927  1.00  0.00    -0.098 A  
HETATM   23  H2  UNL     1      -4.763  11.252  69.899  1.00  0.00     0.000 HD 
HETATM   24  H1  UNL     1      -4.516  12.166  71.256  1.00  0.00     0.000 HD 
ENDBRANCH  13  16
ENDBRANCH  11  13
ENDBRANCH   6  11
ENDBRANCH   2   3
TORSDOF 4
ENDMDL
MODEL      286
REMARK 921   NORMALIZED FREE ENERGY PREDICTED BY IDOCK:    0.04 KCAL/MOL
REMARK 922        TOTAL FREE ENERGY PREDICTED BY IDOCK:   -0.78 KCAL/MOL
REMARK 923 INTER-LIGAND FREE ENERGY PREDICTED BY IDOCK:   -0.30 KCAL/MOL
REMARK 924 INTRA-LIGAND FREE ENERGY PREDICTED BY IDOCK:   -0.48 KCAL/MOL
REMARK 927      BINDING AFFINITY PREDICTED BY RF-SCORE:    0.00 PKD
ROOT
HETATM    1  C   UNL     1     -11.200  18.114  64.622  1.00  0.00     2.631 C  
HETATM    2  C   UNL     1     -10.617  18.301  66.015  1.00  0.00    -0.296 C  
ENDROOT
BRANCH   2   3
HETATM    3  N   UNL     1     -10.034  17.062  66.521  1.00  0.00    -0.297 N  
HETATM    4  C   UNL     1      -8.666  16.941  66.637  1.00  0.00    -0.247 C  
HETATM    5  C   UNL     1      -8.113  15.834  67.135  1.00  0.00    -0.244 C  
HETATM    6  C   UNL     1      -9.084  14.823  67.565  1.00  0.00    -0.189 C  
HETATM    7  N   UNL     1     -10.358  14.921  67.491  1.00  0.00    -0.238 N  
HETATM    8  O   UNL     1     -12.125  16.178  66.867  1.00  0.00     0.995 OA 
HETATM    9  C   UNL     1     -10.905  16.054  66.957  1.00  0.00    -0.227 C  
HETATM   10  H   UNL     1     -10.955  14.164  67.824  1.00  0.00     0.000 HD 
BRANCH   6  11
HETATM   11  N   UNL     1      -8.494  13.671  68.092  1.00  0.00    -0.167 N  
HETATM   12  H   UNL     1      -7.547  13.751  68.462  1.00  0.00     0.000 HD 
BRANCH  11  13
HETATM   13  S   UNL     1      -9.229  12.169  68.158  1.00  0.00    -0.193 S  
HETATM   14  O   UNL     1      -8.373  11.377  69.020  1.00  0.00    -0.084 OA 
HETATM   15  O   UNL     1     -10.626  12.355  68.487  1.00  0.00    -0.223 OA 
BRANCH  13  16
HETATM   16  C   UNL     1      -9.084  11.528  66.514  1.00  0.00    -0.194 A  
HETATM   17  C   UNL     1      -7.990  10.734  66.168  1.00  0.00    -0.157 A  
HETATM   18  C   UNL     1      -7.895  10.224  64.871  1.00  0.00    -0.134 A  
HETATM   19  C   UNL     1      -8.862  10.531  63.906  1.00  0.00    -0.194 A  
HETATM   20  N   UNL     1      -8.812   9.934  62.641  1.00  0.00    -0.216 NA 
HETATM   21  C   UNL     1      -9.993  11.252  64.295  1.00  0.00    -0.347 A  
HETATM   22  C   UNL     1     -10.108  11.753  65.592  1.00  0.00    -0.278 A  
HETATM   23  H2  UNL     1      -8.794   8.921  62.765  1.00  0.00     0.000 HD 
HETATM   24  H1  UNL     1      -9.516  10.158  61.938  1.00  0.00     0.000 HD 
ENDBRANCH  13  16
ENDBRANCH  11  13
ENDBRANCH   6  11
ENDBRANCH   2   3
TORSDOF 4
ENDMDL
MODEL      287
REMARK 921   NORMALIZED FREE ENERGY PREDICTED BY IDOCK:    2.49 KCAL/MOL
REMARK 922        TOTAL FREE ENERGY PREDICTED BY IDOCK:    2.25 KCAL/MOL
REMARK 923 INTER-LIGAND FREE ENERGY PREDICTED BY IDOCK:    2.75 KCAL/MOL
REMARK 924 INTRA-LIGAND FREE ENERGY PREDICTED BY IDOCK:   -0.50 KCAL/MOL
REMARK 927      BINDING AFFINITY PREDICTED BY RF-SCORE:    0.00 PKD
ROOT
HETATM    1  C   UNL     1     -10.395   9.441  63.292  1.00  0.00     3.428 C  
HETATM    2  C   UNL     1     -11.060  10.809  63.328  1.00  0.00     0.869 C  
ENDROOT
BRANCH   2   3
HETATM    3  N   UNL     1     -10.789  11.502  64.584  1.00  0.00    -0.317 N  
HETATM    4  C   UNL     1     -10.432  10.783  65.705  1.00  0.00    -0.186 C  
HETATM    5  C   UNL     1     -10.140  11.398  66.852  1.00  0.00    -0.245 C  
HETATM    6  C   UNL     1     -10.198  12.861  66.777  1.00  0.00    -0.241 C  
HETATM    7  N   UNL     1     -10.503  13.552  65.744  1.00  0.00    -0.286 N  
HETATM    8  O   UNL     1     -11.122  13.537  63.574  1.00  0.00     0.077 OA 
HETATM    9  C   UNL     1     -10.820  12.903  64.583  1.00  0.00    -0.342 C  
HETATM   10  H   UNL     1     -10.509  14.571  65.786  1.00  0.00     0.000 HD 
BRANCH   6  11
HETATM   11  N   UNL     1      -9.884  13.495  67.983  1.00  0.00    -0.231 N  
HETATM   12  H   UNL     1     -10.657  13.805  68.570  1.00  0.00     0.000 HD 
BRANCH  11  13
HETATM   13  S   UNL     1      -8.329  13.780  68.532  1.00  0.00    -0.075 S  
HETATM   14  O   UNL     1      -8.298  13.210  69.865  1.00  0.00     1.778 OA 
HETATM   15  O   UNL     1      -7.394  13.329  67.523  1.00  0.00    -0.148 OA 
BRANCH  13  16
HETATM   16  C   UNL     1      -8.228  15.540  68.693  1.00  0.00    -0.162 A  
HETATM   17  C   UNL     1      -7.020  16.141  69.049  1.00  0.00    -0.178 A  
HETATM   18  C   UNL     1      -6.952  17.533  69.160  1.00  0.00    -0.211 A  
HETATM   19  C   UNL     1      -8.088  18.325  68.957  1.00  0.00    -0.070 A  
HETATM   20  N   UNL     1      -7.986  19.721  68.970  1.00  0.00    -0.214 NA 
HETATM   21  C   UNL     1      -9.263  17.714  68.515  1.00  0.00    -0.281 A  
HETATM   22  C   UNL     1      -9.340  16.327  68.385  1.00  0.00    -0.210 A  
HETATM   23  H2  UNL     1      -7.277  19.998  68.291  1.00  0.00     0.000 HD 
HETATM   24  H1  UNL     1      -8.814  20.299  68.823  1.00  0.00     0.000 HD 
ENDBRANCH  13  16
ENDBRANCH  11  13
ENDBRANCH   6  11
ENDBRANCH   2   3
TORSDOF 4
ENDMDL
MODEL      288
REMARK 921   NORMALIZED FREE ENERGY PREDICTED BY IDOCK:    5.44 KCAL/MOL
REMARK 922        TOTAL FREE ENERGY PREDICTED BY IDOCK:    5.89 KCAL/MOL
REMARK 923 INTER-LIGAND FREE ENERGY PREDICTED BY IDOCK:    4.81 KCAL/MOL
REMARK 924 INTRA-LIGAND FREE ENERGY PREDICTED BY IDOCK:    1.09 KCAL/MOL
REMARK 927      BINDING AFFINITY PREDICTED BY RF-SCORE:    0.00 PKD
ROOT
HETATM    1  C   UNL     1      -9.200  11.791  62.756  1.00  0.00     0.199 C  
HETATM    2  C   UNL     1     -10.693  12.003  62.556  1.00  0.00     1.555 C  
ENDROOT
BRANCH   2   3
HETATM    3  N   UNL     1     -11.319  12.559  63.752  1.00  0.00    -0.429 N  
HETATM    4  C   UNL     1     -11.539  11.756  64.851  1.00  0.00    -0.158 C  
HETATM    5  C   UNL     1     -12.072  12.252  65.968  1.00  0.00    -0.229 C  
HETATM    6  C   UNL     1     -12.345  13.692  65.912  1.00  0.00    -0.471 C  
HETATM    7  N   UNL     1     -12.127  14.462  64.915  1.00  0.00    -0.420 N  
HETATM    8  O   UNL     1     -11.383  14.644  62.791  1.00  0.00     2.526 OA 
HETATM    9  C   UNL     1     -11.601  13.932  63.770  1.00  0.00     0.002 C  
HETATM   10  H   UNL     1     -12.344  15.457  64.972  1.00  0.00     0.000 HD 
BRANCH   6  11
HETATM   11  N   UNL     1     -12.897  14.201  67.091  1.00  0.00    -0.062 N  
HETATM   12  H   UNL     1     -13.872  13.980  67.292  1.00  0.00     0.000 HD 
BRANCH  11  13
HETATM   13  S   UNL     1     -12.071  15.147  68.198  1.00  0.00     0.181 S  
HETATM   14  O   UNL     1     -12.714  16.445  68.126  1.00  0.00     1.536 OA 
HETATM   15  O   UNL     1     -12.006  14.433  69.455  1.00  0.00    -0.297 OA 
BRANCH  13  16
HETATM   16  C   UNL     1     -10.444  15.311  67.520  1.00  0.00    -0.265 A  
HETATM   17  C   UNL     1     -10.274  15.793  66.222  1.00  0.00    -0.317 A  
HETATM   18  C   UNL     1      -8.983  15.930  65.704  1.00  0.00     0.133 A  
HETATM   19  C   UNL     1      -7.865  15.552  66.455  1.00  0.00     0.118 A  
HETATM   20  N   UNL     1      -6.574  15.787  65.968  1.00  0.00     1.550 NA 
HETATM   21  C   UNL     1      -8.049  15.156  67.782  1.00  0.00    -0.157 A  
HETATM   22  C   UNL     1      -9.332  15.031  68.316  1.00  0.00    -0.192 A  
HETATM   23  H2  UNL     1      -6.490  16.780  65.746  1.00  0.00     0.000 HD 
HETATM   24  H1  UNL     1      -5.758  15.512  66.516  1.00  0.00     0.000 HD 
ENDBRANCH  13  16
ENDBRANCH  11  13
ENDBRANCH   6  11
ENDBRANCH   2   3
TORSDOF 4
ENDMDL
