MODEL        1
REMARK 921   NORMALIZED FREE ENERGY PREDICTED BY IDOCK:   -7.62 KCAL/MOL
REMARK 922        TOTAL FREE ENERGY PREDICTED BY IDOCK:   -9.90 KCAL/MOL
REMARK 923 INTER-LIGAND FREE ENERGY PREDICTED BY IDOCK:   -8.95 KCAL/MOL
REMARK 924 INTRA-LIGAND FREE ENERGY PREDICTED BY IDOCK:   -0.95 KCAL/MOL
REMARK 927      BINDING AFFINITY PREDICTED BY RF-SCORE:    0.00 PKD
ROOT
HETATM    1  C   UNL     1     -11.222  10.355  68.276  1.00  0.00    -0.330 C  
HETATM    2  C   UNL     1     -11.590  11.473  69.196  1.00  0.00    -0.382 C  
HETATM    3  C   UNL     1     -12.249  11.398  70.376  1.00  0.00    -0.450 C  
HETATM    4  C   UNL     1     -12.447  12.776  70.860  1.00  0.00    -0.373 A  
HETATM    5  C   UNL     1     -10.494  13.284  67.872  1.00  0.00    -0.244 C  
HETATM    6  C   UNL     1     -11.294  12.885  68.878  1.00  0.00    -0.335 C  
HETATM    7  C   UNL     1     -13.048  13.216  72.030  1.00  0.00    -0.476 A  
HETATM    8  C   UNL     1     -13.209  14.587  72.202  1.00  0.00    -0.369 A  
HETATM    9  C   UNL     1     -11.957  13.695  69.909  1.00  0.00    -0.415 A  
HETATM   10  C   UNL     1     -12.176  15.056  70.058  1.00  0.00    -0.373 A  
HETATM   11  F   UNL     1     -13.773  15.043  73.328  1.00  0.00    -0.495 F  
HETATM   12  C   UNL     1     -12.812  15.502  71.221  1.00  0.00    -0.540 A  
ENDROOT
BRANCH   3  13
HETATM   13  C   UNL     1     -12.832  10.213  71.082  1.00  0.00    -0.494 C  
HETATM   14  O   UNL     1     -10.547   9.467  71.568  1.00  0.00    -0.323 OA 
HETATM   15  C   UNL     1     -11.868   9.284  71.808  1.00  0.00    -0.384 C  
HETATM   16  O   UNL     1     -12.257   8.392  72.551  1.00  0.00    -0.386 OA 
ENDBRANCH   3  13
BRANCH   5  17
HETATM   17  C   UNL     1     -10.057  14.641  67.519  1.00  0.00    -0.224 A  
HETATM   18  C   UNL     1     -10.768  15.403  66.584  1.00  0.00    -0.309 A  
HETATM   19  C   UNL     1     -10.391  16.727  66.305  1.00  0.00    -0.316 A  
HETATM   20  C   UNL     1      -9.304  17.309  66.969  1.00  0.00    -0.251 A  
HETATM   21  C   UNL     1      -8.593  16.538  67.897  1.00  0.00    -0.183 A  
HETATM   22  C   UNL     1      -8.964  15.216  68.172  1.00  0.00    -0.174 A  
BRANCH  20  23
HETATM   23  S   UNL     1      -8.725  18.976  66.554  1.00  0.00    -0.322 S  
HETATM   24  C   UNL     1     -10.268  19.728  65.989  1.00  0.00    -0.501 C  
HETATM   25  O   UNL     1      -8.368  19.622  67.862  1.00  0.00    -0.301 OA 
ENDBRANCH  20  23
ENDBRANCH   5  17
TORSDOF 3
ENDMDL
MODEL        2
REMARK 921   NORMALIZED FREE ENERGY PREDICTED BY IDOCK:   -7.57 KCAL/MOL
REMARK 922        TOTAL FREE ENERGY PREDICTED BY IDOCK:   -9.85 KCAL/MOL
REMARK 923 INTER-LIGAND FREE ENERGY PREDICTED BY IDOCK:   -8.95 KCAL/MOL
REMARK 924 INTRA-LIGAND FREE ENERGY PREDICTED BY IDOCK:   -0.89 KCAL/MOL
REMARK 927      BINDING AFFINITY PREDICTED BY RF-SCORE:    0.00 PKD
ROOT
HETATM    1  C   UNL     1     -11.195  10.512  68.189  1.00  0.00    -0.357 C  
HETATM    2  C   UNL     1     -11.580  11.592  69.147  1.00  0.00    -0.382 C  
HETATM    3  C   UNL     1     -12.219  11.463  70.334  1.00  0.00    -0.450 C  
HETATM    4  C   UNL     1     -12.449  12.820  70.860  1.00  0.00    -0.373 A  
HETATM    5  C   UNL     1     -10.559  13.471  67.860  1.00  0.00    -0.255 C  
HETATM    6  C   UNL     1     -11.331  13.020  68.866  1.00  0.00    -0.333 C  
HETATM    7  C   UNL     1     -13.045  13.208  72.051  1.00  0.00    -0.476 A  
HETATM    8  C   UNL     1     -13.243  14.569  72.265  1.00  0.00    -0.389 A  
HETATM    9  C   UNL     1     -12.001  13.780  69.930  1.00  0.00    -0.412 A  
HETATM   10  C   UNL     1     -12.257  15.130  70.121  1.00  0.00    -0.395 A  
HETATM   11  F   UNL     1     -13.803  14.975  73.412  1.00  0.00    -0.361 F  
HETATM   12  C   UNL     1     -12.888  15.522  71.306  1.00  0.00    -0.540 A  
ENDROOT
BRANCH   3  13
HETATM   13  C   UNL     1     -12.756  10.242  71.013  1.00  0.00    -0.491 C  
HETATM   14  O   UNL     1     -10.444   9.551  71.445  1.00  0.00    -0.317 OA 
HETATM   15  C   UNL     1     -11.754   9.322  71.698  1.00  0.00    -0.392 C  
HETATM   16  O   UNL     1     -12.106   8.398  72.421  1.00  0.00    -0.371 OA 
ENDBRANCH   3  13
BRANCH   5  17
HETATM   17  C   UNL     1     -10.167  14.850  67.541  1.00  0.00    -0.233 A  
HETATM   18  C   UNL     1      -9.122  15.476  68.232  1.00  0.00    -0.186 A  
HETATM   19  C   UNL     1      -8.700  16.768  67.875  1.00  0.00    -0.203 A  
HETATM   20  C   UNL     1      -9.310  17.443  66.811  1.00  0.00    -0.268 A  
HETATM   21  C   UNL     1     -10.360  16.813  66.129  1.00  0.00    -0.338 A  
HETATM   22  C   UNL     1     -10.785  15.528  66.488  1.00  0.00    -0.304 A  
BRANCH  20  23
HETATM   23  S   UNL     1      -8.864  19.151  66.395  1.00  0.00    -0.319 S  
HETATM   24  C   UNL     1     -10.497  19.836  66.033  1.00  0.00    -0.506 C  
HETATM   25  O   UNL     1      -8.394  19.775  67.677  1.00  0.00    -0.301 OA 
ENDBRANCH  20  23
ENDBRANCH   5  17
TORSDOF 3
ENDMDL
MODEL        3
REMARK 921   NORMALIZED FREE ENERGY PREDICTED BY IDOCK:   -7.56 KCAL/MOL
REMARK 922        TOTAL FREE ENERGY PREDICTED BY IDOCK:   -9.83 KCAL/MOL
REMARK 923 INTER-LIGAND FREE ENERGY PREDICTED BY IDOCK:   -9.11 KCAL/MOL
REMARK 924 INTRA-LIGAND FREE ENERGY PREDICTED BY IDOCK:   -0.72 KCAL/MOL
REMARK 927      BINDING AFFINITY PREDICTED BY RF-SCORE:    0.00 PKD
ROOT
HETATM    1  C   UNL     1     -12.284  14.163  68.633  1.00  0.00    -0.216 C  
HETATM    2  C   UNL     1     -11.603  13.022  67.949  1.00  0.00    -0.385 C  
HETATM    3  C   UNL     1     -11.084  12.990  66.699  1.00  0.00    -0.318 C  
HETATM    4  C   UNL     1     -10.603  11.619  66.457  1.00  0.00    -0.292 A  
HETATM    5  C   UNL     1     -11.697  11.452  69.888  1.00  0.00    -0.424 C  
HETATM    6  C   UNL     1     -11.450  11.699  68.588  1.00  0.00    -0.349 C  
HETATM    7  C   UNL     1      -9.974  11.096  65.335  1.00  0.00    -0.309 A  
HETATM    8  C   UNL     1      -9.716   9.729  65.313  1.00  0.00    -0.300 A  
HETATM    9  C   UNL     1     -10.908  10.798  67.562  1.00  0.00    -0.342 A  
HETATM   10  C   UNL     1     -10.704   9.427  67.507  1.00  0.00    -0.290 A  
HETATM   11  F   UNL     1      -9.097   9.198  64.250  1.00  0.00    -0.234 F  
HETATM   12  C   UNL     1     -10.101   8.892  66.365  1.00  0.00    -0.333 A  
ENDROOT
BRANCH   3  13
HETATM   13  C   UNL     1     -11.069  14.042  65.634  1.00  0.00    -0.302 C  
HETATM   14  O   UNL     1     -13.147  13.081  64.755  1.00  0.00    -0.742 OA 
HETATM   15  C   UNL     1     -12.271  14.113  64.701  1.00  0.00    -0.445 C  
HETATM   16  O   UNL     1     -12.432  15.037  63.914  1.00  0.00    -0.790 OA 
ENDBRANCH   3  13
BRANCH   5  17
HETATM   17  C   UNL     1     -11.494  10.212  70.649  1.00  0.00    -0.432 A  
HETATM   18  C   UNL     1     -10.215   9.661  70.794  1.00  0.00    -0.330 A  
HETATM   19  C   UNL     1     -10.013   8.517  71.584  1.00  0.00    -0.329 A  
HETATM   20  C   UNL     1     -11.089   7.918  72.250  1.00  0.00    -0.318 A  
HETATM   21  C   UNL     1     -12.367   8.470  72.094  1.00  0.00    -0.444 A  
HETATM   22  C   UNL     1     -12.570   9.607  71.302  1.00  0.00    -0.443 A  
BRANCH  20  23
HETATM   23  S   UNL     1     -10.883   6.380  73.188  1.00  0.00    -0.231 S  
HETATM   24  C   UNL     1      -9.798   5.460  72.074  1.00  0.00    -0.168 C  
HETATM   25  O   UNL     1     -10.071   6.745  74.398  1.00  0.00    -0.344 OA 
ENDBRANCH  20  23
ENDBRANCH   5  17
TORSDOF 3
ENDMDL
MODEL        4
REMARK 921   NORMALIZED FREE ENERGY PREDICTED BY IDOCK:   -7.21 KCAL/MOL
REMARK 922        TOTAL FREE ENERGY PREDICTED BY IDOCK:   -9.42 KCAL/MOL
REMARK 923 INTER-LIGAND FREE ENERGY PREDICTED BY IDOCK:   -8.57 KCAL/MOL
REMARK 924 INTRA-LIGAND FREE ENERGY PREDICTED BY IDOCK:   -0.85 KCAL/MOL
REMARK 927      BINDING AFFINITY PREDICTED BY RF-SCORE:    0.00 PKD
ROOT
HETATM    1  C   UNL     1     -12.029  15.836  69.417  1.00  0.00    -0.321 C  
HETATM    2  C   UNL     1     -12.185  14.402  69.805  1.00  0.00    -0.370 C  
HETATM    3  C   UNL     1     -12.854  13.894  70.866  1.00  0.00    -0.370 C  
HETATM    4  C   UNL     1     -12.642  12.436  70.866  1.00  0.00    -0.337 A  
HETATM    5  C   UNL     1     -10.961  13.458  67.844  1.00  0.00    -0.276 C  
HETATM    6  C   UNL     1     -11.545  13.307  69.047  1.00  0.00    -0.359 C  
HETATM    7  C   UNL     1     -13.140  11.477  71.736  1.00  0.00    -0.503 A  
HETATM    8  C   UNL     1     -12.697  10.167  71.583  1.00  0.00    -0.447 A  
HETATM    9  C   UNL     1     -11.766  12.077  69.820  1.00  0.00    -0.390 A  
HETATM   10  C   UNL     1     -11.281  10.783  69.712  1.00  0.00    -0.365 A  
HETATM   11  F   UNL     1     -13.171   9.217  72.399  1.00  0.00    -0.417 F  
HETATM   12  C   UNL     1     -11.755   9.820  70.608  1.00  0.00    -0.377 A  
ENDROOT
BRANCH   3  13
HETATM   13  C   UNL     1     -13.588  14.593  71.968  1.00  0.00    -0.496 C  
HETATM   14  O   UNL     1     -11.420  15.289  72.876  1.00  0.00    -0.413 OA 
HETATM   15  C   UNL     1     -12.765  15.429  72.940  1.00  0.00    -0.427 C  
HETATM   16  O   UNL     1     -13.284  16.170  73.764  1.00  0.00    -0.657 OA 
ENDBRANCH   3  13
BRANCH   5  17
HETATM   17  C   UNL     1     -10.380  12.437  66.962  1.00  0.00    -0.235 A  
HETATM   18  C   UNL     1     -11.103  11.936  65.873  1.00  0.00    -0.365 A  
HETATM   19  C   UNL     1     -10.517  11.015  64.988  1.00  0.00    -0.344 A  
HETATM   20  C   UNL     1      -9.196  10.594  65.177  1.00  0.00    -0.207 A  
HETATM   21  C   UNL     1      -8.481  11.094  66.274  1.00  0.00    -0.168 A  
HETATM   22  C   UNL     1      -9.066  12.007  67.159  1.00  0.00    -0.186 A  
BRANCH  20  23
HETATM   23  S   UNL     1      -8.446   9.326  64.119  1.00  0.00    -0.186 S  
HETATM   24  C   UNL     1      -9.182   9.753  62.525  1.00  0.00    -0.256 C  
HETATM   25  O   UNL     1      -6.986   9.669  64.042  1.00  0.00    -0.103 OA 
ENDBRANCH  20  23
ENDBRANCH   5  17
TORSDOF 3
ENDMDL
MODEL        5
REMARK 921   NORMALIZED FREE ENERGY PREDICTED BY IDOCK:   -7.05 KCAL/MOL
REMARK 922        TOTAL FREE ENERGY PREDICTED BY IDOCK:   -9.23 KCAL/MOL
REMARK 923 INTER-LIGAND FREE ENERGY PREDICTED BY IDOCK:   -8.21 KCAL/MOL
REMARK 924 INTRA-LIGAND FREE ENERGY PREDICTED BY IDOCK:   -1.02 KCAL/MOL
REMARK 927      BINDING AFFINITY PREDICTED BY RF-SCORE:    0.00 PKD
ROOT
HETATM    1  C   UNL     1      -9.504  10.105  64.171  1.00  0.00    -0.353 C  
HETATM    2  C   UNL     1     -10.130  10.603  65.433  1.00  0.00    -0.356 C  
HETATM    3  C   UNL     1     -10.716  11.804  65.654  1.00  0.00    -0.328 C  
HETATM    4  C   UNL     1     -11.100  11.852  67.076  1.00  0.00    -0.354 A  
HETATM    5  C   UNL     1      -9.800   8.505  66.745  1.00  0.00    -0.327 C  
HETATM    6  C   UNL     1     -10.141   9.806  66.676  1.00  0.00    -0.303 C  
HETATM    7  C   UNL     1     -11.748  12.860  67.774  1.00  0.00    -0.412 A  
HETATM    8  C   UNL     1     -11.897  12.706  69.149  1.00  0.00    -0.297 A  
HETATM    9  C   UNL     1     -10.667  10.682  67.732  1.00  0.00    -0.302 A  
HETATM   10  C   UNL     1     -10.763  10.562  69.110  1.00  0.00    -0.266 A  
HETATM   11  F   UNL     1     -12.532  13.656  69.848  1.00  0.00    -0.353 F  
HETATM   12  C   UNL     1     -11.386  11.591  69.822  1.00  0.00    -0.303 A  
ENDROOT
BRANCH   3  13
HETATM   13  C   UNL     1     -10.876  12.981  64.743  1.00  0.00    -0.357 C  
HETATM   14  O   UNL     1     -13.202  12.295  64.380  1.00  0.00    -0.806 OA 
HETATM   15  C   UNL     1     -12.269  13.259  64.193  1.00  0.00    -0.401 C  
HETATM   16  O   UNL     1     -12.536  14.287  63.584  1.00  0.00    -0.831 OA 
ENDBRANCH   3  13
BRANCH   5  17
HETATM   17  C   UNL     1      -9.859   7.593  67.895  1.00  0.00    -0.190 A  
HETATM   18  C   UNL     1      -8.772   7.471  68.769  1.00  0.00    -0.128 A  
HETATM   19  C   UNL     1      -8.859   6.655  69.910  1.00  0.00    -0.144 A  
HETATM   20  C   UNL     1     -10.041   5.960  70.195  1.00  0.00    -0.202 A  
HETATM   21  C   UNL     1     -11.121   6.081  69.311  1.00  0.00    -0.424 A  
HETATM   22  C   UNL     1     -11.034   6.890  68.171  1.00  0.00    -0.220 A  
BRANCH  20  23
HETATM   23  S   UNL     1     -10.150   4.815  71.596  1.00  0.00    -0.179 S  
HETATM   24  C   UNL     1      -8.596   5.184  72.442  1.00  0.00    -0.125 C  
HETATM   25  O   UNL     1     -11.262   5.334  72.462  1.00  0.00    -0.250 OA 
ENDBRANCH  20  23
ENDBRANCH   5  17
TORSDOF 3
ENDMDL
MODEL        6
REMARK 921   NORMALIZED FREE ENERGY PREDICTED BY IDOCK:   -7.01 KCAL/MOL
REMARK 922        TOTAL FREE ENERGY PREDICTED BY IDOCK:   -9.19 KCAL/MOL
REMARK 923 INTER-LIGAND FREE ENERGY PREDICTED BY IDOCK:   -8.14 KCAL/MOL
REMARK 924 INTRA-LIGAND FREE ENERGY PREDICTED BY IDOCK:   -1.05 KCAL/MOL
REMARK 927      BINDING AFFINITY PREDICTED BY RF-SCORE:    0.00 PKD
ROOT
HETATM    1  C   UNL     1      -9.548  10.347  63.798  1.00  0.00    -0.366 C  
HETATM    2  C   UNL     1     -10.149  10.774  65.098  1.00  0.00    -0.363 C  
HETATM    3  C   UNL     1     -10.743  11.954  65.393  1.00  0.00    -0.330 C  
HETATM    4  C   UNL     1     -11.092  11.927  66.824  1.00  0.00    -0.359 A  
HETATM    5  C   UNL     1      -9.764   8.617  66.294  1.00  0.00    -0.322 C  
HETATM    6  C   UNL     1     -10.120   9.915  66.299  1.00  0.00    -0.311 C  
HETATM    7  C   UNL     1     -11.734  12.891  67.588  1.00  0.00    -0.422 A  
HETATM    8  C   UNL     1     -11.848  12.666  68.956  1.00  0.00    -0.294 A  
HETATM    9  C   UNL     1     -10.630  10.731  67.410  1.00  0.00    -0.287 A  
HETATM   10  C   UNL     1     -10.692  10.541  68.782  1.00  0.00    -0.249 A  
HETATM   11  F   UNL     1     -12.476  13.572  69.717  1.00  0.00    -0.340 F  
HETATM   12  C   UNL     1     -11.309  11.525  69.560  1.00  0.00    -0.342 A  
ENDROOT
BRANCH   3  13
HETATM   13  C   UNL     1     -10.937  13.174  64.547  1.00  0.00    -0.392 C  
HETATM   14  O   UNL     1     -13.053  12.211  63.769  1.00  0.00    -0.774 OA 
HETATM   15  C   UNL     1     -12.257  13.306  63.799  1.00  0.00    -0.439 C  
HETATM   16  O   UNL     1     -12.580  14.337  63.222  1.00  0.00    -0.716 OA 
ENDBRANCH   3  13
BRANCH   5  17
HETATM   17  C   UNL     1      -9.785   7.648  67.398  1.00  0.00    -0.208 A  
HETATM   18  C   UNL     1      -8.657   7.455  68.204  1.00  0.00    -0.123 A  
HETATM   19  C   UNL     1      -8.704   6.583  69.304  1.00  0.00    -0.130 A  
HETATM   20  C   UNL     1      -9.886   5.902  69.618  1.00  0.00    -0.167 A  
HETATM   21  C   UNL     1     -11.009   6.093  68.802  1.00  0.00    -0.421 A  
HETATM   22  C   UNL     1     -10.961   6.959  67.702  1.00  0.00    -0.304 A  
BRANCH  20  23
HETATM   23  S   UNL     1      -9.950   4.688  70.963  1.00  0.00    -0.179 S  
HETATM   24  C   UNL     1      -9.315   3.225  70.114  1.00  0.00    -0.172 C  
HETATM   25  O   UNL     1      -8.904   5.118  71.952  1.00  0.00    -0.131 OA 
ENDBRANCH  20  23
ENDBRANCH   5  17
TORSDOF 3
ENDMDL
MODEL        7
REMARK 921   NORMALIZED FREE ENERGY PREDICTED BY IDOCK:   -6.89 KCAL/MOL
REMARK 922        TOTAL FREE ENERGY PREDICTED BY IDOCK:   -9.05 KCAL/MOL
REMARK 923 INTER-LIGAND FREE ENERGY PREDICTED BY IDOCK:   -8.09 KCAL/MOL
REMARK 924 INTRA-LIGAND FREE ENERGY PREDICTED BY IDOCK:   -0.96 KCAL/MOL
REMARK 927      BINDING AFFINITY PREDICTED BY RF-SCORE:    0.00 PKD
ROOT
HETATM    1  C   UNL     1     -13.154  11.320  71.935  1.00  0.00    -0.510 C  
HETATM    2  C   UNL     1     -12.585  12.370  71.038  1.00  0.00    -0.349 C  
HETATM    3  C   UNL     1     -12.781  13.709  71.094  1.00  0.00    -0.432 C  
HETATM    4  C   UNL     1     -12.080  14.306  69.944  1.00  0.00    -0.404 A  
HETATM    5  C   UNL     1     -11.196  10.823  69.656  1.00  0.00    -0.355 C  
HETATM    6  C   UNL     1     -11.724  12.040  69.884  1.00  0.00    -0.374 C  
HETATM    7  C   UNL     1     -11.969  15.641  69.583  1.00  0.00    -0.367 A  
HETATM    8  C   UNL     1     -11.340  15.938  68.378  1.00  0.00    -0.361 A  
HETATM    9  C   UNL     1     -11.516  13.292  69.144  1.00  0.00    -0.357 A  
HETATM   10  C   UNL     1     -10.946  13.590  67.915  1.00  0.00    -0.275 A  
HETATM   11  F   UNL     1     -11.204  17.219  68.010  1.00  0.00    -0.345 F  
HETATM   12  C   UNL     1     -10.861  14.932  67.533  1.00  0.00    -0.292 A  
ENDROOT
BRANCH   3  13
HETATM   13  C   UNL     1     -13.633  14.521  72.020  1.00  0.00    -0.509 C  
HETATM   14  O   UNL     1     -11.584  15.266  73.141  1.00  0.00    -0.402 OA 
HETATM   15  C   UNL     1     -12.922  15.431  73.012  1.00  0.00    -0.488 C  
HETATM   16  O   UNL     1     -13.525  16.256  73.688  1.00  0.00    -0.653 OA 
ENDBRANCH   3  13
BRANCH   5  17
HETATM   17  C   UNL     1     -10.261  10.402  68.605  1.00  0.00    -0.196 A  
HETATM   18  C   UNL     1     -10.732   9.885  67.391  1.00  0.00    -0.323 A  
HETATM   19  C   UNL     1      -9.838   9.554  66.360  1.00  0.00    -0.320 A  
HETATM   20  C   UNL     1      -8.462   9.747  66.526  1.00  0.00    -0.124 A  
HETATM   21  C   UNL     1      -7.997  10.257  67.746  1.00  0.00    -0.102 A  
HETATM   22  C   UNL     1      -8.887  10.582  68.777  1.00  0.00    -0.158 A  
BRANCH  20  23
HETATM   23  S   UNL     1      -7.274   9.229  65.258  1.00  0.00    -0.092 S  
HETATM   24  C   UNL     1      -8.317   9.299  63.784  1.00  0.00    -0.180 C  
HETATM   25  O   UNL     1      -6.276  10.347  65.151  1.00  0.00    -0.122 OA 
ENDBRANCH  20  23
ENDBRANCH   5  17
TORSDOF 3
ENDMDL
MODEL        8
REMARK 921   NORMALIZED FREE ENERGY PREDICTED BY IDOCK:   -6.89 KCAL/MOL
REMARK 922        TOTAL FREE ENERGY PREDICTED BY IDOCK:   -9.05 KCAL/MOL
REMARK 923 INTER-LIGAND FREE ENERGY PREDICTED BY IDOCK:   -8.44 KCAL/MOL
REMARK 924 INTRA-LIGAND FREE ENERGY PREDICTED BY IDOCK:   -0.61 KCAL/MOL
REMARK 927      BINDING AFFINITY PREDICTED BY RF-SCORE:    0.00 PKD
ROOT
HETATM    1  C   UNL     1     -11.678  15.399  68.341  1.00  0.00    -0.332 C  
HETATM    2  C   UNL     1     -11.224  14.238  67.517  1.00  0.00    -0.322 C  
HETATM    3  C   UNL     1     -10.714  14.256  66.263  1.00  0.00    -0.297 C  
HETATM    4  C   UNL     1     -10.503  12.857  65.853  1.00  0.00    -0.294 A  
HETATM    5  C   UNL     1     -11.628  12.497  69.259  1.00  0.00    -0.378 C  
HETATM    6  C   UNL     1     -11.331  12.844  67.994  1.00  0.00    -0.333 C  
HETATM    7  C   UNL     1      -9.980  12.360  64.668  1.00  0.00    -0.198 A  
HETATM    8  C   UNL     1      -9.988  10.981  64.481  1.00  0.00    -0.310 A  
HETATM    9  C   UNL     1     -10.966  11.984  66.859  1.00  0.00    -0.328 A  
HETATM   10  C   UNL     1     -11.029  10.616  66.641  1.00  0.00    -0.144 A  
HETATM   11  F   UNL     1      -9.477  10.472  63.352  1.00  0.00    -0.225 F  
HETATM   12  C   UNL     1     -10.533  10.115  65.434  1.00  0.00    -0.054 A  
ENDROOT
BRANCH   3  13
HETATM   13  C   UNL     1     -10.491  15.404  65.329  1.00  0.00    -0.440 C  
HETATM   14  O   UNL     1     -12.658  14.896  64.300  1.00  0.00    -0.699 OA 
HETATM   15  C   UNL     1     -11.629  15.772  64.386  1.00  0.00    -0.240 C  
HETATM   16  O   UNL     1     -11.611  16.793  63.709  1.00  0.00    -0.920 OA 
ENDBRANCH   3  13
BRANCH   5  17
HETATM   17  C   UNL     1     -11.671  11.159  69.866  1.00  0.00    -0.433 A  
HETATM   18  C   UNL     1     -10.543  10.330  69.852  1.00  0.00    -0.324 A  
HETATM   19  C   UNL     1     -10.564   9.082  70.498  1.00  0.00    -0.274 A  
HETATM   20  C   UNL     1     -11.712   8.656  71.177  1.00  0.00    -0.288 A  
HETATM   21  C   UNL     1     -12.839   9.488  71.180  1.00  0.00    -0.361 A  
HETATM   22  C   UNL     1     -12.821  10.729  70.531  1.00  0.00    -0.335 A  
BRANCH  20  23
HETATM   23  S   UNL     1     -11.810   7.008  71.927  1.00  0.00    -0.317 S  
HETATM   24  C   UNL     1     -11.047   6.011  70.628  1.00  0.00    -0.301 C  
HETATM   25  O   UNL     1     -10.857   7.031  73.089  1.00  0.00    -0.290 OA 
ENDBRANCH  20  23
ENDBRANCH   5  17
TORSDOF 3
ENDMDL
MODEL        9
REMARK 921   NORMALIZED FREE ENERGY PREDICTED BY IDOCK:   -6.89 KCAL/MOL
REMARK 922        TOTAL FREE ENERGY PREDICTED BY IDOCK:   -9.05 KCAL/MOL
REMARK 923 INTER-LIGAND FREE ENERGY PREDICTED BY IDOCK:   -8.09 KCAL/MOL
REMARK 924 INTRA-LIGAND FREE ENERGY PREDICTED BY IDOCK:   -0.95 KCAL/MOL
REMARK 927      BINDING AFFINITY PREDICTED BY RF-SCORE:    0.00 PKD
ROOT
HETATM    1  C   UNL     1     -10.211   9.711  68.031  1.00  0.00    -0.235 C  
HETATM    2  C   UNL     1     -10.894  10.688  68.931  1.00  0.00    -0.272 C  
HETATM    3  C   UNL     1     -11.579  10.433  70.071  1.00  0.00    -0.378 C  
HETATM    4  C   UNL     1     -12.138  11.711  70.546  1.00  0.00    -0.458 A  
HETATM    5  C   UNL     1     -10.208  12.735  67.677  1.00  0.00    -0.219 C  
HETATM    6  C   UNL     1     -10.939  12.135  68.635  1.00  0.00    -0.284 C  
HETATM    7  C   UNL     1     -12.893  11.969  71.680  1.00  0.00    -0.399 A  
HETATM    8  C   UNL     1     -13.397  13.256  71.846  1.00  0.00    -0.451 A  
HETATM    9  C   UNL     1     -11.838  12.738  69.628  1.00  0.00    -0.384 A  
HETATM   10  C   UNL     1     -12.395  14.001  69.767  1.00  0.00    -0.344 A  
HETATM   11  F   UNL     1     -14.118  13.539  72.939  1.00  0.00    -0.503 F  
HETATM   12  C   UNL     1     -13.184  14.256  70.892  1.00  0.00    -0.320 A  
ENDROOT
BRANCH   3  13
HETATM   13  C   UNL     1     -11.889   9.129  70.739  1.00  0.00    -0.280 C  
HETATM   14  O   UNL     1      -9.695   9.244  71.826  1.00  0.00    -0.269 OA 
HETATM   15  C   UNL     1     -10.890   8.611  71.765  1.00  0.00    -0.325 C  
HETATM   16  O   UNL     1     -11.133   7.650  72.484  1.00  0.00    -0.281 OA 
ENDBRANCH   3  13
BRANCH   5  17
HETATM   17  C   UNL     1     -10.101  14.164  67.354  1.00  0.00    -0.240 A  
HETATM   18  C   UNL     1      -9.336  15.024  68.152  1.00  0.00    -0.187 A  
HETATM   19  C   UNL     1      -9.175  16.374  67.799  1.00  0.00    -0.201 A  
HETATM   20  C   UNL     1      -9.767  16.877  66.635  1.00  0.00    -0.271 A  
HETATM   21  C   UNL     1     -10.538  16.013  65.846  1.00  0.00    -0.338 A  
HETATM   22  C   UNL     1     -10.704  14.668  66.200  1.00  0.00    -0.314 A  
BRANCH  20  23
HETATM   23  S   UNL     1      -9.670  18.636  66.208  1.00  0.00    -0.261 S  
HETATM   24  C   UNL     1     -10.089  19.382  67.800  1.00  0.00    -0.401 C  
HETATM   25  O   UNL     1      -8.216  18.915  65.955  1.00  0.00    -0.477 OA 
ENDBRANCH  20  23
ENDBRANCH   5  17
TORSDOF 3
ENDMDL
MODEL       10
REMARK 921   NORMALIZED FREE ENERGY PREDICTED BY IDOCK:   -6.89 KCAL/MOL
REMARK 922        TOTAL FREE ENERGY PREDICTED BY IDOCK:   -9.04 KCAL/MOL
REMARK 923 INTER-LIGAND FREE ENERGY PREDICTED BY IDOCK:   -8.83 KCAL/MOL
REMARK 924 INTRA-LIGAND FREE ENERGY PREDICTED BY IDOCK:   -0.22 KCAL/MOL
REMARK 927      BINDING AFFINITY PREDICTED BY RF-SCORE:    0.00 PKD
ROOT
HETATM    1  C   UNL     1     -10.531  17.091  69.476  1.00  0.00    -0.182 C  
HETATM    2  C   UNL     1     -10.736  16.077  68.398  1.00  0.00    -0.289 C  
HETATM    3  C   UNL     1     -10.464  16.198  67.077  1.00  0.00    -0.306 C  
HETATM    4  C   UNL     1     -10.922  14.964  66.417  1.00  0.00    -0.336 A  
HETATM    5  C   UNL     1     -11.557  14.255  69.895  1.00  0.00    -0.337 C  
HETATM    6  C   UNL     1     -11.340  14.755  68.664  1.00  0.00    -0.305 C  
HETATM    7  C   UNL     1     -10.843  14.604  65.079  1.00  0.00    -0.431 A  
HETATM    8  C   UNL     1     -11.455  13.417  64.688  1.00  0.00    -0.348 A  
HETATM    9  C   UNL     1     -11.546  14.118  67.356  1.00  0.00    -0.399 A  
HETATM   10  C   UNL     1     -12.207  12.968  66.949  1.00  0.00    -0.233 A  
HETATM   11  F   UNL     1     -11.382  13.037  63.406  1.00  0.00    -0.462 F  
HETATM   12  C   UNL     1     -12.158  12.620  65.597  1.00  0.00    -0.502 A  
ENDROOT
BRANCH   3  13
HETATM   13  C   UNL     1      -9.929  17.365  66.307  1.00  0.00    -0.306 C  
HETATM   14  O   UNL     1      -7.718  16.885  67.249  1.00  0.00    -0.156 OA 
HETATM   15  C   UNL     1      -8.425  17.601  66.343  1.00  0.00    -0.246 C  
HETATM   16  O   UNL     1      -7.875  18.417  65.615  1.00  0.00    -0.505 OA 
ENDBRANCH   3  13
BRANCH   5  17
HETATM   17  C   UNL     1     -12.061  12.929  70.279  1.00  0.00    -0.377 A  
HETATM   18  C   UNL     1     -11.572  11.771  69.663  1.00  0.00    -0.393 A  
HETATM   19  C   UNL     1     -12.000  10.501  70.084  1.00  0.00    -0.398 A  
HETATM   20  C   UNL     1     -12.914  10.375  71.137  1.00  0.00    -0.412 A  
HETATM   21  C   UNL     1     -13.405  11.539  71.743  1.00  0.00    -0.356 A  
HETATM   22  C   UNL     1     -12.982  12.806  71.320  1.00  0.00    -0.310 A  
BRANCH  20  23
HETATM   23  S   UNL     1     -13.570   8.759  71.633  1.00  0.00    -0.368 S  
HETATM   24  C   UNL     1     -12.035   7.890  72.026  1.00  0.00    -0.319 C  
HETATM   25  O   UNL     1     -14.294   8.992  72.928  1.00  0.00    -0.550 OA 
ENDBRANCH  20  23
ENDBRANCH   5  17
TORSDOF 3
ENDMDL
MODEL       11
REMARK 921   NORMALIZED FREE ENERGY PREDICTED BY IDOCK:   -6.86 KCAL/MOL
REMARK 922        TOTAL FREE ENERGY PREDICTED BY IDOCK:   -9.01 KCAL/MOL
REMARK 923 INTER-LIGAND FREE ENERGY PREDICTED BY IDOCK:   -8.06 KCAL/MOL
REMARK 924 INTRA-LIGAND FREE ENERGY PREDICTED BY IDOCK:   -0.95 KCAL/MOL
REMARK 927      BINDING AFFINITY PREDICTED BY RF-SCORE:    0.00 PKD
ROOT
HETATM    1  C   UNL     1     -10.559  11.871  63.264  1.00  0.00    -0.420 C  
HETATM    2  C   UNL     1     -10.922  12.099  64.695  1.00  0.00    -0.359 C  
HETATM    3  C   UNL     1     -11.592  13.149  65.227  1.00  0.00    -0.350 C  
HETATM    4  C   UNL     1     -11.624  12.957  66.688  1.00  0.00    -0.428 A  
HETATM    5  C   UNL     1     -10.009   9.940  65.553  1.00  0.00    -0.363 C  
HETATM    6  C   UNL     1     -10.526  11.163  65.768  1.00  0.00    -0.305 C  
HETATM    7  C   UNL     1     -12.212  13.750  67.663  1.00  0.00    -0.229 A  
HETATM    8  C   UNL     1     -12.003  13.404  68.994  1.00  0.00    -0.315 A  
HETATM    9  C   UNL     1     -10.894  11.803  67.039  1.00  0.00    -0.306 A  
HETATM   10  C   UNL     1     -10.638  11.500  68.367  1.00  0.00    -0.227 A  
HETATM   11  F   UNL     1     -12.571  14.142  69.957  1.00  0.00    -0.369 F  
HETATM   12  C   UNL     1     -11.201  12.316  69.353  1.00  0.00    -0.243 A  
ENDROOT
BRANCH   3  13
HETATM   13  C   UNL     1     -12.122  14.386  64.572  1.00  0.00    -0.498 C  
HETATM   14  O   UNL     1     -10.179  15.598  65.448  1.00  0.00    -0.358 OA 
HETATM   15  C   UNL     1     -11.252  15.635  64.622  1.00  0.00    -0.369 C  
HETATM   16  O   UNL     1     -11.516  16.640  63.974  1.00  0.00    -1.192 OA 
ENDBRANCH   3  13
BRANCH   5  17
HETATM   17  C   UNL     1      -9.667   8.895  66.528  1.00  0.00    -0.322 A  
HETATM   18  C   UNL     1      -8.380   8.819  67.074  1.00  0.00    -0.103 A  
HETATM   19  C   UNL     1      -8.077   7.867  68.061  1.00  0.00    -0.126 A  
HETATM   20  C   UNL     1      -9.063   6.987  68.524  1.00  0.00    -0.131 A  
HETATM   21  C   UNL     1     -10.347   7.065  67.967  1.00  0.00    -0.234 A  
HETATM   22  C   UNL     1     -10.648   8.010  66.979  1.00  0.00    -0.364 A  
BRANCH  20  23
HETATM   23  S   UNL     1      -8.678   5.677  69.716  1.00  0.00    -0.126 S  
HETATM   24  C   UNL     1      -9.104   6.508  71.263  1.00  0.00    -0.148 C  
HETATM   25  O   UNL     1      -9.705   4.604  69.490  1.00  0.00    -0.174 OA 
ENDBRANCH  20  23
ENDBRANCH   5  17
TORSDOF 3
ENDMDL
MODEL       12
REMARK 921   NORMALIZED FREE ENERGY PREDICTED BY IDOCK:   -6.74 KCAL/MOL
REMARK 922        TOTAL FREE ENERGY PREDICTED BY IDOCK:   -8.87 KCAL/MOL
REMARK 923 INTER-LIGAND FREE ENERGY PREDICTED BY IDOCK:   -8.30 KCAL/MOL
REMARK 924 INTRA-LIGAND FREE ENERGY PREDICTED BY IDOCK:   -0.57 KCAL/MOL
REMARK 927      BINDING AFFINITY PREDICTED BY RF-SCORE:    0.00 PKD
ROOT
HETATM    1  C   UNL     1     -12.215  15.807  70.879  1.00  0.00    -0.458 C  
HETATM    2  C   UNL     1     -11.811  15.033  69.667  1.00  0.00    -0.358 C  
HETATM    3  C   UNL     1     -11.395  15.514  68.471  1.00  0.00    -0.356 C  
HETATM    4  C   UNL     1     -11.200  14.362  67.575  1.00  0.00    -0.329 A  
HETATM    5  C   UNL     1     -12.066  12.771  70.693  1.00  0.00    -0.316 C  
HETATM    6  C   UNL     1     -11.867  13.557  69.619  1.00  0.00    -0.398 C  
HETATM    7  C   UNL     1     -10.762  14.340  66.259  1.00  0.00    -0.297 A  
HETATM    8  C   UNL     1     -10.770  13.118  65.592  1.00  0.00    -0.280 A  
HETATM    9  C   UNL     1     -11.579  13.172  68.230  1.00  0.00    -0.370 A  
HETATM   10  C   UNL     1     -11.643  11.970  67.542  1.00  0.00    -0.401 A  
HETATM   11  F   UNL     1     -10.338  13.063  64.325  1.00  0.00    -0.362 F  
HETATM   12  C   UNL     1     -11.233  11.950  66.205  1.00  0.00    -0.392 A  
ENDROOT
BRANCH   3  13
HETATM   13  C   UNL     1     -11.255  16.928  67.997  1.00  0.00    -0.064 C  
HETATM   14  O   UNL     1      -8.930  16.884  68.773  1.00  0.00    -0.260 OA 
HETATM   15  C   UNL     1      -9.872  17.560  68.073  1.00  0.00    -0.299 C  
HETATM   16  O   UNL     1      -9.620  18.641  67.556  1.00  0.00    -0.287 OA 
ENDBRANCH   3  13
BRANCH   5  17
HETATM   17  C   UNL     1     -12.050  11.305  70.782  1.00  0.00    -0.450 A  
HETATM   18  C   UNL     1     -10.944  10.572  70.334  1.00  0.00    -0.252 A  
HETATM   19  C   UNL     1     -10.900   9.177  70.490  1.00  0.00    -0.306 A  
HETATM   20  C   UNL     1     -11.958   8.499  71.107  1.00  0.00    -0.272 A  
HETATM   21  C   UNL     1     -13.065   9.238  71.545  1.00  0.00    -0.430 A  
HETATM   22  C   UNL     1     -13.112  10.629  71.386  1.00  0.00    -0.499 A  
BRANCH  20  23
HETATM   23  S   UNL     1     -11.982   6.690  71.225  1.00  0.00    -0.325 S  
HETATM   24  C   UNL     1     -11.529   6.246  69.533  1.00  0.00    -0.317 C  
HETATM   25  O   UNL     1     -10.823   6.323  72.107  1.00  0.00    -0.223 OA 
ENDBRANCH  20  23
ENDBRANCH   5  17
TORSDOF 3
ENDMDL
MODEL       13
REMARK 921   NORMALIZED FREE ENERGY PREDICTED BY IDOCK:   -6.63 KCAL/MOL
REMARK 922        TOTAL FREE ENERGY PREDICTED BY IDOCK:   -8.74 KCAL/MOL
REMARK 923 INTER-LIGAND FREE ENERGY PREDICTED BY IDOCK:   -7.89 KCAL/MOL
REMARK 924 INTRA-LIGAND FREE ENERGY PREDICTED BY IDOCK:   -0.85 KCAL/MOL
REMARK 927      BINDING AFFINITY PREDICTED BY RF-SCORE:    0.00 PKD
ROOT
HETATM    1  C   UNL     1     -12.322  14.082  69.338  1.00  0.00    -0.247 C  
HETATM    2  C   UNL     1     -11.707  12.997  68.516  1.00  0.00    -0.377 C  
HETATM    3  C   UNL     1     -11.274  13.066  67.235  1.00  0.00    -0.325 C  
HETATM    4  C   UNL     1     -10.832  11.716  66.845  1.00  0.00    -0.322 A  
HETATM    5  C   UNL     1     -11.695  11.268  70.316  1.00  0.00    -0.415 C  
HETATM    6  C   UNL     1     -11.532  11.622  69.029  1.00  0.00    -0.356 C  
HETATM    7  C   UNL     1     -10.289  11.285  65.643  1.00  0.00    -0.310 A  
HETATM    8  C   UNL     1     -10.055   9.923  65.487  1.00  0.00    -0.227 A  
HETATM    9  C   UNL     1     -11.075  10.807  67.894  1.00  0.00    -0.369 A  
HETATM   10  C   UNL     1     -10.898   9.444  67.710  1.00  0.00    -0.223 A  
HETATM   11  F   UNL     1      -9.518   9.479  64.343  1.00  0.00    -0.301 F  
HETATM   12  C   UNL     1     -10.382   9.003  66.489  1.00  0.00    -0.263 A  
ENDROOT
BRANCH   3  13
HETATM   13  C   UNL     1     -11.314  14.206  66.264  1.00  0.00    -0.340 C  
HETATM   14  O   UNL     1      -9.231  15.034  67.257  1.00  0.00    -0.190 OA 
HETATM   15  C   UNL     1     -10.122  15.154  66.245  1.00  0.00    -0.283 C  
HETATM   16  O   UNL     1      -9.982  16.007  65.378  1.00  0.00    -0.445 OA 
ENDBRANCH   3  13
BRANCH   5  17
HETATM   17  C   UNL     1     -11.461   9.965  70.954  1.00  0.00    -0.456 A  
HETATM   18  C   UNL     1     -12.534   9.184  71.403  1.00  0.00    -0.396 A  
HETATM   19  C   UNL     1     -12.312   7.907  71.944  1.00  0.00    -0.350 A  
HETATM   20  C   UNL     1     -11.014   7.390  72.030  1.00  0.00    -0.236 A  
HETATM   21  C   UNL     1      -9.945   8.180  71.586  1.00  0.00    -0.252 A  
HETATM   22  C   UNL     1     -10.165   9.456  71.052  1.00  0.00    -0.369 A  
BRANCH  20  23
HETATM   23  S   UNL     1     -10.682   5.793  72.821  1.00  0.00    -0.258 S  
HETATM   24  C   UNL     1     -10.048   6.346  74.420  1.00  0.00    -0.348 C  
HETATM   25  O   UNL     1     -12.027   5.171  73.067  1.00  0.00    -0.231 OA 
ENDBRANCH  20  23
ENDBRANCH   5  17
TORSDOF 3
ENDMDL
MODEL       14
REMARK 921   NORMALIZED FREE ENERGY PREDICTED BY IDOCK:   -6.57 KCAL/MOL
REMARK 922        TOTAL FREE ENERGY PREDICTED BY IDOCK:   -8.66 KCAL/MOL
REMARK 923 INTER-LIGAND FREE ENERGY PREDICTED BY IDOCK:   -7.79 KCAL/MOL
REMARK 924 INTRA-LIGAND FREE ENERGY PREDICTED BY IDOCK:   -0.87 KCAL/MOL
REMARK 927      BINDING AFFINITY PREDICTED BY RF-SCORE:    0.00 PKD
ROOT
HETATM    1  C   UNL     1     -13.131   9.201  72.350  1.00  0.00    -0.493 C  
HETATM    2  C   UNL     1     -11.739   9.111  71.815  1.00  0.00    -0.456 C  
HETATM    3  C   UNL     1     -10.717   8.352  72.277  1.00  0.00    -0.417 C  
HETATM    4  C   UNL     1      -9.527   8.677  71.471  1.00  0.00    -0.320 A  
HETATM    5  C   UNL     1     -12.093  10.649  69.881  1.00  0.00    -0.372 C  
HETATM    6  C   UNL     1     -11.279   9.928  70.674  1.00  0.00    -0.416 C  
HETATM    7  C   UNL     1      -8.246   8.148  71.546  1.00  0.00    -0.150 A  
HETATM    8  C   UNL     1      -7.263   8.710  70.738  1.00  0.00    -0.067 A  
HETATM    9  C   UNL     1      -9.830   9.706  70.557  1.00  0.00    -0.294 A  
HETATM   10  C   UNL     1      -8.833  10.303  69.800  1.00  0.00    -0.070 A  
HETATM   11  F   UNL     1      -6.021   8.210  70.778  1.00  0.00    -0.032 F  
HETATM   12  C   UNL     1      -7.535   9.794  69.897  1.00  0.00    -0.142 A  
ENDROOT
BRANCH   3  13
HETATM   13  C   UNL     1     -10.656   7.429  73.454  1.00  0.00    -0.427 C  
HETATM   14  O   UNL     1     -11.310   5.597  71.962  1.00  0.00    -0.250 OA 
HETATM   15  C   UNL     1     -10.861   5.943  73.192  1.00  0.00    -0.266 C  
HETATM   16  O   UNL     1     -10.662   5.095  74.053  1.00  0.00    -0.285 OA 
ENDBRANCH   3  13
BRANCH   5  17
HETATM   17  C   UNL     1     -11.765  11.418  68.673  1.00  0.00    -0.394 A  
HETATM   18  C   UNL     1     -11.390  10.769  67.490  1.00  0.00    -0.283 A  
HETATM   19  C   UNL     1     -11.150  11.503  66.316  1.00  0.00    -0.321 A  
HETATM   20  C   UNL     1     -11.295  12.895  66.310  1.00  0.00    -0.323 A  
HETATM   21  C   UNL     1     -11.662  13.538  67.500  1.00  0.00    -0.403 A  
HETATM   22  C   UNL     1     -11.896  12.808  68.671  1.00  0.00    -0.341 A  
BRANCH  20  23
HETATM   23  S   UNL     1     -10.888  13.882  64.844  1.00  0.00    -0.425 S  
HETATM   24  C   UNL     1     -12.082  13.219  63.662  1.00  0.00    -0.485 C  
HETATM   25  O   UNL     1     -11.312  15.286  65.166  1.00  0.00    -0.357 OA 
ENDBRANCH  20  23
ENDBRANCH   5  17
TORSDOF 3
ENDMDL
MODEL       15
REMARK 921   NORMALIZED FREE ENERGY PREDICTED BY IDOCK:   -6.54 KCAL/MOL
REMARK 922        TOTAL FREE ENERGY PREDICTED BY IDOCK:   -8.63 KCAL/MOL
REMARK 923 INTER-LIGAND FREE ENERGY PREDICTED BY IDOCK:   -7.66 KCAL/MOL
REMARK 924 INTRA-LIGAND FREE ENERGY PREDICTED BY IDOCK:   -0.97 KCAL/MOL
REMARK 927      BINDING AFFINITY PREDICTED BY RF-SCORE:    0.00 PKD
ROOT
HETATM    1  C   UNL     1     -13.159  10.261  71.914  1.00  0.00    -0.568 C  
HETATM    2  C   UNL     1     -12.051   9.949  70.963  1.00  0.00    -0.450 C  
HETATM    3  C   UNL     1     -11.396   8.775  70.802  1.00  0.00    -0.313 C  
HETATM    4  C   UNL     1     -10.332   8.995  69.808  1.00  0.00    -0.219 A  
HETATM    5  C   UNL     1     -12.017  12.182  69.846  1.00  0.00    -0.380 C  
HETATM    6  C   UNL     1     -11.476  10.968  70.060  1.00  0.00    -0.398 C  
HETATM    7  C   UNL     1      -9.412   8.092  69.295  1.00  0.00    -0.155 A  
HETATM    8  C   UNL     1      -8.429   8.581  68.440  1.00  0.00    -0.138 A  
HETATM    9  C   UNL     1     -10.306  10.350  69.421  1.00  0.00    -0.259 A  
HETATM   10  C   UNL     1      -9.288  10.842  68.619  1.00  0.00    -0.184 A  
HETATM   11  F   UNL     1      -7.536   7.730  67.917  1.00  0.00    -0.103 F  
HETATM   12  C   UNL     1      -8.340   9.941  68.126  1.00  0.00    -0.110 A  
ENDROOT
BRANCH   3  13
HETATM   13  C   UNL     1     -11.549   7.478  71.536  1.00  0.00    -0.301 C  
HETATM   14  O   UNL     1      -9.795   8.224  73.077  1.00  0.00    -0.266 OA 
HETATM   15  C   UNL     1     -10.751   7.300  72.820  1.00  0.00    -0.299 C  
HETATM   16  O   UNL     1     -10.934   6.355  73.576  1.00  0.00    -0.222 OA 
ENDBRANCH   3  13
BRANCH   5  17
HETATM   17  C   UNL     1     -11.592  13.233  68.912  1.00  0.00    -0.357 A  
HETATM   18  C   UNL     1     -11.878  13.135  67.545  1.00  0.00    -0.409 A  
HETATM   19  C   UNL     1     -11.536  14.176  66.666  1.00  0.00    -0.399 A  
HETATM   20  C   UNL     1     -10.914  15.334  67.147  1.00  0.00    -0.331 A  
HETATM   21  C   UNL     1     -10.623  15.421  68.515  1.00  0.00    -0.240 A  
HETATM   22  C   UNL     1     -10.959  14.381  69.391  1.00  0.00    -0.261 A  
BRANCH  20  23
HETATM   23  S   UNL     1     -10.362  16.647  66.026  1.00  0.00    -0.307 S  
HETATM   24  C   UNL     1      -8.571  16.425  66.119  1.00  0.00    -0.308 C  
HETATM   25  O   UNL     1     -10.793  16.220  64.652  1.00  0.00    -0.687 OA 
ENDBRANCH  20  23
ENDBRANCH   5  17
TORSDOF 3
ENDMDL
MODEL       16
REMARK 921   NORMALIZED FREE ENERGY PREDICTED BY IDOCK:   -6.50 KCAL/MOL
REMARK 922        TOTAL FREE ENERGY PREDICTED BY IDOCK:   -8.59 KCAL/MOL
REMARK 923 INTER-LIGAND FREE ENERGY PREDICTED BY IDOCK:   -7.58 KCAL/MOL
REMARK 924 INTRA-LIGAND FREE ENERGY PREDICTED BY IDOCK:   -1.01 KCAL/MOL
REMARK 927      BINDING AFFINITY PREDICTED BY RF-SCORE:    0.00 PKD
ROOT
HETATM    1  C   UNL     1     -12.950  13.675  71.191  1.00  0.00    -0.353 C  
HETATM    2  C   UNL     1     -12.253  12.948  70.088  1.00  0.00    -0.336 C  
HETATM    3  C   UNL     1     -11.847  13.438  68.893  1.00  0.00    -0.373 C  
HETATM    4  C   UNL     1     -11.291  12.313  68.120  1.00  0.00    -0.349 A  
HETATM    5  C   UNL     1     -12.057  10.766  71.286  1.00  0.00    -0.365 C  
HETATM    6  C   UNL     1     -11.946  11.505  70.166  1.00  0.00    -0.452 C  
HETATM    7  C   UNL     1     -10.730  12.314  66.852  1.00  0.00    -0.264 A  
HETATM    8  C   UNL     1     -10.376  11.088  66.297  1.00  0.00    -0.251 A  
HETATM    9  C   UNL     1     -11.435  11.113  68.845  1.00  0.00    -0.363 A  
HETATM   10  C   UNL     1     -11.138   9.890  68.262  1.00  0.00    -0.207 A  
HETATM   11  F   UNL     1      -9.818  11.059  65.079  1.00  0.00    -0.240 F  
HETATM   12  C   UNL     1     -10.603   9.884  66.971  1.00  0.00    -0.272 A  
ENDROOT
BRANCH   3  13
HETATM   13  C   UNL     1     -12.005  14.808  68.309  1.00  0.00    -0.258 C  
HETATM   14  O   UNL     1      -9.954  15.466  69.479  1.00  0.00    -0.239 OA 
HETATM   15  C   UNL     1     -10.887  15.811  68.560  1.00  0.00    -0.290 C  
HETATM   16  O   UNL     1     -10.840  16.892  67.987  1.00  0.00    -0.363 OA 
ENDBRANCH   3  13
BRANCH   5  17
HETATM   17  C   UNL     1     -11.697   9.359  71.505  1.00  0.00    -0.465 A  
HETATM   18  C   UNL     1     -10.398   9.003  71.889  1.00  0.00    -0.357 A  
HETATM   19  C   UNL     1     -10.077   7.665  72.171  1.00  0.00    -0.246 A  
HETATM   20  C   UNL     1     -11.055   6.668  72.084  1.00  0.00    -0.254 A  
HETATM   21  C   UNL     1     -12.351   7.030  71.691  1.00  0.00    -0.407 A  
HETATM   22  C   UNL     1     -12.671   8.363  71.405  1.00  0.00    -0.280 A  
BRANCH  20  23
HETATM   23  S   UNL     1     -10.649   4.919  72.334  1.00  0.00    -0.173 S  
HETATM   24  C   UNL     1      -8.844   4.991  72.278  1.00  0.00    -0.128 C  
HETATM   25  O   UNL     1     -11.038   4.607  73.751  1.00  0.00    -0.296 OA 
ENDBRANCH  20  23
ENDBRANCH   5  17
TORSDOF 3
ENDMDL
MODEL       17
REMARK 921   NORMALIZED FREE ENERGY PREDICTED BY IDOCK:   -6.49 KCAL/MOL
REMARK 922        TOTAL FREE ENERGY PREDICTED BY IDOCK:   -8.57 KCAL/MOL
REMARK 923 INTER-LIGAND FREE ENERGY PREDICTED BY IDOCK:   -7.61 KCAL/MOL
REMARK 924 INTRA-LIGAND FREE ENERGY PREDICTED BY IDOCK:   -0.96 KCAL/MOL
REMARK 927      BINDING AFFINITY PREDICTED BY RF-SCORE:    0.00 PKD
ROOT
HETATM    1  C   UNL     1     -13.187   9.624  72.277  1.00  0.00    -0.492 C  
HETATM    2  C   UNL     1     -11.842   9.426  71.656  1.00  0.00    -0.464 C  
HETATM    3  C   UNL     1     -10.888   8.531  72.004  1.00  0.00    -0.405 C  
HETATM    4  C   UNL     1      -9.712   8.786  71.153  1.00  0.00    -0.315 A  
HETATM    5  C   UNL     1     -12.124  11.131  69.854  1.00  0.00    -0.418 C  
HETATM    6  C   UNL     1     -11.354  10.271  70.547  1.00  0.00    -0.422 C  
HETATM    7  C   UNL     1      -8.496   8.120  71.117  1.00  0.00    -0.146 A  
HETATM    8  C   UNL     1      -7.499   8.632  70.291  1.00  0.00    -0.066 A  
HETATM    9  C   UNL     1      -9.947   9.906  70.330  1.00  0.00    -0.261 A  
HETATM   10  C   UNL     1      -8.931  10.447  69.557  1.00  0.00    -0.127 A  
HETATM   11  F   UNL     1      -6.319   8.002  70.224  1.00  0.00    -0.035 F  
HETATM   12  C   UNL     1      -7.693   9.798  69.543  1.00  0.00    -0.120 A  
ENDROOT
BRANCH   3  13
HETATM   13  C   UNL     1     -10.869   7.523  73.111  1.00  0.00    -0.448 C  
HETATM   14  O   UNL     1     -11.730   5.866  71.522  1.00  0.00    -0.187 OA 
HETATM   15  C   UNL     1     -11.211   6.083  72.754  1.00  0.00    -0.261 C  
HETATM   16  O   UNL     1     -11.059   5.161  73.546  1.00  0.00    -0.309 OA 
ENDBRANCH   3  13
BRANCH   5  17
HETATM   17  C   UNL     1     -11.776  11.947  68.683  1.00  0.00    -0.380 A  
HETATM   18  C   UNL     1     -11.536  13.321  68.813  1.00  0.00    -0.350 A  
HETATM   19  C   UNL     1     -11.131  14.084  67.706  1.00  0.00    -0.284 A  
HETATM   20  C   UNL     1     -10.948  13.479  66.457  1.00  0.00    -0.291 A  
HETATM   21  C   UNL     1     -11.198  12.106  66.333  1.00  0.00    -0.380 A  
HETATM   22  C   UNL     1     -11.607  11.345  67.435  1.00  0.00    -0.266 A  
BRANCH  20  23
HETATM   23  S   UNL     1     -10.532  14.453  64.986  1.00  0.00    -0.416 S  
HETATM   24  C   UNL     1     -12.157  14.577  64.205  1.00  0.00    -0.425 C  
HETATM   25  O   UNL     1     -10.174  15.823  65.490  1.00  0.00    -0.344 OA 
ENDBRANCH  20  23
ENDBRANCH   5  17
TORSDOF 3
ENDMDL
MODEL       18
REMARK 921   NORMALIZED FREE ENERGY PREDICTED BY IDOCK:   -6.47 KCAL/MOL
REMARK 922        TOTAL FREE ENERGY PREDICTED BY IDOCK:   -8.55 KCAL/MOL
REMARK 923 INTER-LIGAND FREE ENERGY PREDICTED BY IDOCK:   -7.69 KCAL/MOL
REMARK 924 INTRA-LIGAND FREE ENERGY PREDICTED BY IDOCK:   -0.85 KCAL/MOL
REMARK 927      BINDING AFFINITY PREDICTED BY RF-SCORE:    0.00 PKD
ROOT
HETATM    1  C   UNL     1     -10.044  11.217  64.424  1.00  0.00    -0.377 C  
HETATM    2  C   UNL     1     -10.528  11.130  65.835  1.00  0.00    -0.310 C  
HETATM    3  C   UNL     1     -11.189  12.072  66.548  1.00  0.00    -0.387 C  
HETATM    4  C   UNL     1     -11.369  11.548  67.913  1.00  0.00    -0.372 A  
HETATM    5  C   UNL     1      -9.813   8.770  66.221  1.00  0.00    -0.342 C  
HETATM    6  C   UNL     1     -10.283   9.944  66.681  1.00  0.00    -0.293 C  
HETATM    7  C   UNL     1     -12.004  12.131  68.999  1.00  0.00    -0.302 A  
HETATM    8  C   UNL     1     -11.940  11.470  70.222  1.00  0.00    -0.368 A  
HETATM    9  C   UNL     1     -10.735  10.294  68.035  1.00  0.00    -0.299 A  
HETATM   10  C   UNL     1     -10.622   9.671  69.268  1.00  0.00    -0.236 A  
HETATM   11  F   UNL     1     -12.557  12.002  71.285  1.00  0.00    -0.437 F  
HETATM   12  C   UNL     1     -11.233  10.273  70.372  1.00  0.00    -0.407 A  
ENDROOT
BRANCH   3  13
HETATM   13  C   UNL     1     -11.591  13.464  66.168  1.00  0.00    -0.378 C  
HETATM   14  O   UNL     1     -13.183  12.495  64.576  1.00  0.00    -0.832 OA 
HETATM   15  C   UNL     1     -12.755  13.619  65.198  1.00  0.00    -0.395 C  
HETATM   16  O   UNL     1     -13.265  14.706  64.960  1.00  0.00    -0.358 OA 
ENDBRANCH   3  13
BRANCH   5  17
HETATM   17  C   UNL     1      -9.618   7.505  66.943  1.00  0.00    -0.242 A  
HETATM   18  C   UNL     1     -10.669   6.590  67.080  1.00  0.00    -0.434 A  
HETATM   19  C   UNL     1     -10.461   5.349  67.705  1.00  0.00    -0.217 A  
HETATM   20  C   UNL     1      -9.193   5.004  68.189  1.00  0.00    -0.120 A  
HETATM   21  C   UNL     1      -8.149   5.928  68.055  1.00  0.00    -0.105 A  
HETATM   22  C   UNL     1      -8.357   7.167  67.437  1.00  0.00    -0.119 A  
BRANCH  20  23
HETATM   23  S   UNL     1      -8.915   3.459  69.096  1.00  0.00    -0.136 S  
HETATM   24  C   UNL     1      -7.194   3.679  69.597  1.00  0.00    -0.042 C  
HETATM   25  O   UNL     1      -9.756   3.556  70.336  1.00  0.00    -0.185 OA 
ENDBRANCH  20  23
ENDBRANCH   5  17
TORSDOF 3
ENDMDL
MODEL       19
REMARK 921   NORMALIZED FREE ENERGY PREDICTED BY IDOCK:   -6.43 KCAL/MOL
REMARK 922        TOTAL FREE ENERGY PREDICTED BY IDOCK:   -8.51 KCAL/MOL
REMARK 923 INTER-LIGAND FREE ENERGY PREDICTED BY IDOCK:   -7.50 KCAL/MOL
REMARK 924 INTRA-LIGAND FREE ENERGY PREDICTED BY IDOCK:   -1.01 KCAL/MOL
REMARK 927      BINDING AFFINITY PREDICTED BY RF-SCORE:    0.00 PKD
ROOT
HETATM    1  C   UNL     1     -13.036  13.129  72.141  1.00  0.00    -0.481 C  
HETATM    2  C   UNL     1     -12.432  12.656  70.860  1.00  0.00    -0.368 C  
HETATM    3  C   UNL     1     -12.492  11.416  70.318  1.00  0.00    -0.312 C  
HETATM    4  C   UNL     1     -11.668  11.427  69.097  1.00  0.00    -0.410 A  
HETATM    5  C   UNL     1     -11.501  14.866  70.167  1.00  0.00    -0.320 C  
HETATM    6  C   UNL     1     -11.607  13.534  70.005  1.00  0.00    -0.234 C  
HETATM    7  C   UNL     1     -11.434  10.405  68.188  1.00  0.00    -0.194 A  
HETATM    8  C   UNL     1     -10.519  10.641  67.167  1.00  0.00    -0.245 A  
HETATM    9  C   UNL     1     -11.044  12.683  68.948  1.00  0.00    -0.307 A  
HETATM   10  C   UNL     1     -10.088  12.890  67.965  1.00  0.00    -0.235 A  
HETATM   11  F   UNL     1     -10.284   9.678  66.265  1.00  0.00    -0.304 F  
HETATM   12  C   UNL     1      -9.825  11.851  67.067  1.00  0.00    -0.206 A  
ENDROOT
BRANCH   3  13
HETATM   13  C   UNL     1     -13.128  10.165  70.840  1.00  0.00    -0.412 C  
HETATM   14  O   UNL     1     -10.948   9.522  71.757  1.00  0.00    -0.333 OA 
HETATM   15  C   UNL     1     -12.275   9.254  71.712  1.00  0.00    -0.385 C  
HETATM   16  O   UNL     1     -12.748   8.305  72.323  1.00  0.00    -0.333 OA 
ENDBRANCH   3  13
BRANCH   5  17
HETATM   17  C   UNL     1     -10.794  15.847  69.333  1.00  0.00    -0.288 A  
HETATM   18  C   UNL     1      -9.438  16.124  69.547  1.00  0.00    -0.125 A  
HETATM   19  C   UNL     1      -8.745  17.006  68.701  1.00  0.00    -0.261 A  
HETATM   20  C   UNL     1      -9.399  17.611  67.621  1.00  0.00    -0.246 A  
HETATM   21  C   UNL     1     -10.757  17.334  67.417  1.00  0.00    -0.247 A  
HETATM   22  C   UNL     1     -11.450  16.460  68.264  1.00  0.00    -0.143 A  
BRANCH  20  23
HETATM   23  S   UNL     1      -8.565  18.835  66.576  1.00  0.00    -0.293 S  
HETATM   24  C   UNL     1      -7.502  19.638  67.797  1.00  0.00    -0.278 C  
HETATM   25  O   UNL     1      -7.673  18.049  65.657  1.00  0.00    -0.539 OA 
ENDBRANCH  20  23
ENDBRANCH   5  17
TORSDOF 3
ENDMDL
MODEL       20
REMARK 921   NORMALIZED FREE ENERGY PREDICTED BY IDOCK:   -6.40 KCAL/MOL
REMARK 922        TOTAL FREE ENERGY PREDICTED BY IDOCK:   -8.47 KCAL/MOL
REMARK 923 INTER-LIGAND FREE ENERGY PREDICTED BY IDOCK:   -7.51 KCAL/MOL
REMARK 924 INTRA-LIGAND FREE ENERGY PREDICTED BY IDOCK:   -0.96 KCAL/MOL
REMARK 927      BINDING AFFINITY PREDICTED BY RF-SCORE:    0.00 PKD
ROOT
HETATM    1  C   UNL     1      -9.620   9.677  65.209  1.00  0.00    -0.347 C  
HETATM    2  C   UNL     1     -10.135  10.249  66.489  1.00  0.00    -0.290 C  
HETATM    3  C   UNL     1     -10.504   9.585  67.610  1.00  0.00    -0.321 C  
HETATM    4  C   UNL     1     -11.023  10.582  68.563  1.00  0.00    -0.300 A  
HETATM    5  C   UNL     1      -9.924  12.645  65.817  1.00  0.00    -0.266 C  
HETATM    6  C   UNL     1     -10.357  11.699  66.671  1.00  0.00    -0.257 C  
HETATM    7  C   UNL     1     -11.500  10.396  69.852  1.00  0.00    -0.368 A  
HETATM    8  C   UNL     1     -12.041  11.496  70.509  1.00  0.00    -0.378 A  
HETATM    9  C   UNL     1     -11.031  11.860  67.967  1.00  0.00    -0.271 A  
HETATM   10  C   UNL     1     -11.628  12.938  68.603  1.00  0.00    -0.353 A  
HETATM   11  F   UNL     1     -12.496  11.351  71.761  1.00  0.00    -0.378 F  
HETATM   12  C   UNL     1     -12.139  12.747  69.890  1.00  0.00    -0.329 A  
ENDROOT
BRANCH   3  13
HETATM   13  C   UNL     1     -10.547   8.115  67.889  1.00  0.00    -0.212 C  
HETATM   14  O   UNL     1      -8.152   8.213  68.402  1.00  0.00    -0.124 OA 
HETATM   15  C   UNL     1      -9.281   7.466  68.433  1.00  0.00    -0.138 C  
HETATM   16  O   UNL     1      -9.266   6.315  68.851  1.00  0.00    -0.124 OA 
ENDBRANCH   3  13
BRANCH   5  17
HETATM   17  C   UNL     1     -10.003  14.106  65.938  1.00  0.00    -0.331 A  
HETATM   18  C   UNL     1      -9.121  14.805  66.772  1.00  0.00    -0.291 A  
HETATM   19  C   UNL     1      -9.150  16.208  66.828  1.00  0.00    -0.257 A  
HETATM   20  C   UNL     1     -10.054  16.931  66.041  1.00  0.00    -0.319 A  
HETATM   21  C   UNL     1     -10.939  16.224  65.215  1.00  0.00    -0.245 A  
HETATM   22  C   UNL     1     -10.915  14.825  65.163  1.00  0.00    -0.403 A  
BRANCH  20  23
HETATM   23  S   UNL     1     -10.192  18.734  66.171  1.00  0.00    -0.385 S  
HETATM   24  C   UNL     1     -10.535  18.909  67.936  1.00  0.00    -0.388 C  
HETATM   25  O   UNL     1      -8.808  19.267  65.931  1.00  0.00    -0.440 OA 
ENDBRANCH  20  23
ENDBRANCH   5  17
TORSDOF 3
ENDMDL
MODEL       21
REMARK 921   NORMALIZED FREE ENERGY PREDICTED BY IDOCK:   -6.39 KCAL/MOL
REMARK 922        TOTAL FREE ENERGY PREDICTED BY IDOCK:   -8.46 KCAL/MOL
REMARK 923 INTER-LIGAND FREE ENERGY PREDICTED BY IDOCK:   -7.47 KCAL/MOL
REMARK 924 INTRA-LIGAND FREE ENERGY PREDICTED BY IDOCK:   -0.99 KCAL/MOL
REMARK 927      BINDING AFFINITY PREDICTED BY RF-SCORE:    0.00 PKD
ROOT
HETATM    1  C   UNL     1      -7.875  11.054  67.911  1.00  0.00    -0.110 C  
HETATM    2  C   UNL     1      -8.960  11.470  66.972  1.00  0.00    -0.174 C  
HETATM    3  C   UNL     1      -9.742  10.678  66.200  1.00  0.00    -0.253 C  
HETATM    4  C   UNL     1     -10.598  11.560  65.388  1.00  0.00    -0.336 A  
HETATM    5  C   UNL     1      -8.828  13.912  67.471  1.00  0.00    -0.196 C  
HETATM    6  C   UNL     1      -9.294  12.889  66.732  1.00  0.00    -0.243 C  
HETATM    7  C   UNL     1     -11.577  11.224  64.464  1.00  0.00     0.109 A  
HETATM    8  C   UNL     1     -12.171  12.255  63.743  1.00  0.00    -0.546 A  
HETATM    9  C   UNL     1     -10.266  12.909  65.630  1.00  0.00    -0.295 A  
HETATM   10  C   UNL     1     -10.818  13.926  64.864  1.00  0.00    -0.413 A  
HETATM   11  F   UNL     1     -13.130  11.962  62.855  1.00  0.00    -0.552 F  
HETATM   12  C   UNL     1     -11.781  13.587  63.910  1.00  0.00    -0.415 A  
ENDROOT
BRANCH   3  13
HETATM   13  C   UNL     1      -9.732   9.191  66.023  1.00  0.00    -0.358 C  
HETATM   14  O   UNL     1     -10.786   8.993  68.228  1.00  0.00    -0.191 OA 
HETATM   15  C   UNL     1     -10.422   8.353  67.091  1.00  0.00    -0.310 C  
HETATM   16  O   UNL     1     -10.617   7.152  66.953  1.00  0.00    -0.305 OA 
ENDBRANCH   3  13
BRANCH   5  17
HETATM   17  C   UNL     1      -9.159  15.341  67.386  1.00  0.00    -0.201 A  
HETATM   18  C   UNL     1      -8.408  16.204  66.578  1.00  0.00    -0.352 A  
HETATM   19  C   UNL     1      -8.773  17.554  66.441  1.00  0.00    -0.273 A  
HETATM   20  C   UNL     1      -9.902  18.053  67.100  1.00  0.00    -0.316 A  
HETATM   21  C   UNL     1     -10.644  17.185  67.912  1.00  0.00    -0.376 A  
HETATM   22  C   UNL     1     -10.278  15.841  68.054  1.00  0.00    -0.229 A  
BRANCH  20  23
HETATM   23  S   UNL     1     -10.338  19.812  67.032  1.00  0.00    -0.476 S  
HETATM   24  C   UNL     1      -8.697  20.559  67.145  1.00  0.00    -0.271 C  
HETATM   25  O   UNL     1     -10.842  20.054  65.637  1.00  0.00    -0.387 OA 
ENDBRANCH  20  23
ENDBRANCH   5  17
TORSDOF 3
ENDMDL
MODEL       22
REMARK 921   NORMALIZED FREE ENERGY PREDICTED BY IDOCK:   -6.36 KCAL/MOL
REMARK 922        TOTAL FREE ENERGY PREDICTED BY IDOCK:   -8.42 KCAL/MOL
REMARK 923 INTER-LIGAND FREE ENERGY PREDICTED BY IDOCK:   -7.50 KCAL/MOL
REMARK 924 INTRA-LIGAND FREE ENERGY PREDICTED BY IDOCK:   -0.93 KCAL/MOL
REMARK 927      BINDING AFFINITY PREDICTED BY RF-SCORE:    0.00 PKD
ROOT
HETATM    1  C   UNL     1     -13.223  10.962  71.854  1.00  0.00    -0.508 C  
HETATM    2  C   UNL     1     -12.594  11.937  70.914  1.00  0.00    -0.361 C  
HETATM    3  C   UNL     1     -12.758  13.281  70.874  1.00  0.00    -0.332 C  
HETATM    4  C   UNL     1     -11.999  13.784  69.716  1.00  0.00    -0.406 A  
HETATM    5  C   UNL     1     -11.190  10.270  69.696  1.00  0.00    -0.322 C  
HETATM    6  C   UNL     1     -11.696  11.511  69.820  1.00  0.00    -0.426 C  
HETATM    7  C   UNL     1     -11.840  15.089  69.273  1.00  0.00    -0.344 A  
HETATM    8  C   UNL     1     -11.156  15.290  68.077  1.00  0.00    -0.312 A  
HETATM    9  C   UNL     1     -11.428  12.706  69.009  1.00  0.00    -0.354 A  
HETATM   10  C   UNL     1     -10.802  12.909  67.788  1.00  0.00    -0.248 A  
HETATM   11  F   UNL     1     -10.975  16.540  67.632  1.00  0.00    -0.325 F  
HETATM   12  C   UNL     1     -10.669  14.220  67.321  1.00  0.00    -0.277 A  
ENDROOT
BRANCH   3  13
HETATM   13  C   UNL     1     -13.627  14.171  71.707  1.00  0.00    -0.483 C  
HETATM   14  O   UNL     1     -11.603  14.970  72.837  1.00  0.00    -0.323 OA 
HETATM   15  C   UNL     1     -12.933  15.144  72.652  1.00  0.00    -0.400 C  
HETATM   16  O   UNL     1     -13.543  16.024  73.245  1.00  0.00    -0.590 OA 
ENDBRANCH   3  13
BRANCH   5  17
HETATM   17  C   UNL     1     -10.224   9.760  68.714  1.00  0.00    -0.210 A  
HETATM   18  C   UNL     1     -10.657   9.222  67.496  1.00  0.00    -0.329 A  
HETATM   19  C   UNL     1      -9.729   8.804  66.528  1.00  0.00    -0.328 A  
HETATM   20  C   UNL     1      -8.355   8.929  66.763  1.00  0.00    -0.111 A  
HETATM   21  C   UNL     1      -7.929   9.460  67.988  1.00  0.00    -0.092 A  
HETATM   22  C   UNL     1      -8.854   9.873  68.956  1.00  0.00    -0.156 A  
BRANCH  20  23
HETATM   23  S   UNL     1      -7.131   8.299  65.583  1.00  0.00    -0.072 S  
HETATM   24  C   UNL     1      -7.360   6.520  65.793  1.00  0.00    -0.079 C  
HETATM   25  O   UNL     1      -7.654   8.658  64.222  1.00  0.00    -0.108 OA 
ENDBRANCH  20  23
ENDBRANCH   5  17
TORSDOF 3
ENDMDL
MODEL       23
REMARK 921   NORMALIZED FREE ENERGY PREDICTED BY IDOCK:   -6.35 KCAL/MOL
REMARK 922        TOTAL FREE ENERGY PREDICTED BY IDOCK:   -8.40 KCAL/MOL
REMARK 923 INTER-LIGAND FREE ENERGY PREDICTED BY IDOCK:   -7.45 KCAL/MOL
REMARK 924 INTRA-LIGAND FREE ENERGY PREDICTED BY IDOCK:   -0.95 KCAL/MOL
REMARK 927      BINDING AFFINITY PREDICTED BY RF-SCORE:    0.00 PKD
ROOT
HETATM    1  C   UNL     1     -12.732  14.087  65.807  1.00  0.00    -0.487 C  
HETATM    2  C   UNL     1     -11.364  14.014  66.401  1.00  0.00    -0.338 C  
HETATM    3  C   UNL     1     -10.359  14.915  66.291  1.00  0.00    -0.302 C  
HETATM    4  C   UNL     1      -9.183  14.351  66.978  1.00  0.00    -0.246 A  
HETATM    5  C   UNL     1     -11.718  11.872  67.632  1.00  0.00    -0.346 C  
HETATM    6  C   UNL     1     -10.908  12.852  67.190  1.00  0.00    -0.278 C  
HETATM    7  C   UNL     1      -7.924  14.905  67.156  1.00  0.00    -0.227 A  
HETATM    8  C   UNL     1      -6.946  14.114  67.751  1.00  0.00    -0.177 A  
HETATM    9  C   UNL     1      -9.475  13.053  67.445  1.00  0.00    -0.210 A  
HETATM   10  C   UNL     1      -8.480  12.250  67.980  1.00  0.00    -0.171 A  
HETATM   11  F   UNL     1      -5.724  14.627  67.951  1.00  0.00    -0.120 F  
HETATM   12  C   UNL     1      -7.200  12.793  68.132  1.00  0.00    -0.115 A  
ENDROOT
BRANCH   3  13
HETATM   13  C   UNL     1     -10.297  16.203  65.530  1.00  0.00    -0.391 C  
HETATM   14  O   UNL     1     -10.746  17.385  67.630  1.00  0.00    -0.363 OA 
HETATM   15  C   UNL     1     -10.386  17.496  66.329  1.00  0.00    -0.335 C  
HETATM   16  O   UNL     1     -10.175  18.591  65.823  1.00  0.00    -0.568 OA 
ENDBRANCH   3  13
BRANCH   5  17
HETATM   17  C   UNL     1     -11.399  10.726  68.495  1.00  0.00    -0.360 A  
HETATM   18  C   UNL     1     -10.775   9.587  67.972  1.00  0.00    -0.266 A  
HETATM   19  C   UNL     1     -10.404   8.525  68.813  1.00  0.00    -0.233 A  
HETATM   20  C   UNL     1     -10.641   8.596  70.191  1.00  0.00    -0.225 A  
HETATM   21  C   UNL     1     -11.273   9.736  70.705  1.00  0.00    -0.419 A  
HETATM   22  C   UNL     1     -11.649  10.793  69.867  1.00  0.00    -0.410 A  
BRANCH  20  23
HETATM   23  S   UNL     1     -10.274   7.199  71.287  1.00  0.00    -0.188 S  
HETATM   24  C   UNL     1     -10.583   7.958  72.897  1.00  0.00    -0.368 C  
HETATM   25  O   UNL     1     -11.367   6.196  71.051  1.00  0.00    -0.307 OA 
ENDBRANCH  20  23
ENDBRANCH   5  17
TORSDOF 3
ENDMDL
MODEL       24
REMARK 921   NORMALIZED FREE ENERGY PREDICTED BY IDOCK:   -6.32 KCAL/MOL
REMARK 922        TOTAL FREE ENERGY PREDICTED BY IDOCK:   -8.38 KCAL/MOL
REMARK 923 INTER-LIGAND FREE ENERGY PREDICTED BY IDOCK:   -7.46 KCAL/MOL
REMARK 924 INTRA-LIGAND FREE ENERGY PREDICTED BY IDOCK:   -0.92 KCAL/MOL
REMARK 927      BINDING AFFINITY PREDICTED BY RF-SCORE:    0.00 PKD
ROOT
HETATM    1  C   UNL     1     -12.785  13.943  65.767  1.00  0.00    -0.503 C  
HETATM    2  C   UNL     1     -11.417  13.952  66.368  1.00  0.00    -0.354 C  
HETATM    3  C   UNL     1     -10.450  14.889  66.225  1.00  0.00    -0.306 C  
HETATM    4  C   UNL     1      -9.256  14.404  66.938  1.00  0.00    -0.269 A  
HETATM    5  C   UNL     1     -11.688  11.849  67.686  1.00  0.00    -0.346 C  
HETATM    6  C   UNL     1     -10.918  12.843  67.207  1.00  0.00    -0.289 C  
HETATM    7  C   UNL     1      -8.022  15.016  67.099  1.00  0.00    -0.238 A  
HETATM    8  C   UNL     1      -7.014  14.293  67.729  1.00  0.00    -0.177 A  
HETATM    9  C   UNL     1      -9.495  13.115  67.458  1.00  0.00    -0.212 A  
HETATM   10  C   UNL     1      -8.470  12.377  68.029  1.00  0.00    -0.176 A  
HETATM   11  F   UNL     1      -5.816  14.864  67.911  1.00  0.00    -0.117 F  
HETATM   12  C   UNL     1      -7.216  12.979  68.163  1.00  0.00    -0.116 A  
ENDROOT
BRANCH   3  13
HETATM   13  C   UNL     1     -10.438  16.146  65.411  1.00  0.00    -0.396 C  
HETATM   14  O   UNL     1     -10.813  17.406  67.480  1.00  0.00    -0.315 OA 
HETATM   15  C   UNL     1     -10.511  17.469  66.162  1.00  0.00    -0.288 C  
HETATM   16  O   UNL     1     -10.337  18.545  65.605  1.00  0.00    -0.594 OA 
ENDBRANCH   3  13
BRANCH   5  17
HETATM   17  C   UNL     1     -11.326  10.755  68.596  1.00  0.00    -0.356 A  
HETATM   18  C   UNL     1     -11.592  10.846  69.968  1.00  0.00    -0.424 A  
HETATM   19  C   UNL     1     -11.314   9.768  70.824  1.00  0.00    -0.416 A  
HETATM   20  C   UNL     1     -10.776   8.579  70.315  1.00  0.00    -0.230 A  
HETATM   21  C   UNL     1     -10.505   8.499  68.943  1.00  0.00    -0.207 A  
HETATM   22  C   UNL     1     -10.778   9.575  68.089  1.00  0.00    -0.247 A  
BRANCH  20  23
HETATM   23  S   UNL     1     -10.304   7.211  71.406  1.00  0.00    -0.195 S  
HETATM   24  C   UNL     1     -11.077   7.742  72.951  1.00  0.00    -0.398 C  
HETATM   25  O   UNL     1     -11.067   6.014  70.915  1.00  0.00    -0.291 OA 
ENDBRANCH  20  23
ENDBRANCH   5  17
TORSDOF 3
ENDMDL
MODEL       25
REMARK 921   NORMALIZED FREE ENERGY PREDICTED BY IDOCK:   -6.30 KCAL/MOL
REMARK 922        TOTAL FREE ENERGY PREDICTED BY IDOCK:   -8.35 KCAL/MOL
REMARK 923 INTER-LIGAND FREE ENERGY PREDICTED BY IDOCK:   -7.36 KCAL/MOL
REMARK 924 INTRA-LIGAND FREE ENERGY PREDICTED BY IDOCK:   -0.99 KCAL/MOL
REMARK 927      BINDING AFFINITY PREDICTED BY RF-SCORE:    0.00 PKD
ROOT
HETATM    1  C   UNL     1     -12.271  14.116  68.371  1.00  0.00    -0.200 C  
HETATM    2  C   UNL     1     -11.575  13.308  67.325  1.00  0.00    -0.404 C  
HETATM    3  C   UNL     1     -11.489  13.561  65.997  1.00  0.00    -0.345 C  
HETATM    4  C   UNL     1     -10.778  12.430  65.377  1.00  0.00    -0.317 A  
HETATM    5  C   UNL     1     -10.646  11.592  68.882  1.00  0.00    -0.236 C  
HETATM    6  C   UNL     1     -10.895  12.033  67.635  1.00  0.00    -0.273 C  
HETATM    7  C   UNL     1     -10.427  12.237  64.049  1.00  0.00    -0.427 A  
HETATM    8  C   UNL     1      -9.850  11.020  63.699  1.00  0.00    -0.351 A  
HETATM    9  C   UNL     1     -10.497  11.446  66.348  1.00  0.00    -0.299 A  
HETATM   10  C   UNL     1      -9.980  10.213  65.982  1.00  0.00    -0.322 A  
HETATM   11  F   UNL     1      -9.487  10.811  62.427  1.00  0.00    -0.265 F  
HETATM   12  C   UNL     1      -9.655  10.003  64.639  1.00  0.00    -0.363 A  
ENDROOT
BRANCH   3  13
HETATM   13  C   UNL     1     -12.082  14.672  65.187  1.00  0.00    -0.308 C  
HETATM   14  O   UNL     1      -9.890  15.770  65.220  1.00  0.00    -0.375 OA 
HETATM   15  C   UNL     1     -11.139  15.762  64.696  1.00  0.00    -0.361 C  
HETATM   16  O   UNL     1     -11.491  16.615  63.891  1.00  0.00    -1.186 OA 
ENDBRANCH   3  13
BRANCH   5  17
HETATM   17  C   UNL     1      -9.904  10.398  69.309  1.00  0.00    -0.243 A  
HETATM   18  C   UNL     1     -10.577   9.215  69.636  1.00  0.00    -0.237 A  
HETATM   19  C   UNL     1      -9.860   8.054  69.972  1.00  0.00    -0.185 A  
HETATM   20  C   UNL     1      -8.461   8.060  69.973  1.00  0.00    -0.129 A  
HETATM   21  C   UNL     1      -7.794   9.251  69.653  1.00  0.00    -0.090 A  
HETATM   22  C   UNL     1      -8.508  10.410  69.323  1.00  0.00    -0.162 A  
BRANCH  20  23
HETATM   23  S   UNL     1      -7.508   6.613  70.506  1.00  0.00    -0.088 S  
HETATM   24  C   UNL     1      -8.218   6.340  72.145  1.00  0.00    -0.109 C  
HETATM   25  O   UNL     1      -7.961   5.480  69.631  1.00  0.00    -0.090 OA 
ENDBRANCH  20  23
ENDBRANCH   5  17
TORSDOF 3
ENDMDL
MODEL       26
REMARK 921   NORMALIZED FREE ENERGY PREDICTED BY IDOCK:   -6.28 KCAL/MOL
REMARK 922        TOTAL FREE ENERGY PREDICTED BY IDOCK:   -8.32 KCAL/MOL
REMARK 923 INTER-LIGAND FREE ENERGY PREDICTED BY IDOCK:   -7.27 KCAL/MOL
REMARK 924 INTRA-LIGAND FREE ENERGY PREDICTED BY IDOCK:   -1.05 KCAL/MOL
REMARK 927      BINDING AFFINITY PREDICTED BY RF-SCORE:    0.00 PKD
ROOT
HETATM    1  C   UNL     1      -7.343   8.921  70.722  1.00  0.00    -0.091 C  
HETATM    2  C   UNL     1      -8.798   9.151  70.972  1.00  0.00    -0.267 C  
HETATM    3  C   UNL     1      -9.544   8.715  72.014  1.00  0.00    -0.385 C  
HETATM    4  C   UNL     1     -10.936   9.124  71.763  1.00  0.00    -0.429 A  
HETATM    5  C   UNL     1      -9.186  10.606  68.981  1.00  0.00    -0.177 C  
HETATM    6  C   UNL     1      -9.653   9.893  70.022  1.00  0.00    -0.260 C  
HETATM    7  C   UNL     1     -12.062   8.930  72.550  1.00  0.00    -0.266 A  
HETATM    8  C   UNL     1     -13.293   9.321  72.030  1.00  0.00    -0.450 A  
HETATM    9  C   UNL     1     -11.033   9.757  70.507  1.00  0.00    -0.384 A  
HETATM   10  C   UNL     1     -12.269  10.087  69.970  1.00  0.00    -0.039 A  
HETATM   11  F   UNL     1     -14.396   9.159  72.773  1.00  0.00    -0.464 F  
HETATM   12  C   UNL     1     -13.409   9.862  70.746  1.00  0.00    -0.179 A  
ENDROOT
BRANCH   3  13
HETATM   13  C   UNL     1      -9.161   7.858  73.181  1.00  0.00    -0.331 C  
HETATM   14  O   UNL     1      -9.660   5.888  71.809  1.00  0.00    -0.152 OA 
HETATM   15  C   UNL     1      -9.123   6.351  72.964  1.00  0.00    -0.129 C  
HETATM   16  O   UNL     1      -8.662   5.583  73.798  1.00  0.00    -0.119 OA 
ENDBRANCH   3  13
BRANCH   5  17
HETATM   17  C   UNL     1      -9.924  11.452  68.034  1.00  0.00    -0.192 A  
HETATM   18  C   UNL     1     -10.419  10.923  66.835  1.00  0.00    -0.299 A  
HETATM   19  C   UNL     1     -11.189  11.715  65.967  1.00  0.00    -0.299 A  
HETATM   20  C   UNL     1     -11.484  13.043  66.294  1.00  0.00    -0.337 A  
HETATM   21  C   UNL     1     -10.978  13.568  67.491  1.00  0.00    -0.283 A  
HETATM   22  C   UNL     1     -10.206  12.781  68.355  1.00  0.00    -0.237 A  
BRANCH  20  23
HETATM   23  S   UNL     1     -12.381  14.124  65.147  1.00  0.00    -0.435 S  
HETATM   24  C   UNL     1     -11.129  15.391  64.845  1.00  0.00    -0.423 C  
HETATM   25  O   UNL     1     -12.532  13.336  63.877  1.00  0.00    -0.641 OA 
ENDBRANCH  20  23
ENDBRANCH   5  17
TORSDOF 3
ENDMDL
MODEL       27
REMARK 921   NORMALIZED FREE ENERGY PREDICTED BY IDOCK:   -6.21 KCAL/MOL
REMARK 922        TOTAL FREE ENERGY PREDICTED BY IDOCK:   -8.25 KCAL/MOL
REMARK 923 INTER-LIGAND FREE ENERGY PREDICTED BY IDOCK:   -7.51 KCAL/MOL
REMARK 924 INTRA-LIGAND FREE ENERGY PREDICTED BY IDOCK:   -0.74 KCAL/MOL
REMARK 927      BINDING AFFINITY PREDICTED BY RF-SCORE:    0.00 PKD
ROOT
HETATM    1  C   UNL     1     -13.349  11.292  72.056  1.00  0.00    -0.386 C  
HETATM    2  C   UNL     1     -12.413  10.945  70.944  1.00  0.00    -0.507 C  
HETATM    3  C   UNL     1     -11.959   9.720  70.589  1.00  0.00    -0.340 C  
HETATM    4  C   UNL     1     -10.994   9.907  69.492  1.00  0.00    -0.274 A  
HETATM    5  C   UNL     1     -12.182  13.265  70.051  1.00  0.00    -0.345 C  
HETATM    6  C   UNL     1     -11.803  11.974  70.077  1.00  0.00    -0.392 C  
HETATM    7  C   UNL     1     -10.280   8.953  68.781  1.00  0.00    -0.224 A  
HETATM    8  C   UNL     1      -9.340   9.401  67.857  1.00  0.00    -0.129 A  
HETATM    9  C   UNL     1     -10.816  11.282  69.236  1.00  0.00    -0.259 A  
HETATM   10  C   UNL     1      -9.835  11.721  68.361  1.00  0.00    -0.199 A  
HETATM   11  F   UNL     1      -8.646   8.504  67.145  1.00  0.00    -0.117 F  
HETATM   12  C   UNL     1      -9.090  10.763  67.666  1.00  0.00    -0.148 A  
ENDROOT
BRANCH   3  13
HETATM   13  C   UNL     1     -12.214   8.380  71.209  1.00  0.00    -0.305 C  
HETATM   14  O   UNL     1     -10.196   8.700  72.563  1.00  0.00    -0.290 OA 
HETATM   15  C   UNL     1     -11.304   7.950  72.351  1.00  0.00    -0.369 C  
HETATM   16  O   UNL     1     -11.534   6.958  73.031  1.00  0.00    -0.170 OA 
ENDBRANCH   3  13
BRANCH   5  17
HETATM   17  C   UNL     1     -11.718  14.348  69.175  1.00  0.00    -0.354 A  
HETATM   18  C   UNL     1     -11.028  15.448  69.699  1.00  0.00    -0.288 A  
HETATM   19  C   UNL     1     -10.519  16.445  68.850  1.00  0.00    -0.285 A  
HETATM   20  C   UNL     1     -10.685  16.347  67.464  1.00  0.00    -0.298 A  
HETATM   21  C   UNL     1     -11.383  15.247  66.947  1.00  0.00    -0.209 A  
HETATM   22  C   UNL     1     -11.895  14.256  67.793  1.00  0.00    -0.414 A  
BRANCH  20  23
HETATM   23  S   UNL     1     -10.138  17.668  66.349  1.00  0.00    -0.353 S  
HETATM   24  C   UNL     1      -9.909  19.017  67.529  1.00  0.00    -0.324 C  
HETATM   25  O   UNL     1      -8.774  17.260  65.870  1.00  0.00    -0.528 OA 
ENDBRANCH  20  23
ENDBRANCH   5  17
TORSDOF 3
ENDMDL
MODEL       28
REMARK 921   NORMALIZED FREE ENERGY PREDICTED BY IDOCK:   -6.19 KCAL/MOL
REMARK 922        TOTAL FREE ENERGY PREDICTED BY IDOCK:   -8.23 KCAL/MOL
REMARK 923 INTER-LIGAND FREE ENERGY PREDICTED BY IDOCK:   -7.22 KCAL/MOL
REMARK 924 INTRA-LIGAND FREE ENERGY PREDICTED BY IDOCK:   -1.01 KCAL/MOL
REMARK 927      BINDING AFFINITY PREDICTED BY RF-SCORE:    0.00 PKD
ROOT
HETATM    1  C   UNL     1      -9.594   8.243  66.676  1.00  0.00    -0.299 C  
HETATM    2  C   UNL     1     -10.255   9.038  67.754  1.00  0.00    -0.284 C  
HETATM    3  C   UNL     1     -10.751   8.594  68.933  1.00  0.00    -0.109 C  
HETATM    4  C   UNL     1     -11.379   9.742  69.609  1.00  0.00    -0.165 A  
HETATM    5  C   UNL     1      -9.969  11.264  66.660  1.00  0.00    -0.242 C  
HETATM    6  C   UNL     1     -10.497  10.490  67.627  1.00  0.00    -0.276 C  
HETATM    7  C   UNL     1     -12.002   9.796  70.848  1.00  0.00    -0.413 A  
HETATM    8  C   UNL     1     -12.617  10.990  71.214  1.00  0.00    -0.412 A  
HETATM    9  C   UNL     1     -11.317  10.882  68.781  1.00  0.00    -0.357 A  
HETATM   10  C   UNL     1     -11.985  12.047  69.125  1.00  0.00    -0.326 A  
HETATM   11  F   UNL     1     -13.214  11.077  72.410  1.00  0.00    -0.551 F  
HETATM   12  C   UNL     1     -12.642  12.095  70.358  1.00  0.00    -0.111 A  
ENDROOT
BRANCH   3  13
HETATM   13  C   UNL     1     -10.826   7.203  69.484  1.00  0.00    -0.244 C  
HETATM   14  O   UNL     1      -8.694   7.615  70.621  1.00  0.00    -0.137 OA 
HETATM   15  C   UNL     1      -9.756   6.786  70.484  1.00  0.00    -0.176 C  
HETATM   16  O   UNL     1      -9.827   5.740  71.116  1.00  0.00    -0.172 OA 
ENDBRANCH   3  13
BRANCH   5  17
HETATM   17  C   UNL     1     -10.062  12.720  66.487  1.00  0.00    -0.264 A  
HETATM   18  C   UNL     1     -11.187  13.300  65.888  1.00  0.00    -0.309 A  
HETATM   19  C   UNL     1     -11.306  14.696  65.792  1.00  0.00    -0.340 A  
HETATM   20  C   UNL     1     -10.306  15.530  66.305  1.00  0.00    -0.302 A  
HETATM   21  C   UNL     1      -9.179  14.942  66.895  1.00  0.00    -0.265 A  
HETATM   22  C   UNL     1      -9.057  13.550  66.987  1.00  0.00    -0.248 A  
BRANCH  20  23
HETATM   23  S   UNL     1     -10.377  17.330  66.100  1.00  0.00    -0.257 S  
HETATM   24  C   UNL     1      -8.615  17.718  66.004  1.00  0.00    -0.009 C  
HETATM   25  O   UNL     1     -10.959  17.563  64.735  1.00  0.00    -0.950 OA 
ENDBRANCH  20  23
ENDBRANCH   5  17
TORSDOF 3
ENDMDL
MODEL       29
REMARK 921   NORMALIZED FREE ENERGY PREDICTED BY IDOCK:   -6.17 KCAL/MOL
REMARK 922        TOTAL FREE ENERGY PREDICTED BY IDOCK:   -8.20 KCAL/MOL
REMARK 923 INTER-LIGAND FREE ENERGY PREDICTED BY IDOCK:   -7.18 KCAL/MOL
REMARK 924 INTRA-LIGAND FREE ENERGY PREDICTED BY IDOCK:   -1.02 KCAL/MOL
REMARK 927      BINDING AFFINITY PREDICTED BY RF-SCORE:    0.00 PKD
ROOT
HETATM    1  C   UNL     1     -10.385  12.008  65.247  1.00  0.00    -0.311 C  
HETATM    2  C   UNL     1     -10.873  11.642  66.612  1.00  0.00    -0.327 C  
HETATM    3  C   UNL     1     -11.549  12.419  67.490  1.00  0.00    -0.431 C  
HETATM    4  C   UNL     1     -11.726  11.638  68.726  1.00  0.00    -0.392 A  
HETATM    5  C   UNL     1     -10.127   9.261  66.536  1.00  0.00    -0.343 C  
HETATM    6  C   UNL     1     -10.615  10.317  67.212  1.00  0.00    -0.324 C  
HETATM    7  C   UNL     1     -12.373  11.991  69.901  1.00  0.00    -0.143 A  
HETATM    8  C   UNL     1     -12.304  11.105  70.972  1.00  0.00    -0.382 A  
HETATM    9  C   UNL     1     -11.076  10.392  68.606  1.00  0.00    -0.313 A  
HETATM   10  C   UNL     1     -10.958   9.543  69.696  1.00  0.00    -0.233 A  
HETATM   11  F   UNL     1     -12.931  11.412  72.115  1.00  0.00    -0.556 F  
HETATM   12  C   UNL     1     -11.581   9.911  70.892  1.00  0.00    -0.456 A  
ENDROOT
BRANCH   3  13
HETATM   13  C   UNL     1     -11.968  13.853  67.385  1.00  0.00    -0.436 C  
HETATM   14  O   UNL     1      -9.737  14.490  68.175  1.00  0.00    -0.208 OA 
HETATM   15  C   UNL     1     -10.908  14.915  67.645  1.00  0.00    -0.286 C  
HETATM   16  O   UNL     1     -11.105  16.102  67.419  1.00  0.00    -0.258 OA 
ENDBRANCH   3  13
BRANCH   5  17
HETATM   17  C   UNL     1      -9.918   7.883  66.999  1.00  0.00    -0.322 A  
HETATM   18  C   UNL     1     -10.962   6.950  66.968  1.00  0.00    -0.404 A  
HETATM   19  C   UNL     1     -10.740   5.614  67.341  1.00  0.00    -0.283 A  
HETATM   20  C   UNL     1      -9.465   5.192  67.737  1.00  0.00    -0.128 A  
HETATM   21  C   UNL     1      -8.427   6.133  67.773  1.00  0.00    -0.115 A  
HETATM   22  C   UNL     1      -8.649   7.466  67.407  1.00  0.00    -0.118 A  
BRANCH  20  23
HETATM   23  S   UNL     1      -9.169   3.504  68.328  1.00  0.00    -0.175 S  
HETATM   24  C   UNL     1      -7.363   3.462  68.304  1.00  0.00    -0.050 C  
HETATM   25  O   UNL     1      -9.595   3.494  69.768  1.00  0.00    -0.184 OA 
ENDBRANCH  20  23
ENDBRANCH   5  17
TORSDOF 3
ENDMDL
MODEL       30
REMARK 921   NORMALIZED FREE ENERGY PREDICTED BY IDOCK:   -6.11 KCAL/MOL
REMARK 922        TOTAL FREE ENERGY PREDICTED BY IDOCK:   -8.13 KCAL/MOL
REMARK 923 INTER-LIGAND FREE ENERGY PREDICTED BY IDOCK:   -7.09 KCAL/MOL
REMARK 924 INTRA-LIGAND FREE ENERGY PREDICTED BY IDOCK:   -1.04 KCAL/MOL
REMARK 927      BINDING AFFINITY PREDICTED BY RF-SCORE:    0.00 PKD
ROOT
HETATM    1  C   UNL     1      -7.946  15.207  68.615  1.00  0.00    -0.151 C  
HETATM    2  C   UNL     1      -8.831  14.662  67.541  1.00  0.00    -0.191 C  
HETATM    3  C   UNL     1      -9.356  15.320  66.481  1.00  0.00    -0.309 C  
HETATM    4  C   UNL     1     -10.229  14.375  65.763  1.00  0.00    -0.355 A  
HETATM    5  C   UNL     1      -8.816  12.301  68.352  1.00  0.00    -0.137 C  
HETATM    6  C   UNL     1      -9.298  13.260  67.541  1.00  0.00    -0.218 C  
HETATM    7  C   UNL     1     -10.968  14.571  64.605  1.00  0.00    -0.351 A  
HETATM    8  C   UNL     1     -11.806  13.542  64.188  1.00  0.00    -0.437 A  
HETATM    9  C   UNL     1     -10.279  13.146  66.453  1.00  0.00    -0.286 A  
HETATM   10  C   UNL     1     -11.162  12.149  66.066  1.00  0.00    -0.382 A  
HETATM   11  F   UNL     1     -12.521  13.696  63.065  1.00  0.00    -0.530 F  
HETATM   12  C   UNL     1     -11.933  12.356  64.919  1.00  0.00    -0.458 A  
ENDROOT
BRANCH   3  13
HETATM   13  C   UNL     1      -9.251  16.762  66.093  1.00  0.00    -0.284 C  
HETATM   14  O   UNL     1     -10.993  17.262  67.743  1.00  0.00    -0.318 OA 
HETATM   15  C   UNL     1     -10.064  17.767  66.897  1.00  0.00    -0.342 C  
HETATM   16  O   UNL     1      -9.916  18.977  66.770  1.00  0.00    -0.318 OA 
ENDBRANCH   3  13
BRANCH   5  17
HETATM   17  C   UNL     1      -9.134  10.867  68.379  1.00  0.00    -0.164 A  
HETATM   18  C   UNL     1     -10.162  10.376  69.194  1.00  0.00    -0.239 A  
HETATM   19  C   UNL     1     -10.513   9.016  69.162  1.00  0.00    -0.239 A  
HETATM   20  C   UNL     1      -9.847   8.133  68.304  1.00  0.00    -0.171 A  
HETATM   21  C   UNL     1      -8.814   8.630  67.498  1.00  0.00    -0.139 A  
HETATM   22  C   UNL     1      -8.460   9.984  67.533  1.00  0.00    -0.118 A  
BRANCH  20  23
HETATM   23  S   UNL     1     -10.201   6.355  68.317  1.00  0.00    -0.191 S  
HETATM   24  C   UNL     1     -11.208   6.232  69.812  1.00  0.00    -0.430 C  
HETATM   25  O   UNL     1     -11.110   6.110  67.147  1.00  0.00    -0.333 OA 
ENDBRANCH  20  23
ENDBRANCH   5  17
TORSDOF 3
ENDMDL
MODEL       31
REMARK 921   NORMALIZED FREE ENERGY PREDICTED BY IDOCK:   -6.03 KCAL/MOL
REMARK 922        TOTAL FREE ENERGY PREDICTED BY IDOCK:   -8.04 KCAL/MOL
REMARK 923 INTER-LIGAND FREE ENERGY PREDICTED BY IDOCK:   -7.03 KCAL/MOL
REMARK 924 INTRA-LIGAND FREE ENERGY PREDICTED BY IDOCK:   -1.00 KCAL/MOL
REMARK 927      BINDING AFFINITY PREDICTED BY RF-SCORE:    0.00 PKD
ROOT
HETATM    1  C   UNL     1      -7.671   8.108  68.756  1.00  0.00    -0.107 C  
HETATM    2  C   UNL     1      -8.826   8.805  69.398  1.00  0.00    -0.143 C  
HETATM    3  C   UNL     1      -9.606   8.364  70.413  1.00  0.00    -0.180 C  
HETATM    4  C   UNL     1     -10.661   9.370  70.628  1.00  0.00    -0.353 A  
HETATM    5  C   UNL     1      -8.643  10.910  68.068  1.00  0.00    -0.131 C  
HETATM    6  C   UNL     1      -9.306  10.124  68.935  1.00  0.00    -0.179 C  
HETATM    7  C   UNL     1     -11.683   9.381  71.566  1.00  0.00    -0.465 A  
HETATM    8  C   UNL     1     -12.625  10.402  71.488  1.00  0.00    -0.439 A  
HETATM    9  C   UNL     1     -10.549  10.399  69.670  1.00  0.00    -0.289 A  
HETATM   10  C   UNL     1     -11.525  11.377  69.559  1.00  0.00    -0.381 A  
HETATM   11  F   UNL     1     -13.615  10.447  72.389  1.00  0.00    -0.470 F  
HETATM   12  C   UNL     1     -12.575  11.373  70.483  1.00  0.00    -0.309 A  
ENDROOT
BRANCH   3  13
HETATM   13  C   UNL     1      -9.579   7.064  71.155  1.00  0.00    -0.165 C  
HETATM   14  O   UNL     1     -11.364   6.264  69.678  1.00  0.00    -0.405 OA 
HETATM   15  C   UNL     1     -10.456   5.937  70.628  1.00  0.00    -0.253 C  
HETATM   16  O   UNL     1     -10.376   4.793  71.058  1.00  0.00    -0.199 OA 
ENDBRANCH   3  13
BRANCH   5  17
HETATM   17  C   UNL     1      -8.972  12.267  67.610  1.00  0.00    -0.181 A  
HETATM   18  C   UNL     1      -9.700  12.468  66.430  1.00  0.00    -0.253 A  
HETATM   19  C   UNL     1     -10.078  13.762  66.035  1.00  0.00    -0.320 A  
HETATM   20  C   UNL     1      -9.742  14.870  66.822  1.00  0.00    -0.251 A  
HETATM   21  C   UNL     1      -9.007  14.661  67.997  1.00  0.00    -0.174 A  
HETATM   22  C   UNL     1      -8.625  13.372  68.389  1.00  0.00    -0.134 A  
BRANCH  20  23
HETATM   23  S   UNL     1     -10.119  16.560  66.287  1.00  0.00    -0.348 S  
HETATM   24  C   UNL     1     -10.555  17.315  67.869  1.00  0.00    -0.384 C  
HETATM   25  O   UNL     1      -8.808  17.154  65.857  1.00  0.00    -0.520 OA 
ENDBRANCH  20  23
ENDBRANCH   5  17
TORSDOF 3
ENDMDL
MODEL       32
REMARK 921   NORMALIZED FREE ENERGY PREDICTED BY IDOCK:   -6.01 KCAL/MOL
REMARK 922        TOTAL FREE ENERGY PREDICTED BY IDOCK:   -8.01 KCAL/MOL
REMARK 923 INTER-LIGAND FREE ENERGY PREDICTED BY IDOCK:   -7.16 KCAL/MOL
REMARK 924 INTRA-LIGAND FREE ENERGY PREDICTED BY IDOCK:   -0.86 KCAL/MOL
REMARK 927      BINDING AFFINITY PREDICTED BY RF-SCORE:    0.00 PKD
ROOT
HETATM    1  C   UNL     1     -11.344  15.155  71.363  1.00  0.00    -0.380 C  
HETATM    2  C   UNL     1     -11.312  14.717  69.935  1.00  0.00    -0.310 C  
HETATM    3  C   UNL     1     -11.924  13.645  69.379  1.00  0.00    -0.394 C  
HETATM    4  C   UNL     1     -11.519  13.591  67.964  1.00  0.00    -0.342 A  
HETATM    5  C   UNL     1      -9.944  16.630  69.097  1.00  0.00    -0.263 C  
HETATM    6  C   UNL     1     -10.521  15.428  68.910  1.00  0.00    -0.238 C  
HETATM    7  C   UNL     1     -11.898  12.691  66.978  1.00  0.00    -0.415 A  
HETATM    8  C   UNL     1     -11.281  12.792  65.735  1.00  0.00    -0.307 A  
HETATM    9  C   UNL     1     -10.587  14.613  67.689  1.00  0.00    -0.256 A  
HETATM   10  C   UNL     1      -9.932  14.669  66.469  1.00  0.00    -0.292 A  
HETATM   11  F   UNL     1     -11.637  11.946  64.759  1.00  0.00    -0.374 F  
HETATM   12  C   UNL     1     -10.287  13.743  65.483  1.00  0.00    -0.333 A  
ENDROOT
BRANCH   3  13
HETATM   13  C   UNL     1     -12.761  12.577  70.012  1.00  0.00     0.282 C  
HETATM   14  O   UNL     1     -10.824  11.080  69.883  1.00  0.00    -0.206 OA 
HETATM   15  C   UNL     1     -12.073  11.267  70.371  1.00  0.00    -0.384 C  
HETATM   16  O   UNL     1     -12.625  10.403  71.042  1.00  0.00    -0.329 OA 
ENDBRANCH   3  13
BRANCH   5  17
HETATM   17  C   UNL     1      -9.218  17.467  68.132  1.00  0.00    -0.277 A  
HETATM   18  C   UNL     1      -9.911  18.254  67.203  1.00  0.00    -0.329 A  
HETATM   19  C   UNL     1      -9.217  19.110  66.332  1.00  0.00    -0.369 A  
HETATM   20  C   UNL     1      -7.821  19.200  66.390  1.00  0.00    -0.284 A  
HETATM   21  C   UNL     1      -7.135  18.404  67.317  1.00  0.00    -0.209 A  
HETATM   22  C   UNL     1      -7.825  17.546  68.182  1.00  0.00    -0.244 A  
BRANCH  20  23
HETATM   23  S   UNL     1      -6.888  20.211  65.210  1.00  0.00    -0.251 S  
HETATM   24  C   UNL     1      -5.635  20.917  66.304  1.00  0.00    -0.215 C  
HETATM   25  O   UNL     1      -6.190  19.240  64.301  1.00  0.00    -0.444 OA 
ENDBRANCH  20  23
ENDBRANCH   5  17
TORSDOF 3
ENDMDL
MODEL       33
REMARK 921   NORMALIZED FREE ENERGY PREDICTED BY IDOCK:   -5.87 KCAL/MOL
REMARK 922        TOTAL FREE ENERGY PREDICTED BY IDOCK:   -7.84 KCAL/MOL
REMARK 923 INTER-LIGAND FREE ENERGY PREDICTED BY IDOCK:   -6.94 KCAL/MOL
REMARK 924 INTRA-LIGAND FREE ENERGY PREDICTED BY IDOCK:   -0.90 KCAL/MOL
REMARK 927      BINDING AFFINITY PREDICTED BY RF-SCORE:    0.00 PKD
ROOT
HETATM    1  C   UNL     1      -7.975  15.729  66.513  1.00  0.00    -0.172 C  
HETATM    2  C   UNL     1      -9.175  15.462  67.362  1.00  0.00    -0.204 C  
HETATM    3  C   UNL     1     -10.053  16.360  67.869  1.00  0.00    -0.250 C  
HETATM    4  C   UNL     1     -11.008  15.617  68.710  1.00  0.00    -0.281 A  
HETATM    5  C   UNL     1      -8.975  12.974  67.338  1.00  0.00    -0.204 C  
HETATM    6  C   UNL     1      -9.536  14.102  67.811  1.00  0.00    -0.219 C  
HETATM    7  C   UNL     1     -12.101  16.090  69.422  1.00  0.00    -0.090 A  
HETATM    8  C   UNL     1     -12.784  15.191  70.235  1.00  0.00    -0.299 A  
HETATM    9  C   UNL     1     -10.646  14.255  68.762  1.00  0.00    -0.255 A  
HETATM   10  C   UNL     1     -11.293  13.380  69.622  1.00  0.00    -0.206 A  
HETATM   11  F   UNL     1     -13.853  15.615  70.922  1.00  0.00    -0.525 F  
HETATM   12  C   UNL     1     -12.374  13.861  70.365  1.00  0.00    -0.433 A  
ENDROOT
BRANCH   3  13
HETATM   13  C   UNL     1     -10.068  17.854  67.772  1.00  0.00    -0.350 C  
HETATM   14  O   UNL     1     -10.593  17.624  65.389  1.00  0.00    -0.657 OA 
HETATM   15  C   UNL     1     -10.490  18.467  66.443  1.00  0.00    -0.406 C  
HETATM   16  O   UNL     1     -10.699  19.667  66.316  1.00  0.00    -0.460 OA 
ENDBRANCH   3  13
BRANCH   5  17
HETATM   17  C   UNL     1      -9.313  11.576  67.637  1.00  0.00    -0.171 A  
HETATM   18  C   UNL     1      -8.647  10.880  68.653  1.00  0.00    -0.153 A  
HETATM   19  C   UNL     1      -9.024   9.568  68.987  1.00  0.00    -0.144 A  
HETATM   20  C   UNL     1     -10.081   8.942  68.316  1.00  0.00    -0.187 A  
HETATM   21  C   UNL     1     -10.737   9.643  67.295  1.00  0.00    -0.284 A  
HETATM   22  C   UNL     1     -10.359  10.948  66.958  1.00  0.00    -0.276 A  
BRANCH  20  23
HETATM   23  S   UNL     1     -10.521   7.215  68.647  1.00  0.00    -0.187 S  
HETATM   24  C   UNL     1     -10.826   6.627  66.966  1.00  0.00    -0.397 C  
HETATM   25  O   UNL     1      -9.259   6.556  69.127  1.00  0.00    -0.135 OA 
ENDBRANCH  20  23
ENDBRANCH   5  17
TORSDOF 3
ENDMDL
MODEL       34
REMARK 921   NORMALIZED FREE ENERGY PREDICTED BY IDOCK:   -5.83 KCAL/MOL
REMARK 922        TOTAL FREE ENERGY PREDICTED BY IDOCK:   -7.80 KCAL/MOL
REMARK 923 INTER-LIGAND FREE ENERGY PREDICTED BY IDOCK:   -6.81 KCAL/MOL
REMARK 924 INTRA-LIGAND FREE ENERGY PREDICTED BY IDOCK:   -1.00 KCAL/MOL
REMARK 927      BINDING AFFINITY PREDICTED BY RF-SCORE:    0.00 PKD
ROOT
HETATM    1  C   UNL     1     -10.818   8.803  72.426  1.00  0.00    -0.225 C  
HETATM    2  C   UNL     1     -10.816   8.260  71.034  1.00  0.00    -0.269 C  
HETATM    3  C   UNL     1     -10.915   6.967  70.644  1.00  0.00    -0.304 C  
HETATM    4  C   UNL     1     -10.777   6.936  69.178  1.00  0.00    -0.262 A  
HETATM    5  C   UNL     1     -10.707  10.472  69.881  1.00  0.00    -0.301 C  
HETATM    6  C   UNL     1     -10.651   9.127  69.849  1.00  0.00    -0.246 C  
HETATM    7  C   UNL     1     -10.831   5.851  68.315  1.00  0.00    -0.325 A  
HETATM    8  C   UNL     1     -10.557   6.076  66.970  1.00  0.00    -0.316 A  
HETATM    9  C   UNL     1     -10.517   8.233  68.691  1.00  0.00    -0.199 A  
HETATM   10  C   UNL     1     -10.185   8.440  67.361  1.00  0.00    -0.328 A  
HETATM   11  F   UNL     1     -10.616   5.050  66.111  1.00  0.00    -0.267 F  
HETATM   12  C   UNL     1     -10.206   7.343  66.494  1.00  0.00    -0.149 A  
ENDROOT
BRANCH   3  13
HETATM   13  C   UNL     1     -11.012   5.717  71.464  1.00  0.00    -0.304 C  
HETATM   14  O   UNL     1      -8.567   5.554  71.375  1.00  0.00    -0.128 OA 
HETATM   15  C   UNL     1      -9.709   5.080  71.928  1.00  0.00    -0.160 C  
HETATM   16  O   UNL     1      -9.684   4.163  72.739  1.00  0.00    -0.128 OA 
ENDBRANCH   3  13
BRANCH   5  17
HETATM   17  C   UNL     1     -10.650  11.426  68.766  1.00  0.00    -0.235 A  
HETATM   18  C   UNL     1      -9.421  11.818  68.220  1.00  0.00    -0.193 A  
HETATM   19  C   UNL     1      -9.373  12.673  67.106  1.00  0.00    -0.210 A  
HETATM   20  C   UNL     1     -10.556  13.136  66.518  1.00  0.00    -0.284 A  
HETATM   21  C   UNL     1     -11.781  12.746  67.075  1.00  0.00    -0.440 A  
HETATM   22  C   UNL     1     -11.830  11.899  68.188  1.00  0.00    -0.338 A  
BRANCH  20  23
HETATM   23  S   UNL     1     -10.529  14.325  65.149  1.00  0.00    -0.428 S  
HETATM   24  C   UNL     1     -12.272  14.318  64.675  1.00  0.00    -0.454 C  
HETATM   25  O   UNL     1     -10.243  15.661  65.775  1.00  0.00    -0.314 OA 
ENDBRANCH  20  23
ENDBRANCH   5  17
TORSDOF 3
ENDMDL
MODEL       35
REMARK 921   NORMALIZED FREE ENERGY PREDICTED BY IDOCK:   -5.75 KCAL/MOL
REMARK 922        TOTAL FREE ENERGY PREDICTED BY IDOCK:   -7.70 KCAL/MOL
REMARK 923 INTER-LIGAND FREE ENERGY PREDICTED BY IDOCK:   -6.78 KCAL/MOL
REMARK 924 INTRA-LIGAND FREE ENERGY PREDICTED BY IDOCK:   -0.92 KCAL/MOL
REMARK 927      BINDING AFFINITY PREDICTED BY RF-SCORE:    0.00 PKD
ROOT
HETATM    1  C   UNL     1     -11.312  16.051  64.651  1.00  0.00    -0.312 C  
HETATM    2  C   UNL     1     -10.437  15.662  65.798  1.00  0.00    -0.383 C  
HETATM    3  C   UNL     1      -9.819  16.475  66.688  1.00  0.00    -0.279 C  
HETATM    4  C   UNL     1      -9.004  15.624  67.571  1.00  0.00    -0.199 A  
HETATM    5  C   UNL     1     -10.679  13.196  65.498  1.00  0.00    -0.297 C  
HETATM    6  C   UNL     1     -10.089  14.255  66.083  1.00  0.00    -0.325 C  
HETATM    7  C   UNL     1      -8.208  15.988  68.649  1.00  0.00    -0.193 A  
HETATM    8  C   UNL     1      -7.445  14.996  69.256  1.00  0.00    -0.188 A  
HETATM    9  C   UNL     1      -9.081  14.280  67.152  1.00  0.00    -0.237 A  
HETATM   10  C   UNL     1      -8.271  13.309  67.722  1.00  0.00    -0.168 A  
HETATM   11  F   UNL     1      -6.679  15.314  70.308  1.00  0.00    -0.157 F  
HETATM   12  C   UNL     1      -7.444  13.678  68.786  1.00  0.00    -0.088 A  
ENDROOT
BRANCH   3  13
HETATM   13  C   UNL     1      -9.790  17.970  66.769  1.00  0.00    -0.335 C  
HETATM   14  O   UNL     1      -7.599  17.916  65.670  1.00  0.00    -0.546 OA 
HETATM   15  C   UNL     1      -8.630  18.687  66.090  1.00  0.00    -0.137 C  
HETATM   16  O   UNL     1      -8.606  19.904  65.954  1.00  0.00    -0.337 OA 
ENDBRANCH   3  13
BRANCH   5  17
HETATM   17  C   UNL     1     -10.483  11.764  65.765  1.00  0.00    -0.302 A  
HETATM   18  C   UNL     1      -9.691  10.980  64.918  1.00  0.00    -0.303 A  
HETATM   19  C   UNL     1      -9.445   9.629  65.216  1.00  0.00    -0.342 A  
HETATM   20  C   UNL     1      -9.979   9.051  66.374  1.00  0.00    -0.300 A  
HETATM   21  C   UNL     1     -10.778   9.840  67.212  1.00  0.00    -0.296 A  
HETATM   22  C   UNL     1     -11.028  11.185  66.912  1.00  0.00    -0.333 A  
BRANCH  20  23
HETATM   23  S   UNL     1      -9.773   7.286  66.732  1.00  0.00    -0.190 S  
HETATM   24  C   UNL     1      -8.994   7.371  68.360  1.00  0.00    -0.134 C  
HETATM   25  O   UNL     1     -11.159   6.743  66.929  1.00  0.00    -0.397 OA 
ENDBRANCH  20  23
ENDBRANCH   5  17
TORSDOF 3
ENDMDL
MODEL       36
REMARK 921   NORMALIZED FREE ENERGY PREDICTED BY IDOCK:   -5.73 KCAL/MOL
REMARK 922        TOTAL FREE ENERGY PREDICTED BY IDOCK:   -7.69 KCAL/MOL
REMARK 923 INTER-LIGAND FREE ENERGY PREDICTED BY IDOCK:   -6.83 KCAL/MOL
REMARK 924 INTRA-LIGAND FREE ENERGY PREDICTED BY IDOCK:   -0.85 KCAL/MOL
REMARK 927      BINDING AFFINITY PREDICTED BY RF-SCORE:    0.00 PKD
ROOT
HETATM    1  C   UNL     1      -8.429   9.056  66.922  1.00  0.00    -0.120 C  
HETATM    2  C   UNL     1      -9.351   9.509  68.007  1.00  0.00    -0.143 C  
HETATM    3  C   UNL     1      -9.971   8.753  68.943  1.00  0.00    -0.200 C  
HETATM    4  C   UNL     1     -10.840   9.647  69.728  1.00  0.00    -0.274 A  
HETATM    5  C   UNL     1      -9.178  11.949  67.507  1.00  0.00    -0.177 C  
HETATM    6  C   UNL     1      -9.752  10.923  68.161  1.00  0.00    -0.174 C  
HETATM    7  C   UNL     1     -11.657   9.347  70.809  1.00  0.00    -0.364 A  
HETATM    8  C   UNL     1     -12.470  10.360  71.308  1.00  0.00    -0.415 A  
HETATM    9  C   UNL     1     -10.791  10.953  69.199  1.00  0.00    -0.280 A  
HETATM   10  C   UNL     1     -11.649  11.940  69.662  1.00  0.00    -0.387 A  
HETATM   11  F   UNL     1     -13.258  10.105  72.361  1.00  0.00    -0.500 F  
HETATM   12  C   UNL     1     -12.497  11.633  70.729  1.00  0.00    -0.425 A  
ENDROOT
BRANCH   3  13
HETATM   13  C   UNL     1      -9.956   7.270  69.149  1.00  0.00    -0.170 C  
HETATM   14  O   UNL     1     -11.218   7.038  67.060  1.00  0.00    -0.328 OA 
HETATM   15  C   UNL     1     -10.531   6.401  68.038  1.00  0.00    -0.220 C  
HETATM   16  O   UNL     1     -10.411   5.182  68.035  1.00  0.00    -0.148 OA 
ENDBRANCH   3  13
BRANCH   5  17
HETATM   17  C   UNL     1      -9.426  13.390  67.646  1.00  0.00    -0.216 A  
HETATM   18  C   UNL     1     -10.446  14.015  66.917  1.00  0.00    -0.276 A  
HETATM   19  C   UNL     1     -10.729  15.378  67.108  1.00  0.00    -0.314 A  
HETATM   20  C   UNL     1     -10.004  16.129  68.040  1.00  0.00    -0.238 A  
HETATM   21  C   UNL     1      -8.980  15.498  68.759  1.00  0.00    -0.204 A  
HETATM   22  C   UNL     1      -8.693  14.141  68.566  1.00  0.00    -0.166 A  
BRANCH  20  23
HETATM   23  S   UNL     1     -10.271  17.912  68.232  1.00  0.00    -0.393 S  
HETATM   24  C   UNL     1      -8.564  18.483  68.384  1.00  0.00    -0.331 C  
HETATM   25  O   UNL     1     -10.785  18.393  66.906  1.00  0.00    -0.370 OA 
ENDBRANCH  20  23
ENDBRANCH   5  17
TORSDOF 3
ENDMDL
MODEL       37
REMARK 921   NORMALIZED FREE ENERGY PREDICTED BY IDOCK:   -5.72 KCAL/MOL
REMARK 922        TOTAL FREE ENERGY PREDICTED BY IDOCK:   -7.67 KCAL/MOL
REMARK 923 INTER-LIGAND FREE ENERGY PREDICTED BY IDOCK:   -6.60 KCAL/MOL
REMARK 924 INTRA-LIGAND FREE ENERGY PREDICTED BY IDOCK:   -1.06 KCAL/MOL
REMARK 927      BINDING AFFINITY PREDICTED BY RF-SCORE:    0.00 PKD
ROOT
HETATM    1  C   UNL     1      -9.615   9.809  65.516  1.00  0.00    -0.348 C  
HETATM    2  C   UNL     1     -10.292   9.996  66.835  1.00  0.00    -0.297 C  
HETATM    3  C   UNL     1     -11.112  11.004  67.215  1.00  0.00    -0.359 C  
HETATM    4  C   UNL     1     -11.451  10.786  68.632  1.00  0.00    -0.365 A  
HETATM    5  C   UNL     1      -9.481   7.868  67.858  1.00  0.00    -0.160 C  
HETATM    6  C   UNL     1     -10.092   9.062  67.962  1.00  0.00    -0.234 C  
HETATM    7  C   UNL     1     -12.276  11.533  69.461  1.00  0.00    -0.287 A  
HETATM    8  C   UNL     1     -12.344  11.175  70.803  1.00  0.00    -0.406 A  
HETATM    9  C   UNL     1     -10.758   9.662  69.127  1.00  0.00    -0.237 A  
HETATM   10  C   UNL     1     -10.782   9.349  70.477  1.00  0.00    -0.335 A  
HETATM   11  F   UNL     1     -13.144  11.869  71.624  1.00  0.00    -0.485 F  
HETATM   12  C   UNL     1     -11.587  10.120  71.321  1.00  0.00    -0.387 A  
ENDROOT
BRANCH   3  13
HETATM   13  C   UNL     1     -11.548  12.226  66.468  1.00  0.00    -0.440 C  
HETATM   14  O   UNL     1      -9.542  13.363  67.298  1.00  0.00    -0.221 OA 
HETATM   15  C   UNL     1     -10.597  13.414  66.450  1.00  0.00    -0.285 C  
HETATM   16  O   UNL     1     -10.783  14.388  65.732  1.00  0.00    -0.289 OA 
ENDBRANCH   3  13
BRANCH   5  17
HETATM   17  C   UNL     1      -9.307   6.825  68.877  1.00  0.00    -0.129 A  
HETATM   18  C   UNL     1      -8.145   6.770  69.656  1.00  0.00    -0.126 A  
HETATM   19  C   UNL     1      -8.014   5.818  70.681  1.00  0.00    -0.109 A  
HETATM   20  C   UNL     1      -9.051   4.916  70.947  1.00  0.00    -0.142 A  
HETATM   21  C   UNL     1     -10.208   4.972  70.158  1.00  0.00    -0.329 A  
HETATM   22  C   UNL     1     -10.337   5.917  69.133  1.00  0.00    -0.303 A  
BRANCH  20  23
HETATM   23  S   UNL     1      -8.872   3.606  72.187  1.00  0.00    -0.094 S  
HETATM   24  C   UNL     1      -7.691   4.382  73.314  1.00  0.00    -0.086 C  
HETATM   25  O   UNL     1     -10.191   3.537  72.902  1.00  0.00    -0.150 OA 
ENDBRANCH  20  23
ENDBRANCH   5  17
TORSDOF 3
ENDMDL
MODEL       38
REMARK 921   NORMALIZED FREE ENERGY PREDICTED BY IDOCK:   -5.70 KCAL/MOL
REMARK 922        TOTAL FREE ENERGY PREDICTED BY IDOCK:   -7.64 KCAL/MOL
REMARK 923 INTER-LIGAND FREE ENERGY PREDICTED BY IDOCK:   -6.59 KCAL/MOL
REMARK 924 INTRA-LIGAND FREE ENERGY PREDICTED BY IDOCK:   -1.05 KCAL/MOL
REMARK 927      BINDING AFFINITY PREDICTED BY RF-SCORE:    0.00 PKD
ROOT
HETATM    1  C   UNL     1     -12.006  12.550  68.757  1.00  0.00    -0.283 C  
HETATM    2  C   UNL     1     -11.177  11.780  67.781  1.00  0.00    -0.331 C  
HETATM    3  C   UNL     1     -10.776  12.161  66.545  1.00  0.00    -0.290 C  
HETATM    4  C   UNL     1     -10.057  11.024  65.945  1.00  0.00    -0.301 A  
HETATM    5  C   UNL     1     -10.783   9.807  69.260  1.00  0.00    -0.246 C  
HETATM    6  C   UNL     1     -10.707  10.406  68.057  1.00  0.00    -0.292 C  
HETATM    7  C   UNL     1      -9.441  10.933  64.705  1.00  0.00    -0.285 A  
HETATM    8  C   UNL     1      -8.920   9.700  64.327  1.00  0.00    -0.229 A  
HETATM    9  C   UNL     1     -10.093   9.916  66.816  1.00  0.00    -0.292 A  
HETATM   10  C   UNL     1      -9.627   8.675  66.408  1.00  0.00    -0.316 A  
HETATM   11  F   UNL     1      -8.306   9.585  63.142  1.00  0.00    -0.138 F  
HETATM   12  C   UNL     1      -9.036   8.572  65.146  1.00  0.00    -0.059 A  
ENDROOT
BRANCH   3  13
HETATM   13  C   UNL     1     -11.066  13.416  65.782  1.00  0.00    -0.295 C  
HETATM   14  O   UNL     1     -13.106  12.349  64.939  1.00  0.00    -0.765 OA 
HETATM   15  C   UNL     1     -12.395  13.497  65.043  1.00  0.00    -0.428 C  
HETATM   16  O   UNL     1     -12.797  14.536  64.536  1.00  0.00    -0.613 OA 
ENDBRANCH   3  13
BRANCH   5  17
HETATM   17  C   UNL     1     -10.271   8.494  69.673  1.00  0.00    -0.209 A  
HETATM   18  C   UNL     1     -11.087   7.357  69.619  1.00  0.00    -0.129 A  
HETATM   19  C   UNL     1     -10.572   6.091  69.943  1.00  0.00    -0.345 A  
HETATM   20  C   UNL     1      -9.230   5.945  70.314  1.00  0.00    -0.154 A  
HETATM   21  C   UNL     1      -8.422   7.089  70.375  1.00  0.00    -0.141 A  
HETATM   22  C   UNL     1      -8.936   8.352  70.057  1.00  0.00    -0.138 A  
BRANCH  20  23
HETATM   23  S   UNL     1      -8.563   4.345  70.844  1.00  0.00    -0.094 S  
HETATM   24  C   UNL     1      -9.949   3.720  71.820  1.00  0.00    -0.157 C  
HETATM   25  O   UNL     1      -8.480   3.505  69.601  1.00  0.00    -0.058 OA 
ENDBRANCH  20  23
ENDBRANCH   5  17
TORSDOF 3
ENDMDL
MODEL       39
REMARK 921   NORMALIZED FREE ENERGY PREDICTED BY IDOCK:   -5.62 KCAL/MOL
REMARK 922        TOTAL FREE ENERGY PREDICTED BY IDOCK:   -7.55 KCAL/MOL
REMARK 923 INTER-LIGAND FREE ENERGY PREDICTED BY IDOCK:   -6.52 KCAL/MOL
REMARK 924 INTRA-LIGAND FREE ENERGY PREDICTED BY IDOCK:   -1.03 KCAL/MOL
REMARK 927      BINDING AFFINITY PREDICTED BY RF-SCORE:    0.00 PKD
ROOT
HETATM    1  C   UNL     1      -9.556   8.702  72.489  1.00  0.00    -0.257 C  
HETATM    2  C   UNL     1      -9.864   8.064  71.175  1.00  0.00    -0.198 C  
HETATM    3  C   UNL     1     -10.066   6.751  70.913  1.00  0.00    -0.207 C  
HETATM    4  C   UNL     1     -10.248   6.613  69.458  1.00  0.00    -0.208 A  
HETATM    5  C   UNL     1      -9.969  10.185  69.862  1.00  0.00    -0.250 C  
HETATM    6  C   UNL     1      -9.944   8.841  69.920  1.00  0.00    -0.193 C  
HETATM    7  C   UNL     1     -10.505   5.472  68.711  1.00  0.00    -0.261 A  
HETATM    8  C   UNL     1     -10.525   5.594  67.325  1.00  0.00    -0.258 A  
HETATM    9  C   UNL     1     -10.078   7.864  68.830  1.00  0.00    -0.203 A  
HETATM   10  C   UNL     1     -10.038   7.967  67.448  1.00  0.00    -0.292 A  
HETATM   11  F   UNL     1     -10.785   4.513  66.578  1.00  0.00    -0.259 F  
HETATM   12  C   UNL     1     -10.263   6.813  66.691  1.00  0.00    -0.211 A  
ENDROOT
BRANCH   3  13
HETATM   13  C   UNL     1     -10.004   5.565  71.826  1.00  0.00    -0.228 C  
HETATM   14  O   UNL     1     -12.279   6.104  72.565  1.00  0.00    -0.178 OA 
HETATM   15  C   UNL     1     -11.270   5.200  72.590  1.00  0.00    -0.209 C  
HETATM   16  O   UNL     1     -11.372   4.158  73.224  1.00  0.00    -0.238 OA 
ENDBRANCH   3  13
BRANCH   5  17
HETATM   17  C   UNL     1     -10.138  11.057  68.692  1.00  0.00    -0.207 A  
HETATM   18  C   UNL     1      -9.026  11.568  68.012  1.00  0.00    -0.170 A  
HETATM   19  C   UNL     1      -9.190  12.340  66.850  1.00  0.00    -0.209 A  
HETATM   20  C   UNL     1     -10.470  12.600  66.348  1.00  0.00    -0.249 A  
HETATM   21  C   UNL     1     -11.579  12.093  67.039  1.00  0.00    -0.406 A  
HETATM   22  C   UNL     1     -11.416  11.328  68.200  1.00  0.00    -0.376 A  
BRANCH  20  23
HETATM   23  S   UNL     1     -10.722  13.683  64.915  1.00  0.00    -0.412 S  
HETATM   24  C   UNL     1     -10.820  12.456  63.592  1.00  0.00    -0.462 C  
HETATM   25  O   UNL     1     -12.096  14.268  65.082  1.00  0.00    -0.379 OA 
ENDBRANCH  20  23
ENDBRANCH   5  17
TORSDOF 3
ENDMDL
MODEL       40
REMARK 921   NORMALIZED FREE ENERGY PREDICTED BY IDOCK:   -5.61 KCAL/MOL
REMARK 922        TOTAL FREE ENERGY PREDICTED BY IDOCK:   -7.54 KCAL/MOL
REMARK 923 INTER-LIGAND FREE ENERGY PREDICTED BY IDOCK:   -6.56 KCAL/MOL
REMARK 924 INTRA-LIGAND FREE ENERGY PREDICTED BY IDOCK:   -0.98 KCAL/MOL
REMARK 927      BINDING AFFINITY PREDICTED BY RF-SCORE:    0.00 PKD
ROOT
HETATM    1  C   UNL     1     -11.325  16.022  64.631  1.00  0.00    -0.312 C  
HETATM    2  C   UNL     1     -10.315  15.648  65.666  1.00  0.00    -0.408 C  
HETATM    3  C   UNL     1      -9.496  16.469  66.365  1.00  0.00    -0.314 C  
HETATM    4  C   UNL     1      -8.626  15.620  67.198  1.00  0.00    -0.235 A  
HETATM    5  C   UNL     1     -10.813  13.202  65.658  1.00  0.00    -0.294 C  
HETATM    6  C   UNL     1     -10.048  14.243  66.037  1.00  0.00    -0.333 C  
HETATM    7  C   UNL     1      -7.641  15.994  68.100  1.00  0.00    -0.139 A  
HETATM    8  C   UNL     1      -6.878  14.987  68.684  1.00  0.00    -0.109 A  
HETATM    9  C   UNL     1      -8.885  14.260  66.934  1.00  0.00    -0.234 A  
HETATM   10  C   UNL     1      -8.081  13.265  67.471  1.00  0.00    -0.187 A  
HETATM   11  F   UNL     1      -5.930  15.317  69.570  1.00  0.00    -0.100 F  
HETATM   12  C   UNL     1      -7.066  13.641  68.356  1.00  0.00    -0.107 A  
ENDROOT
BRANCH   3  13
HETATM   13  C   UNL     1      -9.325  17.955  66.288  1.00  0.00    -0.213 C  
HETATM   14  O   UNL     1     -10.719  18.148  68.296  1.00  0.00    -0.303 OA 
HETATM   15  C   UNL     1      -9.900  18.787  67.426  1.00  0.00    -0.318 C  
HETATM   16  O   UNL     1      -9.666  19.984  67.542  1.00  0.00    -0.360 OA 
ENDBRANCH   3  13
BRANCH   5  17
HETATM   17  C   UNL     1     -10.701  11.787  66.037  1.00  0.00    -0.324 A  
HETATM   18  C   UNL     1     -10.082  10.864  65.184  1.00  0.00    -0.352 A  
HETATM   19  C   UNL     1      -9.911   9.527  65.581  1.00  0.00    -0.343 A  
HETATM   20  C   UNL     1     -10.345   9.101  66.841  1.00  0.00    -0.251 A  
HETATM   21  C   UNL     1     -10.970  10.028  67.686  1.00  0.00    -0.297 A  
HETATM   22  C   UNL     1     -11.147  11.360  67.289  1.00  0.00    -0.363 A  
BRANCH  20  23
HETATM   23  S   UNL     1     -10.237   7.361  67.341  1.00  0.00    -0.276 S  
HETATM   24  C   UNL     1     -10.371   7.527  69.135  1.00  0.00    -0.212 C  
HETATM   25  O   UNL     1     -11.506   6.718  66.857  1.00  0.00    -0.176 OA 
ENDBRANCH  20  23
ENDBRANCH   5  17
TORSDOF 3
ENDMDL
MODEL       41
REMARK 921   NORMALIZED FREE ENERGY PREDICTED BY IDOCK:   -5.58 KCAL/MOL
REMARK 922        TOTAL FREE ENERGY PREDICTED BY IDOCK:   -7.51 KCAL/MOL
REMARK 923 INTER-LIGAND FREE ENERGY PREDICTED BY IDOCK:   -6.59 KCAL/MOL
REMARK 924 INTRA-LIGAND FREE ENERGY PREDICTED BY IDOCK:   -0.92 KCAL/MOL
REMARK 927      BINDING AFFINITY PREDICTED BY RF-SCORE:    0.00 PKD
ROOT
HETATM    1  C   UNL     1      -9.717  13.903  66.257  1.00  0.00    -0.304 C  
HETATM    2  C   UNL     1     -10.388  13.201  67.393  1.00  0.00    -0.239 C  
HETATM    3  C   UNL     1     -11.208  13.731  68.331  1.00  0.00    -0.300 C  
HETATM    4  C   UNL     1     -11.540  12.657  69.283  1.00  0.00    -0.376 A  
HETATM    5  C   UNL     1      -9.570  10.914  66.817  1.00  0.00    -0.210 C  
HETATM    6  C   UNL     1     -10.182  11.763  67.663  1.00  0.00    -0.216 C  
HETATM    7  C   UNL     1     -12.362  12.699  70.400  1.00  0.00    -0.315 A  
HETATM    8  C   UNL     1     -12.424  11.566  71.205  1.00  0.00    -0.337 A  
HETATM    9  C   UNL     1     -10.844  11.479  68.944  1.00  0.00    -0.263 A  
HETATM   10  C   UNL     1     -10.861  10.375  69.783  1.00  0.00    -0.342 A  
HETATM   11  F   UNL     1     -13.220  11.572  72.282  1.00  0.00    -0.608 F  
HETATM   12  C   UNL     1     -11.663  10.426  70.927  1.00  0.00    -0.455 A  
ENDROOT
BRANCH   3  13
HETATM   13  C   UNL     1     -11.648  15.147  68.539  1.00  0.00    -0.354 C  
HETATM   14  O   UNL     1      -9.540  15.556  69.720  1.00  0.00    -0.279 OA 
HETATM   15  C   UNL     1     -10.653  16.105  69.178  1.00  0.00    -0.276 C  
HETATM   16  O   UNL     1     -10.852  17.312  69.234  1.00  0.00    -0.178 OA 
ENDBRANCH   3  13
BRANCH   5  17
HETATM   17  C   UNL     1      -9.391   9.460  66.935  1.00  0.00    -0.188 A  
HETATM   18  C   UNL     1     -10.472   8.588  66.753  1.00  0.00    -0.308 A  
HETATM   19  C   UNL     1     -10.283   7.197  66.791  1.00  0.00    -0.289 A  
HETATM   20  C   UNL     1      -9.006   6.661  67.000  1.00  0.00    -0.118 A  
HETATM   21  C   UNL     1      -7.932   7.540  67.189  1.00  0.00    -0.117 A  
HETATM   22  C   UNL     1      -8.120   8.927  67.156  1.00  0.00    -0.103 A  
BRANCH  20  23
HETATM   23  S   UNL     1      -8.745   4.874  67.164  1.00  0.00    -0.102 S  
HETATM   24  C   UNL     1      -8.670   4.719  68.963  1.00  0.00    -0.088 C  
HETATM   25  O   UNL     1     -10.026   4.231  66.715  1.00  0.00    -0.223 OA 
ENDBRANCH  20  23
ENDBRANCH   5  17
TORSDOF 3
ENDMDL
MODEL       42
REMARK 921   NORMALIZED FREE ENERGY PREDICTED BY IDOCK:   -5.54 KCAL/MOL
REMARK 922        TOTAL FREE ENERGY PREDICTED BY IDOCK:   -7.45 KCAL/MOL
REMARK 923 INTER-LIGAND FREE ENERGY PREDICTED BY IDOCK:   -6.45 KCAL/MOL
REMARK 924 INTRA-LIGAND FREE ENERGY PREDICTED BY IDOCK:   -1.01 KCAL/MOL
REMARK 927      BINDING AFFINITY PREDICTED BY RF-SCORE:    0.00 PKD
ROOT
HETATM    1  C   UNL     1     -10.027   8.322  72.653  1.00  0.00    -0.357 C  
HETATM    2  C   UNL     1     -10.274   7.827  71.265  1.00  0.00    -0.218 C  
HETATM    3  C   UNL     1     -10.419   6.546  70.851  1.00  0.00    -0.263 C  
HETATM    4  C   UNL     1     -10.555   6.569  69.384  1.00  0.00    -0.291 A  
HETATM    5  C   UNL     1     -10.423  10.079  70.198  1.00  0.00    -0.338 C  
HETATM    6  C   UNL     1     -10.349   8.739  70.105  1.00  0.00    -0.225 C  
HETATM    7  C   UNL     1     -10.748   5.513  68.506  1.00  0.00    -0.161 A  
HETATM    8  C   UNL     1     -10.733   5.792  67.142  1.00  0.00    -0.275 A  
HETATM    9  C   UNL     1     -10.415   7.889  68.908  1.00  0.00    -0.205 A  
HETATM   10  C   UNL     1     -10.340   8.150  67.548  1.00  0.00    -0.330 A  
HETATM   11  F   UNL     1     -10.931   4.794  66.270  1.00  0.00    -0.316 F  
HETATM   12  C   UNL     1     -10.501   7.083  66.659  1.00  0.00    -0.209 A  
ENDROOT
BRANCH   3  13
HETATM   13  C   UNL     1     -10.338   5.267  71.626  1.00  0.00    -0.281 C  
HETATM   14  O   UNL     1      -7.900   5.356  71.381  1.00  0.00    -0.104 OA 
HETATM   15  C   UNL     1      -8.951   4.751  71.984  1.00  0.00    -0.127 C  
HETATM   16  O   UNL     1      -8.782   3.814  72.755  1.00  0.00    -0.093 OA 
ENDBRANCH   3  13
BRANCH   5  17
HETATM   17  C   UNL     1     -10.592  11.073  69.130  1.00  0.00    -0.253 A  
HETATM   18  C   UNL     1     -11.869  11.509  68.753  1.00  0.00    -0.394 A  
HETATM   19  C   UNL     1     -12.024  12.513  67.783  1.00  0.00    -0.286 A  
HETATM   20  C   UNL     1     -10.903  13.104  67.189  1.00  0.00    -0.257 A  
HETATM   21  C   UNL     1      -9.629  12.657  67.566  1.00  0.00    -0.184 A  
HETATM   22  C   UNL     1      -9.473  11.651  68.528  1.00  0.00    -0.175 A  
BRANCH  20  23
HETATM   23  S   UNL     1     -11.069  14.324  65.858  1.00  0.00    -0.317 S  
HETATM   24  C   UNL     1     -10.305  13.423  64.491  1.00  0.00    -0.373 C  
HETATM   25  O   UNL     1     -12.540  14.411  65.566  1.00  0.00    -0.413 OA 
ENDBRANCH  20  23
ENDBRANCH   5  17
TORSDOF 3
ENDMDL
MODEL       43
REMARK 921   NORMALIZED FREE ENERGY PREDICTED BY IDOCK:   -5.49 KCAL/MOL
REMARK 922        TOTAL FREE ENERGY PREDICTED BY IDOCK:   -7.40 KCAL/MOL
REMARK 923 INTER-LIGAND FREE ENERGY PREDICTED BY IDOCK:   -6.36 KCAL/MOL
REMARK 924 INTRA-LIGAND FREE ENERGY PREDICTED BY IDOCK:   -1.04 KCAL/MOL
REMARK 927      BINDING AFFINITY PREDICTED BY RF-SCORE:    0.00 PKD
ROOT
HETATM    1  C   UNL     1     -11.493  15.796  64.746  1.00  0.00    -0.256 C  
HETATM    2  C   UNL     1     -10.569  15.766  65.919  1.00  0.00    -0.350 C  
HETATM    3  C   UNL     1      -9.780  16.764  66.384  1.00  0.00    -0.309 C  
HETATM    4  C   UNL     1      -8.994  16.220  67.505  1.00  0.00    -0.193 A  
HETATM    5  C   UNL     1     -11.129  13.444  66.645  1.00  0.00    -0.310 C  
HETATM    6  C   UNL     1     -10.366  14.550  66.733  1.00  0.00    -0.269 C  
HETATM    7  C   UNL     1      -8.066  16.858  68.315  1.00  0.00    -0.217 A  
HETATM    8  C   UNL     1      -7.374  16.085  69.242  1.00  0.00    -0.231 A  
HETATM    9  C   UNL     1      -9.269  14.846  67.664  1.00  0.00    -0.187 A  
HETATM   10  C   UNL     1      -8.532  14.071  68.546  1.00  0.00    -0.143 A  
HETATM   11  F   UNL     1      -6.482  16.676  70.049  1.00  0.00    -0.219 F  
HETATM   12  C   UNL     1      -7.572  14.704  69.342  1.00  0.00    -0.081 A  
ENDROOT
BRANCH   3  13
HETATM   13  C   UNL     1      -9.566  18.149  65.856  1.00  0.00     0.075 C  
HETATM   14  O   UNL     1     -11.147  18.962  67.545  1.00  0.00    -0.356 OA 
HETATM   15  C   UNL     1     -10.230  19.296  66.605  1.00  0.00    -0.421 C  
HETATM   16  O   UNL     1      -9.980  20.469  66.358  1.00  0.00    -0.343 OA 
ENDBRANCH   3  13
BRANCH   5  17
HETATM   17  C   UNL     1     -11.081  12.221  67.457  1.00  0.00    -0.326 A  
HETATM   18  C   UNL     1     -10.302  11.127  67.060  1.00  0.00    -0.263 A  
HETATM   19  C   UNL     1     -10.199   9.988  67.876  1.00  0.00    -0.228 A  
HETATM   20  C   UNL     1     -10.866   9.935  69.106  1.00  0.00    -0.221 A  
HETATM   21  C   UNL     1     -11.651  11.030  69.492  1.00  0.00    -0.384 A  
HETATM   22  C   UNL     1     -11.758  12.164  68.677  1.00  0.00    -0.382 A  
BRANCH  20  23
HETATM   23  S   UNL     1     -10.844   8.440  70.131  1.00  0.00    -0.215 S  
HETATM   24  C   UNL     1      -9.443   8.806  71.212  1.00  0.00    -0.250 C  
HETATM   25  O   UNL     1     -12.085   8.503  70.974  1.00  0.00    -0.282 OA 
ENDBRANCH  20  23
ENDBRANCH   5  17
TORSDOF 3
ENDMDL
MODEL       44
REMARK 921   NORMALIZED FREE ENERGY PREDICTED BY IDOCK:   -5.49 KCAL/MOL
REMARK 922        TOTAL FREE ENERGY PREDICTED BY IDOCK:   -7.40 KCAL/MOL
REMARK 923 INTER-LIGAND FREE ENERGY PREDICTED BY IDOCK:   -6.38 KCAL/MOL
REMARK 924 INTRA-LIGAND FREE ENERGY PREDICTED BY IDOCK:   -1.01 KCAL/MOL
REMARK 927      BINDING AFFINITY PREDICTED BY RF-SCORE:    0.00 PKD
ROOT
HETATM    1  C   UNL     1     -12.083  11.759  69.901  1.00  0.00    -0.359 C  
HETATM    2  C   UNL     1     -11.465  11.633  68.547  1.00  0.00    -0.358 C  
HETATM    3  C   UNL     1     -11.356  12.584  67.589  1.00  0.00    -0.362 C  
HETATM    4  C   UNL     1     -10.751  11.951  66.404  1.00  0.00    -0.303 A  
HETATM    5  C   UNL     1     -10.695   9.274  68.820  1.00  0.00    -0.184 C  
HETATM    6  C   UNL     1     -10.903  10.359  68.052  1.00  0.00    -0.319 C  
HETATM    7  C   UNL     1     -10.419  12.516  65.182  1.00  0.00    -0.320 A  
HETATM    8  C   UNL     1      -9.955  11.669  64.179  1.00  0.00    -0.277 A  
HETATM    9  C   UNL     1     -10.561  10.573  66.639  1.00  0.00    -0.263 A  
HETATM   10  C   UNL     1     -10.158   9.727  65.617  1.00  0.00    -0.282 A  
HETATM   11  F   UNL     1      -9.613  12.188  62.993  1.00  0.00    -0.357 F  
HETATM   12  C   UNL     1      -9.854  10.288  64.373  1.00  0.00    -0.374 A  
ENDROOT
BRANCH   3  13
HETATM   13  C   UNL     1     -11.845  13.999  67.575  1.00  0.00    -0.442 C  
HETATM   14  O   UNL     1      -9.672  14.685  68.480  1.00  0.00    -0.213 OA 
HETATM   15  C   UNL     1     -10.849  15.090  67.945  1.00  0.00    -0.280 C  
HETATM   16  O   UNL     1     -11.100  16.280  67.799  1.00  0.00    -0.310 OA 
ENDBRANCH   3  13
BRANCH   5  17
HETATM   17  C   UNL     1     -10.064   7.996  68.464  1.00  0.00    -0.218 A  
HETATM   18  C   UNL     1      -8.676   7.833  68.553  1.00  0.00    -0.128 A  
HETATM   19  C   UNL     1      -8.084   6.588  68.284  1.00  0.00    -0.110 A  
HETATM   20  C   UNL     1      -8.875   5.487  67.935  1.00  0.00    -0.105 A  
HETATM   21  C   UNL     1     -10.263   5.661  67.840  1.00  0.00    -0.234 A  
HETATM   22  C   UNL     1     -10.854   6.903  68.103  1.00  0.00    -0.258 A  
BRANCH  20  23
HETATM   23  S   UNL     1      -8.135   3.897  67.476  1.00  0.00    -0.090 S  
HETATM   24  C   UNL     1      -7.462   3.377  69.071  1.00  0.00    -0.049 C  
HETATM   25  O   UNL     1      -9.287   2.986  67.161  1.00  0.00    -0.186 OA 
ENDBRANCH  20  23
ENDBRANCH   5  17
TORSDOF 3
ENDMDL
MODEL       45
REMARK 921   NORMALIZED FREE ENERGY PREDICTED BY IDOCK:   -5.48 KCAL/MOL
REMARK 922        TOTAL FREE ENERGY PREDICTED BY IDOCK:   -7.39 KCAL/MOL
REMARK 923 INTER-LIGAND FREE ENERGY PREDICTED BY IDOCK:   -6.57 KCAL/MOL
REMARK 924 INTRA-LIGAND FREE ENERGY PREDICTED BY IDOCK:   -0.82 KCAL/MOL
REMARK 927      BINDING AFFINITY PREDICTED BY RF-SCORE:    0.00 PKD
ROOT
HETATM    1  C   UNL     1     -11.857  11.983  63.829  1.00  0.00    -0.581 C  
HETATM    2  C   UNL     1     -10.669  12.069  64.731  1.00  0.00    -0.352 C  
HETATM    3  C   UNL     1      -9.709  11.137  64.934  1.00  0.00    -0.297 C  
HETATM    4  C   UNL     1      -8.805  11.653  65.976  1.00  0.00    -0.105 A  
HETATM    5  C   UNL     1     -11.081  14.408  65.499  1.00  0.00    -0.326 C  
HETATM    6  C   UNL     1     -10.417  13.242  65.593  1.00  0.00    -0.286 C  
HETATM    7  C   UNL     1      -7.663  11.076  66.511  1.00  0.00    -0.154 A  
HETATM    8  C   UNL     1      -7.043  11.725  67.574  1.00  0.00    -0.113 A  
HETATM    9  C   UNL     1      -9.281  12.891  66.456  1.00  0.00    -0.186 A  
HETATM   10  C   UNL     1      -8.695  13.500  67.556  1.00  0.00    -0.208 A  
HETATM   11  F   UNL     1      -5.930  11.198  68.101  1.00  0.00    -0.046 F  
HETATM   12  C   UNL     1      -7.563  12.903  68.118  1.00  0.00    -0.135 A  
ENDROOT
BRANCH   3  13
HETATM   13  C   UNL     1      -9.567   9.758  64.366  1.00  0.00    -0.160 C  
HETATM   14  O   UNL     1      -8.616  10.765  62.343  1.00  0.00    -0.226 OA 
HETATM   15  C   UNL     1      -8.857   9.620  63.026  1.00  0.00    -0.243 C  
HETATM   16  O   UNL     1      -8.542   8.531  62.563  1.00  0.00    -0.187 OA 
ENDBRANCH   3  13
BRANCH   5  17
HETATM   17  C   UNL     1     -10.858  15.662  66.231  1.00  0.00    -0.262 A  
HETATM   18  C   UNL     1     -11.172  15.762  67.592  1.00  0.00    -0.246 A  
HETATM   19  C   UNL     1     -10.888  16.938  68.307  1.00  0.00    -0.357 A  
HETATM   20  C   UNL     1     -10.275  18.023  67.671  1.00  0.00    -0.368 A  
HETATM   21  C   UNL     1      -9.971  17.918  66.307  1.00  0.00    -0.333 A  
HETATM   22  C   UNL     1     -10.259  16.749  65.592  1.00  0.00    -0.258 A  
BRANCH  20  23
HETATM   23  S   UNL     1      -9.994  19.592  68.536  1.00  0.00    -0.457 S  
HETATM   24  C   UNL     1      -8.235  19.443  68.921  1.00  0.00    -0.304 C  
HETATM   25  O   UNL     1     -10.133  20.664  67.493  1.00  0.00    -0.380 OA 
ENDBRANCH  20  23
ENDBRANCH   5  17
TORSDOF 3
ENDMDL
MODEL       46
REMARK 921   NORMALIZED FREE ENERGY PREDICTED BY IDOCK:   -5.44 KCAL/MOL
REMARK 922        TOTAL FREE ENERGY PREDICTED BY IDOCK:   -7.34 KCAL/MOL
REMARK 923 INTER-LIGAND FREE ENERGY PREDICTED BY IDOCK:   -6.74 KCAL/MOL
REMARK 924 INTRA-LIGAND FREE ENERGY PREDICTED BY IDOCK:   -0.60 KCAL/MOL
REMARK 927      BINDING AFFINITY PREDICTED BY RF-SCORE:    0.00 PKD
ROOT
HETATM    1  C   UNL     1      -8.154  15.027  69.026  1.00  0.00    -0.178 C  
HETATM    2  C   UNL     1      -8.994  14.540  67.890  1.00  0.00    -0.187 C  
HETATM    3  C   UNL     1      -9.417  15.236  66.809  1.00  0.00    -0.264 C  
HETATM    4  C   UNL     1     -10.287  14.345  66.022  1.00  0.00    -0.319 A  
HETATM    5  C   UNL     1      -9.149  12.172  68.665  1.00  0.00    -0.007 C  
HETATM    6  C   UNL     1      -9.529  13.164  67.839  1.00  0.00    -0.218 C  
HETATM    7  C   UNL     1     -10.940  14.592  64.823  1.00  0.00    -0.404 A  
HETATM    8  C   UNL     1     -11.799  13.611  64.338  1.00  0.00    -0.424 A  
HETATM    9  C   UNL     1     -10.443  13.112  66.689  1.00  0.00    -0.280 A  
HETATM   10  C   UNL     1     -11.348  12.166  66.232  1.00  0.00    -0.411 A  
HETATM   11  F   UNL     1     -12.432  13.815  63.175  1.00  0.00    -0.527 F  
HETATM   12  C   UNL     1     -12.032  12.425  65.041  1.00  0.00    -0.458 A  
ENDROOT
BRANCH   3  13
HETATM   13  C   UNL     1      -9.215  16.676  66.449  1.00  0.00    -0.318 C  
HETATM   14  O   UNL     1      -6.801  16.251  66.399  1.00  0.00    -0.152 OA 
HETATM   15  C   UNL     1      -7.797  17.124  66.119  1.00  0.00    -0.268 C  
HETATM   16  O   UNL     1      -7.555  18.230  65.651  1.00  0.00    -0.532 OA 
ENDBRANCH   3  13
BRANCH   5  17
HETATM   17  C   UNL     1      -9.539  10.756  68.651  1.00  0.00    -0.187 A  
HETATM   18  C   UNL     1      -8.932   9.854  67.768  1.00  0.00    -0.134 A  
HETATM   19  C   UNL     1      -9.253   8.487  67.808  1.00  0.00    -0.146 A  
HETATM   20  C   UNL     1     -10.177   8.004  68.742  1.00  0.00    -0.206 A  
HETATM   21  C   UNL     1     -10.787   8.913  69.616  1.00  0.00    -0.186 A  
HETATM   22  C   UNL     1     -10.471  10.277  69.573  1.00  0.00    -0.268 A  
BRANCH  20  23
HETATM   23  S   UNL     1     -10.695   6.266  68.748  1.00  0.00    -0.328 S  
HETATM   24  C   UNL     1      -9.259   5.500  69.535  1.00  0.00    -0.121 C  
HETATM   25  O   UNL     1     -11.834   6.183  69.724  1.00  0.00    -0.219 OA 
ENDBRANCH  20  23
ENDBRANCH   5  17
TORSDOF 3
ENDMDL
MODEL       47
REMARK 921   NORMALIZED FREE ENERGY PREDICTED BY IDOCK:   -5.40 KCAL/MOL
REMARK 922        TOTAL FREE ENERGY PREDICTED BY IDOCK:   -7.29 KCAL/MOL
REMARK 923 INTER-LIGAND FREE ENERGY PREDICTED BY IDOCK:   -6.30 KCAL/MOL
REMARK 924 INTRA-LIGAND FREE ENERGY PREDICTED BY IDOCK:   -0.99 KCAL/MOL
REMARK 927      BINDING AFFINITY PREDICTED BY RF-SCORE:    0.00 PKD
ROOT
HETATM    1  C   UNL     1      -5.618   9.310  69.532  1.00  0.00    -0.034 C  
HETATM    2  C   UNL     1      -6.992   9.249  70.117  1.00  0.00    -0.067 C  
HETATM    3  C   UNL     1      -7.388   8.618  71.247  1.00  0.00    -0.105 C  
HETATM    4  C   UNL     1      -8.849   8.775  71.352  1.00  0.00    -0.292 A  
HETATM    5  C   UNL     1      -8.074  10.726  68.421  1.00  0.00    -0.127 C  
HETATM    6  C   UNL     1      -8.157   9.876  69.460  1.00  0.00    -0.155 C  
HETATM    7  C   UNL     1      -9.710   8.326  72.343  1.00  0.00    -0.373 A  
HETATM    8  C   UNL     1     -11.076   8.511  72.149  1.00  0.00    -0.366 A  
HETATM    9  C   UNL     1      -9.343   9.455  70.220  1.00  0.00    -0.294 A  
HETATM   10  C   UNL     1     -10.707   9.580  70.004  1.00  0.00    -0.278 A  
HETATM   11  F   UNL     1     -11.931   8.101  73.096  1.00  0.00    -0.382 F  
HETATM   12  C   UNL     1     -11.579   9.100  70.985  1.00  0.00    -0.370 A  
ENDROOT
BRANCH   3  13
HETATM   13  C   UNL     1      -6.605   7.777  72.208  1.00  0.00    -0.059 C  
HETATM   14  O   UNL     1      -5.859   9.842  73.298  1.00  0.00    -0.235 OA 
HETATM   15  C   UNL     1      -5.910   8.490  73.360  1.00  0.00    -0.094 C  
HETATM   16  O   UNL     1      -5.392   7.880  74.287  1.00  0.00    -0.060 OA 
ENDBRANCH   3  13
BRANCH   5  17
HETATM   17  C   UNL     1      -9.145  11.476  67.751  1.00  0.00    -0.165 A  
HETATM   18  C   UNL     1      -9.525  12.745  68.207  1.00  0.00    -0.203 A  
HETATM   19  C   UNL     1     -10.497  13.491  67.519  1.00  0.00    -0.237 A  
HETATM   20  C   UNL     1     -11.092  12.980  66.359  1.00  0.00    -0.287 A  
HETATM   21  C   UNL     1     -10.713  11.707  65.914  1.00  0.00    -0.328 A  
HETATM   22  C   UNL     1      -9.748  10.960  66.602  1.00  0.00    -0.222 A  
BRANCH  20  23
HETATM   23  S   UNL     1     -12.426  13.868  65.511  1.00  0.00    -0.512 S  
HETATM   24  C   UNL     1     -11.468  14.858  64.342  1.00  0.00    -0.247 C  
HETATM   25  O   UNL     1     -13.166  12.831  64.716  1.00  0.00    -0.812 OA 
ENDBRANCH  20  23
ENDBRANCH   5  17
TORSDOF 3
ENDMDL
MODEL       48
REMARK 921   NORMALIZED FREE ENERGY PREDICTED BY IDOCK:   -5.32 KCAL/MOL
REMARK 922        TOTAL FREE ENERGY PREDICTED BY IDOCK:   -7.20 KCAL/MOL
REMARK 923 INTER-LIGAND FREE ENERGY PREDICTED BY IDOCK:   -6.21 KCAL/MOL
REMARK 924 INTRA-LIGAND FREE ENERGY PREDICTED BY IDOCK:   -0.99 KCAL/MOL
REMARK 927      BINDING AFFINITY PREDICTED BY RF-SCORE:    0.00 PKD
ROOT
HETATM    1  C   UNL     1     -13.454   7.074  71.900  1.00  0.00    -0.237 C  
HETATM    2  C   UNL     1     -12.070   7.351  71.409  1.00  0.00    -0.357 C  
HETATM    3  C   UNL     1     -11.007   6.513  71.397  1.00  0.00    -0.303 C  
HETATM    4  C   UNL     1      -9.849   7.276  70.901  1.00  0.00    -0.184 A  
HETATM    5  C   UNL     1     -12.529   9.669  70.604  1.00  0.00    -0.161 C  
HETATM    6  C   UNL     1     -11.668   8.675  70.890  1.00  0.00    -0.287 C  
HETATM    7  C   UNL     1      -8.545   6.851  70.688  1.00  0.00    -0.141 A  
HETATM    8  C   UNL     1      -7.603   7.805  70.316  1.00  0.00    -0.087 A  
HETATM    9  C   UNL     1     -10.215   8.620  70.682  1.00  0.00    -0.237 A  
HETATM   10  C   UNL     1      -9.259   9.576  70.371  1.00  0.00    -0.305 A  
HETATM   11  F   UNL     1      -6.340   7.421  70.089  1.00  0.00    -0.032 F  
HETATM   12  C   UNL     1      -7.938   9.157  70.188  1.00  0.00    -0.124 A  
ENDROOT
BRANCH   3  13
HETATM   13  C   UNL     1     -10.883   5.105  71.893  1.00  0.00    -0.171 C  
HETATM   14  O   UNL     1     -10.161   6.006  74.056  1.00  0.00    -0.208 OA 
HETATM   15  C   UNL     1     -10.548   4.907  73.365  1.00  0.00    -0.239 C  
HETATM   16  O   UNL     1     -10.593   3.807  73.902  1.00  0.00    -0.176 OA 
ENDBRANCH   3  13
BRANCH   5  17
HETATM   17  C   UNL     1     -12.259  10.982  70.002  1.00  0.00    -0.418 A  
HETATM   18  C   UNL     1     -12.063  11.110  68.621  1.00  0.00    -0.180 A  
HETATM   19  C   UNL     1     -11.879  12.375  68.039  1.00  0.00    -0.376 A  
HETATM   20  C   UNL     1     -11.902  13.529  68.831  1.00  0.00    -0.345 A  
HETATM   21  C   UNL     1     -12.091  13.392  70.213  1.00  0.00    -0.419 A  
HETATM   22  C   UNL     1     -12.269  12.131  70.795  1.00  0.00    -0.367 A  
BRANCH  20  23
HETATM   23  S   UNL     1     -11.561  15.166  68.129  1.00  0.00    -0.304 S  
HETATM   24  C   UNL     1     -11.389  16.140  69.640  1.00  0.00    -0.316 C  
HETATM   25  O   UNL     1     -10.198  15.066  67.505  1.00  0.00    -0.232 OA 
ENDBRANCH  20  23
ENDBRANCH   5  17
TORSDOF 3
ENDMDL
MODEL       49
REMARK 921   NORMALIZED FREE ENERGY PREDICTED BY IDOCK:   -5.30 KCAL/MOL
REMARK 922        TOTAL FREE ENERGY PREDICTED BY IDOCK:   -7.18 KCAL/MOL
REMARK 923 INTER-LIGAND FREE ENERGY PREDICTED BY IDOCK:   -6.68 KCAL/MOL
REMARK 924 INTRA-LIGAND FREE ENERGY PREDICTED BY IDOCK:   -0.50 KCAL/MOL
REMARK 927      BINDING AFFINITY PREDICTED BY RF-SCORE:    0.00 PKD
ROOT
HETATM    1  C   UNL     1     -10.286   8.257  66.598  1.00  0.00    -0.333 C  
HETATM    2  C   UNL     1      -9.858   8.232  68.029  1.00  0.00    -0.201 C  
HETATM    3  C   UNL     1      -8.936   7.427  68.609  1.00  0.00    -0.131 C  
HETATM    4  C   UNL     1      -8.935   7.725  70.052  1.00  0.00    -0.142 A  
HETATM    5  C   UNL     1     -11.279  10.147  68.769  1.00  0.00    -0.217 C  
HETATM    6  C   UNL     1     -10.465   9.112  69.049  1.00  0.00    -0.238 C  
HETATM    7  C   UNL     1      -8.152   7.179  71.059  1.00  0.00    -0.104 A  
HETATM    8  C   UNL     1      -8.425   7.556  72.370  1.00  0.00    -0.108 A  
HETATM    9  C   UNL     1      -9.930   8.679  70.348  1.00  0.00    -0.212 A  
HETATM   10  C   UNL     1     -10.238   9.002  71.660  1.00  0.00    -0.418 A  
HETATM   11  F   UNL     1      -7.676   7.057  73.362  1.00  0.00    -0.086 F  
HETATM   12  C   UNL     1      -9.473   8.429  72.680  1.00  0.00    -0.335 A  
ENDROOT
BRANCH   3  13
HETATM   13  C   UNL     1      -8.117   6.320  68.022  1.00  0.00    -0.115 C  
HETATM   14  O   UNL     1      -9.934   4.772  68.583  1.00  0.00    -0.155 OA 
HETATM   15  C   UNL     1      -8.764   4.944  67.924  1.00  0.00    -0.103 C  
HETATM   16  O   UNL     1      -8.244   4.022  67.309  1.00  0.00    -0.098 OA 
ENDBRANCH   3  13
BRANCH   5  17
HETATM   17  C   UNL     1     -11.863  11.138  69.683  1.00  0.00    -0.419 A  
HETATM   18  C   UNL     1     -12.659  10.736  70.762  1.00  0.00    -0.476 A  
HETATM   19  C   UNL     1     -13.154  11.680  71.677  1.00  0.00    -0.456 A  
HETATM   20  C   UNL     1     -12.847  13.038  71.530  1.00  0.00    -0.290 A  
HETATM   21  C   UNL     1     -12.055  13.433  70.443  1.00  0.00    -0.405 A  
HETATM   22  C   UNL     1     -11.566  12.493  69.527  1.00  0.00    -0.348 A  
BRANCH  20  23
HETATM   23  S   UNL     1     -13.557  14.293  72.628  1.00  0.00    -0.446 S  
HETATM   24  C   UNL     1     -12.051  15.008  73.325  1.00  0.00    -0.348 C  
HETATM   25  O   UNL     1     -14.165  15.329  71.725  1.00  0.00    -0.495 OA 
ENDBRANCH  20  23
ENDBRANCH   5  17
TORSDOF 3
ENDMDL
MODEL       50
REMARK 921   NORMALIZED FREE ENERGY PREDICTED BY IDOCK:   -5.29 KCAL/MOL
REMARK 922        TOTAL FREE ENERGY PREDICTED BY IDOCK:   -7.16 KCAL/MOL
REMARK 923 INTER-LIGAND FREE ENERGY PREDICTED BY IDOCK:   -6.15 KCAL/MOL
REMARK 924 INTRA-LIGAND FREE ENERGY PREDICTED BY IDOCK:   -1.01 KCAL/MOL
REMARK 927      BINDING AFFINITY PREDICTED BY RF-SCORE:    0.00 PKD
ROOT
HETATM    1  C   UNL     1      -7.870  14.231  68.577  1.00  0.00    -0.143 C  
HETATM    2  C   UNL     1      -8.705  13.826  67.406  1.00  0.00    -0.210 C  
HETATM    3  C   UNL     1      -9.383  14.627  66.550  1.00  0.00    -0.313 C  
HETATM    4  C   UNL     1     -10.123  13.756  65.621  1.00  0.00    -0.315 A  
HETATM    5  C   UNL     1      -8.266  11.376  67.594  1.00  0.00    -0.128 C  
HETATM    6  C   UNL     1      -8.937  12.410  67.054  1.00  0.00    -0.209 C  
HETATM    7  C   UNL     1     -10.940  14.104  64.556  1.00  0.00    -0.340 A  
HETATM    8  C   UNL     1     -11.618  13.083  63.896  1.00  0.00    -0.449 A  
HETATM    9  C   UNL     1      -9.939  12.404  65.979  1.00  0.00    -0.270 A  
HETATM   10  C   UNL     1     -10.665  11.399  65.358  1.00  0.00    -0.313 A  
HETATM   11  F   UNL     1     -12.403  13.387  62.854  1.00  0.00    -0.575 F  
HETATM   12  C   UNL     1     -11.514  11.749  64.305  1.00  0.00    -0.386 A  
ENDROOT
BRANCH   3  13
HETATM   13  C   UNL     1      -9.533  16.117  66.538  1.00  0.00    -0.289 C  
HETATM   14  O   UNL     1     -11.420  15.869  68.082  1.00  0.00    -0.350 OA 
HETATM   15  C   UNL     1     -10.562  16.727  67.480  1.00  0.00    -0.309 C  
HETATM   16  O   UNL     1     -10.640  17.934  67.668  1.00  0.00    -0.390 OA 
ENDBRANCH   3  13
BRANCH   5  17
HETATM   17  C   UNL     1      -8.344   9.948  67.260  1.00  0.00    -0.121 A  
HETATM   18  C   UNL     1      -7.453   9.377  66.342  1.00  0.00    -0.093 A  
HETATM   19  C   UNL     1      -7.481   7.997  66.082  1.00  0.00    -0.075 A  
HETATM   20  C   UNL     1      -8.394   7.169  66.746  1.00  0.00    -0.116 A  
HETATM   21  C   UNL     1      -9.287   7.749  67.657  1.00  0.00    -0.160 A  
HETATM   22  C   UNL     1      -9.263   9.125  67.913  1.00  0.00    -0.144 A  
BRANCH  20  23
HETATM   23  S   UNL     1      -8.530   5.404  66.353  1.00  0.00    -0.116 S  
HETATM   24  C   UNL     1     -10.013   4.974  67.292  1.00  0.00    -0.186 C  
HETATM   25  O   UNL     1      -8.891   5.336  64.897  1.00  0.00    -0.150 OA 
ENDBRANCH  20  23
ENDBRANCH   5  17
TORSDOF 3
ENDMDL
MODEL       51
REMARK 921   NORMALIZED FREE ENERGY PREDICTED BY IDOCK:   -5.26 KCAL/MOL
REMARK 922        TOTAL FREE ENERGY PREDICTED BY IDOCK:   -7.13 KCAL/MOL
REMARK 923 INTER-LIGAND FREE ENERGY PREDICTED BY IDOCK:   -6.76 KCAL/MOL
REMARK 924 INTRA-LIGAND FREE ENERGY PREDICTED BY IDOCK:   -0.37 KCAL/MOL
REMARK 927      BINDING AFFINITY PREDICTED BY RF-SCORE:    0.00 PKD
ROOT
HETATM    1  C   UNL     1     -10.027   9.828  65.508  1.00  0.00    -0.329 C  
HETATM    2  C   UNL     1      -9.837   9.477  66.948  1.00  0.00    -0.262 C  
HETATM    3  C   UNL     1      -9.296   8.349  67.466  1.00  0.00    -0.172 C  
HETATM    4  C   UNL     1      -9.412   8.436  68.932  1.00  0.00    -0.147 A  
HETATM    5  C   UNL     1     -10.703  11.630  67.867  1.00  0.00    -0.241 C  
HETATM    6  C   UNL     1     -10.290  10.361  68.042  1.00  0.00    -0.212 C  
HETATM    7  C   UNL     1      -8.984   7.540  69.900  1.00  0.00    -0.141 A  
HETATM    8  C   UNL     1      -9.316   7.806  71.225  1.00  0.00    -0.152 A  
HETATM    9  C   UNL     1     -10.104   9.611  69.292  1.00  0.00    -0.201 A  
HETATM   10  C   UNL     1     -10.484   9.839  70.605  1.00  0.00    -0.358 A  
HETATM   11  F   UNL     1      -8.904   6.966  72.184  1.00  0.00    -0.130 F  
HETATM   12  C   UNL     1     -10.083   8.921  71.580  1.00  0.00    -0.394 A  
ENDROOT
BRANCH   3  13
HETATM   13  C   UNL     1      -8.775   7.125  66.778  1.00  0.00    -0.128 C  
HETATM   14  O   UNL     1     -11.023   6.161  66.941  1.00  0.00    -0.343 OA 
HETATM   15  C   UNL     1      -9.782   6.043  66.413  1.00  0.00    -0.121 C  
HETATM   16  O   UNL     1      -9.486   5.090  65.702  1.00  0.00    -0.160 OA 
ENDBRANCH   3  13
BRANCH   5  17
HETATM   17  C   UNL     1     -11.085  12.626  68.878  1.00  0.00    -0.307 A  
HETATM   18  C   UNL     1     -10.526  13.910  68.865  1.00  0.00    -0.199 A  
HETATM   19  C   UNL     1     -10.948  14.883  69.787  1.00  0.00    -0.280 A  
HETATM   20  C   UNL     1     -11.944  14.586  70.724  1.00  0.00    -0.322 A  
HETATM   21  C   UNL     1     -12.493  13.296  70.736  1.00  0.00    -0.403 A  
HETATM   22  C   UNL     1     -12.069  12.324  69.821  1.00  0.00    -0.298 A  
BRANCH  20  23
HETATM   23  S   UNL     1     -12.434  15.782  71.996  1.00  0.00    -0.480 S  
HETATM   24  C   UNL     1     -14.189  15.386  72.158  1.00  0.00    -0.565 C  
HETATM   25  O   UNL     1     -11.757  15.334  73.260  1.00  0.00    -0.414 OA 
ENDBRANCH  20  23
ENDBRANCH   5  17
TORSDOF 3
ENDMDL
MODEL       52
REMARK 921   NORMALIZED FREE ENERGY PREDICTED BY IDOCK:   -5.20 KCAL/MOL
REMARK 922        TOTAL FREE ENERGY PREDICTED BY IDOCK:   -7.06 KCAL/MOL
REMARK 923 INTER-LIGAND FREE ENERGY PREDICTED BY IDOCK:   -6.08 KCAL/MOL
REMARK 924 INTRA-LIGAND FREE ENERGY PREDICTED BY IDOCK:   -0.98 KCAL/MOL
REMARK 927      BINDING AFFINITY PREDICTED BY RF-SCORE:    0.00 PKD
ROOT
HETATM    1  C   UNL     1     -11.839  12.962  68.509  1.00  0.00    -0.350 C  
HETATM    2  C   UNL     1     -11.003  11.821  68.029  1.00  0.00    -0.274 C  
HETATM    3  C   UNL     1     -10.342  11.710  66.852  1.00  0.00    -0.253 C  
HETATM    4  C   UNL     1      -9.737  10.367  66.811  1.00  0.00    -0.224 A  
HETATM    5  C   UNL     1     -11.203  10.447  70.104  1.00  0.00    -0.393 C  
HETATM    6  C   UNL     1     -10.827  10.585  68.819  1.00  0.00    -0.269 C  
HETATM    7  C   UNL     1      -8.948   9.792  65.826  1.00  0.00    -0.195 A  
HETATM    8  C   UNL     1      -8.589   8.456  65.978  1.00  0.00    -0.146 A  
HETATM    9  C   UNL     1     -10.106   9.637  67.959  1.00  0.00    -0.213 A  
HETATM   10  C   UNL     1      -9.798   8.290  68.074  1.00  0.00    -0.201 A  
HETATM   11  F   UNL     1      -7.815   7.878  65.050  1.00  0.00    -0.091 F  
HETATM   12  C   UNL     1      -9.030   7.697  67.067  1.00  0.00    -0.148 A  
ENDROOT
BRANCH   3  13
HETATM   13  C   UNL     1     -10.283  12.649  65.688  1.00  0.00    -0.290 C  
HETATM   14  O   UNL     1     -12.248  11.514  64.761  1.00  0.00     0.007 OA 
HETATM   15  C   UNL     1     -11.409  12.573  64.666  1.00  0.00    -0.318 C  
HETATM   16  O   UNL     1     -11.542  13.406  63.778  1.00  0.00    -0.390 OA 
ENDBRANCH   3  13
BRANCH   5  17
HETATM   17  C   UNL     1     -10.998   9.310  71.011  1.00  0.00    -0.390 A  
HETATM   18  C   UNL     1     -12.046   8.427  71.300  1.00  0.00    -0.315 A  
HETATM   19  C   UNL     1     -11.828   7.298  72.108  1.00  0.00    -0.324 A  
HETATM   20  C   UNL     1     -10.554   7.033  72.626  1.00  0.00    -0.245 A  
HETATM   21  C   UNL     1      -9.513   7.926  72.339  1.00  0.00    -0.252 A  
HETATM   22  C   UNL     1      -9.731   9.054  71.538  1.00  0.00    -0.365 A  
BRANCH  20  23
HETATM   23  S   UNL     1     -10.263   5.648  73.759  1.00  0.00    -0.252 S  
HETATM   24  C   UNL     1     -11.203   4.346  72.932  1.00  0.00    -0.066 C  
HETATM   25  O   UNL     1      -8.808   5.305  73.619  1.00  0.00    -0.122 OA 
ENDBRANCH  20  23
ENDBRANCH   5  17
TORSDOF 3
ENDMDL
MODEL       53
REMARK 921   NORMALIZED FREE ENERGY PREDICTED BY IDOCK:   -5.09 KCAL/MOL
REMARK 922        TOTAL FREE ENERGY PREDICTED BY IDOCK:   -6.93 KCAL/MOL
REMARK 923 INTER-LIGAND FREE ENERGY PREDICTED BY IDOCK:   -5.95 KCAL/MOL
REMARK 924 INTRA-LIGAND FREE ENERGY PREDICTED BY IDOCK:   -0.97 KCAL/MOL
REMARK 927      BINDING AFFINITY PREDICTED BY RF-SCORE:    0.00 PKD
ROOT
HETATM    1  C   UNL     1     -11.480  11.636  64.829  1.00  0.00    -0.225 C  
HETATM    2  C   UNL     1     -10.279  11.739  65.712  1.00  0.00    -0.276 C  
HETATM    3  C   UNL     1      -9.440  10.748  66.096  1.00  0.00    -0.221 C  
HETATM    4  C   UNL     1      -8.467  11.332  67.034  1.00  0.00    -0.150 A  
HETATM    5  C   UNL     1     -10.387  14.213  66.027  1.00  0.00    -0.316 C  
HETATM    6  C   UNL     1      -9.872  13.010  66.344  1.00  0.00    -0.270 C  
HETATM    7  C   UNL     1      -7.399  10.726  67.680  1.00  0.00    -0.094 A  
HETATM    8  C   UNL     1      -6.690  11.478  68.611  1.00  0.00    -0.072 A  
HETATM    9  C   UNL     1      -8.778  12.687  67.271  1.00  0.00    -0.198 A  
HETATM   10  C   UNL     1      -8.108  13.412  68.244  1.00  0.00    -0.152 A  
HETATM   11  F   UNL     1      -5.645  10.924  69.239  1.00  0.00    -0.041 F  
HETATM   12  C   UNL     1      -7.052  12.793  68.920  1.00  0.00    -0.067 A  
ENDROOT
BRANCH   3  13
HETATM   13  C   UNL     1      -9.479   9.281  65.796  1.00  0.00    -0.329 C  
HETATM   14  O   UNL     1     -10.626   8.945  67.936  1.00  0.00    -0.230 OA 
HETATM   15  C   UNL     1     -10.242   8.387  66.764  1.00  0.00    -0.306 C  
HETATM   16  O   UNL     1     -10.476   7.210  66.519  1.00  0.00    -0.167 OA 
ENDBRANCH   3  13
BRANCH   5  17
HETATM   17  C   UNL     1     -10.000  15.543  66.516  1.00  0.00    -0.283 A  
HETATM   18  C   UNL     1      -8.912  16.224  65.955  1.00  0.00    -0.325 A  
HETATM   19  C   UNL     1      -8.591  17.526  66.373  1.00  0.00    -0.273 A  
HETATM   20  C   UNL     1      -9.363  18.168  67.349  1.00  0.00    -0.254 A  
HETATM   21  C   UNL     1     -10.444  17.476  67.911  1.00  0.00    -0.384 A  
HETATM   22  C   UNL     1     -10.762  16.176  67.499  1.00  0.00    -0.304 A  
BRANCH  20  23
HETATM   23  S   UNL     1      -8.911  19.803  67.989  1.00  0.00    -0.285 S  
HETATM   24  C   UNL     1      -7.242  19.967  67.316  1.00  0.00    -0.251 C  
HETATM   25  O   UNL     1      -9.784  20.783  67.258  1.00  0.00    -0.479 OA 
ENDBRANCH  20  23
ENDBRANCH   5  17
TORSDOF 3
ENDMDL
MODEL       54
REMARK 921   NORMALIZED FREE ENERGY PREDICTED BY IDOCK:   -5.06 KCAL/MOL
REMARK 922        TOTAL FREE ENERGY PREDICTED BY IDOCK:   -6.89 KCAL/MOL
REMARK 923 INTER-LIGAND FREE ENERGY PREDICTED BY IDOCK:   -6.14 KCAL/MOL
REMARK 924 INTRA-LIGAND FREE ENERGY PREDICTED BY IDOCK:   -0.75 KCAL/MOL
REMARK 927      BINDING AFFINITY PREDICTED BY RF-SCORE:    0.00 PKD
ROOT
HETATM    1  C   UNL     1     -13.367  11.508  71.994  1.00  0.00    -0.397 C  
HETATM    2  C   UNL     1     -12.431  11.611  70.835  1.00  0.00    -0.440 C  
HETATM    3  C   UNL     1     -12.169  12.697  70.069  1.00  0.00    -0.267 C  
HETATM    4  C   UNL     1     -11.247  12.272  69.002  1.00  0.00    -0.319 A  
HETATM    5  C   UNL     1     -11.568   9.273  70.976  1.00  0.00    -0.380 C  
HETATM    6  C   UNL     1     -11.669  10.450  70.331  1.00  0.00    -0.419 C  
HETATM    7  C   UNL     1     -10.674  13.026  67.987  1.00  0.00    -0.248 A  
HETATM    8  C   UNL     1      -9.917  12.358  67.030  1.00  0.00    -0.212 A  
HETATM    9  C   UNL     1     -11.012  10.885  69.091  1.00  0.00    -0.290 A  
HETATM   10  C   UNL     1     -10.309  10.217  68.100  1.00  0.00    -0.208 A  
HETATM   11  F   UNL     1      -9.339  13.061  66.047  1.00  0.00    -0.231 F  
HETATM   12  C   UNL     1      -9.758  10.969  67.058  1.00  0.00    -0.208 A  
ENDROOT
BRANCH   3  13
HETATM   13  C   UNL     1     -12.749  14.076  70.122  1.00  0.00    -0.207 C  
HETATM   14  O   UNL     1     -11.715  14.351  72.328  1.00  0.00     0.014 OA 
HETATM   15  C   UNL     1     -12.362  14.956  71.303  1.00  0.00    -0.322 C  
HETATM   16  O   UNL     1     -12.643  16.147  71.349  1.00  0.00    -0.354 OA 
ENDBRANCH   3  13
BRANCH   5  17
HETATM   17  C   UNL     1     -10.772   8.090  70.623  1.00  0.00    -0.235 A  
HETATM   18  C   UNL     1      -9.431   7.986  71.013  1.00  0.00    -0.179 A  
HETATM   19  C   UNL     1      -8.694   6.821  70.740  1.00  0.00    -0.146 A  
HETATM   20  C   UNL     1      -9.295   5.741  70.083  1.00  0.00    -0.155 A  
HETATM   21  C   UNL     1     -10.635   5.856  69.688  1.00  0.00    -0.383 A  
HETATM   22  C   UNL     1     -11.369   7.018  69.956  1.00  0.00    -0.293 A  
BRANCH  20  23
HETATM   23  S   UNL     1      -8.344   4.269  69.618  1.00  0.00    -0.061 S  
HETATM   24  C   UNL     1      -8.179   3.465  71.227  1.00  0.00    -0.063 C  
HETATM   25  O   UNL     1      -9.274   3.426  68.792  1.00  0.00    -0.139 OA 
ENDBRANCH  20  23
ENDBRANCH   5  17
TORSDOF 3
ENDMDL
MODEL       55
REMARK 921   NORMALIZED FREE ENERGY PREDICTED BY IDOCK:   -5.05 KCAL/MOL
REMARK 922        TOTAL FREE ENERGY PREDICTED BY IDOCK:   -6.88 KCAL/MOL
REMARK 923 INTER-LIGAND FREE ENERGY PREDICTED BY IDOCK:   -6.14 KCAL/MOL
REMARK 924 INTRA-LIGAND FREE ENERGY PREDICTED BY IDOCK:   -0.75 KCAL/MOL
REMARK 927      BINDING AFFINITY PREDICTED BY RF-SCORE:    0.00 PKD
ROOT
HETATM    1  C   UNL     1      -9.653  20.192  67.936  1.00  0.00    -0.468 C  
HETATM    2  C   UNL     1      -8.921  18.904  68.128  1.00  0.00    -0.346 C  
HETATM    3  C   UNL     1      -7.860  18.660  68.934  1.00  0.00    -0.264 C  
HETATM    4  C   UNL     1      -7.444  17.266  68.706  1.00  0.00    -0.260 A  
HETATM    5  C   UNL     1     -10.379  17.540  66.629  1.00  0.00    -0.319 C  
HETATM    6  C   UNL     1      -9.267  17.681  67.375  1.00  0.00    -0.247 C  
HETATM    7  C   UNL     1      -6.423  16.546  69.310  1.00  0.00    -0.201 A  
HETATM    8  C   UNL     1      -6.162  15.265  68.834  1.00  0.00    -0.094 A  
HETATM    9  C   UNL     1      -8.230  16.688  67.688  1.00  0.00    -0.183 A  
HETATM   10  C   UNL     1      -7.924  15.436  67.177  1.00  0.00    -0.251 A  
HETATM   11  F   UNL     1      -5.192  14.541  69.407  1.00  0.00    -0.087 F  
HETATM   12  C   UNL     1      -6.875  14.721  67.761  1.00  0.00    -0.195 A  
ENDROOT
BRANCH   3  13
HETATM   13  C   UNL     1      -7.092  19.588  69.823  1.00  0.00    -0.099 C  
HETATM   14  O   UNL     1      -5.543  19.976  67.963  1.00  0.00    -0.196 OA 
HETATM   15  C   UNL     1      -5.935  20.358  69.202  1.00  0.00    -0.346 C  
HETATM   16  O   UNL     1      -5.358  21.261  69.796  1.00  0.00    -0.456 OA 
ENDBRANCH   3  13
BRANCH   5  17
HETATM   17  C   UNL     1     -10.871  16.353  65.918  1.00  0.00    -0.116 A  
HETATM   18  C   UNL     1     -10.958  16.339  64.521  1.00  0.00    -0.087 A  
HETATM   19  C   UNL     1     -11.358  15.178  63.839  1.00  0.00     0.570 A  
HETATM   20  C   UNL     1     -11.664  14.010  64.549  1.00  0.00    -0.413 A  
HETATM   21  C   UNL     1     -11.582  14.034  65.948  1.00  0.00    -0.350 A  
HETATM   22  C   UNL     1     -11.189  15.193  66.628  1.00  0.00    -0.274 A  
BRANCH  20  23
HETATM   23  S   UNL     1     -12.287  12.529  63.710  1.00  0.00    -0.502 S  
HETATM   24  C   UNL     1     -10.994  11.342  64.139  1.00  0.00    -0.341 C  
HETATM   25  O   UNL     1     -13.526  12.126  64.458  1.00  0.00    -0.614 OA 
ENDBRANCH  20  23
ENDBRANCH   5  17
TORSDOF 3
ENDMDL
MODEL       56
REMARK 921   NORMALIZED FREE ENERGY PREDICTED BY IDOCK:   -5.00 KCAL/MOL
REMARK 922        TOTAL FREE ENERGY PREDICTED BY IDOCK:   -6.83 KCAL/MOL
REMARK 923 INTER-LIGAND FREE ENERGY PREDICTED BY IDOCK:   -6.04 KCAL/MOL
REMARK 924 INTRA-LIGAND FREE ENERGY PREDICTED BY IDOCK:   -0.78 KCAL/MOL
REMARK 927      BINDING AFFINITY PREDICTED BY RF-SCORE:    0.00 PKD
ROOT
HETATM    1  C   UNL     1     -11.761  11.292  67.467  1.00  0.00    -0.166 C  
HETATM    2  C   UNL     1     -11.305  10.361  68.542  1.00  0.00    -0.283 C  
HETATM    3  C   UNL     1     -11.394  10.527  69.882  1.00  0.00    -0.380 C  
HETATM    4  C   UNL     1     -10.727   9.377  70.516  1.00  0.00    -0.335 A  
HETATM    5  C   UNL     1     -10.532   8.544  67.014  1.00  0.00    -0.362 C  
HETATM    6  C   UNL     1     -10.618   9.087  68.242  1.00  0.00    -0.213 C  
HETATM    7  C   UNL     1     -10.577   9.084  71.864  1.00  0.00    -0.388 A  
HETATM    8  C   UNL     1      -9.802   7.981  72.207  1.00  0.00    -0.236 A  
HETATM    9  C   UNL     1     -10.164   8.543  69.529  1.00  0.00    -0.206 A  
HETATM   10  C   UNL     1      -9.342   7.482  69.879  1.00  0.00    -0.150 A  
HETATM   11  F   UNL     1      -9.651   7.665  73.500  1.00  0.00    -0.253 F  
HETATM   12  C   UNL     1      -9.162   7.203  71.237  1.00  0.00    -0.151 A  
ENDROOT
BRANCH   3  13
HETATM   13  C   UNL     1     -11.925  11.680  70.677  1.00  0.00    -0.356 C  
HETATM   14  O   UNL     1     -13.768  10.238  71.407  1.00  0.00    -0.169 OA 
HETATM   15  C   UNL     1     -13.129  11.421  71.573  1.00  0.00    -0.335 C  
HETATM   16  O   UNL     1     -13.528  12.246  72.384  1.00  0.00    -0.467 OA 
ENDBRANCH   3  13
BRANCH   5  17
HETATM   17  C   UNL     1      -9.962   7.251  66.612  1.00  0.00    -0.246 A  
HETATM   18  C   UNL     1     -10.705   6.071  66.733  1.00  0.00    -0.374 A  
HETATM   19  C   UNL     1     -10.185   4.847  66.279  1.00  0.00    -0.312 A  
HETATM   20  C   UNL     1      -8.918   4.793  65.685  1.00  0.00    -0.142 A  
HETATM   21  C   UNL     1      -8.177   5.977  65.574  1.00  0.00    -0.142 A  
HETATM   22  C   UNL     1      -8.693   7.196  66.032  1.00  0.00    -0.162 A  
BRANCH  20  23
HETATM   23  S   UNL     1      -8.173   3.217  65.188  1.00  0.00    -0.095 S  
HETATM   24  C   UNL     1      -6.433   3.693  65.094  1.00  0.00    -0.035 C  
HETATM   25  O   UNL     1      -8.322   2.303  66.371  1.00  0.00    -0.085 OA 
ENDBRANCH  20  23
ENDBRANCH   5  17
TORSDOF 3
ENDMDL
MODEL       57
REMARK 921   NORMALIZED FREE ENERGY PREDICTED BY IDOCK:   -4.98 KCAL/MOL
REMARK 922        TOTAL FREE ENERGY PREDICTED BY IDOCK:   -6.79 KCAL/MOL
REMARK 923 INTER-LIGAND FREE ENERGY PREDICTED BY IDOCK:   -5.87 KCAL/MOL
REMARK 924 INTRA-LIGAND FREE ENERGY PREDICTED BY IDOCK:   -0.92 KCAL/MOL
REMARK 927      BINDING AFFINITY PREDICTED BY RF-SCORE:    0.00 PKD
ROOT
HETATM    1  C   UNL     1      -9.407   7.738  73.282  1.00  0.00    -0.331 C  
HETATM    2  C   UNL     1      -9.639   7.229  71.897  1.00  0.00    -0.164 C  
HETATM    3  C   UNL     1      -9.680   5.942  71.478  1.00  0.00    -0.189 C  
HETATM    4  C   UNL     1      -9.849   5.959  70.015  1.00  0.00    -0.225 A  
HETATM    5  C   UNL     1     -10.009   9.463  70.847  1.00  0.00    -0.353 C  
HETATM    6  C   UNL     1      -9.819   8.135  70.744  1.00  0.00    -0.201 C  
HETATM    7  C   UNL     1      -9.966   4.893  69.134  1.00  0.00    -0.252 A  
HETATM    8  C   UNL     1     -10.006   5.178  67.772  1.00  0.00    -0.156 A  
HETATM    9  C   UNL     1      -9.836   7.287  69.544  1.00  0.00    -0.163 A  
HETATM   10  C   UNL     1      -9.813   7.560  68.184  1.00  0.00    -0.179 A  
HETATM   11  F   UNL     1     -10.134   4.170  66.899  1.00  0.00    -0.241 F  
HETATM   12  C   UNL     1      -9.898   6.487  67.292  1.00  0.00    -0.175 A  
ENDROOT
BRANCH   3  13
HETATM   13  C   UNL     1      -9.469   4.672  72.243  1.00  0.00    -0.182 C  
HETATM   14  O   UNL     1     -11.757   4.888  73.096  1.00  0.00    -0.315 OA 
HETATM   15  C   UNL     1     -10.665   4.095  72.989  1.00  0.00    -0.173 C  
HETATM   16  O   UNL     1     -10.641   2.982  73.498  1.00  0.00    -0.145 OA 
ENDBRANCH   3  13
BRANCH   5  17
HETATM   17  C   UNL     1     -10.289  10.443  69.788  1.00  0.00    -0.252 A  
HETATM   18  C   UNL     1      -9.261  10.922  68.966  1.00  0.00    -0.128 A  
HETATM   19  C   UNL     1      -9.543  11.801  67.907  1.00  0.00    -0.187 A  
HETATM   20  C   UNL     1     -10.860  12.201  67.650  1.00  0.00    -0.233 A  
HETATM   21  C   UNL     1     -11.882  11.723  68.482  1.00  0.00    -0.365 A  
HETATM   22  C   UNL     1     -11.601  10.851  69.541  1.00  0.00    -0.384 A  
BRANCH  20  23
HETATM   23  S   UNL     1     -11.245  13.417  66.362  1.00  0.00    -0.311 S  
HETATM   24  C   UNL     1     -10.413  14.875  67.030  1.00  0.00    -0.272 C  
HETATM   25  O   UNL     1     -10.477  12.983  65.147  1.00  0.00    -0.301 OA 
ENDBRANCH  20  23
ENDBRANCH   5  17
TORSDOF 3
ENDMDL
MODEL       58
REMARK 921   NORMALIZED FREE ENERGY PREDICTED BY IDOCK:   -4.97 KCAL/MOL
REMARK 922        TOTAL FREE ENERGY PREDICTED BY IDOCK:   -6.79 KCAL/MOL
REMARK 923 INTER-LIGAND FREE ENERGY PREDICTED BY IDOCK:   -7.44 KCAL/MOL
REMARK 924 INTRA-LIGAND FREE ENERGY PREDICTED BY IDOCK:    0.65 KCAL/MOL
REMARK 927      BINDING AFFINITY PREDICTED BY RF-SCORE:    0.00 PKD
ROOT
HETATM    1  C   UNL     1     -10.203   8.505  66.818  1.00  0.00    -0.370 C  
HETATM    2  C   UNL     1     -10.334   8.251  68.284  1.00  0.00    -0.242 C  
HETATM    3  C   UNL     1      -9.964   7.146  68.975  1.00  0.00    -0.174 C  
HETATM    4  C   UNL     1     -10.381   7.340  70.374  1.00  0.00    -0.217 A  
HETATM    5  C   UNL     1     -11.277  10.489  68.863  1.00  0.00    -0.323 C  
HETATM    6  C   UNL     1     -10.966   9.224  69.200  1.00  0.00    -0.083 C  
HETATM    7  C   UNL     1     -10.205   6.501  71.465  1.00  0.00    -0.215 A  
HETATM    8  C   UNL     1     -10.794   6.871  72.670  1.00  0.00    -0.257 A  
HETATM    9  C   UNL     1     -11.079   8.558  70.505  1.00  0.00    -0.265 A  
HETATM   10  C   UNL     1     -11.716   8.889  71.692  1.00  0.00    -0.411 A  
HETATM   11  F   UNL     1     -10.630   6.088  73.745  1.00  0.00    -0.226 F  
HETATM   12  C   UNL     1     -11.569   8.030  72.784  1.00  0.00    -0.390 A  
ENDROOT
BRANCH   3  13
HETATM   13  C   UNL     1      -9.365   5.862  68.490  1.00  0.00    -0.127 C  
HETATM   14  O   UNL     1      -7.214   7.021  68.292  1.00  0.00    -0.085 OA 
HETATM   15  C   UNL     1      -7.860   5.831  68.264  1.00  0.00    -0.100 C  
HETATM   16  O   UNL     1      -7.256   4.791  68.035  1.00  0.00    -0.064 OA 
ENDBRANCH   3  13
BRANCH   5  17
HETATM   17  C   UNL     1     -11.817  11.564  69.706  1.00  0.00    -0.429 A  
HETATM   18  C   UNL     1     -12.486  11.271  70.900  1.00  0.00    -0.493 A  
HETATM   19  C   UNL     1     -12.935  12.303  71.741  1.00  0.00    -0.431 A  
HETATM   20  C   UNL     1     -12.709  13.642  71.402  1.00  0.00    -0.352 A  
HETATM   21  C   UNL     1     -12.045  13.928  70.201  1.00  0.00    -0.418 A  
HETATM   22  C   UNL     1     -11.602  12.900  69.360  1.00  0.00    -0.363 A  
BRANCH  20  23
HETATM   23  S   UNL     1     -13.369  14.998  72.408  1.00  0.00    -0.458 S  
HETATM   24  C   UNL     1     -11.852  15.914  72.759  1.00  0.00    -0.478 C  
HETATM   25  O   UNL     1     -14.191  15.838  71.472  1.00  0.00    -0.467 OA 
ENDBRANCH  20  23
ENDBRANCH   5  17
TORSDOF 3
ENDMDL
MODEL       59
REMARK 921   NORMALIZED FREE ENERGY PREDICTED BY IDOCK:   -4.97 KCAL/MOL
REMARK 922        TOTAL FREE ENERGY PREDICTED BY IDOCK:   -6.78 KCAL/MOL
REMARK 923 INTER-LIGAND FREE ENERGY PREDICTED BY IDOCK:   -5.82 KCAL/MOL
REMARK 924 INTRA-LIGAND FREE ENERGY PREDICTED BY IDOCK:   -0.96 KCAL/MOL
REMARK 927      BINDING AFFINITY PREDICTED BY RF-SCORE:    0.00 PKD
ROOT
HETATM    1  C   UNL     1      -8.069  15.478  69.171  1.00  0.00    -0.244 C  
HETATM    2  C   UNL     1      -8.859  14.939  68.023  1.00  0.00    -0.167 C  
HETATM    3  C   UNL     1      -9.538  15.634  67.080  1.00  0.00    -0.224 C  
HETATM    4  C   UNL     1     -10.225  14.655  66.220  1.00  0.00    -0.302 A  
HETATM    5  C   UNL     1      -8.349  12.533  68.450  1.00  0.00    -0.132 C  
HETATM    6  C   UNL     1      -9.037  13.489  67.800  1.00  0.00    -0.207 C  
HETATM    7  C   UNL     1     -11.024  14.875  65.107  1.00  0.00    -0.410 A  
HETATM    8  C   UNL     1     -11.651  13.775  64.530  1.00  0.00    -0.392 A  
HETATM    9  C   UNL     1     -10.008  13.350  66.706  1.00  0.00    -0.264 A  
HETATM   10  C   UNL     1     -10.685  12.267  66.165  1.00  0.00    -0.296 A  
HETATM   11  F   UNL     1     -12.417  13.955  63.445  1.00  0.00    -0.511 F  
HETATM   12  C   UNL     1     -11.517  12.490  65.063  1.00  0.00    -0.368 A  
ENDROOT
BRANCH   3  13
HETATM   13  C   UNL     1      -9.735  17.110  66.925  1.00  0.00    -0.270 C  
HETATM   14  O   UNL     1      -7.392  17.278  66.224  1.00  0.00    -0.270 OA 
HETATM   15  C   UNL     1      -8.581  17.914  66.341  1.00  0.00    -0.227 C  
HETATM   16  O   UNL     1      -8.703  19.089  66.018  1.00  0.00    -0.459 OA 
ENDBRANCH   3  13
BRANCH   5  17
HETATM   17  C   UNL     1      -8.372  11.078  68.249  1.00  0.00    -0.133 A  
HETATM   18  C   UNL     1      -9.218  10.263  69.012  1.00  0.00    -0.188 A  
HETATM   19  C   UNL     1      -9.294   8.881  68.766  1.00  0.00    -0.137 A  
HETATM   20  C   UNL     1      -8.532   8.301  67.745  1.00  0.00    -0.131 A  
HETATM   21  C   UNL     1      -7.682   9.122  66.992  1.00  0.00    -0.098 A  
HETATM   22  C   UNL     1      -7.602  10.498  67.239  1.00  0.00    -0.096 A  
BRANCH  20  23
HETATM   23  S   UNL     1      -8.523   6.508  67.474  1.00  0.00    -0.120 S  
HETATM   24  C   UNL     1      -6.748   6.210  67.320  1.00  0.00    -0.061 C  
HETATM   25  O   UNL     1      -8.967   5.896  68.772  1.00  0.00    -0.117 OA 
ENDBRANCH  20  23
ENDBRANCH   5  17
TORSDOF 3
ENDMDL
MODEL       60
REMARK 921   NORMALIZED FREE ENERGY PREDICTED BY IDOCK:   -4.96 KCAL/MOL
REMARK 922        TOTAL FREE ENERGY PREDICTED BY IDOCK:   -6.78 KCAL/MOL
REMARK 923 INTER-LIGAND FREE ENERGY PREDICTED BY IDOCK:   -5.83 KCAL/MOL
REMARK 924 INTRA-LIGAND FREE ENERGY PREDICTED BY IDOCK:   -0.95 KCAL/MOL
REMARK 927      BINDING AFFINITY PREDICTED BY RF-SCORE:    0.00 PKD
ROOT
HETATM    1  C   UNL     1      -8.027  10.651  68.691  1.00  0.00    -0.128 C  
HETATM    2  C   UNL     1      -8.900  11.370  67.715  1.00  0.00    -0.143 C  
HETATM    3  C   UNL     1      -9.769  10.836  66.824  1.00  0.00    -0.221 C  
HETATM    4  C   UNL     1     -10.325  11.945  66.030  1.00  0.00    -0.268 A  
HETATM    5  C   UNL     1      -8.261  13.676  68.428  1.00  0.00    -0.146 C  
HETATM    6  C   UNL     1      -8.880  12.840  67.573  1.00  0.00    -0.187 C  
HETATM    7  C   UNL     1     -11.268  11.908  65.013  1.00  0.00    -0.350 A  
HETATM    8  C   UNL     1     -11.545  13.095  64.341  1.00  0.00    -0.377 A  
HETATM    9  C   UNL     1      -9.719  13.160  66.409  1.00  0.00    -0.269 A  
HETATM   10  C   UNL     1      -9.953  14.325  65.695  1.00  0.00    -0.346 A  
HETATM   11  F   UNL     1     -12.461  13.093  63.364  1.00  0.00    -0.523 F  
HETATM   12  C   UNL     1     -10.878  14.285  64.648  1.00  0.00    -0.384 A  
ENDROOT
BRANCH   3  13
HETATM   13  C   UNL     1     -10.082   9.403  66.523  1.00  0.00    -0.332 C  
HETATM   14  O   UNL     1      -8.058   9.324  65.142  1.00  0.00    -0.114 OA 
HETATM   15  C   UNL     1      -9.057   8.614  65.719  1.00  0.00    -0.187 C  
HETATM   16  O   UNL     1      -9.138   7.402  65.569  1.00  0.00     0.022 OA 
ENDBRANCH   3  13
BRANCH   5  17
HETATM   17  C   UNL     1      -8.250  15.145  68.440  1.00  0.00    -0.145 A  
HETATM   18  C   UNL     1      -9.357  15.865  68.905  1.00  0.00    -0.233 A  
HETATM   19  C   UNL     1      -9.315  17.267  68.986  1.00  0.00    -0.120 A  
HETATM   20  C   UNL     1      -8.159  17.964  68.615  1.00  0.00    -0.278 A  
HETATM   21  C   UNL     1      -7.058  17.236  68.144  1.00  0.00    -0.190 A  
HETATM   22  C   UNL     1      -7.101  15.839  68.058  1.00  0.00    -0.134 A  
BRANCH  20  23
HETATM   23  S   UNL     1      -8.109  19.776  68.604  1.00  0.00    -0.145 S  
HETATM   24  C   UNL     1      -6.482  20.063  69.336  1.00  0.00    -0.330 C  
HETATM   25  O   UNL     1      -8.023  20.174  67.159  1.00  0.00    -0.300 OA 
ENDBRANCH  20  23
ENDBRANCH   5  17
TORSDOF 3
ENDMDL
MODEL       61
REMARK 921   NORMALIZED FREE ENERGY PREDICTED BY IDOCK:   -4.93 KCAL/MOL
REMARK 922        TOTAL FREE ENERGY PREDICTED BY IDOCK:   -6.74 KCAL/MOL
REMARK 923 INTER-LIGAND FREE ENERGY PREDICTED BY IDOCK:   -7.09 KCAL/MOL
REMARK 924 INTRA-LIGAND FREE ENERGY PREDICTED BY IDOCK:    0.35 KCAL/MOL
REMARK 927      BINDING AFFINITY PREDICTED BY RF-SCORE:    0.00 PKD
ROOT
HETATM    1  C   UNL     1     -11.876   6.461  70.780  1.00  0.00    -0.319 C  
HETATM    2  C   UNL     1     -11.026   7.388  69.973  1.00  0.00    -0.264 C  
HETATM    3  C   UNL     1     -10.044   7.068  69.097  1.00  0.00    -0.183 C  
HETATM    4  C   UNL     1      -9.445   8.328  68.625  1.00  0.00    -0.147 A  
HETATM    5  C   UNL     1     -12.133   9.495  70.726  1.00  0.00    -0.305 C  
HETATM    6  C   UNL     1     -11.139   8.857  70.081  1.00  0.00    -0.217 C  
HETATM    7  C   UNL     1      -8.424   8.523  67.706  1.00  0.00    -0.130 A  
HETATM    8  C   UNL     1      -7.963   9.821  67.514  1.00  0.00    -0.106 A  
HETATM    9  C   UNL     1     -10.036   9.421  69.290  1.00  0.00    -0.200 A  
HETATM   10  C   UNL     1      -9.530  10.704  69.140  1.00  0.00    -0.185 A  
HETATM   11  F   UNL     1      -6.987  10.042  66.622  1.00  0.00    -0.080 F  
HETATM   12  C   UNL     1      -8.479  10.899  68.240  1.00  0.00    -0.134 A  
ENDROOT
BRANCH   3  13
HETATM   13  C   UNL     1      -9.497   5.729  68.710  1.00  0.00    -0.147 C  
HETATM   14  O   UNL     1     -10.965   5.774  66.747  1.00  0.00    -0.280 OA 
HETATM   15  C   UNL     1      -9.939   5.149  67.373  1.00  0.00    -0.180 C  
HETATM   16  O   UNL     1      -9.420   4.150  66.891  1.00  0.00    -0.164 OA 
ENDBRANCH   3  13
BRANCH   5  17
HETATM   17  C   UNL     1     -12.399  10.936  70.821  1.00  0.00    -0.487 A  
HETATM   18  C   UNL     1     -13.045  11.473  71.941  1.00  0.00    -0.492 A  
HETATM   19  C   UNL     1     -13.231  12.861  72.064  1.00  0.00    -0.549 A  
HETATM   20  C   UNL     1     -12.760  13.728  71.071  1.00  0.00    -0.343 A  
HETATM   21  C   UNL     1     -12.122  13.183  69.949  1.00  0.00    -0.357 A  
HETATM   22  C   UNL     1     -11.941  11.800  69.824  1.00  0.00    -0.392 A  
BRANCH  20  23
HETATM   23  S   UNL     1     -13.079  15.512  71.145  1.00  0.00    -0.463 S  
HETATM   24  C   UNL     1     -13.453  15.705  72.902  1.00  0.00    -0.568 C  
HETATM   25  O   UNL     1     -11.754  16.174  70.896  1.00  0.00    -0.398 OA 
ENDBRANCH  20  23
ENDBRANCH   5  17
TORSDOF 3
ENDMDL
MODEL       62
REMARK 921   NORMALIZED FREE ENERGY PREDICTED BY IDOCK:   -4.85 KCAL/MOL
REMARK 922        TOTAL FREE ENERGY PREDICTED BY IDOCK:   -6.65 KCAL/MOL
REMARK 923 INTER-LIGAND FREE ENERGY PREDICTED BY IDOCK:   -5.70 KCAL/MOL
REMARK 924 INTRA-LIGAND FREE ENERGY PREDICTED BY IDOCK:   -0.95 KCAL/MOL
REMARK 927      BINDING AFFINITY PREDICTED BY RF-SCORE:    0.00 PKD
ROOT
HETATM    1  C   UNL     1     -10.694   6.306  66.852  1.00  0.00    -0.411 C  
HETATM    2  C   UNL     1     -10.225   6.714  68.210  1.00  0.00    -0.190 C  
HETATM    3  C   UNL     1      -9.702   5.929  69.182  1.00  0.00    -0.176 C  
HETATM    4  C   UNL     1      -9.479   6.780  70.364  1.00  0.00    -0.168 A  
HETATM    5  C   UNL     1     -10.635   9.159  67.914  1.00  0.00    -0.272 C  
HETATM    6  C   UNL     1     -10.328   8.106  68.694  1.00  0.00    -0.224 C  
HETATM    7  C   UNL     1      -8.941   6.442  71.598  1.00  0.00    -0.144 A  
HETATM    8  C   UNL     1      -8.939   7.414  72.593  1.00  0.00    -0.137 A  
HETATM    9  C   UNL     1      -9.946   8.086  70.113  1.00  0.00    -0.191 A  
HETATM   10  C   UNL     1      -9.998   9.030  71.128  1.00  0.00    -0.365 A  
HETATM   11  F   UNL     1      -8.413   7.121  73.790  1.00  0.00    -0.136 F  
HETATM   12  C   UNL     1      -9.488   8.683  72.382  1.00  0.00    -0.295 A  
ENDROOT
BRANCH   3  13
HETATM   13  C   UNL     1      -9.478   4.449  69.209  1.00  0.00    -0.249 C  
HETATM   14  O   UNL     1      -7.405   4.811  67.951  1.00  0.00    -0.068 OA 
HETATM   15  C   UNL     1      -8.164   3.928  68.643  1.00  0.00    -0.074 C  
HETATM   16  O   UNL     1      -7.815   2.761  68.774  1.00  0.00    -0.053 OA 
ENDBRANCH   3  13
BRANCH   5  17
HETATM   17  C   UNL     1     -10.676  10.586  68.260  1.00  0.00    -0.270 A  
HETATM   18  C   UNL     1      -9.608  11.433  67.935  1.00  0.00    -0.180 A  
HETATM   19  C   UNL     1      -9.682  12.810  68.199  1.00  0.00    -0.223 A  
HETATM   20  C   UNL     1     -10.831  13.360  68.781  1.00  0.00    -0.246 A  
HETATM   21  C   UNL     1     -11.891  12.505  69.110  1.00  0.00    -0.348 A  
HETATM   22  C   UNL     1     -11.817  11.131  68.851  1.00  0.00    -0.406 A  
BRANCH  20  23
HETATM   23  S   UNL     1     -10.915  15.113  69.234  1.00  0.00    -0.274 S  
HETATM   24  C   UNL     1      -9.158  15.533  69.245  1.00  0.00    -0.266 C  
HETATM   25  O   UNL     1     -11.533  15.811  68.056  1.00  0.00    -0.338 OA 
ENDBRANCH  20  23
ENDBRANCH   5  17
TORSDOF 3
ENDMDL
MODEL       63
REMARK 921   NORMALIZED FREE ENERGY PREDICTED BY IDOCK:   -4.80 KCAL/MOL
REMARK 922        TOTAL FREE ENERGY PREDICTED BY IDOCK:   -6.59 KCAL/MOL
REMARK 923 INTER-LIGAND FREE ENERGY PREDICTED BY IDOCK:   -5.63 KCAL/MOL
REMARK 924 INTRA-LIGAND FREE ENERGY PREDICTED BY IDOCK:   -0.96 KCAL/MOL
REMARK 927      BINDING AFFINITY PREDICTED BY RF-SCORE:    0.00 PKD
ROOT
HETATM    1  C   UNL     1     -11.338   5.843  71.841  1.00  0.00    -0.307 C  
HETATM    2  C   UNL     1     -11.078   6.852  70.770  1.00  0.00    -0.317 C  
HETATM    3  C   UNL     1     -11.406   8.166  70.766  1.00  0.00    -0.283 C  
HETATM    4  C   UNL     1     -11.017   8.714  69.455  1.00  0.00    -0.067 A  
HETATM    5  C   UNL     1      -9.824   5.318  69.252  1.00  0.00    -0.256 C  
HETATM    6  C   UNL     1     -10.429   6.496  69.492  1.00  0.00    -0.265 C  
HETATM    7  C   UNL     1     -11.128  10.013  68.981  1.00  0.00    -0.221 A  
HETATM    8  C   UNL     1     -10.785  10.252  67.654  1.00  0.00    -0.288 A  
HETATM    9  C   UNL     1     -10.511   7.686  68.634  1.00  0.00    -0.203 A  
HETATM   10  C   UNL     1     -10.231   7.918  67.296  1.00  0.00    -0.343 A  
HETATM   11  F   UNL     1     -10.868  11.499  67.172  1.00  0.00    -0.246 F  
HETATM   12  C   UNL     1     -10.373   9.219  66.805  1.00  0.00    -0.296 A  
ENDROOT
BRANCH   3  13
HETATM   13  C   UNL     1     -12.145   8.978  71.784  1.00  0.00    -0.438 C  
HETATM   14  O   UNL     1     -14.203   7.837  71.098  1.00  0.00    -0.307 OA 
HETATM   15  C   UNL     1     -13.619   8.662  72.000  1.00  0.00    -0.412 C  
HETATM   16  O   UNL     1     -14.263   9.148  72.921  1.00  0.00    -0.512 OA 
ENDBRANCH   3  13
BRANCH   5  17
HETATM   17  C   UNL     1      -9.073   4.889  68.065  1.00  0.00    -0.131 A  
HETATM   18  C   UNL     1      -9.704   4.178  67.036  1.00  0.00    -0.230 A  
HETATM   19  C   UNL     1      -9.001   3.834  65.869  1.00  0.00    -0.135 A  
HETATM   20  C   UNL     1      -7.662   4.209  65.712  1.00  0.00    -0.090 A  
HETATM   21  C   UNL     1      -7.035   4.913  66.749  1.00  0.00    -0.067 A  
HETATM   22  C   UNL     1      -7.733   5.251  67.915  1.00  0.00    -0.088 A  
BRANCH  20  23
HETATM   23  S   UNL     1      -6.696   3.688  64.268  1.00  0.00    -0.045 S  
HETATM   24  C   UNL     1      -8.014   3.482  63.050  1.00  0.00    -0.072 C  
HETATM   25  O   UNL     1      -5.894   4.890  63.858  1.00  0.00    -0.017 OA 
ENDBRANCH  20  23
ENDBRANCH   5  17
TORSDOF 3
ENDMDL
MODEL       64
REMARK 921   NORMALIZED FREE ENERGY PREDICTED BY IDOCK:   -4.79 KCAL/MOL
REMARK 922        TOTAL FREE ENERGY PREDICTED BY IDOCK:   -6.58 KCAL/MOL
REMARK 923 INTER-LIGAND FREE ENERGY PREDICTED BY IDOCK:   -5.60 KCAL/MOL
REMARK 924 INTRA-LIGAND FREE ENERGY PREDICTED BY IDOCK:   -0.98 KCAL/MOL
REMARK 927      BINDING AFFINITY PREDICTED BY RF-SCORE:    0.00 PKD
ROOT
HETATM    1  C   UNL     1      -5.901  10.359  70.812  1.00  0.00    -0.093 C  
HETATM    2  C   UNL     1      -7.087   9.552  70.392  1.00  0.00    -0.120 C  
HETATM    3  C   UNL     1      -7.482   8.346  70.863  1.00  0.00    -0.066 C  
HETATM    4  C   UNL     1      -8.653   7.926  70.074  1.00  0.00    -0.135 A  
HETATM    5  C   UNL     1      -7.985  11.219  68.766  1.00  0.00    -0.137 C  
HETATM    6  C   UNL     1      -7.996   9.990  69.314  1.00  0.00    -0.130 C  
HETATM    7  C   UNL     1      -9.424   6.779  70.191  1.00  0.00    -0.159 A  
HETATM    8  C   UNL     1     -10.419   6.564  69.243  1.00  0.00    -0.219 A  
HETATM    9  C   UNL     1      -8.917   8.873  69.062  1.00  0.00    -0.137 A  
HETATM   10  C   UNL     1      -9.868   8.623  68.084  1.00  0.00    -0.192 A  
HETATM   11  F   UNL     1     -11.189   5.473  69.339  1.00  0.00    -0.374 F  
HETATM   12  C   UNL     1     -10.624   7.451  68.181  1.00  0.00    -0.216 A  
ENDROOT
BRANCH   3  13
HETATM   13  C   UNL     1      -6.850   7.456  71.888  1.00  0.00    -0.058 C  
HETATM   14  O   UNL     1      -8.133   8.642  73.607  1.00  0.00    -0.406 OA 
HETATM   15  C   UNL     1      -7.338   7.582  73.324  1.00  0.00    -0.084 C  
HETATM   16  O   UNL     1      -7.009   6.789  74.197  1.00  0.00    -0.089 OA 
ENDBRANCH   3  13
BRANCH   5  17
HETATM   17  C   UNL     1      -8.892  11.793  67.763  1.00  0.00    -0.163 A  
HETATM   18  C   UNL     1      -8.743  11.489  66.404  1.00  0.00    -0.179 A  
HETATM   19  C   UNL     1      -9.656  11.979  65.456  1.00  0.00    -0.174 A  
HETATM   20  C   UNL     1     -10.739  12.770  65.859  1.00  0.00    -0.270 A  
HETATM   21  C   UNL     1     -10.877  13.078  67.219  1.00  0.00    -0.270 A  
HETATM   22  C   UNL     1      -9.963  12.594  68.164  1.00  0.00    -0.225 A  
BRANCH  20  23
HETATM   23  S   UNL     1     -11.872  13.508  64.652  1.00  0.00    -0.415 S  
HETATM   24  C   UNL     1     -12.316  12.048  63.685  1.00  0.00    -0.539 C  
HETATM   25  O   UNL     1     -13.091  13.914  65.430  1.00  0.00    -0.752 OA 
ENDBRANCH  20  23
ENDBRANCH   5  17
TORSDOF 3
ENDMDL
MODEL       65
REMARK 921   NORMALIZED FREE ENERGY PREDICTED BY IDOCK:   -4.74 KCAL/MOL
REMARK 922        TOTAL FREE ENERGY PREDICTED BY IDOCK:   -6.52 KCAL/MOL
REMARK 923 INTER-LIGAND FREE ENERGY PREDICTED BY IDOCK:   -5.51 KCAL/MOL
REMARK 924 INTRA-LIGAND FREE ENERGY PREDICTED BY IDOCK:   -1.02 KCAL/MOL
REMARK 927      BINDING AFFINITY PREDICTED BY RF-SCORE:    0.00 PKD
ROOT
HETATM    1  C   UNL     1      -7.272   9.674  68.279  1.00  0.00    -0.079 C  
HETATM    2  C   UNL     1      -8.570   9.735  69.016  1.00  0.00    -0.146 C  
HETATM    3  C   UNL     1      -9.499  10.720  68.987  1.00  0.00    -0.179 C  
HETATM    4  C   UNL     1     -10.556  10.358  69.947  1.00  0.00    -0.299 A  
HETATM    5  C   UNL     1      -8.385   7.483  70.076  1.00  0.00    -0.136 C  
HETATM    6  C   UNL     1      -8.994   8.677  69.955  1.00  0.00    -0.148 C  
HETATM    7  C   UNL     1     -11.726  11.035  70.258  1.00  0.00    -0.445 A  
HETATM    8  C   UNL     1     -12.512  10.534  71.291  1.00  0.00    -0.419 A  
HETATM    9  C   UNL     1     -10.212   9.165  70.616  1.00  0.00    -0.306 A  
HETATM   10  C   UNL     1     -10.967   8.706  71.684  1.00  0.00    -0.378 A  
HETATM   11  F   UNL     1     -13.655  11.158  71.604  1.00  0.00    -0.356 F  
HETATM   12  C   UNL     1     -12.130   9.404  72.022  1.00  0.00    -0.379 A  
ENDROOT
BRANCH   3  13
HETATM   13  C   UNL     1      -9.492  12.030  68.262  1.00  0.00    -0.199 C  
HETATM   14  O   UNL     1     -10.797  10.971  66.478  1.00  0.00    -0.261 OA 
HETATM   15  C   UNL     1     -10.315  12.130  66.985  1.00  0.00    -0.211 C  
HETATM   16  O   UNL     1     -10.511  13.197  66.417  1.00  0.00    -0.275 OA 
ENDBRANCH   3  13
BRANCH   5  17
HETATM   17  C   UNL     1      -8.767   6.328  70.900  1.00  0.00    -0.136 A  
HETATM   18  C   UNL     1      -9.672   5.374  70.421  1.00  0.00    -0.254 A  
HETATM   19  C   UNL     1      -9.978   4.232  71.181  1.00  0.00    -0.226 A  
HETATM   20  C   UNL     1      -9.371   4.027  72.426  1.00  0.00    -0.122 A  
HETATM   21  C   UNL     1      -8.472   4.990  72.902  1.00  0.00    -0.115 A  
HETATM   22  C   UNL     1      -8.171   6.131  72.147  1.00  0.00    -0.110 A  
BRANCH  20  23
HETATM   23  S   UNL     1      -9.825   2.622  73.479  1.00  0.00    -0.105 S  
HETATM   24  C   UNL     1      -8.307   2.432  74.441  1.00  0.00    -0.066 C  
HETATM   25  O   UNL     1     -10.882   3.137  74.413  1.00  0.00    -0.158 OA 
ENDBRANCH  20  23
ENDBRANCH   5  17
TORSDOF 3
ENDMDL
MODEL       66
REMARK 921   NORMALIZED FREE ENERGY PREDICTED BY IDOCK:   -4.74 KCAL/MOL
REMARK 922        TOTAL FREE ENERGY PREDICTED BY IDOCK:   -6.52 KCAL/MOL
REMARK 923 INTER-LIGAND FREE ENERGY PREDICTED BY IDOCK:   -6.13 KCAL/MOL
REMARK 924 INTRA-LIGAND FREE ENERGY PREDICTED BY IDOCK:   -0.38 KCAL/MOL
REMARK 927      BINDING AFFINITY PREDICTED BY RF-SCORE:    0.00 PKD
ROOT
HETATM    1  C   UNL     1     -12.761   6.135  72.116  1.00  0.00     0.155 C  
HETATM    2  C   UNL     1     -11.483   6.712  71.601  1.00  0.00    -0.332 C  
HETATM    3  C   UNL     1     -10.306   6.076  71.391  1.00  0.00    -0.269 C  
HETATM    4  C   UNL     1      -9.326   7.089  70.963  1.00  0.00    -0.159 A  
HETATM    5  C   UNL     1     -12.363   9.016  71.215  1.00  0.00    -0.361 C  
HETATM    6  C   UNL     1     -11.337   8.148  71.284  1.00  0.00    -0.300 C  
HETATM    7  C   UNL     1      -7.994   6.925  70.610  1.00  0.00    -0.109 A  
HETATM    8  C   UNL     1      -7.247   8.069  70.347  1.00  0.00    -0.049 A  
HETATM    9  C   UNL     1      -9.915   8.370  70.989  1.00  0.00    -0.235 A  
HETATM   10  C   UNL     1      -9.149   9.508  70.786  1.00  0.00    -0.176 A  
HETATM   11  F   UNL     1      -5.962   7.942  69.990  1.00  0.00    -0.023 F  
HETATM   12  C   UNL     1      -7.799   9.349  70.463  1.00  0.00    -0.185 A  
ENDROOT
BRANCH   3  13
HETATM   13  C   UNL     1      -9.924   4.650  71.641  1.00  0.00    -0.262 C  
HETATM   14  O   UNL     1      -9.940   4.293  69.216  1.00  0.00    -0.167 OA 
HETATM   15  C   UNL     1      -9.618   3.781  70.428  1.00  0.00    -0.192 C  
HETATM   16  O   UNL     1      -9.135   2.661  70.533  1.00  0.00    -0.091 OA 
ENDBRANCH   3  13
BRANCH   5  17
HETATM   17  C   UNL     1     -12.352  10.432  70.822  1.00  0.00    -0.463 A  
HETATM   18  C   UNL     1     -12.866  11.416  71.675  1.00  0.00    -0.497 A  
HETATM   19  C   UNL     1     -12.787  12.775  71.330  1.00  0.00    -0.371 A  
HETATM   20  C   UNL     1     -12.178  13.167  70.132  1.00  0.00    -0.290 A  
HETATM   21  C   UNL     1     -11.673  12.176  69.280  1.00  0.00    -0.386 A  
HETATM   22  C   UNL     1     -11.757  10.821  69.621  1.00  0.00    -0.395 A  
BRANCH  20  23
HETATM   23  S   UNL     1     -12.156  14.902  69.605  1.00  0.00    -0.273 S  
HETATM   24  C   UNL     1     -12.889  15.693  71.054  1.00  0.00    -0.463 C  
HETATM   25  O   UNL     1     -10.707  15.298  69.566  1.00  0.00    -0.238 OA 
ENDBRANCH  20  23
ENDBRANCH   5  17
TORSDOF 3
ENDMDL
MODEL       67
REMARK 921   NORMALIZED FREE ENERGY PREDICTED BY IDOCK:   -4.65 KCAL/MOL
REMARK 922        TOTAL FREE ENERGY PREDICTED BY IDOCK:   -6.41 KCAL/MOL
REMARK 923 INTER-LIGAND FREE ENERGY PREDICTED BY IDOCK:   -7.25 KCAL/MOL
REMARK 924 INTRA-LIGAND FREE ENERGY PREDICTED BY IDOCK:    0.84 KCAL/MOL
REMARK 927      BINDING AFFINITY PREDICTED BY RF-SCORE:    0.00 PKD
ROOT
HETATM    1  C   UNL     1     -10.626   6.864  69.469  1.00  0.00    -0.261 C  
HETATM    2  C   UNL     1     -10.450   7.891  68.399  1.00  0.00    -0.207 C  
HETATM    3  C   UNL     1      -9.992   7.711  67.138  1.00  0.00    -0.297 C  
HETATM    4  C   UNL     1      -9.920   9.037  66.500  1.00  0.00    -0.355 A  
HETATM    5  C   UNL     1     -11.371   9.806  69.710  1.00  0.00    -0.201 C  
HETATM    6  C   UNL     1     -10.735   9.323  68.627  1.00  0.00    -0.180 C  
HETATM    7  C   UNL     1      -9.533   9.369  65.210  1.00  0.00    -0.296 A  
HETATM    8  C   UNL     1      -9.447  10.720  64.885  1.00  0.00    -0.242 A  
HETATM    9  C   UNL     1     -10.276  10.038  67.427  1.00  0.00    -0.269 A  
HETATM   10  C   UNL     1     -10.128  11.381  67.117  1.00  0.00    -0.226 A  
HETATM   11  F   UNL     1      -9.090  11.071  63.642  1.00  0.00    -0.197 F  
HETATM   12  C   UNL     1      -9.707  11.720  65.827  1.00  0.00    -0.260 A  
ENDROOT
BRANCH   3  13
HETATM   13  C   UNL     1      -9.495   6.471  66.460  1.00  0.00    -0.190 C  
HETATM   14  O   UNL     1      -7.278   6.931  67.398  1.00  0.00    -0.085 OA 
HETATM   15  C   UNL     1      -8.063   6.042  66.745  1.00  0.00    -0.105 C  
HETATM   16  O   UNL     1      -7.621   4.960  66.379  1.00  0.00    -0.086 OA 
ENDBRANCH   3  13
BRANCH   5  17
HETATM   17  C   UNL     1     -11.787  11.185  70.001  1.00  0.00    -0.441 A  
HETATM   18  C   UNL     1     -12.572  11.474  71.124  1.00  0.00    -0.463 A  
HETATM   19  C   UNL     1     -12.906  12.802  71.440  1.00  0.00    -0.371 A  
HETATM   20  C   UNL     1     -12.447  13.857  70.642  1.00  0.00    -0.366 A  
HETATM   21  C   UNL     1     -11.669  13.558  69.515  1.00  0.00    -0.382 A  
HETATM   22  C   UNL     1     -11.341  12.235  69.196  1.00  0.00    -0.330 A  
BRANCH  20  23
HETATM   23  S   UNL     1     -12.950  15.570  70.959  1.00  0.00    -0.448 S  
HETATM   24  C   UNL     1     -13.861  15.363  72.505  1.00  0.00    -0.553 C  
HETATM   25  O   UNL     1     -11.685  16.313  71.283  1.00  0.00    -0.435 OA 
ENDBRANCH  20  23
ENDBRANCH   5  17
TORSDOF 3
ENDMDL
MODEL       68
REMARK 921   NORMALIZED FREE ENERGY PREDICTED BY IDOCK:   -4.65 KCAL/MOL
REMARK 922        TOTAL FREE ENERGY PREDICTED BY IDOCK:   -6.41 KCAL/MOL
REMARK 923 INTER-LIGAND FREE ENERGY PREDICTED BY IDOCK:   -5.42 KCAL/MOL
REMARK 924 INTRA-LIGAND FREE ENERGY PREDICTED BY IDOCK:   -0.99 KCAL/MOL
REMARK 927      BINDING AFFINITY PREDICTED BY RF-SCORE:    0.00 PKD
ROOT
HETATM    1  C   UNL     1     -11.138   6.440  66.986  1.00  0.00    -0.405 C  
HETATM    2  C   UNL     1     -10.055   7.198  67.681  1.00  0.00    -0.229 C  
HETATM    3  C   UNL     1      -9.035   6.704  68.422  1.00  0.00    -0.123 C  
HETATM    4  C   UNL     1      -8.288   7.851  68.966  1.00  0.00    -0.130 A  
HETATM    5  C   UNL     1     -10.757   9.459  66.888  1.00  0.00    -0.174 C  
HETATM    6  C   UNL     1      -9.998   8.675  67.675  1.00  0.00    -0.248 C  
HETATM    7  C   UNL     1      -7.153   7.859  69.763  1.00  0.00    -0.061 A  
HETATM    8  C   UNL     1      -6.702   9.087  70.239  1.00  0.00    -0.047 A  
HETATM    9  C   UNL     1      -8.922   9.057  68.600  1.00  0.00    -0.137 A  
HETATM   10  C   UNL     1      -8.504  10.269  69.128  1.00  0.00    -0.164 A  
HETATM   11  F   UNL     1      -5.599   9.127  70.999  1.00  0.00    -0.031 F  
HETATM   12  C   UNL     1      -7.380  10.277  69.959  1.00  0.00    -0.157 A  
ENDROOT
BRANCH   3  13
HETATM   13  C   UNL     1      -8.711   5.291  68.795  1.00  0.00    -0.093 C  
HETATM   14  O   UNL     1     -10.457   5.418  70.511  1.00  0.00    -0.260 OA 
HETATM   15  C   UNL     1      -9.597   4.619  69.836  1.00  0.00    -0.191 C  
HETATM   16  O   UNL     1      -9.521   3.422  70.082  1.00  0.00    -0.166 OA 
ENDBRANCH   3  13
BRANCH   5  17
HETATM   17  C   UNL     1     -10.724  10.919  66.728  1.00  0.00    -0.309 A  
HETATM   18  C   UNL     1      -9.894  11.517  65.772  1.00  0.00    -0.266 A  
HETATM   19  C   UNL     1      -9.920  12.907  65.571  1.00  0.00    -0.226 A  
HETATM   20  C   UNL     1     -10.787  13.714  66.316  1.00  0.00    -0.282 A  
HETATM   21  C   UNL     1     -11.609  13.110  67.277  1.00  0.00    -0.404 A  
HETATM   22  C   UNL     1     -11.579  11.725  67.482  1.00  0.00    -0.361 A  
BRANCH  20  23
HETATM   23  S   UNL     1     -10.768  15.521  66.159  1.00  0.00    -0.296 S  
HETATM   24  C   UNL     1     -10.786  16.001  67.900  1.00  0.00    -0.316 C  
HETATM   25  O   UNL     1      -9.411  15.869  65.615  1.00  0.00    -0.343 OA 
ENDBRANCH  20  23
ENDBRANCH   5  17
TORSDOF 3
ENDMDL
MODEL       69
REMARK 921   NORMALIZED FREE ENERGY PREDICTED BY IDOCK:   -4.63 KCAL/MOL
REMARK 922        TOTAL FREE ENERGY PREDICTED BY IDOCK:   -6.39 KCAL/MOL
REMARK 923 INTER-LIGAND FREE ENERGY PREDICTED BY IDOCK:   -5.34 KCAL/MOL
REMARK 924 INTRA-LIGAND FREE ENERGY PREDICTED BY IDOCK:   -1.06 KCAL/MOL
REMARK 927      BINDING AFFINITY PREDICTED BY RF-SCORE:    0.00 PKD
ROOT
HETATM    1  C   UNL     1      -8.435   6.212  67.500  1.00  0.00    -0.108 C  
HETATM    2  C   UNL     1      -9.269   7.008  68.450  1.00  0.00    -0.129 C  
HETATM    3  C   UNL     1     -10.078   6.549  69.434  1.00  0.00    -0.198 C  
HETATM    4  C   UNL     1     -10.749   7.715  70.034  1.00  0.00    -0.245 A  
HETATM    5  C   UNL     1      -8.525   9.252  67.648  1.00  0.00    -0.116 C  
HETATM    6  C   UNL     1      -9.342   8.482  68.391  1.00  0.00    -0.137 C  
HETATM    7  C   UNL     1     -11.652   7.761  71.086  1.00  0.00    -0.301 A  
HETATM    8  C   UNL     1     -12.230   8.989  71.393  1.00  0.00    -0.323 A  
HETATM    9  C   UNL     1     -10.385   8.889  69.343  1.00  0.00    -0.217 A  
HETATM   10  C   UNL     1     -11.011  10.096  69.613  1.00  0.00    -0.305 A  
HETATM   11  F   UNL     1     -13.094   9.067  72.414  1.00  0.00    -0.396 F  
HETATM   12  C   UNL     1     -11.945  10.140  70.652  1.00  0.00    -0.423 A  
ENDROOT
BRANCH   3  13
HETATM   13  C   UNL     1     -10.410   5.144  69.832  1.00  0.00    -0.347 C  
HETATM   14  O   UNL     1      -8.620   5.270  71.503  1.00  0.00    -0.126 OA 
HETATM   15  C   UNL     1      -9.676   4.563  71.034  1.00  0.00    -0.189 C  
HETATM   16  O   UNL     1      -9.995   3.495  71.540  1.00  0.00    -0.172 OA 
ENDBRANCH   3  13
BRANCH   5  17
HETATM   17  C   UNL     1      -8.443  10.717  67.580  1.00  0.00    -0.119 A  
HETATM   18  C   UNL     1      -9.176  11.432  66.625  1.00  0.00    -0.191 A  
HETATM   19  C   UNL     1      -9.154  12.837  66.611  1.00  0.00    -0.188 A  
HETATM   20  C   UNL     1      -8.408  13.543  67.561  1.00  0.00    -0.184 A  
HETATM   21  C   UNL     1      -7.671  12.821  68.509  1.00  0.00    -0.113 A  
HETATM   22  C   UNL     1      -7.688  11.420  68.520  1.00  0.00    -0.133 A  
BRANCH  20  23
HETATM   23  S   UNL     1      -8.271  15.350  67.504  1.00  0.00    -0.183 S  
HETATM   24  C   UNL     1      -8.345  15.740  69.266  1.00  0.00    -0.249 C  
HETATM   25  O   UNL     1      -6.870  15.639  67.043  1.00  0.00    -0.246 OA 
ENDBRANCH  20  23
ENDBRANCH   5  17
TORSDOF 3
ENDMDL
MODEL       70
REMARK 921   NORMALIZED FREE ENERGY PREDICTED BY IDOCK:   -4.62 KCAL/MOL
REMARK 922        TOTAL FREE ENERGY PREDICTED BY IDOCK:   -6.38 KCAL/MOL
REMARK 923 INTER-LIGAND FREE ENERGY PREDICTED BY IDOCK:   -5.46 KCAL/MOL
REMARK 924 INTRA-LIGAND FREE ENERGY PREDICTED BY IDOCK:   -0.92 KCAL/MOL
REMARK 927      BINDING AFFINITY PREDICTED BY RF-SCORE:    0.00 PKD
ROOT
HETATM    1  C   UNL     1      -8.133  12.516  68.729  1.00  0.00     0.087 C  
HETATM    2  C   UNL     1      -8.855  12.540  67.422  1.00  0.00    -0.187 C  
HETATM    3  C   UNL     1      -9.625  13.532  66.914  1.00  0.00    -0.258 C  
HETATM    4  C   UNL     1     -10.185  13.047  65.641  1.00  0.00    -0.296 A  
HETATM    5  C   UNL     1      -8.034  10.324  66.618  1.00  0.00    -0.116 C  
HETATM    6  C   UNL     1      -8.845  11.391  66.494  1.00  0.00    -0.187 C  
HETATM    7  C   UNL     1     -11.013  13.703  64.741  1.00  0.00    -0.384 A  
HETATM    8  C   UNL     1     -11.497  12.979  63.656  1.00  0.00    -0.392 A  
HETATM    9  C   UNL     1      -9.798  11.709  65.421  1.00  0.00    -0.268 A  
HETATM   10  C   UNL     1     -10.333  10.976  64.373  1.00  0.00    -0.424 A  
HETATM   11  F   UNL     1     -12.287  13.591  62.763  1.00  0.00    -0.476 F  
HETATM   12  C   UNL     1     -11.194  11.625  63.483  1.00  0.00    -0.462 A  
ENDROOT
BRANCH   3  13
HETATM   13  C   UNL     1     -10.011  14.852  67.506  1.00  0.00    -0.219 C  
HETATM   14  O   UNL     1     -12.144  13.846  68.177  1.00  0.00    -0.365 OA 
HETATM   15  C   UNL     1     -11.321  14.917  68.280  1.00  0.00    -0.310 C  
HETATM   16  O   UNL     1     -11.640  15.897  68.941  1.00  0.00    -0.371 OA 
ENDBRANCH   3  13
BRANCH   5  17
HETATM   17  C   UNL     1      -7.871   9.176  65.716  1.00  0.00    -0.098 A  
HETATM   18  C   UNL     1      -8.476   7.946  66.005  1.00  0.00    -0.145 A  
HETATM   19  C   UNL     1      -8.381   6.873  65.104  1.00  0.00    -0.080 A  
HETATM   20  C   UNL     1      -7.688   7.021  63.896  1.00  0.00    -0.119 A  
HETATM   21  C   UNL     1      -7.078   8.252  63.619  1.00  0.00    -0.086 A  
HETATM   22  C   UNL     1      -7.168   9.321  64.519  1.00  0.00    -0.101 A  
BRANCH  20  23
HETATM   23  S   UNL     1      -7.453   5.626  62.763  1.00  0.00    -0.063 S  
HETATM   24  C   UNL     1      -6.196   4.686  63.658  1.00  0.00    -0.022 C  
HETATM   25  O   UNL     1      -8.727   4.833  62.821  1.00  0.00    -0.120 OA 
ENDBRANCH  20  23
ENDBRANCH   5  17
TORSDOF 3
ENDMDL
MODEL       71
REMARK 921   NORMALIZED FREE ENERGY PREDICTED BY IDOCK:   -4.56 KCAL/MOL
REMARK 922        TOTAL FREE ENERGY PREDICTED BY IDOCK:   -6.30 KCAL/MOL
REMARK 923 INTER-LIGAND FREE ENERGY PREDICTED BY IDOCK:   -5.28 KCAL/MOL
REMARK 924 INTRA-LIGAND FREE ENERGY PREDICTED BY IDOCK:   -1.03 KCAL/MOL
REMARK 927      BINDING AFFINITY PREDICTED BY RF-SCORE:    0.00 PKD
ROOT
HETATM    1  C   UNL     1     -10.693   5.681  66.709  1.00  0.00    -0.358 C  
HETATM    2  C   UNL     1      -9.804   6.426  67.650  1.00  0.00    -0.138 C  
HETATM    3  C   UNL     1      -8.889   5.919  68.510  1.00  0.00    -0.111 C  
HETATM    4  C   UNL     1      -8.335   7.046  69.280  1.00  0.00    -0.129 A  
HETATM    5  C   UNL     1     -10.531   8.711  66.956  1.00  0.00    -0.354 C  
HETATM    6  C   UNL     1      -9.859   7.896  67.790  1.00  0.00    -0.204 C  
HETATM    7  C   UNL     1      -7.355   7.038  70.262  1.00  0.00    -0.084 A  
HETATM    8  C   UNL     1      -7.086   8.234  70.921  1.00  0.00    -0.053 A  
HETATM    9  C   UNL     1      -8.987   8.243  68.921  1.00  0.00    -0.144 A  
HETATM   10  C   UNL     1      -8.759   9.416  69.623  1.00  0.00    -0.172 A  
HETATM   11  F   UNL     1      -6.134   8.260  71.864  1.00  0.00    -0.038 F  
HETATM   12  C   UNL     1      -7.795   9.405  70.636  1.00  0.00    -0.178 A  
ENDROOT
BRANCH   3  13
HETATM   13  C   UNL     1      -8.527   4.496  68.803  1.00  0.00    -0.093 C  
HETATM   14  O   UNL     1     -10.260   4.485  70.537  1.00  0.00    -0.204 OA 
HETATM   15  C   UNL     1      -9.386   3.746  69.813  1.00  0.00    -0.175 C  
HETATM   16  O   UNL     1      -9.278   2.540  69.992  1.00  0.00    -0.106 OA 
ENDBRANCH   3  13
BRANCH   5  17
HETATM   17  C   UNL     1     -10.583  10.179  66.940  1.00  0.00    -0.267 A  
HETATM   18  C   UNL     1     -11.520  10.872  67.716  1.00  0.00    -0.323 A  
HETATM   19  C   UNL     1     -11.518  12.276  67.757  1.00  0.00    -0.392 A  
HETATM   20  C   UNL     1     -10.569  13.005  67.030  1.00  0.00    -0.257 A  
HETATM   21  C   UNL     1      -9.639  12.305  66.249  1.00  0.00    -0.248 A  
HETATM   22  C   UNL     1      -9.644  10.905  66.204  1.00  0.00    -0.239 A  
BRANCH  20  23
HETATM   23  S   UNL     1     -10.607  14.816  66.973  1.00  0.00    -0.295 S  
HETATM   24  C   UNL     1     -11.157  15.079  65.272  1.00  0.00    -0.386 C  
HETATM   25  O   UNL     1     -11.735  15.230  67.875  1.00  0.00    -0.328 OA 
ENDBRANCH  20  23
ENDBRANCH   5  17
TORSDOF 3
ENDMDL
MODEL       72
REMARK 921   NORMALIZED FREE ENERGY PREDICTED BY IDOCK:   -4.54 KCAL/MOL
REMARK 922        TOTAL FREE ENERGY PREDICTED BY IDOCK:   -6.28 KCAL/MOL
REMARK 923 INTER-LIGAND FREE ENERGY PREDICTED BY IDOCK:   -5.40 KCAL/MOL
REMARK 924 INTRA-LIGAND FREE ENERGY PREDICTED BY IDOCK:   -0.88 KCAL/MOL
REMARK 927      BINDING AFFINITY PREDICTED BY RF-SCORE:    0.00 PKD
ROOT
HETATM    1  C   UNL     1      -8.741   8.494  64.622  1.00  0.00    -0.023 C  
HETATM    2  C   UNL     1      -9.123   8.347  66.059  1.00  0.00    -0.235 C  
HETATM    3  C   UNL     1      -9.137   7.217  66.806  1.00  0.00    -0.169 C  
HETATM    4  C   UNL     1      -9.670   7.571  68.132  1.00  0.00    -0.167 A  
HETATM    5  C   UNL     1      -9.540  10.772  66.478  1.00  0.00    -0.217 C  
HETATM    6  C   UNL     1      -9.604   9.486  66.868  1.00  0.00    -0.217 C  
HETATM    7  C   UNL     1      -9.856   6.765  69.246  1.00  0.00    -0.160 A  
HETATM    8  C   UNL     1     -10.486   7.322  70.354  1.00  0.00    -0.220 A  
HETATM    9  C   UNL     1     -10.051   8.929  68.152  1.00  0.00    -0.227 A  
HETATM   10  C   UNL     1     -10.733   9.460  69.236  1.00  0.00    -0.228 A  
HETATM   11  F   UNL     1     -10.666   6.572  71.449  1.00  0.00    -0.241 F  
HETATM   12  C   UNL     1     -10.952   8.641  70.348  1.00  0.00    -0.256 A  
ENDROOT
BRANCH   3  13
HETATM   13  C   UNL     1      -8.823   5.804  66.422  1.00  0.00    -0.131 C  
HETATM   14  O   UNL     1     -11.231   5.401  66.208  1.00  0.00    -0.043 OA 
HETATM   15  C   UNL     1      -9.984   4.919  65.991  1.00  0.00    -0.223 C  
HETATM   16  O   UNL     1      -9.812   3.811  65.499  1.00  0.00    -0.172 OA 
ENDBRANCH   3  13
BRANCH   5  17
HETATM   17  C   UNL     1      -9.897  11.985  67.227  1.00  0.00    -0.200 A  
HETATM   18  C   UNL     1      -8.908  12.771  67.832  1.00  0.00    -0.186 A  
HETATM   19  C   UNL     1      -9.245  13.969  68.482  1.00  0.00    -0.170 A  
HETATM   20  C   UNL     1     -10.576  14.402  68.525  1.00  0.00    -0.255 A  
HETATM   21  C   UNL     1     -11.561  13.606  67.925  1.00  0.00    -0.376 A  
HETATM   22  C   UNL     1     -11.226  12.408  67.280  1.00  0.00    -0.357 A  
BRANCH  20  23
HETATM   23  S   UNL     1     -11.060  15.885  69.449  1.00  0.00    -0.351 S  
HETATM   24  C   UNL     1     -10.887  17.142  68.163  1.00  0.00    -0.316 C  
HETATM   25  O   UNL     1     -12.528  15.732  69.728  1.00  0.00    -0.262 OA 
ENDBRANCH  20  23
ENDBRANCH   5  17
TORSDOF 3
ENDMDL
MODEL       73
REMARK 921   NORMALIZED FREE ENERGY PREDICTED BY IDOCK:   -4.52 KCAL/MOL
REMARK 922        TOTAL FREE ENERGY PREDICTED BY IDOCK:   -6.26 KCAL/MOL
REMARK 923 INTER-LIGAND FREE ENERGY PREDICTED BY IDOCK:   -5.25 KCAL/MOL
REMARK 924 INTRA-LIGAND FREE ENERGY PREDICTED BY IDOCK:   -1.02 KCAL/MOL
REMARK 927      BINDING AFFINITY PREDICTED BY RF-SCORE:    0.00 PKD
ROOT
HETATM    1  C   UNL     1      -6.730   6.438  63.900  1.00  0.00    -0.037 C  
HETATM    2  C   UNL     1      -7.670   6.475  65.061  1.00  0.00    -0.103 C  
HETATM    3  C   UNL     1      -7.927   5.492  65.956  1.00  0.00    -0.106 C  
HETATM    4  C   UNL     1      -8.989   5.979  66.854  1.00  0.00    -0.117 A  
HETATM    5  C   UNL     1      -8.369   8.853  64.767  1.00  0.00    -0.184 C  
HETATM    6  C   UNL     1      -8.513   7.652  65.355  1.00  0.00    -0.110 C  
HETATM    7  C   UNL     1      -9.575   5.348  67.941  1.00  0.00    -0.152 A  
HETATM    8  C   UNL     1     -10.644   5.985  68.563  1.00  0.00    -0.265 A  
HETATM    9  C   UNL     1      -9.423   7.255  66.439  1.00  0.00    -0.185 A  
HETATM   10  C   UNL     1     -10.528   7.855  67.023  1.00  0.00    -0.419 A  
HETATM   11  F   UNL     1     -11.222   5.406  69.624  1.00  0.00    -0.341 F  
HETATM   12  C   UNL     1     -11.143   7.206  68.098  1.00  0.00    -0.027 A  
ENDROOT
BRANCH   3  13
HETATM   13  C   UNL     1      -7.397   4.094  66.032  1.00  0.00    -0.080 C  
HETATM   14  O   UNL     1      -9.276   3.379  64.630  1.00  0.00    -0.127 OA 
HETATM   15  C   UNL     1      -8.095   3.031  65.194  1.00  0.00    -0.086 C  
HETATM   16  O   UNL     1      -7.637   1.905  65.055  1.00  0.00    -0.064 OA 
ENDBRANCH   3  13
BRANCH   5  17
HETATM   17  C   UNL     1      -9.080  10.109  65.041  1.00  0.00    -0.245 A  
HETATM   18  C   UNL     1      -8.659  10.961  66.070  1.00  0.00    -0.179 A  
HETATM   19  C   UNL     1      -9.294  12.196  66.282  1.00  0.00    -0.221 A  
HETATM   20  C   UNL     1     -10.351  12.599  65.457  1.00  0.00    -0.286 A  
HETATM   21  C   UNL     1     -10.771  11.739  64.435  1.00  0.00    -0.381 A  
HETATM   22  C   UNL     1     -10.142  10.505  64.226  1.00  0.00    -0.380 A  
BRANCH  20  23
HETATM   23  S   UNL     1     -11.262  14.135  65.771  1.00  0.00    -0.319 S  
HETATM   24  C   UNL     1     -12.185  14.289  64.225  1.00  0.00    -0.423 C  
HETATM   25  O   UNL     1     -12.254  13.809  66.851  1.00  0.00    -0.410 OA 
ENDBRANCH  20  23
ENDBRANCH   5  17
TORSDOF 3
ENDMDL
MODEL       74
REMARK 921   NORMALIZED FREE ENERGY PREDICTED BY IDOCK:   -4.49 KCAL/MOL
REMARK 922        TOTAL FREE ENERGY PREDICTED BY IDOCK:   -6.22 KCAL/MOL
REMARK 923 INTER-LIGAND FREE ENERGY PREDICTED BY IDOCK:   -5.22 KCAL/MOL
REMARK 924 INTRA-LIGAND FREE ENERGY PREDICTED BY IDOCK:   -1.00 KCAL/MOL
REMARK 927      BINDING AFFINITY PREDICTED BY RF-SCORE:    0.00 PKD
ROOT
HETATM    1  C   UNL     1     -10.507   8.687  72.168  1.00  0.00    -0.411 C  
HETATM    2  C   UNL     1      -9.731   8.431  70.917  1.00  0.00    -0.212 C  
HETATM    3  C   UNL     1      -8.949   7.365  70.625  1.00  0.00    -0.155 C  
HETATM    4  C   UNL     1      -8.331   7.617  69.311  1.00  0.00    -0.134 A  
HETATM    5  C   UNL     1     -10.499  10.472  69.701  1.00  0.00    -0.257 C  
HETATM    6  C   UNL     1      -9.693   9.399  69.801  1.00  0.00    -0.215 C  
HETATM    7  C   UNL     1      -7.472   6.812  68.578  1.00  0.00    -0.092 A  
HETATM    8  C   UNL     1      -6.937   7.333  67.404  1.00  0.00    -0.079 A  
HETATM    9  C   UNL     1      -8.698   8.896  68.843  1.00  0.00    -0.136 A  
HETATM   10  C   UNL     1      -8.114   9.432  67.706  1.00  0.00    -0.107 A  
HETATM   11  F   UNL     1      -6.116   6.573  66.667  1.00  0.00    -0.027 F  
HETATM   12  C   UNL     1      -7.222   8.636  66.982  1.00  0.00    -0.076 A  
ENDROOT
BRANCH   3  13
HETATM   13  C   UNL     1      -8.598   6.170  71.456  1.00  0.00    -0.131 C  
HETATM   14  O   UNL     1     -10.516   5.007  70.468  1.00  0.00    -0.240 OA 
HETATM   15  C   UNL     1      -9.402   4.897  71.230  1.00  0.00    -0.150 C  
HETATM   16  O   UNL     1      -9.084   3.827  71.732  1.00  0.00    -0.103 OA 
ENDBRANCH   3  13
BRANCH   5  17
HETATM   17  C   UNL     1     -10.615  11.443  68.605  1.00  0.00    -0.229 A  
HETATM   18  C   UNL     1      -9.996  12.697  68.690  1.00  0.00    -0.106 A  
HETATM   19  C   UNL     1     -10.046  13.594  67.610  1.00  0.00    -0.242 A  
HETATM   20  C   UNL     1     -10.706  13.242  66.426  1.00  0.00    -0.285 A  
HETATM   21  C   UNL     1     -11.329  11.989  66.352  1.00  0.00    -0.411 A  
HETATM   22  C   UNL     1     -11.285  11.096  67.430  1.00  0.00    -0.363 A  
BRANCH  20  23
HETATM   23  S   UNL     1     -10.882  14.416  65.056  1.00  0.00    -0.428 S  
HETATM   24  C   UNL     1     -12.653  14.272  64.728  1.00  0.00    -0.291 C  
HETATM   25  O   UNL     1     -10.648  15.775  65.650  1.00  0.00    -0.338 OA 
ENDBRANCH  20  23
ENDBRANCH   5  17
TORSDOF 3
ENDMDL
MODEL       75
REMARK 921   NORMALIZED FREE ENERGY PREDICTED BY IDOCK:   -4.44 KCAL/MOL
REMARK 922        TOTAL FREE ENERGY PREDICTED BY IDOCK:   -6.16 KCAL/MOL
REMARK 923 INTER-LIGAND FREE ENERGY PREDICTED BY IDOCK:   -5.45 KCAL/MOL
REMARK 924 INTRA-LIGAND FREE ENERGY PREDICTED BY IDOCK:   -0.71 KCAL/MOL
REMARK 927      BINDING AFFINITY PREDICTED BY RF-SCORE:    0.00 PKD
ROOT
HETATM    1  C   UNL     1     -11.370   6.715  70.772  1.00  0.00    -0.389 C  
HETATM    2  C   UNL     1     -10.954   7.725  69.753  1.00  0.00    -0.162 C  
HETATM    3  C   UNL     1     -10.905   9.071  69.887  1.00  0.00    -0.228 C  
HETATM    4  C   UNL     1     -10.518   9.631  68.580  1.00  0.00    -0.235 A  
HETATM    5  C   UNL     1     -10.338   6.080  67.979  1.00  0.00    -0.250 C  
HETATM    6  C   UNL     1     -10.566   7.345  68.379  1.00  0.00    -0.192 C  
HETATM    7  C   UNL     1     -10.314  10.955  68.220  1.00  0.00    -0.194 A  
HETATM    8  C   UNL     1     -10.059  11.231  66.880  1.00  0.00    -0.212 A  
HETATM    9  C   UNL     1     -10.404   8.597  67.628  1.00  0.00    -0.317 A  
HETATM   10  C   UNL     1     -10.211   8.885  66.285  1.00  0.00    -0.203 A  
HETATM   11  F   UNL     1      -9.843  12.499  66.504  1.00  0.00    -0.221 F  
HETATM   12  C   UNL     1     -10.038  10.222  65.913  1.00  0.00    -0.319 A  
ENDROOT
BRANCH   3  13
HETATM   13  C   UNL     1     -11.280   9.939  71.048  1.00  0.00    -0.435 C  
HETATM   14  O   UNL     1     -13.437  10.346  69.956  1.00  0.00     0.102 OA 
HETATM   15  C   UNL     1     -12.700  10.489  71.083  1.00  0.00    -0.418 C  
HETATM   16  O   UNL     1     -13.154  11.062  72.065  1.00  0.00    -0.496 OA 
ENDBRANCH   3  13
BRANCH   5  17
HETATM   17  C   UNL     1      -9.863   5.594  66.677  1.00  0.00    -0.191 A  
HETATM   18  C   UNL     1      -8.587   5.931  66.209  1.00  0.00    -0.132 A  
HETATM   19  C   UNL     1      -8.106   5.403  64.998  1.00  0.00    -0.120 A  
HETATM   20  C   UNL     1      -8.893   4.521  64.248  1.00  0.00    -0.152 A  
HETATM   21  C   UNL     1     -10.172   4.195  64.719  1.00  0.00    -0.210 A  
HETATM   22  C   UNL     1     -10.654   4.725  65.923  1.00  0.00    -0.290 A  
BRANCH  20  23
HETATM   23  S   UNL     1      -8.348   3.909  62.631  1.00  0.00    -0.083 S  
HETATM   24  C   UNL     1      -6.687   4.615  62.557  1.00  0.00    -0.030 C  
HETATM   25  O   UNL     1      -8.193   2.423  62.788  1.00  0.00    -0.070 OA 
ENDBRANCH  20  23
ENDBRANCH   5  17
TORSDOF 3
ENDMDL
MODEL       76
REMARK 921   NORMALIZED FREE ENERGY PREDICTED BY IDOCK:   -4.43 KCAL/MOL
REMARK 922        TOTAL FREE ENERGY PREDICTED BY IDOCK:   -6.16 KCAL/MOL
REMARK 923 INTER-LIGAND FREE ENERGY PREDICTED BY IDOCK:   -5.78 KCAL/MOL
REMARK 924 INTRA-LIGAND FREE ENERGY PREDICTED BY IDOCK:   -0.38 KCAL/MOL
REMARK 927      BINDING AFFINITY PREDICTED BY RF-SCORE:    0.00 PKD
ROOT
HETATM    1  C   UNL     1     -10.210  14.297  65.008  1.00  0.00    -0.402 C  
HETATM    2  C   UNL     1     -10.559  14.625  66.422  1.00  0.00    -0.301 C  
HETATM    3  C   UNL     1     -10.760  15.848  66.969  1.00  0.00    -0.292 C  
HETATM    4  C   UNL     1     -10.992  15.655  68.411  1.00  0.00    -0.308 A  
HETATM    5  C   UNL     1     -10.726  12.264  67.214  1.00  0.00    -0.263 C  
HETATM    6  C   UNL     1     -10.689  13.586  67.464  1.00  0.00    -0.266 C  
HETATM    7  C   UNL     1     -11.266  16.600  69.388  1.00  0.00    -0.085 A  
HETATM    8  C   UNL     1     -11.335  16.167  70.709  1.00  0.00    -0.368 A  
HETATM    9  C   UNL     1     -10.854  14.291  68.742  1.00  0.00    -0.265 A  
HETATM   10  C   UNL     1     -10.863  13.877  70.066  1.00  0.00     0.333 A  
HETATM   11  F   UNL     1     -11.613  17.054  71.673  1.00  0.00    -0.284 F  
HETATM   12  C   UNL     1     -11.106  14.832  71.057  1.00  0.00    -0.024 A  
ENDROOT
BRANCH   3  13
HETATM   13  C   UNL     1     -10.657  17.208  66.351  1.00  0.00    -0.172 C  
HETATM   14  O   UNL     1      -8.355  17.335  67.186  1.00  0.00    -0.192 OA 
HETATM   15  C   UNL     1      -9.300  17.898  66.395  1.00  0.00    -0.255 C  
HETATM   16  O   UNL     1      -9.071  18.928  65.773  1.00  0.00    -0.387 OA 
ENDBRANCH   3  13
BRANCH   5  17
HETATM   17  C   UNL     1     -10.943  11.151  68.149  1.00  0.00    -0.292 A  
HETATM   18  C   UNL     1     -10.050  10.074  68.201  1.00  0.00    -0.186 A  
HETATM   19  C   UNL     1     -10.219   9.049  69.147  1.00  0.00    -0.213 A  
HETATM   20  C   UNL     1     -11.278   9.097  70.061  1.00  0.00    -0.150 A  
HETATM   21  C   UNL     1     -12.172  10.174  69.998  1.00  0.00    -0.120 A  
HETATM   22  C   UNL     1     -12.008  11.193  69.052  1.00  0.00    -0.389 A  
BRANCH  20  23
HETATM   23  S   UNL     1     -11.588   7.739  71.222  1.00  0.00    -0.281 S  
HETATM   24  C   UNL     1     -11.365   6.318  70.128  1.00  0.00    -0.406 C  
HETATM   25  O   UNL     1     -10.431   7.749  72.180  1.00  0.00    -0.208 OA 
ENDBRANCH  20  23
ENDBRANCH   5  17
TORSDOF 3
ENDMDL
MODEL       77
REMARK 921   NORMALIZED FREE ENERGY PREDICTED BY IDOCK:   -4.41 KCAL/MOL
REMARK 922        TOTAL FREE ENERGY PREDICTED BY IDOCK:   -6.13 KCAL/MOL
REMARK 923 INTER-LIGAND FREE ENERGY PREDICTED BY IDOCK:   -5.14 KCAL/MOL
REMARK 924 INTRA-LIGAND FREE ENERGY PREDICTED BY IDOCK:   -0.99 KCAL/MOL
REMARK 927      BINDING AFFINITY PREDICTED BY RF-SCORE:    0.00 PKD
ROOT
HETATM    1  C   UNL     1      -7.068   8.263  63.020  1.00  0.00    -0.091 C  
HETATM    2  C   UNL     1      -7.797   7.841  64.254  1.00  0.00    -0.138 C  
HETATM    3  C   UNL     1      -7.811   6.618  64.836  1.00  0.00    -0.115 C  
HETATM    4  C   UNL     1      -8.744   6.682  65.974  1.00  0.00    -0.155 A  
HETATM    5  C   UNL     1      -8.744  10.088  64.791  1.00  0.00    -0.206 C  
HETATM    6  C   UNL     1      -8.680   8.760  65.002  1.00  0.00    -0.183 C  
HETATM    7  C   UNL     1      -9.080   5.694  66.888  1.00  0.00    -0.116 A  
HETATM    8  C   UNL     1     -10.081   5.977  67.813  1.00  0.00    -0.156 A  
HETATM    9  C   UNL     1      -9.354   7.952  66.027  1.00  0.00    -0.129 A  
HETATM   10  C   UNL     1     -10.393   8.206  66.910  1.00  0.00    -0.401 A  
HETATM   11  F   UNL     1     -10.416   5.048  68.717  1.00  0.00    -0.247 F  
HETATM   12  C   UNL     1     -10.757   7.201  67.811  1.00  0.00    -0.282 A  
ENDROOT
BRANCH   3  13
HETATM   13  C   UNL     1      -7.154   5.341  64.413  1.00  0.00    -0.050 C  
HETATM   14  O   UNL     1      -9.152   4.834  63.087  1.00  0.00    -0.127 OA 
HETATM   15  C   UNL     1      -7.874   4.492  63.374  1.00  0.00    -0.077 C  
HETATM   16  O   UNL     1      -7.344   3.526  62.841  1.00  0.00    -0.047 OA 
ENDBRANCH   3  13
BRANCH   5  17
HETATM   17  C   UNL     1      -9.506  11.106  65.526  1.00  0.00    -0.251 A  
HETATM   18  C   UNL     1      -9.028  11.624  66.736  1.00  0.00    -0.189 A  
HETATM   19  C   UNL     1      -9.722  12.651  67.398  1.00  0.00    -0.199 A  
HETATM   20  C   UNL     1     -10.896  13.180  66.851  1.00  0.00    -0.265 A  
HETATM   21  C   UNL     1     -11.373  12.650  65.644  1.00  0.00    -0.357 A  
HETATM   22  C   UNL     1     -10.685  11.623  64.985  1.00  0.00    -0.351 A  
BRANCH  20  23
HETATM   23  S   UNL     1     -11.873  14.427  67.732  1.00  0.00    -0.340 S  
HETATM   24  C   UNL     1     -11.786  13.779  69.417  1.00  0.00    -0.341 C  
HETATM   25  O   UNL     1     -11.055  15.686  67.697  1.00  0.00    -0.324 OA 
ENDBRANCH  20  23
ENDBRANCH   5  17
TORSDOF 3
ENDMDL
MODEL       78
REMARK 921   NORMALIZED FREE ENERGY PREDICTED BY IDOCK:   -4.34 KCAL/MOL
REMARK 922        TOTAL FREE ENERGY PREDICTED BY IDOCK:   -6.05 KCAL/MOL
REMARK 923 INTER-LIGAND FREE ENERGY PREDICTED BY IDOCK:   -5.16 KCAL/MOL
REMARK 924 INTRA-LIGAND FREE ENERGY PREDICTED BY IDOCK:   -0.89 KCAL/MOL
REMARK 927      BINDING AFFINITY PREDICTED BY RF-SCORE:    0.00 PKD
ROOT
HETATM    1  C   UNL     1     -12.469   9.024  71.476  1.00  0.00    -0.395 C  
HETATM    2  C   UNL     1     -11.059   8.624  71.183  1.00  0.00    -0.324 C  
HETATM    3  C   UNL     1     -10.214   7.915  71.969  1.00  0.00    -0.270 C  
HETATM    4  C   UNL     1      -8.914   7.858  71.279  1.00  0.00    -0.155 A  
HETATM    5  C   UNL     1     -10.982   9.577  68.877  1.00  0.00    -0.116 C  
HETATM    6  C   UNL     1     -10.369   9.023  69.940  1.00  0.00    -0.219 C  
HETATM    7  C   UNL     1      -7.742   7.227  71.670  1.00  0.00    -0.087 A  
HETATM    8  C   UNL     1      -6.609   7.418  70.885  1.00  0.00    -0.043 A  
HETATM    9  C   UNL     1      -8.966   8.611  70.089  1.00  0.00    -0.157 A  
HETATM   10  C   UNL     1      -7.819   8.848  69.345  1.00  0.00    -0.098 A  
HETATM   11  F   UNL     1      -5.466   6.810  71.230  1.00  0.00    -0.025 F  
HETATM   12  C   UNL     1      -6.628   8.241  69.755  1.00  0.00    -0.039 A  
ENDROOT
BRANCH   3  13
HETATM   13  C   UNL     1     -10.412   7.365  73.347  1.00  0.00    -0.419 C  
HETATM   14  O   UNL     1     -11.105   5.247  72.327  1.00  0.00    -0.221 OA 
HETATM   15  C   UNL     1     -10.768   5.890  73.470  1.00  0.00    -0.259 C  
HETATM   16  O   UNL     1     -10.782   5.310  74.549  1.00  0.00    -0.323 OA 
ENDBRANCH   3  13
BRANCH   5  17
HETATM   17  C   UNL     1     -10.422   9.927  67.565  1.00  0.00    -0.310 A  
HETATM   18  C   UNL     1     -10.039   8.929  66.660  1.00  0.00    -0.357 A  
HETATM   19  C   UNL     1      -9.574   9.266  65.378  1.00  0.00    -0.237 A  
HETATM   20  C   UNL     1      -9.500  10.606  64.981  1.00  0.00    -0.243 A  
HETATM   21  C   UNL     1      -9.877  11.600  65.895  1.00  0.00    -0.262 A  
HETATM   22  C   UNL     1     -10.335  11.265  67.175  1.00  0.00    -0.244 A  
BRANCH  20  23
HETATM   23  S   UNL     1      -8.803  11.080  63.376  1.00  0.00    -0.027 S  
HETATM   24  C   UNL     1      -8.603   9.454  62.613  1.00  0.00    -0.220 C  
HETATM   25  O   UNL     1      -9.909  11.783  62.642  1.00  0.00    -0.113 OA 
ENDBRANCH  20  23
ENDBRANCH   5  17
TORSDOF 3
ENDMDL
MODEL       79
REMARK 921   NORMALIZED FREE ENERGY PREDICTED BY IDOCK:   -4.31 KCAL/MOL
REMARK 922        TOTAL FREE ENERGY PREDICTED BY IDOCK:   -6.01 KCAL/MOL
REMARK 923 INTER-LIGAND FREE ENERGY PREDICTED BY IDOCK:   -5.02 KCAL/MOL
REMARK 924 INTRA-LIGAND FREE ENERGY PREDICTED BY IDOCK:   -0.98 KCAL/MOL
REMARK 927      BINDING AFFINITY PREDICTED BY RF-SCORE:    0.00 PKD
ROOT
HETATM    1  C   UNL     1      -8.804   5.934  64.964  1.00  0.00     0.055 C  
HETATM    2  C   UNL     1      -9.235   5.990  66.394  1.00  0.00    -0.163 C  
HETATM    3  C   UNL     1      -9.335   4.967  67.274  1.00  0.00    -0.142 C  
HETATM    4  C   UNL     1      -9.884   5.514  68.527  1.00  0.00    -0.193 A  
HETATM    5  C   UNL     1      -9.519   8.469  66.493  1.00  0.00    -0.282 C  
HETATM    6  C   UNL     1      -9.670   7.247  67.037  1.00  0.00    -0.235 C  
HETATM    7  C   UNL     1     -10.148   4.866  69.725  1.00  0.00    -0.319 A  
HETATM    8  C   UNL     1     -10.775   5.593  70.732  1.00  0.00    -0.250 A  
HETATM    9  C   UNL     1     -10.185   6.882  68.364  1.00  0.00    -0.191 A  
HETATM   10  C   UNL     1     -10.865   7.583  69.349  1.00  0.00    -0.161 A  
HETATM   11  F   UNL     1     -11.030   4.998  71.905  1.00  0.00    -0.260 F  
HETATM   12  C   UNL     1     -11.162   6.924  70.545  1.00  0.00    -0.353 A  
ENDROOT
BRANCH   3  13
HETATM   13  C   UNL     1      -9.094   3.501  67.081  1.00  0.00    -0.191 C  
HETATM   14  O   UNL     1      -6.798   3.847  67.866  1.00  0.00    -0.046 OA 
HETATM   15  C   UNL     1      -7.752   2.945  67.537  1.00  0.00    -0.068 C  
HETATM   16  O   UNL     1      -7.526   1.742  67.580  1.00  0.00    -0.053 OA 
ENDBRANCH   3  13
BRANCH   5  17
HETATM   17  C   UNL     1      -9.825   9.784  67.072  1.00  0.00    -0.245 A  
HETATM   18  C   UNL     1      -8.822  10.553  67.673  1.00  0.00    -0.131 A  
HETATM   19  C   UNL     1      -9.102  11.841  68.159  1.00  0.00    -0.185 A  
HETATM   20  C   UNL     1     -10.388  12.380  68.037  1.00  0.00    -0.216 A  
HETATM   21  C   UNL     1     -11.389  11.601  67.441  1.00  0.00    -0.367 A  
HETATM   22  C   UNL     1     -11.112  10.315  66.962  1.00  0.00    -0.104 A  
BRANCH  20  23
HETATM   23  S   UNL     1     -10.810  13.993  68.749  1.00  0.00    -0.266 S  
HETATM   24  C   UNL     1     -10.907  14.997  67.250  1.00  0.00    -0.310 C  
HETATM   25  O   UNL     1     -12.207  13.852  69.282  1.00  0.00    -0.346 OA 
ENDBRANCH  20  23
ENDBRANCH   5  17
TORSDOF 3
ENDMDL
MODEL       80
REMARK 921   NORMALIZED FREE ENERGY PREDICTED BY IDOCK:   -4.30 KCAL/MOL
REMARK 922        TOTAL FREE ENERGY PREDICTED BY IDOCK:   -6.01 KCAL/MOL
REMARK 923 INTER-LIGAND FREE ENERGY PREDICTED BY IDOCK:   -4.95 KCAL/MOL
REMARK 924 INTRA-LIGAND FREE ENERGY PREDICTED BY IDOCK:   -1.06 KCAL/MOL
REMARK 927      BINDING AFFINITY PREDICTED BY RF-SCORE:    0.00 PKD
ROOT
HETATM    1  C   UNL     1     -10.983   6.280  66.908  1.00  0.00    -0.404 C  
HETATM    2  C   UNL     1      -9.918   7.000  67.669  1.00  0.00    -0.194 C  
HETATM    3  C   UNL     1      -8.840   6.471  68.295  1.00  0.00    -0.119 C  
HETATM    4  C   UNL     1      -8.138   7.574  68.975  1.00  0.00    -0.127 A  
HETATM    5  C   UNL     1     -10.784   9.301  67.237  1.00  0.00    -0.244 C  
HETATM    6  C   UNL     1      -9.947   8.462  67.876  1.00  0.00    -0.228 C  
HETATM    7  C   UNL     1      -6.972   7.540  69.726  1.00  0.00    -0.055 A  
HETATM    8  C   UNL     1      -6.574   8.713  70.360  1.00  0.00    -0.037 A  
HETATM    9  C   UNL     1      -8.857   8.776  68.810  1.00  0.00    -0.134 A  
HETATM   10  C   UNL     1      -8.488   9.924  69.494  1.00  0.00    -0.184 A  
HETATM   11  F   UNL     1      -5.444   8.714  71.080  1.00  0.00    -0.031 F  
HETATM   12  C   UNL     1      -7.332   9.885  70.279  1.00  0.00    -0.166 A  
ENDROOT
BRANCH   3  13
HETATM   13  C   UNL     1      -8.418   5.042  68.447  1.00  0.00    -0.094 C  
HETATM   14  O   UNL     1      -6.926   5.351  66.527  1.00  0.00    -0.061 OA 
HETATM   15  C   UNL     1      -7.296   4.542  67.548  1.00  0.00    -0.073 C  
HETATM   16  O   UNL     1      -6.767   3.449  67.711  1.00  0.00    -0.041 OA 
ENDBRANCH   3  13
BRANCH   5  17
HETATM   17  C   UNL     1     -10.843  10.768  67.291  1.00  0.00    -0.344 A  
HETATM   18  C   UNL     1     -11.693  11.418  68.194  1.00  0.00    -0.355 A  
HETATM   19  C   UNL     1     -11.692  12.819  68.296  1.00  0.00    -0.388 A  
HETATM   20  C   UNL     1     -10.831  13.586  67.503  1.00  0.00    -0.264 A  
HETATM   21  C   UNL     1      -9.989  12.929  66.595  1.00  0.00    -0.251 A  
HETATM   22  C   UNL     1      -9.993  11.532  66.490  1.00  0.00    -0.240 A  
BRANCH  20  23
HETATM   23  S   UNL     1     -10.882  15.398  67.530  1.00  0.00    -0.309 S  
HETATM   24  C   UNL     1     -11.715  15.678  69.109  1.00  0.00    -0.390 C  
HETATM   25  O   UNL     1      -9.457  15.845  67.692  1.00  0.00    -0.217 OA 
ENDBRANCH  20  23
ENDBRANCH   5  17
TORSDOF 3
ENDMDL
MODEL       81
REMARK 921   NORMALIZED FREE ENERGY PREDICTED BY IDOCK:   -4.29 KCAL/MOL
REMARK 922        TOTAL FREE ENERGY PREDICTED BY IDOCK:   -5.99 KCAL/MOL
REMARK 923 INTER-LIGAND FREE ENERGY PREDICTED BY IDOCK:   -5.52 KCAL/MOL
REMARK 924 INTRA-LIGAND FREE ENERGY PREDICTED BY IDOCK:   -0.47 KCAL/MOL
REMARK 927      BINDING AFFINITY PREDICTED BY RF-SCORE:    0.00 PKD
ROOT
HETATM    1  C   UNL     1     -10.425  13.181  66.259  1.00  0.00    -0.291 C  
HETATM    2  C   UNL     1     -11.089  13.552  67.545  1.00  0.00    -0.293 C  
HETATM    3  C   UNL     1     -11.639  14.742  67.885  1.00  0.00    -0.373 C  
HETATM    4  C   UNL     1     -12.085  14.637  69.286  1.00  0.00    -0.307 A  
HETATM    5  C   UNL     1     -10.897  11.301  68.607  1.00  0.00    -0.246 C  
HETATM    6  C   UNL     1     -11.185  12.614  68.682  1.00  0.00    -0.323 C  
HETATM    7  C   UNL     1     -12.726  15.582  70.074  1.00  0.00    -0.149 A  
HETATM    8  C   UNL     1     -12.943  15.271  71.413  1.00  0.00    -0.431 A  
HETATM    9  C   UNL     1     -11.726  13.380  69.813  1.00  0.00    -0.355 A  
HETATM   10  C   UNL     1     -11.889  13.102  71.162  1.00  0.00     0.499 A  
HETATM   11  F   UNL     1     -13.573  16.158  72.195  1.00  0.00    -0.449 F  
HETATM   12  C   UNL     1     -12.505  14.064  71.967  1.00  0.00    -0.252 A  
ENDROOT
BRANCH   3  13
HETATM   13  C   UNL     1     -11.713  16.025  67.117  1.00  0.00     0.530 C  
HETATM   14  O   UNL     1      -9.474  16.572  67.950  1.00  0.00    -0.217 OA 
HETATM   15  C   UNL     1     -10.468  16.901  67.092  1.00  0.00    -0.296 C  
HETATM   16  O   UNL     1     -10.372  17.877  66.358  1.00  0.00    -0.363 OA 
ENDBRANCH   3  13
BRANCH   5  17
HETATM   17  C   UNL     1     -11.042  10.262  69.635  1.00  0.00    -0.323 A  
HETATM   18  C   UNL     1     -12.254  10.092  70.316  1.00  0.00    -0.186 A  
HETATM   19  C   UNL     1     -12.413   9.050  71.244  1.00  0.00    -0.346 A  
HETATM   20  C   UNL     1     -11.364   8.157  71.494  1.00  0.00    -0.263 A  
HETATM   21  C   UNL     1     -10.152   8.339  70.815  1.00  0.00    -0.218 A  
HETATM   22  C   UNL     1      -9.991   9.381  69.893  1.00  0.00    -0.237 A  
BRANCH  20  23
HETATM   23  S   UNL     1     -11.499   6.870  72.764  1.00  0.00    -0.079 S  
HETATM   24  C   UNL     1     -10.854   5.447  71.856  1.00  0.00    -0.186 C  
HETATM   25  O   UNL     1     -10.485   7.225  73.814  1.00  0.00    -0.370 OA 
ENDBRANCH  20  23
ENDBRANCH   5  17
TORSDOF 3
ENDMDL
MODEL       82
REMARK 921   NORMALIZED FREE ENERGY PREDICTED BY IDOCK:   -4.29 KCAL/MOL
REMARK 922        TOTAL FREE ENERGY PREDICTED BY IDOCK:   -5.99 KCAL/MOL
REMARK 923 INTER-LIGAND FREE ENERGY PREDICTED BY IDOCK:   -5.11 KCAL/MOL
REMARK 924 INTRA-LIGAND FREE ENERGY PREDICTED BY IDOCK:   -0.87 KCAL/MOL
REMARK 927      BINDING AFFINITY PREDICTED BY RF-SCORE:    0.00 PKD
ROOT
HETATM    1  C   UNL     1     -10.799   7.778  72.397  1.00  0.00    -0.359 C  
HETATM    2  C   UNL     1     -10.576   8.250  70.998  1.00  0.00    -0.243 C  
HETATM    3  C   UNL     1     -10.822   9.479  70.484  1.00  0.00    -0.352 C  
HETATM    4  C   UNL     1     -10.522   9.423  69.043  1.00  0.00    -0.233 A  
HETATM    5  C   UNL     1      -9.565   6.129  70.154  1.00  0.00    -0.187 C  
HETATM    6  C   UNL     1     -10.072   7.357  69.935  1.00  0.00    -0.195 C  
HETATM    7  C   UNL     1     -10.595  10.431  68.093  1.00  0.00    -0.246 A  
HETATM    8  C   UNL     1     -10.362  10.090  66.764  1.00  0.00    -0.217 A  
HETATM    9  C   UNL     1     -10.158   8.111  68.677  1.00  0.00    -0.211 A  
HETATM   10  C   UNL     1      -9.988   7.765  67.345  1.00  0.00    -0.257 A  
HETATM   11  F   UNL     1     -10.411  11.045  65.826  1.00  0.00    -0.284 F  
HETATM   12  C   UNL     1     -10.094   8.772  66.381  1.00  0.00    -0.313 A  
ENDROOT
BRANCH   3  13
HETATM   13  C   UNL     1     -11.412  10.694  71.130  1.00  0.00     0.037 C  
HETATM   14  O   UNL     1     -13.603   9.599  71.026  1.00  0.00    -0.309 OA 
HETATM   15  C   UNL     1     -12.886  10.641  71.509  1.00  0.00    -0.462 C  
HETATM   16  O   UNL     1     -13.416  11.510  72.191  1.00  0.00    -0.410 OA 
ENDBRANCH   3  13
BRANCH   5  17
HETATM   17  C   UNL     1      -8.955   5.196  69.199  1.00  0.00    -0.125 A  
HETATM   18  C   UNL     1      -9.659   4.075  68.742  1.00  0.00    -0.201 A  
HETATM   19  C   UNL     1      -9.101   3.226  67.772  1.00  0.00    -0.214 A  
HETATM   20  C   UNL     1      -7.836   3.496  67.237  1.00  0.00    -0.079 A  
HETATM   21  C   UNL     1      -7.134   4.615  67.705  1.00  0.00    -0.065 A  
HETATM   22  C   UNL     1      -7.687   5.459  68.676  1.00  0.00    -0.084 A  
BRANCH  20  23
HETATM   23  S   UNL     1      -7.042   2.362  66.066  1.00  0.00    -0.065 S  
HETATM   24  C   UNL     1      -6.079   3.531  65.081  1.00  0.00    -0.023 C  
HETATM   25  O   UNL     1      -6.068   1.554  66.875  1.00  0.00    -0.019 OA 
ENDBRANCH  20  23
ENDBRANCH   5  17
TORSDOF 3
ENDMDL
MODEL       83
REMARK 921   NORMALIZED FREE ENERGY PREDICTED BY IDOCK:   -4.19 KCAL/MOL
REMARK 922        TOTAL FREE ENERGY PREDICTED BY IDOCK:   -5.88 KCAL/MOL
REMARK 923 INTER-LIGAND FREE ENERGY PREDICTED BY IDOCK:   -6.58 KCAL/MOL
REMARK 924 INTRA-LIGAND FREE ENERGY PREDICTED BY IDOCK:    0.71 KCAL/MOL
REMARK 927      BINDING AFFINITY PREDICTED BY RF-SCORE:    0.00 PKD
ROOT
HETATM    1  C   UNL     1      -9.760   4.926  66.989  1.00  0.00    -0.193 C  
HETATM    2  C   UNL     1      -9.959   5.770  68.206  1.00  0.00    -0.185 C  
HETATM    3  C   UNL     1      -9.896   5.388  69.503  1.00  0.00    -0.264 C  
HETATM    4  C   UNL     1     -10.251   6.558  70.325  1.00  0.00    -0.227 A  
HETATM    5  C   UNL     1     -10.280   7.926  66.990  1.00  0.00    -0.382 C  
HETATM    6  C   UNL     1     -10.315   7.201  68.123  1.00  0.00    -0.234 C  
HETATM    7  C   UNL     1     -10.307   6.674  71.707  1.00  0.00    -0.218 A  
HETATM    8  C   UNL     1     -10.783   7.868  72.240  1.00  0.00    -0.283 A  
HETATM    9  C   UNL     1     -10.604   7.641  69.495  1.00  0.00    -0.227 A  
HETATM   10  C   UNL     1     -11.135   8.805  70.031  1.00  0.00    -0.169 A  
HETATM   11  F   UNL     1     -10.834   8.015  73.570  1.00  0.00    -0.339 F  
HETATM   12  C   UNL     1     -11.224   8.913  71.422  1.00  0.00    -0.382 A  
ENDROOT
BRANCH   3  13
HETATM   13  C   UNL     1      -9.656   4.036  70.100  1.00  0.00    -0.270 C  
HETATM   14  O   UNL     1      -7.269   4.583  70.203  1.00  0.00    -0.048 OA 
HETATM   15  C   UNL     1      -8.243   3.717  70.570  1.00  0.00    -0.053 C  
HETATM   16  O   UNL     1      -7.984   2.713  71.222  1.00  0.00    -0.046 OA 
ENDBRANCH   3  13
BRANCH   5  17
HETATM   17  C   UNL     1     -10.519   9.363  66.803  1.00  0.00    -0.265 A  
HETATM   18  C   UNL     1     -10.144  10.004  65.616  1.00  0.00    -0.321 A  
HETATM   19  C   UNL     1     -10.442  11.362  65.410  1.00  0.00    -0.336 A  
HETATM   20  C   UNL     1     -11.131  12.091  66.386  1.00  0.00    -0.318 A  
HETATM   21  C   UNL     1     -11.496  11.445  67.575  1.00  0.00    -0.336 A  
HETATM   22  C   UNL     1     -11.195  10.093  67.783  1.00  0.00    -0.205 A  
BRANCH  20  23
HETATM   23  S   UNL     1     -11.435  13.869  66.200  1.00  0.00    -0.358 S  
HETATM   24  C   UNL     1     -10.463  14.213  64.716  1.00  0.00    -0.408 C  
HETATM   25  O   UNL     1     -12.883  13.999  65.823  1.00  0.00    -0.516 OA 
ENDBRANCH  20  23
ENDBRANCH   5  17
TORSDOF 3
ENDMDL
MODEL       84
REMARK 921   NORMALIZED FREE ENERGY PREDICTED BY IDOCK:   -4.10 KCAL/MOL
REMARK 922        TOTAL FREE ENERGY PREDICTED BY IDOCK:   -5.77 KCAL/MOL
REMARK 923 INTER-LIGAND FREE ENERGY PREDICTED BY IDOCK:   -5.76 KCAL/MOL
REMARK 924 INTRA-LIGAND FREE ENERGY PREDICTED BY IDOCK:   -0.01 KCAL/MOL
REMARK 927      BINDING AFFINITY PREDICTED BY RF-SCORE:    0.00 PKD
ROOT
HETATM    1  C   UNL     1     -11.324   9.821  71.627  1.00  0.00    -0.230 C  
HETATM    2  C   UNL     1     -11.256  10.509  70.303  1.00  0.00    -0.391 C  
HETATM    3  C   UNL     1     -11.659  11.765  69.995  1.00  0.00    -0.318 C  
HETATM    4  C   UNL     1     -11.465  11.948  68.546  1.00  0.00    -0.349 A  
HETATM    5  C   UNL     1     -10.111   8.651  69.092  1.00  0.00    -0.203 C  
HETATM    6  C   UNL     1     -10.750   9.836  69.090  1.00  0.00    -0.242 C  
HETATM    7  C   UNL     1     -11.709  13.068  67.764  1.00  0.00    -0.405 A  
HETATM    8  C   UNL     1     -11.546  12.946  66.388  1.00  0.00    -0.371 A  
HETATM    9  C   UNL     1     -11.005  10.748  67.966  1.00  0.00    -0.336 A  
HETATM   10  C   UNL     1     -10.904  10.616  66.590  1.00  0.00    -0.197 A  
HETATM   11  F   UNL     1     -11.759  14.015  65.608  1.00  0.00    -0.322 F  
HETATM   12  C   UNL     1     -11.181  11.733  65.796  1.00  0.00    -0.337 A  
ENDROOT
BRANCH   3  13
HETATM   13  C   UNL     1     -12.313  12.805  70.851  1.00  0.00    -0.356 C  
HETATM   14  O   UNL     1     -13.906  11.093  71.589  1.00  0.00     0.225 OA 
HETATM   15  C   UNL     1     -13.433  12.348  71.777  1.00  0.00    -0.166 C  
HETATM   16  O   UNL     1     -13.911  13.082  72.633  1.00  0.00    -0.657 OA 
ENDBRANCH   3  13
BRANCH   5  17
HETATM   17  C   UNL     1      -9.487   7.935  67.971  1.00  0.00    -0.159 A  
HETATM   18  C   UNL     1     -10.210   6.989  67.234  1.00  0.00    -0.301 A  
HETATM   19  C   UNL     1      -9.634   6.360  66.117  1.00  0.00    -0.042 A  
HETATM   20  C   UNL     1      -8.332   6.681  65.717  1.00  0.00    -0.143 A  
HETATM   21  C   UNL     1      -7.612   7.622  66.464  1.00  0.00    -0.096 A  
HETATM   22  C   UNL     1      -8.183   8.245  67.581  1.00  0.00    -0.127 A  
BRANCH  20  23
HETATM   23  S   UNL     1      -7.521   5.811  64.348  1.00  0.00    -0.081 S  
HETATM   24  C   UNL     1      -6.274   4.867  65.254  1.00  0.00    -0.034 C  
HETATM   25  O   UNL     1      -8.534   4.829  63.832  1.00  0.00    -0.122 OA 
ENDBRANCH  20  23
ENDBRANCH   5  17
TORSDOF 3
ENDMDL
MODEL       85
REMARK 921   NORMALIZED FREE ENERGY PREDICTED BY IDOCK:   -3.88 KCAL/MOL
REMARK 922        TOTAL FREE ENERGY PREDICTED BY IDOCK:   -5.51 KCAL/MOL
REMARK 923 INTER-LIGAND FREE ENERGY PREDICTED BY IDOCK:   -4.77 KCAL/MOL
REMARK 924 INTRA-LIGAND FREE ENERGY PREDICTED BY IDOCK:   -0.74 KCAL/MOL
REMARK 927      BINDING AFFINITY PREDICTED BY RF-SCORE:    0.00 PKD
ROOT
HETATM    1  C   UNL     1      -7.512  14.494  69.651  1.00  0.00     0.035 C  
HETATM    2  C   UNL     1      -8.318  14.442  68.393  1.00  0.00    -0.155 C  
HETATM    3  C   UNL     1      -9.159  15.383  67.903  1.00  0.00    -0.178 C  
HETATM    4  C   UNL     1      -9.780  14.830  66.687  1.00  0.00    -0.281 A  
HETATM    5  C   UNL     1      -7.460  12.230  67.615  1.00  0.00    -0.134 C  
HETATM    6  C   UNL     1      -8.320  13.260  67.507  1.00  0.00    -0.186 C  
HETATM    7  C   UNL     1     -10.690  15.420  65.822  1.00  0.00    -0.360 A  
HETATM    8  C   UNL     1     -11.213  14.637  64.797  1.00  0.00    -0.389 A  
HETATM    9  C   UNL     1      -9.352  13.501  66.489  1.00  0.00    -0.227 A  
HETATM   10  C   UNL     1      -9.923  12.709  65.504  1.00  0.00    -0.237 A  
HETATM   11  F   UNL     1     -12.083  15.184  63.938  1.00  0.00    -0.375 F  
HETATM   12  C   UNL     1     -10.866  13.290  64.651  1.00  0.00    -0.396 A  
ENDROOT
BRANCH   3  13
HETATM   13  C   UNL     1      -9.561  16.708  68.473  1.00  0.00    -0.241 C  
HETATM   14  O   UNL     1      -7.590  17.691  67.396  1.00  0.00    -0.193 OA 
HETATM   15  C   UNL     1      -8.748  17.927  68.058  1.00  0.00    -0.256 C  
HETATM   16  O   UNL     1      -9.098  19.068  68.332  1.00  0.00    -0.321 OA 
ENDBRANCH   3  13
BRANCH   5  17
HETATM   17  C   UNL     1      -7.307  11.057  66.744  1.00  0.00    -0.139 A  
HETATM   18  C   UNL     1      -8.325  10.100  66.647  1.00  0.00    -0.123 A  
HETATM   19  C   UNL     1      -8.208   9.019  65.758  1.00  0.00    -0.120 A  
HETATM   20  C   UNL     1      -7.076   8.889  64.945  1.00  0.00    -0.083 A  
HETATM   21  C   UNL     1      -6.058   9.846  65.054  1.00  0.00    -0.100 A  
HETATM   22  C   UNL     1      -6.171  10.921  65.944  1.00  0.00    -0.089 A  
BRANCH  20  23
HETATM   23  S   UNL     1      -6.844   7.450  63.868  1.00  0.00    -0.058 S  
HETATM   24  C   UNL     1      -8.086   7.787  62.599  1.00  0.00    -0.124 C  
HETATM   25  O   UNL     1      -5.496   7.629  63.230  1.00  0.00    -0.040 OA 
ENDBRANCH  20  23
ENDBRANCH   5  17
TORSDOF 3
ENDMDL
MODEL       86
REMARK 921   NORMALIZED FREE ENERGY PREDICTED BY IDOCK:   -3.88 KCAL/MOL
REMARK 922        TOTAL FREE ENERGY PREDICTED BY IDOCK:   -5.50 KCAL/MOL
REMARK 923 INTER-LIGAND FREE ENERGY PREDICTED BY IDOCK:   -4.54 KCAL/MOL
REMARK 924 INTRA-LIGAND FREE ENERGY PREDICTED BY IDOCK:   -0.97 KCAL/MOL
REMARK 927      BINDING AFFINITY PREDICTED BY RF-SCORE:    0.00 PKD
ROOT
HETATM    1  C   UNL     1      -5.604  15.903  69.941  1.00  0.00    -0.147 C  
HETATM    2  C   UNL     1      -6.645  16.029  68.877  1.00  0.00    -0.130 C  
HETATM    3  C   UNL     1      -7.155  17.163  68.340  1.00  0.00    -0.206 C  
HETATM    4  C   UNL     1      -8.212  16.767  67.394  1.00  0.00    -0.195 A  
HETATM    5  C   UNL     1      -6.909  13.581  68.466  1.00  0.00    -0.099 C  
HETATM    6  C   UNL     1      -7.311  14.852  68.282  1.00  0.00    -0.109 C  
HETATM    7  C   UNL     1      -9.008  17.565  66.586  1.00  0.00    -0.283 A  
HETATM    8  C   UNL     1     -10.020  16.947  65.857  1.00  0.00    -0.252 A  
HETATM    9  C   UNL     1      -8.385  15.368  67.422  1.00  0.00    -0.204 A  
HETATM   10  C   UNL     1      -9.433  14.767  66.742  1.00  0.00    -0.271 A  
HETATM   11  F   UNL     1     -10.795  17.691  65.056  1.00  0.00    -0.361 F  
HETATM   12  C   UNL     1     -10.259  15.573  65.952  1.00  0.00    -0.367 A  
ENDROOT
BRANCH   3  13
HETATM   13  C   UNL     1      -6.871  18.596  68.668  1.00  0.00    -0.294 C  
HETATM   14  O   UNL     1      -5.439  18.694  66.681  1.00  0.00    -0.141 OA 
HETATM   15  C   UNL     1      -6.046  19.395  67.667  1.00  0.00    -0.202 C  
HETATM   16  O   UNL     1      -5.906  20.608  67.759  1.00  0.00    -0.212 OA 
ENDBRANCH   3  13
BRANCH   5  17
HETATM   17  C   UNL     1      -7.430  12.349  67.859  1.00  0.00    -0.120 A  
HETATM   18  C   UNL     1      -6.947  11.899  66.624  1.00  0.00     0.084 A  
HETATM   19  C   UNL     1      -7.393  10.682  66.081  1.00  0.00    -0.138 A  
HETATM   20  C   UNL     1      -8.319   9.894  66.775  1.00  0.00    -0.125 A  
HETATM   21  C   UNL     1      -8.803  10.355  68.007  1.00  0.00    -0.130 A  
HETATM   22  C   UNL     1      -8.364  11.570  68.546  1.00  0.00    -0.146 A  
BRANCH  20  23
HETATM   23  S   UNL     1      -8.996   8.374  66.055  1.00  0.00    -0.179 S  
HETATM   24  C   UNL     1      -7.612   7.243  66.318  1.00  0.00    -0.092 C  
HETATM   25  O   UNL     1     -10.104   7.944  66.975  1.00  0.00    -0.221 OA 
ENDBRANCH  20  23
ENDBRANCH   5  17
TORSDOF 3
ENDMDL
MODEL       87
REMARK 921   NORMALIZED FREE ENERGY PREDICTED BY IDOCK:   -3.69 KCAL/MOL
REMARK 922        TOTAL FREE ENERGY PREDICTED BY IDOCK:   -5.28 KCAL/MOL
REMARK 923 INTER-LIGAND FREE ENERGY PREDICTED BY IDOCK:   -4.27 KCAL/MOL
REMARK 924 INTRA-LIGAND FREE ENERGY PREDICTED BY IDOCK:   -1.01 KCAL/MOL
REMARK 927      BINDING AFFINITY PREDICTED BY RF-SCORE:    0.00 PKD
ROOT
HETATM    1  C   UNL     1     -11.490  10.221  68.040  1.00  0.00    -0.081 C  
HETATM    2  C   UNL     1     -10.508   9.698  67.043  1.00  0.00    -0.302 C  
HETATM    3  C   UNL     1     -10.124  10.267  65.875  1.00  0.00    -0.319 C  
HETATM    4  C   UNL     1      -9.207   9.327  65.207  1.00  0.00    -0.275 A  
HETATM    5  C   UNL     1      -9.861   7.665  68.340  1.00  0.00    -0.176 C  
HETATM    6  C   UNL     1      -9.835   8.394  67.208  1.00  0.00    -0.264 C  
HETATM    7  C   UNL     1      -8.535   9.467  64.002  1.00  0.00    -0.203 A  
HETATM    8  C   UNL     1      -7.806   8.377  63.534  1.00  0.00    -0.152 A  
HETATM    9  C   UNL     1      -9.099   8.141  65.961  1.00  0.00    -0.218 A  
HETATM   10  C   UNL     1      -8.423   7.038  65.460  1.00  0.00    -0.120 A  
HETATM   11  F   UNL     1      -7.135   8.487  62.380  1.00  0.00    -0.096 F  
HETATM   12  C   UNL     1      -7.772   7.164  64.230  1.00  0.00    -0.117 A  
ENDROOT
BRANCH   3  13
HETATM   13  C   UNL     1     -10.582  11.535  65.224  1.00  0.00    -0.339 C  
HETATM   14  O   UNL     1      -9.177  12.772  66.807  1.00  0.00    -0.219 OA 
HETATM   15  C   UNL     1      -9.938  12.834  65.689  1.00  0.00    -0.238 C  
HETATM   16  O   UNL     1     -10.117  13.896  65.106  1.00  0.00    -0.346 OA 
ENDBRANCH   3  13
BRANCH   5  17
HETATM   17  C   UNL     1      -9.161   6.412  68.650  1.00  0.00    -0.127 A  
HETATM   18  C   UNL     1      -9.770   5.173  68.413  1.00  0.00    -0.200 A  
HETATM   19  C   UNL     1      -9.070   3.977  68.640  1.00  0.00    -0.188 A  
HETATM   20  C   UNL     1      -7.747   4.006  69.095  1.00  0.00    -0.053 A  
HETATM   21  C   UNL     1      -7.147   5.249  69.338  1.00  0.00    -0.056 A  
HETATM   22  C   UNL     1      -7.846   6.442  69.117  1.00  0.00    -0.109 A  
BRANCH  20  23
HETATM   23  S   UNL     1      -6.852   2.482  69.502  1.00  0.00    -0.033 S  
HETATM   24  C   UNL     1      -5.290   2.781  68.645  1.00  0.00    -0.013 C  
HETATM   25  O   UNL     1      -6.573   2.553  70.976  1.00  0.00    -0.026 OA 
ENDBRANCH  20  23
ENDBRANCH   5  17
TORSDOF 3
ENDMDL
MODEL       88
REMARK 921   NORMALIZED FREE ENERGY PREDICTED BY IDOCK:   -3.69 KCAL/MOL
REMARK 922        TOTAL FREE ENERGY PREDICTED BY IDOCK:   -5.28 KCAL/MOL
REMARK 923 INTER-LIGAND FREE ENERGY PREDICTED BY IDOCK:   -4.35 KCAL/MOL
REMARK 924 INTRA-LIGAND FREE ENERGY PREDICTED BY IDOCK:   -0.93 KCAL/MOL
REMARK 927      BINDING AFFINITY PREDICTED BY RF-SCORE:    0.00 PKD
ROOT
HETATM    1  C   UNL     1      -7.592   7.269  70.929  1.00  0.00    -0.084 C  
HETATM    2  C   UNL     1      -7.878   7.272  69.462  1.00  0.00    -0.118 C  
HETATM    3  C   UNL     1      -7.625   6.291  68.563  1.00  0.00    -0.092 C  
HETATM    4  C   UNL     1      -8.006   6.802  67.234  1.00  0.00    -0.114 A  
HETATM    5  C   UNL     1      -8.996   9.503  69.409  1.00  0.00    -0.174 C  
HETATM    6  C   UNL     1      -8.467   8.440  68.776  1.00  0.00    -0.124 C  
HETATM    7  C   UNL     1      -7.956   6.165  66.003  1.00  0.00    -0.110 A  
HETATM    8  C   UNL     1      -8.273   6.912  64.872  1.00  0.00    -0.074 A  
HETATM    9  C   UNL     1      -8.428   8.144  67.337  1.00  0.00    -0.126 A  
HETATM   10  C   UNL     1      -8.681   8.899  66.202  1.00  0.00    -0.177 A  
HETATM   11  F   UNL     1      -8.247   6.320  63.671  1.00  0.00    -0.120 F  
HETATM   12  C   UNL     1      -8.600   8.269  64.956  1.00  0.00    -0.102 A  
ENDROOT
BRANCH   3  13
HETATM   13  C   UNL     1      -6.965   4.960  68.747  1.00  0.00    -0.052 C  
HETATM   14  O   UNL     1      -9.185   3.986  69.107  1.00  0.00    -0.124 OA 
HETATM   15  C   UNL     1      -7.867   3.745  68.909  1.00  0.00    -0.052 C  
HETATM   16  O   UNL     1      -7.430   2.601  68.894  1.00  0.00    -0.047 OA 
ENDBRANCH   3  13
BRANCH   5  17
HETATM   17  C   UNL     1      -9.686  10.669  68.841  1.00  0.00    -0.210 A  
HETATM   18  C   UNL     1     -11.077  10.794  68.936  1.00  0.00    -0.307 A  
HETATM   19  C   UNL     1     -11.726  11.945  68.459  1.00  0.00    -0.388 A  
HETATM   20  C   UNL     1     -10.988  12.991  67.891  1.00  0.00    -0.241 A  
HETATM   21  C   UNL     1      -9.597  12.854  67.792  1.00  0.00    -0.212 A  
HETATM   22  C   UNL     1      -8.950  11.705  68.263  1.00  0.00    -0.185 A  
BRANCH  20  23
HETATM   23  S   UNL     1     -11.802  14.440  67.168  1.00  0.00    -0.381 S  
HETATM   24  C   UNL     1     -10.429  15.156  66.238  1.00  0.00    -0.307 C  
HETATM   25  O   UNL     1     -12.784  13.900  66.167  1.00  0.00    -0.429 OA 
ENDBRANCH  20  23
ENDBRANCH   5  17
TORSDOF 3
ENDMDL
MODEL       89
REMARK 921   NORMALIZED FREE ENERGY PREDICTED BY IDOCK:   -3.66 KCAL/MOL
REMARK 922        TOTAL FREE ENERGY PREDICTED BY IDOCK:   -5.25 KCAL/MOL
REMARK 923 INTER-LIGAND FREE ENERGY PREDICTED BY IDOCK:   -5.00 KCAL/MOL
REMARK 924 INTRA-LIGAND FREE ENERGY PREDICTED BY IDOCK:   -0.25 KCAL/MOL
REMARK 927      BINDING AFFINITY PREDICTED BY RF-SCORE:    0.00 PKD
ROOT
HETATM    1  C   UNL     1      -7.471  15.566  69.107  1.00  0.00    -0.191 C  
HETATM    2  C   UNL     1      -8.462  14.771  68.322  1.00  0.00    -0.151 C  
HETATM    3  C   UNL     1      -9.475  15.231  67.550  1.00  0.00    -0.202 C  
HETATM    4  C   UNL     1     -10.222  14.060  67.058  1.00  0.00    -0.261 A  
HETATM    5  C   UNL     1      -7.497  12.532  68.858  1.00  0.00     0.011 C  
HETATM    6  C   UNL     1      -8.476  13.294  68.336  1.00  0.00    -0.128 C  
HETATM    7  C   UNL     1     -11.325  14.015  66.218  1.00  0.00    -0.336 A  
HETATM    8  C   UNL     1     -11.917  12.776  65.990  1.00  0.00    -0.432 A  
HETATM    9  C   UNL     1      -9.683  12.879  67.608  1.00  0.00    -0.212 A  
HETATM   10  C   UNL     1     -10.315  11.658  67.427  1.00  0.00    -0.231 A  
HETATM   11  F   UNL     1     -12.974  12.699  65.171  1.00  0.00    -0.550 F  
HETATM   12  C   UNL     1     -11.447  11.613  66.607  1.00  0.00    -0.280 A  
ENDROOT
BRANCH   3  13
HETATM   13  C   UNL     1      -9.926  16.634  67.287  1.00  0.00    -0.270 C  
HETATM   14  O   UNL     1      -9.689  16.187  64.889  1.00  0.00    -0.082 OA 
HETATM   15  C   UNL     1     -10.142  17.042  65.836  1.00  0.00    -0.263 C  
HETATM   16  O   UNL     1     -10.669  18.104  65.529  1.00  0.00    -0.599 OA 
ENDBRANCH   3  13
BRANCH   5  17
HETATM   17  C   UNL     1      -7.358  11.069  68.848  1.00  0.00    -0.111 A  
HETATM   18  C   UNL     1      -7.878  10.293  69.890  1.00  0.00    -0.119 A  
HETATM   19  C   UNL     1      -7.809   8.890  69.841  1.00  0.00    -0.092 A  
HETATM   20  C   UNL     1      -7.230   8.248  68.740  1.00  0.00    -0.079 A  
HETATM   21  C   UNL     1      -6.705   9.032  67.704  1.00  0.00    -0.065 A  
HETATM   22  C   UNL     1      -6.768  10.430  67.755  1.00  0.00    -0.070 A  
BRANCH  20  23
HETATM   23  S   UNL     1      -7.028   6.447  68.695  1.00  0.00    -0.083 S  
HETATM   24  C   UNL     1      -7.965   5.975  70.166  1.00  0.00    -0.106 C  
HETATM   25  O   UNL     1      -7.808   5.978  67.500  1.00  0.00    -0.097 OA 
ENDBRANCH  20  23
ENDBRANCH   5  17
TORSDOF 3
ENDMDL
MODEL       90
REMARK 921   NORMALIZED FREE ENERGY PREDICTED BY IDOCK:   -3.51 KCAL/MOL
REMARK 922        TOTAL FREE ENERGY PREDICTED BY IDOCK:   -5.07 KCAL/MOL
REMARK 923 INTER-LIGAND FREE ENERGY PREDICTED BY IDOCK:   -4.07 KCAL/MOL
REMARK 924 INTRA-LIGAND FREE ENERGY PREDICTED BY IDOCK:   -1.00 KCAL/MOL
REMARK 927      BINDING AFFINITY PREDICTED BY RF-SCORE:    0.00 PKD
ROOT
HETATM    1  C   UNL     1     -10.421  15.544  66.073  1.00  0.00    -0.335 C  
HETATM    2  C   UNL     1      -9.467  15.260  67.187  1.00  0.00    -0.223 C  
HETATM    3  C   UNL     1      -8.764  16.148  67.929  1.00  0.00    -0.174 C  
HETATM    4  C   UNL     1      -7.900  15.378  68.839  1.00  0.00    -0.177 A  
HETATM    5  C   UNL     1      -9.784  12.784  67.190  1.00  0.00    -0.216 C  
HETATM    6  C   UNL     1      -9.128  13.884  67.603  1.00  0.00    -0.197 C  
HETATM    7  C   UNL     1      -7.015  15.835  69.805  1.00  0.00    -0.097 A  
HETATM    8  C   UNL     1      -6.228  14.895  70.462  1.00  0.00    -0.088 A  
HETATM    9  C   UNL     1      -8.039  13.998  68.583  1.00  0.00    -0.113 A  
HETATM   10  C   UNL     1      -7.208  13.073  69.197  1.00  0.00     0.084 A  
HETATM   11  F   UNL     1      -5.374  15.306  71.410  1.00  0.00    -0.148 F  
HETATM   12  C   UNL     1      -6.292  13.534  70.147  1.00  0.00    -0.015 A  
ENDROOT
BRANCH   3  13
HETATM   13  C   UNL     1      -8.696  17.641  67.836  1.00  0.00    -0.245 C  
HETATM   14  O   UNL     1     -10.897  17.738  68.912  1.00  0.00    -0.040 OA 
HETATM   15  C   UNL     1      -9.814  18.437  68.497  1.00  0.00    -0.376 C  
HETATM   16  O   UNL     1      -9.761  19.654  68.624  1.00  0.00    -0.380 OA 
ENDBRANCH   3  13
BRANCH   5  17
HETATM   17  C   UNL     1      -9.600  11.386  67.602  1.00  0.00    -0.176 A  
HETATM   18  C   UNL     1      -8.771  10.527  66.870  1.00  0.00    -0.130 A  
HETATM   19  C   UNL     1      -8.537   9.213  67.309  1.00  0.00    -0.118 A  
HETATM   20  C   UNL     1      -9.120   8.747  68.493  1.00  0.00    -0.138 A  
HETATM   21  C   UNL     1      -9.955   9.610  69.216  1.00  0.00    -0.197 A  
HETATM   22  C   UNL     1     -10.193  10.919  68.776  1.00  0.00    -0.210 A  
BRANCH  20  23
HETATM   23  S   UNL     1      -8.927   7.026  69.030  1.00  0.00    -0.132 S  
HETATM   24  C   UNL     1      -7.569   6.501  67.961  1.00  0.00    -0.103 C  
HETATM   25  O   UNL     1      -8.391   7.093  70.432  1.00  0.00    -0.125 OA 
ENDBRANCH  20  23
ENDBRANCH   5  17
TORSDOF 3
ENDMDL
MODEL       91
REMARK 921   NORMALIZED FREE ENERGY PREDICTED BY IDOCK:   -3.40 KCAL/MOL
REMARK 922        TOTAL FREE ENERGY PREDICTED BY IDOCK:   -4.95 KCAL/MOL
REMARK 923 INTER-LIGAND FREE ENERGY PREDICTED BY IDOCK:   -4.63 KCAL/MOL
REMARK 924 INTRA-LIGAND FREE ENERGY PREDICTED BY IDOCK:   -0.32 KCAL/MOL
REMARK 927      BINDING AFFINITY PREDICTED BY RF-SCORE:    0.00 PKD
ROOT
HETATM    1  C   UNL     1      -9.722  14.548  68.025  1.00  0.00    -0.218 C  
HETATM    2  C   UNL     1     -10.253  13.251  68.542  1.00  0.00    -0.222 C  
HETATM    3  C   UNL     1     -11.372  13.042  69.275  1.00  0.00    -0.310 C  
HETATM    4  C   UNL     1     -11.417  11.609  69.612  1.00  0.00    -0.359 A  
HETATM    5  C   UNL     1      -8.503  11.808  67.499  1.00  0.00    -0.154 C  
HETATM    6  C   UNL     1      -9.545  11.971  68.334  1.00  0.00    -0.190 C  
HETATM    7  C   UNL     1     -12.377  10.906  70.327  1.00  0.00    -0.412 A  
HETATM    8  C   UNL     1     -12.128   9.566  70.605  1.00  0.00    -0.162 A  
HETATM    9  C   UNL     1     -10.260  10.963  69.130  1.00  0.00    -0.215 A  
HETATM   10  C   UNL     1      -9.990   9.645  69.463  1.00  0.00    -0.223 A  
HETATM   11  F   UNL     1     -13.043   8.858  71.281  1.00  0.00    -0.330 F  
HETATM   12  C   UNL     1     -10.939   8.943  70.212  1.00  0.00    -0.266 A  
ENDROOT
BRANCH   3  13
HETATM   13  C   UNL     1     -12.370  14.021  69.812  1.00  0.00    -0.344 C  
HETATM   14  O   UNL     1     -10.520  15.196  70.910  1.00  0.00    -0.073 OA 
HETATM   15  C   UNL     1     -11.832  15.224  70.576  1.00  0.00    -0.324 C  
HETATM   16  O   UNL     1     -12.548  16.161  70.904  1.00  0.00    -0.253 OA 
ENDBRANCH   3  13
BRANCH   5  17
HETATM   17  C   UNL     1      -7.785  10.577  67.144  1.00  0.00    -0.101 A  
HETATM   18  C   UNL     1      -8.168   9.819  66.031  1.00  0.00    -0.117 A  
HETATM   19  C   UNL     1      -7.434   8.684  65.650  1.00  0.00    -0.085 A  
HETATM   20  C   UNL     1      -6.298   8.300  66.374  1.00  0.00    -0.050 A  
HETATM   21  C   UNL     1      -5.925   9.058  67.491  1.00  0.00    -0.050 A  
HETATM   22  C   UNL     1      -6.660  10.187  67.874  1.00  0.00    -0.066 A  
BRANCH  20  23
HETATM   23  S   UNL     1      -5.393   6.780  65.976  1.00  0.00    -0.022 S  
HETATM   24  C   UNL     1      -6.546   5.539  66.603  1.00  0.00    -0.056 C  
HETATM   25  O   UNL     1      -5.401   6.679  64.478  1.00  0.00    -0.025 OA 
ENDBRANCH  20  23
ENDBRANCH   5  17
TORSDOF 3
ENDMDL
MODEL       92
REMARK 921   NORMALIZED FREE ENERGY PREDICTED BY IDOCK:   -3.39 KCAL/MOL
REMARK 922        TOTAL FREE ENERGY PREDICTED BY IDOCK:   -4.93 KCAL/MOL
REMARK 923 INTER-LIGAND FREE ENERGY PREDICTED BY IDOCK:   -4.71 KCAL/MOL
REMARK 924 INTRA-LIGAND FREE ENERGY PREDICTED BY IDOCK:   -0.22 KCAL/MOL
REMARK 927      BINDING AFFINITY PREDICTED BY RF-SCORE:    0.00 PKD
ROOT
HETATM    1  C   UNL     1     -11.174   5.982  68.659  1.00  0.00    -0.169 C  
HETATM    2  C   UNL     1     -10.141   7.052  68.519  1.00  0.00    -0.171 C  
HETATM    3  C   UNL     1      -8.940   6.974  67.899  1.00  0.00    -0.122 C  
HETATM    4  C   UNL     1      -8.250   8.259  68.109  1.00  0.00    -0.128 A  
HETATM    5  C   UNL     1     -11.457   8.847  69.650  1.00  0.00     0.256 C  
HETATM    6  C   UNL     1     -10.306   8.390  69.122  1.00  0.00    -0.229 C  
HETATM    7  C   UNL     1      -7.008   8.672  67.650  1.00  0.00    -0.075 A  
HETATM    8  C   UNL     1      -6.533   9.906  68.084  1.00  0.00    -0.055 A  
HETATM    9  C   UNL     1      -9.030   9.094  68.935  1.00  0.00    -0.139 A  
HETATM   10  C   UNL     1      -8.524  10.294  69.413  1.00  0.00    -0.170 A  
HETATM   11  F   UNL     1      -5.342  10.337  67.646  1.00  0.00    -0.038 F  
HETATM   12  C   UNL     1      -7.258  10.698  68.979  1.00  0.00    -0.095 A  
ENDROOT
BRANCH   3  13
HETATM   13  C   UNL     1      -8.280   5.815  67.217  1.00  0.00    -0.102 C  
HETATM   14  O   UNL     1      -7.393   5.129  69.397  1.00  0.00    -0.056 OA 
HETATM   15  C   UNL     1      -7.572   4.794  68.097  1.00  0.00    -0.081 C  
HETATM   16  O   UNL     1      -7.153   3.731  67.656  1.00  0.00    -0.054 OA 
ENDBRANCH   3  13
BRANCH   5  17
HETATM   17  C   UNL     1     -11.763  10.179  70.189  1.00  0.00    -0.330 A  
HETATM   18  C   UNL     1     -11.334  11.335  69.526  1.00  0.00    -0.362 A  
HETATM   19  C   UNL     1     -11.693  12.607  70.003  1.00  0.00    -0.289 A  
HETATM   20  C   UNL     1     -12.496  12.736  71.142  1.00  0.00    -0.239 A  
HETATM   21  C   UNL     1     -12.915  11.574  71.804  1.00  0.00    -0.500 A  
HETATM   22  C   UNL     1     -12.554  10.306  71.332  1.00  0.00    -0.539 A  
BRANCH  20  23
HETATM   23  S   UNL     1     -12.887  14.361  71.845  1.00  0.00    -0.364 S  
HETATM   24  C   UNL     1     -13.347  15.263  70.349  1.00  0.00    -0.044 C  
HETATM   25  O   UNL     1     -14.139  14.167  72.651  1.00  0.00    -0.617 OA 
ENDBRANCH  20  23
ENDBRANCH   5  17
TORSDOF 3
ENDMDL
MODEL       93
REMARK 921   NORMALIZED FREE ENERGY PREDICTED BY IDOCK:   -3.17 KCAL/MOL
REMARK 922        TOTAL FREE ENERGY PREDICTED BY IDOCK:   -4.67 KCAL/MOL
REMARK 923 INTER-LIGAND FREE ENERGY PREDICTED BY IDOCK:   -3.76 KCAL/MOL
REMARK 924 INTRA-LIGAND FREE ENERGY PREDICTED BY IDOCK:   -0.90 KCAL/MOL
REMARK 927      BINDING AFFINITY PREDICTED BY RF-SCORE:    0.00 PKD
ROOT
HETATM    1  C   UNL     1      -6.435  11.657  69.093  1.00  0.00    -0.095 C  
HETATM    2  C   UNL     1      -7.420  11.641  67.970  1.00  0.00    -0.100 C  
HETATM    3  C   UNL     1      -8.051  12.694  67.400  1.00  0.00    -0.182 C  
HETATM    4  C   UNL     1      -8.986  12.158  66.395  1.00  0.00    -0.138 A  
HETATM    5  C   UNL     1      -7.313   9.181  67.553  1.00  0.00    -0.084 C  
HETATM    6  C   UNL     1      -7.878  10.384  67.341  1.00  0.00    -0.103 C  
HETATM    7  C   UNL     1      -9.838  12.840  65.538  1.00  0.00    -0.169 A  
HETATM    8  C   UNL     1     -10.708  12.089  64.754  1.00  0.00    -0.306 A  
HETATM    9  C   UNL     1      -8.962  10.748  66.418  1.00  0.00    -0.179 A  
HETATM   10  C   UNL     1      -9.873  10.009  65.680  1.00  0.00    -0.363 A  
HETATM   11  F   UNL     1     -11.531  12.720  63.906  1.00  0.00    -0.372 F  
HETATM   12  C   UNL     1     -10.756  10.694  64.840  1.00  0.00    -0.072 A  
ENDROOT
BRANCH   3  13
HETATM   13  C   UNL     1      -7.992  14.152  67.738  1.00  0.00    -0.175 C  
HETATM   14  O   UNL     1     -10.096  13.881  68.966  1.00  0.00    -0.152 OA 
HETATM   15  C   UNL     1      -9.052  14.696  68.687  1.00  0.00    -0.189 C  
HETATM   16  O   UNL     1      -8.989  15.825  69.155  1.00  0.00    -0.224 OA 
ENDBRANCH   3  13
BRANCH   5  17
HETATM   17  C   UNL     1      -7.619   7.891  66.921  1.00  0.00    -0.099 A  
HETATM   18  C   UNL     1      -8.382   6.928  67.592  1.00  0.00    -0.123 A  
HETATM   19  C   UNL     1      -8.737   5.726  66.957  1.00  0.00    -0.109 A  
HETATM   20  C   UNL     1      -8.341   5.479  65.637  1.00  0.00    -0.133 A  
HETATM   21  C   UNL     1      -7.570   6.444  64.975  1.00  0.00    -0.091 A  
HETATM   22  C   UNL     1      -7.212   7.640  65.610  1.00  0.00    -0.065 A  
BRANCH  20  23
HETATM   23  S   UNL     1      -8.687   3.895  64.826  1.00  0.00    -0.120 S  
HETATM   24  C   UNL     1      -7.452   2.843  65.622  1.00  0.00    -0.073 C  
HETATM   25  O   UNL     1     -10.033   3.462  65.333  1.00  0.00    -0.051 OA 
ENDBRANCH  20  23
ENDBRANCH   5  17
TORSDOF 3
ENDMDL
MODEL       94
REMARK 921   NORMALIZED FREE ENERGY PREDICTED BY IDOCK:   -3.08 KCAL/MOL
REMARK 922        TOTAL FREE ENERGY PREDICTED BY IDOCK:   -4.56 KCAL/MOL
REMARK 923 INTER-LIGAND FREE ENERGY PREDICTED BY IDOCK:   -3.59 KCAL/MOL
REMARK 924 INTRA-LIGAND FREE ENERGY PREDICTED BY IDOCK:   -0.97 KCAL/MOL
REMARK 927      BINDING AFFINITY PREDICTED BY RF-SCORE:    0.00 PKD
ROOT
HETATM    1  C   UNL     1     -10.596   8.709  69.231  1.00  0.00    -0.204 C  
HETATM    2  C   UNL     1      -9.656   8.878  68.082  1.00  0.00    -0.161 C  
HETATM    3  C   UNL     1      -8.918   9.967  67.763  1.00  0.00    -0.134 C  
HETATM    4  C   UNL     1      -8.222   9.673  66.498  1.00  0.00    -0.119 A  
HETATM    5  C   UNL     1      -9.892   6.555  67.198  1.00  0.00    -0.187 C  
HETATM    6  C   UNL     1      -9.447   7.819  67.073  1.00  0.00    -0.210 C  
HETATM    7  C   UNL     1      -7.335  10.464  65.782  1.00  0.00    -0.147 A  
HETATM    8  C   UNL     1      -6.897   9.995  64.548  1.00  0.00    -0.127 A  
HETATM    9  C   UNL     1      -8.611   8.407  66.017  1.00  0.00    -0.164 A  
HETATM   10  C   UNL     1      -8.220   7.973  64.759  1.00  0.00    -0.124 A  
HETATM   11  F   UNL     1      -6.030  10.730  63.840  1.00  0.00    -0.118 F  
HETATM   12  C   UNL     1      -7.353   8.783  64.019  1.00  0.00    -0.102 A  
ENDROOT
BRANCH   3  13
HETATM   13  C   UNL     1      -8.850  11.311  68.419  1.00  0.00    -0.159 C  
HETATM   14  O   UNL     1     -10.681  12.038  66.960  1.00  0.00    -0.227 OA 
HETATM   15  C   UNL     1      -9.907  12.336  68.031  1.00  0.00    -0.204 C  
HETATM   16  O   UNL     1     -10.040  13.395  68.631  1.00  0.00    -0.225 OA 
ENDBRANCH   3  13
BRANCH   5  17
HETATM   17  C   UNL     1      -9.667   5.404  66.313  1.00  0.00    -0.181 A  
HETATM   18  C   UNL     1      -8.437   4.734  66.306  1.00  0.00    -0.111 A  
HETATM   19  C   UNL     1      -8.251   3.589  65.514  1.00  0.00    -0.097 A  
HETATM   20  C   UNL     1      -9.298   3.092  64.729  1.00  0.00    -0.148 A  
HETATM   21  C   UNL     1     -10.523   3.773  64.735  1.00  0.00    -0.100 A  
HETATM   22  C   UNL     1     -10.708   4.918  65.520  1.00  0.00    -0.072 A  
BRANCH  20  23
HETATM   23  S   UNL     1      -9.058   1.683  63.614  1.00  0.00    -0.095 S  
HETATM   24  C   UNL     1     -10.543   1.817  62.594  1.00  0.00    -0.121 C  
HETATM   25  O   UNL     1      -7.887   2.043  62.745  1.00  0.00    -0.053 OA 
ENDBRANCH  20  23
ENDBRANCH   5  17
TORSDOF 3
ENDMDL
MODEL       95
REMARK 921   NORMALIZED FREE ENERGY PREDICTED BY IDOCK:   -2.91 KCAL/MOL
REMARK 922        TOTAL FREE ENERGY PREDICTED BY IDOCK:   -4.37 KCAL/MOL
REMARK 923 INTER-LIGAND FREE ENERGY PREDICTED BY IDOCK:   -5.28 KCAL/MOL
REMARK 924 INTRA-LIGAND FREE ENERGY PREDICTED BY IDOCK:    0.91 KCAL/MOL
REMARK 927      BINDING AFFINITY PREDICTED BY RF-SCORE:    0.00 PKD
ROOT
HETATM    1  C   UNL     1     -10.344   5.851  68.549  1.00  0.00    -0.268 C  
HETATM    2  C   UNL     1      -9.775   6.764  67.512  1.00  0.00    -0.154 C  
HETATM    3  C   UNL     1      -9.081   6.430  66.399  1.00  0.00    -0.168 C  
HETATM    4  C   UNL     1      -8.662   7.684  65.747  1.00  0.00    -0.151 A  
HETATM    5  C   UNL     1     -10.653   8.880  68.505  1.00  0.00    -0.183 C  
HETATM    6  C   UNL     1      -9.876   8.234  67.616  1.00  0.00    -0.218 C  
HETATM    7  C   UNL     1      -7.950   7.864  64.571  1.00  0.00    -0.140 A  
HETATM    8  C   UNL     1      -7.583   9.161  64.226  1.00  0.00    -0.115 A  
HETATM    9  C   UNL     1      -9.055   8.788  66.531  1.00  0.00    -0.203 A  
HETATM   10  C   UNL     1      -8.633  10.071  66.214  1.00  0.00    -0.137 A  
HETATM   11  F   UNL     1      -6.908   9.368  63.088  1.00  0.00    -0.097 F  
HETATM   12  C   UNL     1      -7.887  10.253  65.046  1.00  0.00    -0.133 A  
ENDROOT
BRANCH   3  13
HETATM   13  C   UNL     1      -8.647   5.087  65.900  1.00  0.00    -0.124 C  
HETATM   14  O   UNL     1     -10.966   4.664  65.229  1.00  0.00    -0.220 OA 
HETATM   15  C   UNL     1      -9.681   4.242  65.169  1.00  0.00    -0.194 C  
HETATM   16  O   UNL     1      -9.382   3.211  64.578  1.00  0.00    -0.133 OA 
ENDBRANCH   3  13
BRANCH   5  17
HETATM   17  C   UNL     1     -10.903  10.321  68.642  1.00  0.00    -0.272 A  
HETATM   18  C   UNL     1     -11.845  10.801  69.559  1.00  0.00    -0.380 A  
HETATM   19  C   UNL     1     -12.028  12.182  69.741  1.00  0.00    -0.372 A  
HETATM   20  C   UNL     1     -11.260  13.100  69.014  1.00  0.00    -0.258 A  
HETATM   21  C   UNL     1     -10.325  12.611  68.091  1.00  0.00    -0.238 A  
HETATM   22  C   UNL     1     -10.146  11.235  67.906  1.00  0.00    -0.195 A  
BRANCH  20  23
HETATM   23  S   UNL     1     -11.547  14.885  69.143  1.00  0.00    -0.325 S  
HETATM   24  C   UNL     1     -12.543  14.948  70.649  1.00  0.00    -0.363 C  
HETATM   25  O   UNL     1     -10.211  15.491  69.467  1.00  0.00    -0.242 OA 
ENDBRANCH  20  23
ENDBRANCH   5  17
TORSDOF 3
ENDMDL
MODEL       96
REMARK 921   NORMALIZED FREE ENERGY PREDICTED BY IDOCK:   -2.50 KCAL/MOL
REMARK 922        TOTAL FREE ENERGY PREDICTED BY IDOCK:   -3.89 KCAL/MOL
REMARK 923 INTER-LIGAND FREE ENERGY PREDICTED BY IDOCK:   -4.44 KCAL/MOL
REMARK 924 INTRA-LIGAND FREE ENERGY PREDICTED BY IDOCK:    0.55 KCAL/MOL
REMARK 927      BINDING AFFINITY PREDICTED BY RF-SCORE:    0.00 PKD
ROOT
HETATM    1  C   UNL     1     -13.468   9.865  71.563  1.00  0.00    -0.393 C  
HETATM    2  C   UNL     1     -12.201  10.148  70.822  1.00  0.00    -0.434 C  
HETATM    3  C   UNL     1     -11.832  11.299  70.213  1.00  0.00    -0.446 C  
HETATM    4  C   UNL     1     -10.540  11.052  69.549  1.00  0.00    -0.182 A  
HETATM    5  C   UNL     1     -11.138   7.930  71.250  1.00  0.00    -0.278 C  
HETATM    6  C   UNL     1     -11.160   9.120  70.621  1.00  0.00    -0.320 C  
HETATM    7  C   UNL     1      -9.750  11.927  68.817  1.00  0.00    -0.051 A  
HETATM    8  C   UNL     1      -8.617  11.412  68.195  1.00  0.00    -0.153 A  
HETATM    9  C   UNL     1     -10.167   9.702  69.707  1.00  0.00    -0.262 A  
HETATM   10  C   UNL     1      -9.072   9.183  69.034  1.00  0.00    -0.143 A  
HETATM   11  F   UNL     1      -7.826  12.235  67.494  1.00  0.00    -0.126 F  
HETATM   12  C   UNL     1      -8.291  10.054  68.268  1.00  0.00    -0.110 A  
ENDROOT
BRANCH   3  13
HETATM   13  C   UNL     1     -12.574  12.591  70.061  1.00  0.00     0.109 C  
HETATM   14  O   UNL     1     -12.555  12.807  72.503  1.00  0.00     0.142 OA 
HETATM   15  C   UNL     1     -12.818  13.412  71.320  1.00  0.00    -0.323 C  
HETATM   16  O   UNL     1     -13.260  14.553  71.279  1.00  0.00    -0.332 OA 
ENDBRANCH   3  13
BRANCH   5  17
HETATM   17  C   UNL     1     -10.116   6.876  71.201  1.00  0.00    -0.204 A  
HETATM   18  C   UNL     1      -8.770   7.193  70.982  1.00  0.00    -0.141 A  
HETATM   19  C   UNL     1      -7.785   6.192  71.011  1.00  0.00    -0.102 A  
HETATM   20  C   UNL     1      -8.135   4.861  71.271  1.00  0.00    -0.105 A  
HETATM   21  C   UNL     1      -9.485   4.551  71.481  1.00  0.00    -0.214 A  
HETATM   22  C   UNL     1     -10.468   5.548  71.448  1.00  0.00    -0.305 A  
BRANCH  20  23
HETATM   23  S   UNL     1      -6.906   3.530  71.208  1.00  0.00    -0.032 S  
HETATM   24  C   UNL     1      -5.434   4.466  70.737  1.00  0.00    -0.008 C  
HETATM   25  O   UNL     1      -6.714   3.083  72.629  1.00  0.00    -0.021 OA 
ENDBRANCH  20  23
ENDBRANCH   5  17
TORSDOF 3
ENDMDL
MODEL       97
REMARK 921   NORMALIZED FREE ENERGY PREDICTED BY IDOCK:   -2.36 KCAL/MOL
REMARK 922        TOTAL FREE ENERGY PREDICTED BY IDOCK:   -3.72 KCAL/MOL
REMARK 923 INTER-LIGAND FREE ENERGY PREDICTED BY IDOCK:   -2.76 KCAL/MOL
REMARK 924 INTRA-LIGAND FREE ENERGY PREDICTED BY IDOCK:   -0.97 KCAL/MOL
REMARK 927      BINDING AFFINITY PREDICTED BY RF-SCORE:    0.00 PKD
ROOT
HETATM    1  C   UNL     1      -7.310   9.092  70.309  1.00  0.00    -0.090 C  
HETATM    2  C   UNL     1      -6.970   9.282  68.867  1.00  0.00    -0.064 C  
HETATM    3  C   UNL     1      -6.265  10.291  68.303  1.00  0.00    -0.048 C  
HETATM    4  C   UNL     1      -6.276  10.076  66.845  1.00  0.00    -0.064 A  
HETATM    5  C   UNL     1      -8.002   7.155  68.064  1.00  0.00    -0.119 C  
HETATM    6  C   UNL     1      -7.434   8.350  67.818  1.00  0.00    -0.098 C  
HETATM    7  C   UNL     1      -5.674  10.826  65.845  1.00  0.00    -0.145 A  
HETATM    8  C   UNL     1      -5.930  10.471  64.524  1.00  0.00    -0.058 A  
HETATM    9  C   UNL     1      -7.067   8.953  66.529  1.00  0.00    -0.084 A  
HETATM   10  C   UNL     1      -7.368   8.643  65.212  1.00  0.00    -0.085 A  
HETATM   11  F   UNL     1      -5.352  11.167  63.536  1.00  0.00    -0.154 F  
HETATM   12  C   UNL     1      -6.790   9.416  64.201  1.00  0.00    -0.095 A  
ENDROOT
BRANCH   3  13
HETATM   13  C   UNL     1      -5.662  11.512  68.926  1.00  0.00    -0.046 C  
HETATM   14  O   UNL     1      -7.780  12.678  68.521  1.00  0.00    -0.132 OA 
HETATM   15  C   UNL     1      -6.570  12.718  69.127  1.00  0.00    -0.101 C  
HETATM   16  O   UNL     1      -6.222  13.695  69.778  1.00  0.00    -0.118 OA 
ENDBRANCH   3  13
BRANCH   5  17
HETATM   17  C   UNL     1      -8.415   6.114  67.114  1.00  0.00    -0.104 A  
HETATM   18  C   UNL     1      -7.466   5.287  66.500  1.00  0.00    -0.087 A  
HETATM   19  C   UNL     1      -7.869   4.244  65.650  1.00  0.00    -0.094 A  
HETATM   20  C   UNL     1      -9.229   4.008  65.414  1.00  0.00    -0.150 A  
HETATM   21  C   UNL     1     -10.172   4.844  66.026  1.00  0.00    -0.287 A  
HETATM   22  C   UNL     1      -9.771   5.888  66.869  1.00  0.00    -0.168 A  
BRANCH  20  23
HETATM   23  S   UNL     1      -9.779   2.742  64.238  1.00  0.00    -0.116 S  
HETATM   24  C   UNL     1     -10.721   3.759  63.079  1.00  0.00    -0.167 C  
HETATM   25  O   UNL     1      -8.541   2.282  63.523  1.00  0.00    -0.084 OA 
ENDBRANCH  20  23
ENDBRANCH   5  17
TORSDOF 3
ENDMDL
MODEL       98
REMARK 921   NORMALIZED FREE ENERGY PREDICTED BY IDOCK:   -2.35 KCAL/MOL
REMARK 922        TOTAL FREE ENERGY PREDICTED BY IDOCK:   -3.71 KCAL/MOL
REMARK 923 INTER-LIGAND FREE ENERGY PREDICTED BY IDOCK:   -3.45 KCAL/MOL
REMARK 924 INTRA-LIGAND FREE ENERGY PREDICTED BY IDOCK:   -0.26 KCAL/MOL
REMARK 927      BINDING AFFINITY PREDICTED BY RF-SCORE:    0.00 PKD
ROOT
HETATM    1  C   UNL     1     -10.734  11.916  65.458  1.00  0.00    -0.329 C  
HETATM    2  C   UNL     1      -9.779  12.328  66.531  1.00  0.00    -0.242 C  
HETATM    3  C   UNL     1      -9.565  13.571  67.023  1.00  0.00    -0.248 C  
HETATM    4  C   UNL     1      -8.468  13.475  68.002  1.00  0.00    -0.176 A  
HETATM    5  C   UNL     1      -8.956  10.030  67.056  1.00  0.00    -0.152 C  
HETATM    6  C   UNL     1      -8.870  11.367  67.189  1.00  0.00    -0.156 C  
HETATM    7  C   UNL     1      -7.903  14.471  68.785  1.00  0.00    -0.145 A  
HETATM    8  C   UNL     1      -6.794  14.140  69.557  1.00  0.00    -0.084 A  
HETATM    9  C   UNL     1      -7.970  12.157  68.040  1.00  0.00    -0.152 A  
HETATM   10  C   UNL     1      -6.827  11.849  68.763  1.00  0.00    -0.093 A  
HETATM   11  F   UNL     1      -6.236  15.077  70.335  1.00  0.00    -0.145 F  
HETATM   12  C   UNL     1      -6.236  12.858  69.528  1.00  0.00    -0.118 A  
ENDROOT
BRANCH   3  13
HETATM   13  C   UNL     1     -10.169  14.882  66.626  1.00  0.00    -0.264 C  
HETATM   14  O   UNL     1      -7.925  15.651  66.009  1.00  0.00     0.308 OA 
HETATM   15  C   UNL     1      -9.254  15.908  65.971  1.00  0.00    -0.337 C  
HETATM   16  O   UNL     1      -9.684  16.934  65.460  1.00  0.00    -0.541 OA 
ENDBRANCH   3  13
BRANCH   5  17
HETATM   17  C   UNL     1      -8.175   8.982  67.727  1.00  0.00    -0.109 A  
HETATM   18  C   UNL     1      -7.115   8.347  67.068  1.00  0.00    -0.079 A  
HETATM   19  C   UNL     1      -6.323   7.398  67.737  1.00  0.00    -0.048 A  
HETATM   20  C   UNL     1      -6.575   7.084  69.078  1.00  0.00    -0.048 A  
HETATM   21  C   UNL     1      -7.643   7.718  69.727  1.00  0.00    -0.091 A  
HETATM   22  C   UNL     1      -8.436   8.659  69.059  1.00  0.00    -0.124 A  
BRANCH  20  23
HETATM   23  S   UNL     1      -5.644   5.787  69.937  1.00  0.00    -0.009 S  
HETATM   24  C   UNL     1      -6.518   5.749  71.517  1.00  0.00    -0.049 C  
HETATM   25  O   UNL     1      -5.966   4.508  69.218  1.00  0.00    -0.020 OA 
ENDBRANCH  20  23
ENDBRANCH   5  17
TORSDOF 3
ENDMDL
MODEL       99
REMARK 921   NORMALIZED FREE ENERGY PREDICTED BY IDOCK:   -2.30 KCAL/MOL
REMARK 922        TOTAL FREE ENERGY PREDICTED BY IDOCK:   -3.65 KCAL/MOL
REMARK 923 INTER-LIGAND FREE ENERGY PREDICTED BY IDOCK:   -2.92 KCAL/MOL
REMARK 924 INTRA-LIGAND FREE ENERGY PREDICTED BY IDOCK:   -0.73 KCAL/MOL
REMARK 927      BINDING AFFINITY PREDICTED BY RF-SCORE:    0.00 PKD
ROOT
HETATM    1  C   UNL     1     -10.498  10.203  71.041  1.00  0.00     0.326 C  
HETATM    2  C   UNL     1     -10.301  10.099  69.564  1.00  0.00    -0.263 C  
HETATM    3  C   UNL     1     -10.500  11.056  68.627  1.00  0.00    -0.214 C  
HETATM    4  C   UNL     1     -10.255  10.444  67.310  1.00  0.00    -0.258 A  
HETATM    5  C   UNL     1      -9.432   7.759  69.572  1.00  0.00    -0.160 C  
HETATM    6  C   UNL     1      -9.881   8.842  68.911  1.00  0.00    -0.183 C  
HETATM    7  C   UNL     1     -10.310  11.022  66.051  1.00  0.00    -0.311 A  
HETATM    8  C   UNL     1     -10.142  10.192  64.947  1.00  0.00    -0.207 A  
HETATM    9  C   UNL     1      -9.973   9.071  67.463  1.00  0.00    -0.262 A  
HETATM   10  C   UNL     1      -9.869   8.239  66.358  1.00  0.00    -0.283 A  
HETATM   11  F   UNL     1     -10.175  10.725  63.718  1.00  0.00    -0.349 F  
HETATM   12  C   UNL     1      -9.956   8.813  65.086  1.00  0.00     1.071 A  
ENDROOT
BRANCH   3  13
HETATM   13  C   UNL     1     -11.004  12.459  68.774  1.00  0.00    -0.287 C  
HETATM   14  O   UNL     1      -8.783  13.252  68.104  1.00  0.00    -0.169 OA 
HETATM   15  C   UNL     1     -10.071  13.587  68.355  1.00  0.00    -0.240 C  
HETATM   16  O   UNL     1     -10.447  14.750  68.276  1.00  0.00    -0.233 OA 
ENDBRANCH   3  13
BRANCH   5  17
HETATM   17  C   UNL     1      -8.904   6.499  69.032  1.00  0.00    -0.130 A  
HETATM   18  C   UNL     1      -7.524   6.291  68.915  1.00  0.00    -0.087 A  
HETATM   19  C   UNL     1      -7.022   5.057  68.469  1.00  0.00    -0.057 A  
HETATM   20  C   UNL     1      -7.895   4.012  68.146  1.00  0.00    -0.073 A  
HETATM   21  C   UNL     1      -9.274   4.230  68.257  1.00  0.00    -0.190 A  
HETATM   22  C   UNL     1      -9.776   5.461  68.697  1.00  0.00    -0.187 A  
BRANCH  20  23
HETATM   23  S   UNL     1      -7.285   2.446  67.464  1.00  0.00    -0.052 S  
HETATM   24  C   UNL     1      -8.456   2.201  66.110  1.00  0.00    -0.102 C  
HETATM   25  O   UNL     1      -5.952   2.761  66.848  1.00  0.00    -0.022 OA 
ENDBRANCH  20  23
ENDBRANCH   5  17
TORSDOF 3
ENDMDL
MODEL      100
REMARK 921   NORMALIZED FREE ENERGY PREDICTED BY IDOCK:   -1.98 KCAL/MOL
REMARK 922        TOTAL FREE ENERGY PREDICTED BY IDOCK:   -3.27 KCAL/MOL
REMARK 923 INTER-LIGAND FREE ENERGY PREDICTED BY IDOCK:   -2.84 KCAL/MOL
REMARK 924 INTRA-LIGAND FREE ENERGY PREDICTED BY IDOCK:   -0.43 KCAL/MOL
REMARK 927      BINDING AFFINITY PREDICTED BY RF-SCORE:    0.00 PKD
ROOT
HETATM    1  C   UNL     1      -6.945   7.811  64.221  1.00  0.00    -0.068 C  
HETATM    2  C   UNL     1      -7.958   8.239  65.232  1.00  0.00    -0.128 C  
HETATM    3  C   UNL     1      -9.041   9.029  65.043  1.00  0.00    -0.171 C  
HETATM    4  C   UNL     1      -9.676   9.230  66.357  1.00  0.00    -0.325 A  
HETATM    5  C   UNL     1      -7.005   6.937  67.137  1.00  0.00    -0.074 C  
HETATM    6  C   UNL     1      -7.860   7.858  66.656  1.00  0.00    -0.102 C  
HETATM    7  C   UNL     1     -10.823   9.943  66.676  1.00  0.00    -0.031 A  
HETATM    8  C   UNL     1     -11.153  10.072  68.022  1.00  0.00    -0.201 A  
HETATM    9  C   UNL     1      -8.912   8.604  67.362  1.00  0.00    -0.144 A  
HETATM   10  C   UNL     1      -9.212   8.789  68.703  1.00  0.00    -0.141 A  
HETATM   11  F   UNL     1     -12.263  10.743  68.360  1.00  0.00    -0.276 F  
HETATM   12  C   UNL     1     -10.348   9.535  69.031  1.00  0.00    -0.219 A  
ENDROOT
BRANCH   3  13
HETATM   13  C   UNL     1      -9.520   9.729  63.809  1.00  0.00    -0.064 C  
HETATM   14  O   UNL     1      -9.117  11.862  64.948  1.00  0.00     0.123 OA 
HETATM   15  C   UNL     1      -9.415  11.248  63.779  1.00  0.00    -0.204 C  
HETATM   16  O   UNL     1      -9.617  11.896  62.759  1.00  0.00    -0.307 OA 
ENDBRANCH   3  13
BRANCH   5  17
HETATM   17  C   UNL     1      -6.882   6.414  68.505  1.00  0.00    -0.071 A  
HETATM   18  C   UNL     1      -5.922   6.929  69.384  1.00  0.00    -0.019 A  
HETATM   19  C   UNL     1      -5.855   6.479  70.714  1.00  0.00    -0.027 A  
HETATM   20  C   UNL     1      -6.758   5.518  71.182  1.00  0.00    -0.052 A  
HETATM   21  C   UNL     1      -7.711   5.002  70.294  1.00  0.00    -0.067 A  
HETATM   22  C   UNL     1      -7.774   5.445  68.967  1.00  0.00    -0.089 A  
BRANCH  20  23
HETATM   23  S   UNL     1      -6.631   4.837  72.858  1.00  0.00    -0.054 S  
HETATM   24  C   UNL     1      -5.371   5.926  73.558  1.00  0.00    -0.024 C  
HETATM   25  O   UNL     1      -7.931   5.169  73.533  1.00  0.00    -0.108 OA 
ENDBRANCH  20  23
ENDBRANCH   5  17
TORSDOF 3
ENDMDL
MODEL      101
REMARK 921   NORMALIZED FREE ENERGY PREDICTED BY IDOCK:   -0.86 KCAL/MOL
REMARK 922        TOTAL FREE ENERGY PREDICTED BY IDOCK:   -1.96 KCAL/MOL
REMARK 923 INTER-LIGAND FREE ENERGY PREDICTED BY IDOCK:   -0.96 KCAL/MOL
REMARK 924 INTRA-LIGAND FREE ENERGY PREDICTED BY IDOCK:   -1.00 KCAL/MOL
REMARK 927      BINDING AFFINITY PREDICTED BY RF-SCORE:    0.00 PKD
ROOT
HETATM    1  C   UNL     1      -7.507  12.185  65.256  1.00  0.00     2.940 C  
HETATM    2  C   UNL     1      -8.469  11.846  66.347  1.00  0.00    -0.039 C  
HETATM    3  C   UNL     1      -9.548  12.554  66.757  1.00  0.00    -0.231 C  
HETATM    4  C   UNL     1     -10.123  11.853  67.918  1.00  0.00    -0.199 A  
HETATM    5  C   UNL     1      -7.454   9.640  66.927  1.00  0.00    -0.091 C  
HETATM    6  C   UNL     1      -8.316  10.640  67.188  1.00  0.00    -0.125 C  
HETATM    7  C   UNL     1     -11.244  12.174  68.669  1.00  0.00    -0.318 A  
HETATM    8  C   UNL     1     -11.514  11.403  69.795  1.00  0.00    -0.300 A  
HETATM    9  C   UNL     1      -9.325  10.739  68.252  1.00  0.00    -0.161 A  
HETATM   10  C   UNL     1      -9.564  10.014  69.409  1.00  0.00    -0.237 A  
HETATM   11  F   UNL     1     -12.598  11.680  70.532  1.00  0.00    -0.363 F  
HETATM   12  C   UNL     1     -10.674  10.356  70.187  1.00  0.00    -0.292 A  
ENDROOT
BRANCH   3  13
HETATM   13  C   UNL     1     -10.069  13.876  66.284  1.00  0.00    -0.306 C  
HETATM   14  O   UNL     1      -8.555  14.963  67.876  1.00  0.00    -0.152 OA 
HETATM   15  C   UNL     1      -9.403  15.130  66.834  1.00  0.00    -0.234 C  
HETATM   16  O   UNL     1      -9.639  16.245  66.384  1.00  0.00    -0.254 OA 
ENDBRANCH   3  13
BRANCH   5  17
HETATM   17  C   UNL     1      -7.279   8.362  67.631  1.00  0.00    -0.088 A  
HETATM   18  C   UNL     1      -7.926   7.203  67.184  1.00  0.00    -0.110 A  
HETATM   19  C   UNL     1      -7.698   5.968  67.814  1.00  0.00    -0.101 A  
HETATM   20  C   UNL     1      -6.810   5.876  68.891  1.00  0.00    -0.066 A  
HETATM   21  C   UNL     1      -6.172   7.042  69.338  1.00  0.00    -0.034 A  
HETATM   22  C   UNL     1      -6.403   8.274  68.714  1.00  0.00    -0.049 A  
BRANCH  20  23
HETATM   23  S   UNL     1      -6.576   4.322  69.795  1.00  0.00    -0.034 S  
HETATM   24  C   UNL     1      -7.371   4.733  71.364  1.00  0.00    -0.068 C  
HETATM   25  O   UNL     1      -7.449   3.313  69.105  1.00  0.00    -0.048 OA 
ENDBRANCH  20  23
ENDBRANCH   5  17
TORSDOF 3
ENDMDL
MODEL      102
REMARK 921   NORMALIZED FREE ENERGY PREDICTED BY IDOCK:   -0.04 KCAL/MOL
REMARK 922        TOTAL FREE ENERGY PREDICTED BY IDOCK:   -1.00 KCAL/MOL
REMARK 923 INTER-LIGAND FREE ENERGY PREDICTED BY IDOCK:   -0.36 KCAL/MOL
REMARK 924 INTRA-LIGAND FREE ENERGY PREDICTED BY IDOCK:   -0.64 KCAL/MOL
REMARK 927      BINDING AFFINITY PREDICTED BY RF-SCORE:    0.00 PKD
ROOT
HETATM    1  C   UNL     1      -7.012  14.546  69.787  1.00  0.00    -0.095 C  
HETATM    2  C   UNL     1      -8.273  14.155  69.089  1.00  0.00     0.161 C  
HETATM    3  C   UNL     1      -9.425  14.860  68.991  1.00  0.00    -0.196 C  
HETATM    4  C   UNL     1     -10.401  14.016  68.282  1.00  0.00    -0.247 A  
HETATM    5  C   UNL     1      -7.420  11.990  68.183  1.00  0.00    -0.112 C  
HETATM    6  C   UNL     1      -8.431  12.847  68.420  1.00  0.00    -0.115 C  
HETATM    7  C   UNL     1     -11.710  14.303  67.922  1.00  0.00    -0.394 A  
HETATM    8  C   UNL     1     -12.465  13.283  67.350  1.00  0.00     0.209 A  
HETATM    9  C   UNL     1      -9.840  12.750  68.015  1.00  0.00    -0.226 A  
HETATM   10  C   UNL     1     -10.616  11.721  67.503  1.00  0.00    -0.247 A  
HETATM   11  F   UNL     1     -13.727  13.535  66.979  1.00  0.00     2.736 F  
HETATM   12  C   UNL     1     -11.945  11.998  67.169  1.00  0.00    -0.105 A  
ENDROOT
BRANCH   3  13
HETATM   13  C   UNL     1      -9.792  16.192  69.570  1.00  0.00    -0.198 C  
HETATM   14  O   UNL     1      -8.694  17.250  67.650  1.00  0.00    -0.215 OA 
HETATM   15  C   UNL     1      -9.482  17.428  68.737  1.00  0.00    -0.256 C  
HETATM   16  O   UNL     1      -9.894  18.540  69.043  1.00  0.00    -0.358 OA 
ENDBRANCH   3  13
BRANCH   5  17
HETATM   17  C   UNL     1      -7.438  10.717  67.452  1.00  0.00    -0.094 A  
HETATM   18  C   UNL     1      -7.085   9.520  68.088  1.00  0.00    -0.079 A  
HETATM   19  C   UNL     1      -7.176   8.294  67.407  1.00  0.00    -0.084 A  
HETATM   20  C   UNL     1      -7.634   8.250  66.085  1.00  0.00    -0.085 A  
HETATM   21  C   UNL     1      -7.978   9.452  65.453  1.00  0.00    -0.105 A  
HETATM   22  C   UNL     1      -7.882  10.675  66.129  1.00  0.00    -0.152 A  
BRANCH  20  23
HETATM   23  S   UNL     1      -7.660   6.701  65.144  1.00  0.00    -0.097 S  
HETATM   24  C   UNL     1      -8.731   5.696  66.197  1.00  0.00    -0.136 C  
HETATM   25  O   UNL     1      -8.425   6.999  63.886  1.00  0.00     0.127 OA 
ENDBRANCH  20  23
ENDBRANCH   5  17
TORSDOF 3
ENDMDL
MODEL      103
REMARK 921   NORMALIZED FREE ENERGY PREDICTED BY IDOCK:    0.43 KCAL/MOL
REMARK 922        TOTAL FREE ENERGY PREDICTED BY IDOCK:   -0.44 KCAL/MOL
REMARK 923 INTER-LIGAND FREE ENERGY PREDICTED BY IDOCK:   -0.11 KCAL/MOL
REMARK 924 INTRA-LIGAND FREE ENERGY PREDICTED BY IDOCK:   -0.34 KCAL/MOL
REMARK 927      BINDING AFFINITY PREDICTED BY RF-SCORE:    0.00 PKD
ROOT
HETATM    1  C   UNL     1      -6.925  14.596  69.915  1.00  0.00    -0.099 C  
HETATM    2  C   UNL     1      -7.900  13.620  69.340  1.00  0.00     0.497 C  
HETATM    3  C   UNL     1      -9.058  13.885  68.690  1.00  0.00    -0.085 C  
HETATM    4  C   UNL     1      -9.704  12.594  68.397  1.00  0.00    -0.187 A  
HETATM    5  C   UNL     1      -6.589  11.570  69.896  1.00  0.00    -0.059 C  
HETATM    6  C   UNL     1      -7.719  12.159  69.465  1.00  0.00     0.709 C  
HETATM    7  C   UNL     1     -10.894  12.341  67.730  1.00  0.00    -0.256 A  
HETATM    8  C   UNL     1     -11.345  11.026  67.681  1.00  0.00    -0.281 A  
HETATM    9  C   UNL     1      -8.948  11.540  68.950  1.00  0.00     0.029 A  
HETATM   10  C   UNL     1      -9.434  10.241  68.952  1.00  0.00    -0.190 A  
HETATM   11  F   UNL     1     -12.483  10.749  67.031  1.00  0.00     1.342 F  
HETATM   12  C   UNL     1     -10.649   9.988  68.309  1.00  0.00    -0.264 A  
ENDROOT
BRANCH   3  13
HETATM   13  C   UNL     1      -9.719  15.195  68.392  1.00  0.00    -0.212 C  
HETATM   14  O   UNL     1      -8.567  15.204  66.228  1.00  0.00    -0.203 OA 
HETATM   15  C   UNL     1      -9.513  15.785  67.004  1.00  0.00    -0.223 C  
HETATM   16  O   UNL     1     -10.144  16.757  66.608  1.00  0.00    -0.278 OA 
ENDBRANCH   3  13
BRANCH   5  17
HETATM   17  C   UNL     1      -6.263  10.139  69.973  1.00  0.00    -0.076 A  
HETATM   18  C   UNL     1      -5.736   9.587  71.147  1.00  0.00    -0.068 A  
HETATM   19  C   UNL     1      -5.496   8.206  71.244  1.00  0.00    -0.033 A  
HETATM   20  C   UNL     1      -5.792   7.359  70.169  1.00  0.00    -0.024 A  
HETATM   21  C   UNL     1      -6.312   7.920  68.995  1.00  0.00    -0.036 A  
HETATM   22  C   UNL     1      -6.546   9.298  68.896  1.00  0.00    -0.048 A  
BRANCH  20  23
HETATM   23  S   UNL     1      -5.393   5.591  70.220  1.00  0.00    -0.005 S  
HETATM   24  C   UNL     1      -6.364   5.079  71.655  1.00  0.00    -0.030 C  
HETATM   25  O   UNL     1      -6.043   4.991  69.006  1.00  0.00    -0.026 OA 
ENDBRANCH  20  23
ENDBRANCH   5  17
TORSDOF 3
ENDMDL
MODEL      104
REMARK 921   NORMALIZED FREE ENERGY PREDICTED BY IDOCK:    2.38 KCAL/MOL
REMARK 922        TOTAL FREE ENERGY PREDICTED BY IDOCK:    1.85 KCAL/MOL
REMARK 923 INTER-LIGAND FREE ENERGY PREDICTED BY IDOCK:    1.01 KCAL/MOL
REMARK 924 INTRA-LIGAND FREE ENERGY PREDICTED BY IDOCK:    0.84 KCAL/MOL
REMARK 927      BINDING AFFINITY PREDICTED BY RF-SCORE:    0.00 PKD
ROOT
HETATM    1  C   UNL     1     -12.034   8.955  67.676  1.00  0.00     3.984 C  
HETATM    2  C   UNL     1     -10.579   9.092  67.366  1.00  0.00    -0.309 C  
HETATM    3  C   UNL     1      -9.885  10.226  67.114  1.00  0.00    -0.228 C  
HETATM    4  C   UNL     1      -8.505   9.834  66.778  1.00  0.00    -0.125 A  
HETATM    5  C   UNL     1     -10.021   6.671  67.613  1.00  0.00    -0.161 C  
HETATM    6  C   UNL     1      -9.684   7.922  67.248  1.00  0.00    -0.230 C  
HETATM    7  C   UNL     1      -7.417  10.637  66.468  1.00  0.00    -0.134 A  
HETATM    8  C   UNL     1      -6.237  10.010  66.077  1.00  0.00    -0.079 A  
HETATM    9  C   UNL     1      -8.394   8.429  66.760  1.00  0.00    -0.109 A  
HETATM   10  C   UNL     1      -7.236   7.812  66.311  1.00  0.00    -0.074 A  
HETATM   11  F   UNL     1      -5.166  10.758  65.785  1.00  0.00    -0.062 F  
HETATM   12  C   UNL     1      -6.148   8.619  65.965  1.00  0.00    -0.048 A  
ENDROOT
BRANCH   3  13
HETATM   13  C   UNL     1     -10.354  11.646  67.029  1.00  0.00    -0.248 C  
HETATM   14  O   UNL     1      -8.871  12.174  68.908  1.00  0.00     0.048 OA 
HETATM   15  C   UNL     1      -9.677  12.664  67.936  1.00  0.00    -0.216 C  
HETATM   16  O   UNL     1      -9.868  13.868  67.822  1.00  0.00    -0.226 OA 
ENDBRANCH   3  13
BRANCH   5  17
HETATM   17  C   UNL     1      -9.193   5.458  67.629  1.00  0.00    -0.116 A  
HETATM   18  C   UNL     1      -9.771   4.193  67.463  1.00  0.00    -0.185 A  
HETATM   19  C   UNL     1      -8.969   3.042  67.404  1.00  0.00    -0.187 A  
HETATM   20  C   UNL     1      -7.576   3.143  67.497  1.00  0.00    -0.065 A  
HETATM   21  C   UNL     1      -7.005   4.411  67.671  1.00  0.00    -0.060 A  
HETATM   22  C   UNL     1      -7.805   5.559  67.736  1.00  0.00    -0.097 A  
BRANCH  20  23
HETATM   23  S   UNL     1      -6.521   1.669  67.534  1.00  0.00    -0.024 S  
HETATM   24  C   UNL     1      -5.324   2.093  66.248  1.00  0.00    -0.012 C  
HETATM   25  O   UNL     1      -5.797   1.718  68.849  1.00  0.00    -0.021 OA 
ENDBRANCH  20  23
ENDBRANCH   5  17
TORSDOF 3
ENDMDL
MODEL      105
REMARK 921   NORMALIZED FREE ENERGY PREDICTED BY IDOCK:    2.52 KCAL/MOL
REMARK 922        TOTAL FREE ENERGY PREDICTED BY IDOCK:    2.01 KCAL/MOL
REMARK 923 INTER-LIGAND FREE ENERGY PREDICTED BY IDOCK:    2.58 KCAL/MOL
REMARK 924 INTRA-LIGAND FREE ENERGY PREDICTED BY IDOCK:   -0.56 KCAL/MOL
REMARK 927      BINDING AFFINITY PREDICTED BY RF-SCORE:    0.00 PKD
ROOT
HETATM    1  C   UNL     1      -9.183  11.151  71.071  1.00  0.00     6.038 C  
HETATM    2  C   UNL     1      -9.346   9.959  70.186  1.00  0.00    -0.200 C  
HETATM    3  C   UNL     1      -9.219   9.898  68.839  1.00  0.00    -0.160 C  
HETATM    4  C   UNL     1      -9.562   8.526  68.424  1.00  0.00    -0.157 A  
HETATM    5  C   UNL     1      -9.762   8.316  72.018  1.00  0.00    -0.322 C  
HETATM    6  C   UNL     1      -9.734   8.633  70.711  1.00  0.00    -0.237 C  
HETATM    7  C   UNL     1      -9.560   7.968  67.154  1.00  0.00    -0.227 A  
HETATM    8  C   UNL     1     -10.036   6.668  67.015  1.00  0.00    -0.169 A  
HETATM    9  C   UNL     1      -9.972   7.773  69.544  1.00  0.00    -0.187 A  
HETATM   10  C   UNL     1     -10.503   6.501  69.389  1.00  0.00    -0.262 A  
HETATM   11  F   UNL     1     -10.032   6.098  65.803  1.00  0.00    -0.024 F  
HETATM   12  C   UNL     1     -10.533   5.948  68.106  1.00  0.00    -0.291 A  
ENDROOT
BRANCH   3  13
HETATM   13  C   UNL     1      -8.926  10.982  67.848  1.00  0.00    -0.144 C  
HETATM   14  O   UNL     1      -6.636  10.121  67.689  1.00  0.00    -0.066 OA 
HETATM   15  C   UNL     1      -7.560  10.967  67.175  1.00  0.00    -0.109 C  
HETATM   16  O   UNL     1      -7.289  11.702  66.234  1.00  0.00     0.035 OA 
ENDBRANCH   3  13
BRANCH   5  17
HETATM   17  C   UNL     1     -10.039   7.018  72.649  1.00  0.00    -0.204 A  
HETATM   18  C   UNL     1     -11.275   6.385  72.473  1.00  0.00    -0.307 A  
HETATM   19  C   UNL     1     -11.510   5.110  73.015  1.00  0.00    -0.349 A  
HETATM   20  C   UNL     1     -10.505   4.449  73.730  1.00  0.00    -0.217 A  
HETATM   21  C   UNL     1      -9.273   5.092  73.910  1.00  0.00    -0.124 A  
HETATM   22  C   UNL     1      -9.040   6.365  73.374  1.00  0.00    -0.136 A  
BRANCH  20  23
HETATM   23  S   UNL     1     -10.810   2.853  74.535  1.00  0.00     0.216 S  
HETATM   24  C   UNL     1     -12.201   2.251  73.551  1.00  0.00     0.253 C  
HETATM   25  O   UNL     1      -9.624   1.994  74.202  1.00  0.00    -0.074 OA 
ENDBRANCH  20  23
ENDBRANCH   5  17
TORSDOF 3
ENDMDL
MODEL      106
REMARK 921   NORMALIZED FREE ENERGY PREDICTED BY IDOCK:    5.05 KCAL/MOL
REMARK 922        TOTAL FREE ENERGY PREDICTED BY IDOCK:    4.99 KCAL/MOL
REMARK 923 INTER-LIGAND FREE ENERGY PREDICTED BY IDOCK:    4.97 KCAL/MOL
REMARK 924 INTRA-LIGAND FREE ENERGY PREDICTED BY IDOCK:    0.02 KCAL/MOL
REMARK 927      BINDING AFFINITY PREDICTED BY RF-SCORE:    0.00 PKD
ROOT
HETATM    1  C   UNL     1     -11.770  12.384  70.014  1.00  0.00    -0.307 C  
HETATM    2  C   UNL     1     -11.266  11.025  70.374  1.00  0.00    -0.102 C  
HETATM    3  C   UNL     1     -11.471  10.338  71.523  1.00  0.00     0.045 C  
HETATM    4  C   UNL     1     -10.699   9.086  71.433  1.00  0.00    -0.401 A  
HETATM    5  C   UNL     1     -10.150  10.563  68.189  1.00  0.00    -0.180 C  
HETATM    6  C   UNL     1     -10.394  10.243  69.474  1.00  0.00    -0.267 C  
HETATM    7  C   UNL     1     -10.604   8.047  72.347  1.00  0.00    -0.373 A  
HETATM    8  C   UNL     1      -9.712   7.016  72.069  1.00  0.00    -0.155 A  
HETATM    9  C   UNL     1      -9.961   9.061  70.232  1.00  0.00    -0.229 A  
HETATM   10  C   UNL     1      -9.028   8.063  69.991  1.00  0.00    -0.144 A  
HETATM   11  F   UNL     1      -9.610   5.992  72.926  1.00  0.00    -0.153 F  
HETATM   12  C   UNL     1      -8.906   7.031  70.925  1.00  0.00    -0.148 A  
ENDROOT
BRANCH   3  13
HETATM   13  C   UNL     1     -12.206  10.734  72.766  1.00  0.00     3.353 C  
HETATM   14  O   UNL     1     -14.092  11.405  71.350  1.00  0.00     1.124 OA 
HETATM   15  C   UNL     1     -13.655  11.179  72.612  1.00  0.00     1.052 C  
HETATM   16  O   UNL     1     -14.388  11.358  73.576  1.00  0.00     3.012 OA 
ENDBRANCH   3  13
BRANCH   5  17
HETATM   17  C   UNL     1      -9.383   9.820  67.180  1.00  0.00    -0.169 A  
HETATM   18  C   UNL     1      -8.100  10.237  66.806  1.00  0.00    -0.121 A  
HETATM   19  C   UNL     1      -7.339   9.483  65.897  1.00  0.00    -0.097 A  
HETATM   20  C   UNL     1      -7.849   8.295  65.361  1.00  0.00    -0.113 A  
HETATM   21  C   UNL     1      -9.138   7.888  65.734  1.00  0.00    -0.084 A  
HETATM   22  C   UNL     1      -9.899   8.642  66.636  1.00  0.00    -0.336 A  
BRANCH  20  23
HETATM   23  S   UNL     1      -6.940   7.357  64.104  1.00  0.00    -0.060 S  
HETATM   24  C   UNL     1      -6.734   5.778  64.959  1.00  0.00    -0.047 C  
HETATM   25  O   UNL     1      -7.911   7.131  62.980  1.00  0.00    -0.126 OA 
ENDBRANCH  20  23
ENDBRANCH   5  17
TORSDOF 3
ENDMDL
MODEL      107
REMARK 921   NORMALIZED FREE ENERGY PREDICTED BY IDOCK:    7.04 KCAL/MOL
REMARK 922        TOTAL FREE ENERGY PREDICTED BY IDOCK:    7.32 KCAL/MOL
REMARK 923 INTER-LIGAND FREE ENERGY PREDICTED BY IDOCK:    6.05 KCAL/MOL
REMARK 924 INTRA-LIGAND FREE ENERGY PREDICTED BY IDOCK:    1.27 KCAL/MOL
REMARK 927      BINDING AFFINITY PREDICTED BY RF-SCORE:    0.00 PKD
ROOT
HETATM    1  C   UNL     1      -6.065   8.105  63.747  1.00  0.00    -0.067 C  
HETATM    2  C   UNL     1      -7.356   8.246  64.486  1.00  0.00    -0.091 C  
HETATM    3  C   UNL     1      -8.333   9.163  64.288  1.00  0.00    -0.178 C  
HETATM    4  C   UNL     1      -9.359   8.944  65.322  1.00  0.00    -0.095 A  
HETATM    5  C   UNL     1      -7.046   6.251  65.954  1.00  0.00    -0.066 C  
HETATM    6  C   UNL     1      -7.715   7.370  65.620  1.00  0.00    -0.104 C  
HETATM    7  C   UNL     1     -10.558   9.613  65.522  1.00  0.00     0.665 A  
HETATM    8  C   UNL     1     -11.305   9.284  66.649  1.00  0.00     1.603 A  
HETATM    9  C   UNL     1      -8.948   7.920  66.200  1.00  0.00    -0.214 A  
HETATM   10  C   UNL     1      -9.666   7.641  67.352  1.00  0.00    -0.208 A  
HETATM   11  F   UNL     1     -12.474   9.903  66.861  1.00  0.00     3.528 F  
HETATM   12  C   UNL     1     -10.859   8.336  67.575  1.00  0.00    -0.094 A  
ENDROOT
BRANCH   3  13
HETATM   13  C   UNL     1      -8.400  10.308  63.326  1.00  0.00    -0.168 C  
HETATM   14  O   UNL     1      -9.269  11.698  65.148  1.00  0.00    -0.130 OA 
HETATM   15  C   UNL     1      -8.790  11.671  63.882  1.00  0.00     0.518 C  
HETATM   16  O   UNL     1      -8.708  12.695  63.216  1.00  0.00     1.598 OA 
ENDBRANCH   3  13
BRANCH   5  17
HETATM   17  C   UNL     1      -7.360   5.261  66.993  1.00  0.00    -0.083 A  
HETATM   18  C   UNL     1      -7.282   5.597  68.350  1.00  0.00    -0.075 A  
HETATM   19  C   UNL     1      -7.655   4.671  69.339  1.00  0.00    -0.055 A  
HETATM   20  C   UNL     1      -8.123   3.402  68.980  1.00  0.00    -0.060 A  
HETATM   21  C   UNL     1      -8.191   3.070  67.620  1.00  0.00    -0.087 A  
HETATM   22  C   UNL     1      -7.814   3.991  66.634  1.00  0.00    -0.093 A  
BRANCH  20  23
HETATM   23  S   UNL     1      -8.509   2.147  70.231  1.00  0.00    -0.046 S  
HETATM   24  C   UNL     1      -7.907   2.974  71.720  1.00  0.00    -0.053 C  
HETATM   25  O   UNL     1     -10.008   2.106  70.320  1.00  0.00     0.104 OA 
ENDBRANCH  20  23
ENDBRANCH   5  17
TORSDOF 3
ENDMDL
MODEL      108
REMARK 921   NORMALIZED FREE ENERGY PREDICTED BY IDOCK:    9.06 KCAL/MOL
REMARK 922        TOTAL FREE ENERGY PREDICTED BY IDOCK:    9.70 KCAL/MOL
REMARK 923 INTER-LIGAND FREE ENERGY PREDICTED BY IDOCK:    3.97 KCAL/MOL
REMARK 924 INTRA-LIGAND FREE ENERGY PREDICTED BY IDOCK:    5.73 KCAL/MOL
REMARK 927      BINDING AFFINITY PREDICTED BY RF-SCORE:    0.00 PKD
ROOT
HETATM    1  C   UNL     1      -8.394  19.725  67.868  1.00  0.00    -0.342 C  
HETATM    2  C   UNL     1      -8.123  18.409  68.520  1.00  0.00    -0.340 C  
HETATM    3  C   UNL     1      -7.520  18.177  69.711  1.00  0.00     0.681 C  
HETATM    4  C   UNL     1      -7.408  16.717  69.872  1.00  0.00     0.731 A  
HETATM    5  C   UNL     1      -9.232  17.009  66.776  1.00  0.00    -0.270 C  
HETATM    6  C   UNL     1      -8.466  17.124  67.876  1.00  0.00    -0.212 C  
HETATM    7  C   UNL     1      -6.885  15.991  70.932  1.00  0.00     1.773 A  
HETATM    8  C   UNL     1      -6.795  14.609  70.791  1.00  0.00     0.469 A  
HETATM    9  C   UNL     1      -7.891  16.066  68.719  1.00  0.00    -0.190 A  
HETATM   10  C   UNL     1      -7.741  14.697  68.559  1.00  0.00    -0.126 A  
HETATM   11  F   UNL     1      -6.308  13.880  71.803  1.00  0.00    -0.107 F  
HETATM   12  C   UNL     1      -7.184  13.965  69.612  1.00  0.00     0.233 A  
ENDROOT
BRANCH   3  13
HETATM   13  C   UNL     1      -6.920  19.138  70.690  1.00  0.00     1.006 C  
HETATM   14  O   UNL     1      -5.971  17.218  71.884  1.00  0.00     1.342 OA 
HETATM   15  C   UNL     1      -5.996  18.567  71.758  1.00  0.00     0.977 C  
HETATM   16  O   UNL     1      -5.327  19.282  72.492  1.00  0.00    -0.289 OA 
ENDBRANCH   3  13
BRANCH   5  17
HETATM   17  C   UNL     1      -9.711  15.794  66.105  1.00  0.00    -0.351 A  
HETATM   18  C   UNL     1     -10.480  15.875  64.937  1.00  0.00    -0.176 A  
HETATM   19  C   UNL     1     -10.874  14.711  64.257  1.00  0.00     0.196 A  
HETATM   20  C   UNL     1     -10.492  13.450  64.732  1.00  0.00    -0.403 A  
HETATM   21  C   UNL     1      -9.730  13.376  65.905  1.00  0.00    -0.197 A  
HETATM   22  C   UNL     1      -9.342  14.536  66.587  1.00  0.00    -0.301 A  
BRANCH  20  23
HETATM   23  S   UNL     1     -11.074  11.926  63.941  1.00  0.00    -0.447 S  
HETATM   24  C   UNL     1     -12.265  12.603  62.762  1.00  0.00     0.669 C  
HETATM   25  O   UNL     1      -9.909  11.406  63.148  1.00  0.00    -0.351 OA 
ENDBRANCH  20  23
ENDBRANCH   5  17
TORSDOF 3
ENDMDL
MODEL      109
REMARK 921   NORMALIZED FREE ENERGY PREDICTED BY IDOCK:   18.49 KCAL/MOL
REMARK 922        TOTAL FREE ENERGY PREDICTED BY IDOCK:   20.78 KCAL/MOL
REMARK 923 INTER-LIGAND FREE ENERGY PREDICTED BY IDOCK:   21.50 KCAL/MOL
REMARK 924 INTRA-LIGAND FREE ENERGY PREDICTED BY IDOCK:   -0.72 KCAL/MOL
REMARK 927      BINDING AFFINITY PREDICTED BY RF-SCORE:    0.00 PKD
ROOT
HETATM    1  C   UNL     1      -9.398  15.148  71.654  1.00  0.00     3.830 C  
HETATM    2  C   UNL     1      -8.720  14.452  70.519  1.00  0.00     2.407 C  
HETATM    3  C   UNL     1      -7.732  14.925  69.723  1.00  0.00     0.009 C  
HETATM    4  C   UNL     1      -7.462  13.902  68.698  1.00  0.00    -0.122 A  
HETATM    5  C   UNL     1      -9.930  12.283  70.770  1.00  0.00     6.326 C  
HETATM    6  C   UNL     1      -9.108  13.096  70.080  1.00  0.00     3.878 C  
HETATM    7  C   UNL     1      -6.526  13.912  67.675  1.00  0.00    -0.161 A  
HETATM    8  C   UNL     1      -6.547  12.860  66.765  1.00  0.00     0.951 A  
HETATM    9  C   UNL     1      -8.360  12.825  68.845  1.00  0.00     0.276 A  
HETATM   10  C   UNL     1      -8.417  11.812  67.899  1.00  0.00    -0.154 A  
HETATM   11  F   UNL     1      -5.645  12.835  65.774  1.00  0.00     2.259 F  
HETATM   12  C   UNL     1      -7.496  11.836  66.847  1.00  0.00    -0.106 A  
ENDROOT
BRANCH   3  13
HETATM   13  C   UNL     1      -7.064  16.265  69.709  1.00  0.00     0.101 C  
HETATM   14  O   UNL     1      -6.097  15.728  71.896  1.00  0.00     1.081 OA 
HETATM   15  C   UNL     1      -6.100  16.581  70.844  1.00  0.00     0.806 C  
HETATM   16  O   UNL     1      -5.379  17.571  70.832  1.00  0.00    -0.255 OA 
ENDBRANCH   3  13
BRANCH   5  17
HETATM   17  C   UNL     1     -10.311  10.894  70.483  1.00  0.00     1.135 A  
HETATM   18  C   UNL     1      -9.400   9.847  70.671  1.00  0.00     0.153 A  
HETATM   19  C   UNL     1      -9.790   8.513  70.468  1.00  0.00    -0.206 A  
HETATM   20  C   UNL     1     -11.103   8.209  70.086  1.00  0.00    -0.187 A  
HETATM   21  C   UNL     1     -12.007   9.262  69.893  1.00  0.00     0.381 A  
HETATM   22  C   UNL     1     -11.617  10.593  70.090  1.00  0.00    -0.414 A  
BRANCH  20  23
HETATM   23  S   UNL     1     -11.609   6.509  69.711  1.00  0.00    -0.205 S  
HETATM   24  C   UNL     1     -10.200   5.959  68.722  1.00  0.00    -0.189 C  
HETATM   25  O   UNL     1     -11.554   5.769  71.016  1.00  0.00    -0.093 OA 
ENDBRANCH  20  23
ENDBRANCH   5  17
TORSDOF 3
ENDMDL
